MODEL 1
REMARK minimizedAffinity -9.77443695
REMARK CNNscore 0.678380728
REMARK CNNaffinity 7.37806463
REMARK  13 active torsions:
REMARK  status: ('A' for Active; 'I' for Inactive)
REMARK    1  A    between atoms: C2_2  and  C3_3 
REMARK    2  A    between atoms: C3_3  and  C5_5 
REMARK    3  A    between atoms: C5_5  and  N1_6 
REMARK    4  A    between atoms: C5_5  and  C31_39 
REMARK       I    between atoms: N1_6  and  C6_7 
REMARK    5  A    between atoms: C6_7  and  C7_9 
REMARK    6  A    between atoms: C7_9  and  C8_10 
REMARK    7  A    between atoms: C8_10  and  C9_11 
REMARK    8  A    between atoms: C9_11  and  O3_13 
REMARK    9  A    between atoms: O3_13  and  C10_14 
REMARK   10  A    between atoms: C10_14  and  C11_15 
REMARK   11  A    between atoms: C11_15  and  C12_17 
REMARK   12  A    between atoms: C12_17  and  O5_18 
REMARK   13  A    between atoms: C31_39  and  O9_41 
ROOT
HETATM    1  C12 UNL     1      -6.703  49.535 -22.282  1.00  0.00     0.128 C 
HETATM    2  C13 UNL     1      -7.232  49.486 -20.832  1.00  0.00     0.047 C 
HETATM    3  C14 UNL     1      -6.069  49.946 -19.929  1.00  0.00     0.009 C 
HETATM    4  C15 UNL     1      -4.974  50.385 -20.897  1.00  0.00     0.002 C 
HETATM    5  C16 UNL     1      -3.525  50.438 -20.388  1.00  0.00     0.003 C 
HETATM    6  C17 UNL     1      -3.403  51.357 -19.165  1.00  0.00     0.010 C 
HETATM    7  C18 UNL     1      -1.961  51.443 -18.682  1.00  0.00     0.035 C 
HETATM    8  C19 UNL     1      -1.019  51.865 -19.785  1.00  0.00    -0.067 C 
HETATM    9  C20 UNL     1      -0.160  52.876 -19.566  1.00  0.00     0.053 C 
HETATM   10  C21 UNL     1       0.867  53.259 -20.561  1.00  0.00     0.149 C 
HETATM   11  O6  UNL     1       1.592  54.225 -20.340  1.00  0.00    -0.293 OA
HETATM   12  C22 UNL     1       1.029  52.386 -21.776  1.00  0.00     0.084 C 
HETATM   13  C23 UNL     1      -0.323  51.846 -22.221  1.00  0.00     0.022 C 
HETATM   14  C24 UNL     1      -1.095  51.076 -21.106  1.00  0.00    -0.009 C 
HETATM   15  C25 UNL     1      -0.428  49.702 -20.864  1.00  0.00     0.021 C 
HETATM   16  C26 UNL     1      -2.602  50.947 -21.535  1.00  0.00     0.072 C 
HETATM   17  C27 UNL     1      -2.863  50.132 -22.821  1.00  0.00     0.133 C 
HETATM   18  O7  UNL     1      -1.967  49.654 -23.514  1.00  0.00    -0.297 OA
HETATM   19  C28 UNL     1      -4.315  50.000 -23.265  1.00  0.00     0.091 C 
HETATM   20  C29 UNL     1      -5.160  49.441 -22.114  1.00  0.00     0.005 C 
HETATM   21  C30 UNL     1      -4.720  47.982 -21.829  1.00  0.00     0.019 C 
ENDROOT
BRANCH   1  22
HETATM   22  C11 UNL     1      -7.321  48.540 -23.281  1.00  0.00     0.185 C 
HETATM   23  O4  UNL     1      -8.003  47.600 -22.845  1.00  0.00    -0.292 OA
BRANCH  22  24
HETATM   24  C10 UNL     1      -7.041  48.709 -24.772  1.00  0.00     0.260 C 
BRANCH  24  25
HETATM   25  O3  UNL     1      -6.230  47.657 -25.296  1.00  0.00    -0.314 OA
BRANCH  25  26
HETATM   26  C9  UNL     1      -5.593  47.961 -26.459  1.00  0.00     0.259 C 
HETATM   27  O2  UNL     1      -6.119  47.957 -27.564  1.00  0.00    -0.265 OA
BRANCH  26  28
HETATM   28  C8  UNL     1      -4.151  48.279 -26.201  1.00  0.00     0.120 C 
BRANCH  28  29
HETATM   29  C7  UNL     1      -3.510  48.837 -27.460  1.00  0.00     0.112 C 
BRANCH  29  30
HETATM   30  C6  UNL     1      -2.833  50.162 -27.195  1.00  0.00     0.218 C 
HETATM   31  N1  UNL     1      -1.795  50.066 -26.298  1.00  0.00    -0.346 N 
HETATM   32  H11 UNL     1      -1.387  49.147 -26.140  1.00  0.00     0.163 HD
HETATM   33  O1  UNL     1      -3.187  51.218 -27.708  1.00  0.00    -0.274 OA
BRANCH  31  34
HETATM   34  C5  UNL     1      -0.900  51.200 -26.024  1.00  0.00     0.186 C 
BRANCH  34  35
HETATM   35  C3  UNL     1       0.246  51.283 -27.068  1.00  0.00     0.014 C 
HETATM   36  C4  UNL     1      -0.263  51.890 -28.385  1.00  0.00     0.012 C 
BRANCH  35  37
HETATM   37  C2  UNL     1       1.451  52.094 -26.530  1.00  0.00     0.002 C 
HETATM   38  C1  UNL     1       2.806  51.448 -26.788  1.00  0.00     0.005 C 
ENDBRANCH  35  37
ENDBRANCH  34  35
BRANCH  34  39
HETATM   39  C31 UNL     1      -1.763  52.477 -26.045  1.00  0.00     0.163 C 
HETATM   40  O8  UNL     1      -2.557  52.843 -25.194  1.00  0.00    -0.648 OA
BRANCH  39  41
HETATM   41  O9  UNL     1      -1.520  53.272 -27.116  1.00  0.00    -0.775 OA
HETATM   42  H43 UNL     1      -2.123  54.032 -26.982  1.00  0.00     0.167 HD
ENDBRANCH  39  41
ENDBRANCH  34  39
ENDBRANCH  31  34
ENDBRANCH  29  30
ENDBRANCH  28  29
ENDBRANCH  26  28
ENDBRANCH  25  26
ENDBRANCH  24  25
ENDBRANCH  22  24
ENDBRANCH   1  22
BRANCH   1  43
HETATM   43  O5  UNL     1      -7.044  50.840 -22.798  1.00  0.00    -0.381 OA
HETATM   44  H18 UNL     1      -6.990  50.776 -23.774  1.00  0.00     0.211 HD
ENDBRANCH   1  43
TORSDOF 13
ENDMDL
MODEL 2
REMARK minimizedAffinity -8.21781826
REMARK CNNscore 0.574060738
REMARK CNNaffinity 6.29113245
REMARK  13 active torsions:
REMARK  status: ('A' for Active; 'I' for Inactive)
REMARK    1  A    between atoms: C2_2  and  C3_3 
REMARK    2  A    between atoms: C3_3  and  C5_5 
REMARK    3  A    between atoms: C5_5  and  N1_6 
REMARK    4  A    between atoms: C5_5  and  C31_39 
REMARK       I    between atoms: N1_6  and  C6_7 
REMARK    5  A    between atoms: C6_7  and  C7_9 
REMARK    6  A    between atoms: C7_9  and  C8_10 
REMARK    7  A    between atoms: C8_10  and  C9_11 
REMARK    8  A    between atoms: C9_11  and  O3_13 
REMARK    9  A    between atoms: O3_13  and  C10_14 
REMARK   10  A    between atoms: C10_14  and  C11_15 
REMARK   11  A    between atoms: C11_15  and  C12_17 
REMARK   12  A    between atoms: C12_17  and  O5_18 
REMARK   13  A    between atoms: C31_39  and  O9_41 
ROOT
HETATM    1  C12 UNL     1     -10.902  46.846 -28.311  1.00  0.00     0.128 C 
HETATM    2  C13 UNL     1     -11.111  45.921 -29.530  1.00  0.00     0.047 C 
HETATM    3  C14 UNL     1     -12.516  45.306 -29.374  1.00  0.00     0.009 C 
HETATM    4  C15 UNL     1     -13.119  46.012 -28.162  1.00  0.00     0.002 C 
HETATM    5  C16 UNL     1     -14.282  45.334 -27.424  1.00  0.00     0.003 C 
HETATM    6  C17 UNL     1     -15.453  45.054 -28.376  1.00  0.00     0.010 C 
HETATM    7  C18 UNL     1     -16.624  44.418 -27.638  1.00  0.00     0.035 C 
HETATM    8  C19 UNL     1     -17.062  45.246 -26.453  1.00  0.00    -0.067 C 
HETATM    9  C20 UNL     1     -18.364  45.554 -26.312  1.00  0.00     0.053 C 
HETATM   10  C21 UNL     1     -18.875  46.258 -25.114  1.00  0.00     0.149 C 
HETATM   11  O6  UNL     1     -20.062  46.568 -25.056  1.00  0.00    -0.293 OA
HETATM   12  C22 UNL     1     -17.920  46.494 -23.975  1.00  0.00     0.084 C 
HETATM   13  C23 UNL     1     -16.523  46.778 -24.510  1.00  0.00     0.022 C 
HETATM   14  C24 UNL     1     -15.968  45.669 -25.455  1.00  0.00    -0.009 C 
HETATM   15  C25 UNL     1     -15.588  44.420 -24.627  1.00  0.00     0.021 C 
HETATM   16  C26 UNL     1     -14.749  46.255 -26.257  1.00  0.00     0.072 C 
HETATM   17  C27 UNL     1     -13.533  46.682 -25.405  1.00  0.00     0.133 C 
HETATM   18  O7  UNL     1     -13.515  46.632 -24.177  1.00  0.00    -0.297 OA
HETATM   19  C28 UNL     1     -12.341  47.263 -26.157  1.00  0.00     0.091 C 
HETATM   20  C29 UNL     1     -11.894  46.286 -27.252  1.00  0.00     0.005 C 
HETATM   21  C30 UNL     1     -11.329  45.007 -26.584  1.00  0.00     0.019 C 
ENDROOT
BRANCH   1  22
HETATM   22  C11 UNL     1      -9.454  47.038 -27.825  1.00  0.00     0.185 C 
HETATM   23  O4  UNL     1      -8.699  46.055 -27.789  1.00  0.00    -0.292 OA
BRANCH  22  24
HETATM   24  C10 UNL     1      -9.001  48.419 -27.358  1.00  0.00     0.260 C 
BRANCH  24  25
HETATM   25  O3  UNL     1      -9.493  48.741 -26.056  1.00  0.00    -0.314 OA
BRANCH  25  26
HETATM   26  C9  UNL     1      -8.865  48.090 -25.039  1.00  0.00     0.259 C 
HETATM   27  O2  UNL     1      -9.435  47.523 -24.117  1.00  0.00    -0.265 OA
BRANCH  26  28
HETATM   28  C8  UNL     1      -7.377  48.184 -25.194  1.00  0.00     0.120 C 
BRANCH  28  29
HETATM   29  C7  UNL     1      -6.707  48.078 -23.834  1.00  0.00     0.112 C 
BRANCH  29  30
HETATM   30  C6  UNL     1      -5.291  48.605 -23.874  1.00  0.00     0.218 C 
HETATM   31  N1  UNL     1      -5.065  49.460 -24.928  1.00  0.00    -0.346 N 
HETATM   32  H11 UNL     1      -5.873  49.889 -25.374  1.00  0.00     0.163 HD
HETATM   33  O1  UNL     1      -4.427  48.288 -23.064  1.00  0.00    -0.274 OA
BRANCH  31  34
HETATM   34  C5  UNL     1      -3.809  50.212 -25.060  1.00  0.00     0.186 C 
BRANCH  34  35
HETATM   35  C3  UNL     1      -3.101  49.900 -26.407  1.00  0.00     0.014 C 
HETATM   36  C4  UNL     1      -1.586  50.123 -26.288  1.00  0.00     0.012 C 
BRANCH  35  37
HETATM   37  C2  UNL     1      -3.399  48.458 -26.888  1.00  0.00     0.002 C 
HETATM   38  C1  UNL     1      -4.359  48.378 -28.068  1.00  0.00     0.005 C 
ENDBRANCH  35  37
ENDBRANCH  34  35
BRANCH  34  39
HETATM   39  C31 UNL     1      -4.161  51.709 -24.952  1.00  0.00     0.163 C 
HETATM   40  O8  UNL     1      -3.480  52.653 -25.319  1.00  0.00    -0.648 OA
BRANCH  39  41
HETATM   41  O9  UNL     1      -5.400  51.935 -24.450  1.00  0.00    -0.775 OA
HETATM   42  H43 UNL     1      -5.478  52.912 -24.457  1.00  0.00     0.167 HD
ENDBRANCH  39  41
ENDBRANCH  34  39
ENDBRANCH  31  34
ENDBRANCH  29  30
ENDBRANCH  28  29
ENDBRANCH  26  28
ENDBRANCH  25  26
ENDBRANCH  24  25
ENDBRANCH  22  24
ENDBRANCH   1  22
BRANCH   1  43
HETATM   43  O5  UNL     1     -11.336  48.162 -28.717  1.00  0.00    -0.381 OA
HETATM   44  H18 UNL     1     -10.939  48.794 -28.082  1.00  0.00     0.211 HD
ENDBRANCH   1  43
TORSDOF 13
ENDMDL
MODEL 3
REMARK minimizedAffinity -7.66492796
REMARK CNNscore 0.500012815
REMARK CNNaffinity 6.19516563
REMARK  13 active torsions:
REMARK  status: ('A' for Active; 'I' for Inactive)
REMARK    1  A    between atoms: C2_2  and  C3_3 
REMARK    2  A    between atoms: C3_3  and  C5_5 
REMARK    3  A    between atoms: C5_5  and  N1_6 
REMARK    4  A    between atoms: C5_5  and  C31_39 
REMARK       I    between atoms: N1_6  and  C6_7 
REMARK    5  A    between atoms: C6_7  and  C7_9 
REMARK    6  A    between atoms: C7_9  and  C8_10 
REMARK    7  A    between atoms: C8_10  and  C9_11 
REMARK    8  A    between atoms: C9_11  and  O3_13 
REMARK    9  A    between atoms: O3_13  and  C10_14 
REMARK   10  A    between atoms: C10_14  and  C11_15 
REMARK   11  A    between atoms: C11_15  and  C12_17 
REMARK   12  A    between atoms: C12_17  and  O5_18 
REMARK   13  A    between atoms: C31_39  and  O9_41 
ROOT
HETATM    1  C12 UNL     1     -10.871  46.541 -28.704  1.00  0.00     0.128 C 
HETATM    2  C13 UNL     1     -11.155  45.529 -29.835  1.00  0.00     0.047 C 
HETATM    3  C14 UNL     1     -12.562  44.958 -29.563  1.00  0.00     0.009 C 
HETATM    4  C15 UNL     1     -13.091  45.769 -28.383  1.00  0.00     0.002 C 
HETATM    5  C16 UNL     1     -14.228  45.176 -27.538  1.00  0.00     0.003 C 
HETATM    6  C17 UNL     1     -15.449  44.847 -28.407  1.00  0.00     0.010 C 
HETATM    7  C18 UNL     1     -16.593  44.296 -27.566  1.00  0.00     0.035 C 
HETATM    8  C19 UNL     1     -16.958  45.223 -26.431  1.00  0.00    -0.067 C 
HETATM    9  C20 UNL     1     -18.245  45.568 -26.251  1.00  0.00     0.053 C 
HETATM   10  C21 UNL     1     -18.683  46.375 -25.090  1.00  0.00     0.149 C 
HETATM   11  O6  UNL     1     -19.860  46.714 -24.999  1.00  0.00    -0.293 OA
HETATM   12  C22 UNL     1     -17.669  46.679 -24.021  1.00  0.00     0.084 C 
HETATM   13  C23 UNL     1     -16.296  46.891 -24.643  1.00  0.00     0.022 C 
HETATM   14  C24 UNL     1     -15.808  45.700 -25.523  1.00  0.00    -0.009 C 
HETATM   15  C25 UNL     1     -15.409  44.512 -24.619  1.00  0.00     0.021 C 
HETATM   16  C26 UNL     1     -14.620  46.195 -26.427  1.00  0.00     0.072 C 
HETATM   17  C27 UNL     1     -13.356  46.661 -25.672  1.00  0.00     0.133 C 
HETATM   18  O7  UNL     1     -13.278  46.708 -24.446  1.00  0.00    -0.297 OA
HETATM   19  C28 UNL     1     -12.193  47.156 -26.524  1.00  0.00     0.091 C 
HETATM   20  C29 UNL     1     -11.818  46.088 -27.558  1.00  0.00     0.005 C 
HETATM   21  C30 UNL     1     -11.243  44.853 -26.819  1.00  0.00     0.019 C 
ENDROOT
BRANCH   1  22
HETATM   22  C11 UNL     1      -9.397  46.740 -28.305  1.00  0.00     0.185 C 
HETATM   23  O4  UNL     1      -8.622  45.774 -28.375  1.00  0.00    -0.292 OA
BRANCH  22  24
HETATM   24  C10 UNL     1      -8.940  48.105 -27.794  1.00  0.00     0.260 C 
BRANCH  24  25
HETATM   25  O3  UNL     1      -8.622  48.084 -26.402  1.00  0.00    -0.314 OA
BRANCH  25  26
HETATM   26  C9  UNL     1      -7.312  47.841 -26.126  1.00  0.00     0.259 C 
HETATM   27  O2  UNL     1      -6.430  47.734 -26.967  1.00  0.00    -0.265 OA
BRANCH  26  28
HETATM   28  C8  UNL     1      -7.104  47.700 -24.647  1.00  0.00     0.120 C 
BRANCH  28  29
HETATM   29  C7  UNL     1      -7.123  49.069 -23.989  1.00  0.00     0.112 C 
BRANCH  29  30
HETATM   30  C6  UNL     1      -5.734  49.658 -23.898  1.00  0.00     0.218 C 
HETATM   31  N1  UNL     1      -5.725  51.030 -23.987  1.00  0.00    -0.346 N 
HETATM   32  H11 UNL     1      -6.594  51.525 -23.801  1.00  0.00     0.163 HD
HETATM   33  O1  UNL     1      -4.719  48.982 -23.779  1.00  0.00    -0.274 OA
BRANCH  31  34
HETATM   34  C5  UNL     1      -4.502  51.814 -23.759  1.00  0.00     0.186 C 
BRANCH  34  35
HETATM   35  C3  UNL     1      -3.663  51.227 -22.591  1.00  0.00     0.014 C 
HETATM   36  C4  UNL     1      -2.286  51.905 -22.517  1.00  0.00     0.012 C 
BRANCH  35  37
HETATM   37  C2  UNL     1      -4.402  51.357 -21.236  1.00  0.00     0.002 C 
HETATM   38  C1  UNL     1      -3.483  51.370 -20.021  1.00  0.00     0.005 C 
ENDBRANCH  35  37
ENDBRANCH  34  35
BRANCH  34  39
HETATM   39  C31 UNL     1      -3.701  51.803 -25.076  1.00  0.00     0.163 C 
HETATM   40  O8  UNL     1      -3.505  52.746 -25.826  1.00  0.00    -0.648 OA
BRANCH  39  41
HETATM   41  O9  UNL     1      -3.120  50.607 -25.342  1.00  0.00    -0.775 OA
HETATM   42  H43 UNL     1      -2.647  50.762 -26.186  1.00  0.00     0.167 HD
ENDBRANCH  39  41
ENDBRANCH  34  39
ENDBRANCH  31  34
ENDBRANCH  29  30
ENDBRANCH  28  29
ENDBRANCH  26  28
ENDBRANCH  25  26
ENDBRANCH  24  25
ENDBRANCH  22  24
ENDBRANCH   1  22
BRANCH   1  43
HETATM   43  O5  UNL     1     -11.301  47.830 -29.192  1.00  0.00    -0.381 OA
HETATM   44  H18 UNL     1     -10.862  48.502 -28.630  1.00  0.00     0.211 HD
ENDBRANCH   1  43
TORSDOF 13
ENDMDL
MODEL 4
REMARK minimizedAffinity -7.76656771
REMARK CNNscore 0.4939318
REMARK CNNaffinity 6.66121817
REMARK  13 active torsions:
REMARK  status: ('A' for Active; 'I' for Inactive)
REMARK    1  A    between atoms: C2_2  and  C3_3 
REMARK    2  A    between atoms: C3_3  and  C5_5 
REMARK    3  A    between atoms: C5_5  and  N1_6 
REMARK    4  A    between atoms: C5_5  and  C31_39 
REMARK       I    between atoms: N1_6  and  C6_7 
REMARK    5  A    between atoms: C6_7  and  C7_9 
REMARK    6  A    between atoms: C7_9  and  C8_10 
REMARK    7  A    between atoms: C8_10  and  C9_11 
REMARK    8  A    between atoms: C9_11  and  O3_13 
REMARK    9  A    between atoms: O3_13  and  C10_14 
REMARK   10  A    between atoms: C10_14  and  C11_15 
REMARK   11  A    between atoms: C11_15  and  C12_17 
REMARK   12  A    between atoms: C12_17  and  O5_18 
REMARK   13  A    between atoms: C31_39  and  O9_41 
ROOT
HETATM    1  C12 UNL     1      -1.370  49.570 -17.856  1.00  0.00     0.128 C 
HETATM    2  C13 UNL     1      -2.509  48.545 -18.045  1.00  0.00     0.047 C 
HETATM    3  C14 UNL     1      -2.855  48.552 -19.548  1.00  0.00     0.009 C 
HETATM    4  C15 UNL     1      -1.807  49.459 -20.185  1.00  0.00     0.002 C 
HETATM    5  C16 UNL     1      -2.114  50.084 -21.554  1.00  0.00     0.003 C 
HETATM    6  C17 UNL     1      -2.428  49.003 -22.597  1.00  0.00     0.010 C 
HETATM    7  C18 UNL     1      -2.695  49.617 -23.965  1.00  0.00     0.035 C 
HETATM    8  C19 UNL     1      -1.560  50.506 -24.417  1.00  0.00    -0.067 C 
HETATM    9  C20 UNL     1      -1.037  50.332 -25.644  1.00  0.00     0.053 C 
HETATM   10  C21 UNL     1      -0.007  51.243 -26.191  1.00  0.00     0.149 C 
HETATM   11  O6  UNL     1       0.481  51.011 -27.293  1.00  0.00    -0.293 OA
HETATM   12  C22 UNL     1       0.340  52.472 -25.394  1.00  0.00     0.084 C 
HETATM   13  C23 UNL     1       0.282  52.167 -23.904  1.00  0.00     0.022 C 
HETATM   14  C24 UNL     1      -1.085  51.588 -23.428  1.00  0.00    -0.009 C 
HETATM   15  C25 UNL     1      -2.152  52.707 -23.420  1.00  0.00     0.021 C 
HETATM   16  C26 UNL     1      -0.890  50.931 -22.013  1.00  0.00     0.072 C 
HETATM   17  C27 UNL     1      -0.464  51.894 -20.884  1.00  0.00     0.133 C 
HETATM   18  O7  UNL     1      -0.230  53.088 -21.063  1.00  0.00    -0.297 OA
HETATM   19  C28 UNL     1      -0.256  51.282 -19.503  1.00  0.00     0.091 C 
HETATM   20  C29 UNL     1      -1.515  50.512 -19.085  1.00  0.00     0.005 C 
HETATM   21  C30 UNL     1      -2.675  51.519 -18.878  1.00  0.00     0.019 C 
ENDROOT
BRANCH   1  22
HETATM   22  C11 UNL     1      -1.289  50.274 -16.488  1.00  0.00     0.185 C 
HETATM   23  O4  UNL     1      -2.342  50.575 -15.907  1.00  0.00    -0.292 OA
BRANCH  22  24
HETATM   24  C10 UNL     1       0.081  50.622 -15.909  1.00  0.00     0.260 C 
BRANCH  24  25
HETATM   25  O3  UNL     1       0.526  49.659 -14.953  1.00  0.00    -0.314 OA
BRANCH  25  26
HETATM   26  C9  UNL     1       0.420  50.060 -13.657  1.00  0.00     0.259 C 
HETATM   27  O2  UNL     1      -0.536  49.825 -12.931  1.00  0.00    -0.265 OA
BRANCH  26  28
HETATM   28  C8  UNL     1       1.627  50.850 -13.250  1.00  0.00     0.120 C 
BRANCH  28  29
HETATM   29  C7  UNL     1       1.209  52.240 -12.800  1.00  0.00     0.112 C 
BRANCH  29  30
HETATM   30  C6  UNL     1       2.040  52.713 -11.629  1.00  0.00     0.218 C 
HETATM   31  N1  UNL     1       1.662  53.954 -11.169  1.00  0.00    -0.346 N 
HETATM   32  H11 UNL     1       0.734  54.290 -11.416  1.00  0.00     0.163 HD
HETATM   33  O1  UNL     1       2.967  52.070 -11.152  1.00  0.00    -0.274 OA
BRANCH  31  34
HETATM   34  C5  UNL     1       2.226  54.530  -9.940  1.00  0.00     0.186 C 
BRANCH  34  35
HETATM   35  C3  UNL     1       3.008  55.839 -10.234  1.00  0.00     0.014 C 
HETATM   36  C4  UNL     1       3.239  56.635  -8.941  1.00  0.00     0.012 C 
BRANCH  35  37
HETATM   37  C2  UNL     1       4.357  55.552 -10.939  1.00  0.00     0.002 C 
HETATM   38  C1  UNL     1       5.466  55.088 -10.003  1.00  0.00     0.005 C 
ENDBRANCH  35  37
ENDBRANCH  34  35
BRANCH  34  39
HETATM   39  C31 UNL     1       1.050  54.791  -8.978  1.00  0.00     0.163 C 
HETATM   40  O8  UNL     1       0.032  55.421  -9.214  1.00  0.00    -0.648 OA
BRANCH  39  41
HETATM   41  O9  UNL     1       1.188  54.171  -7.780  1.00  0.00    -0.775 OA
HETATM   42  H43 UNL     1       0.371  54.418  -7.296  1.00  0.00     0.167 HD
ENDBRANCH  39  41
ENDBRANCH  34  39
ENDBRANCH  31  34
ENDBRANCH  29  30
ENDBRANCH  28  29
ENDBRANCH  26  28
ENDBRANCH  25  26
ENDBRANCH  24  25
ENDBRANCH  22  24
ENDBRANCH   1  22
BRANCH   1  43
HETATM   43  O5  UNL     1      -0.134  48.832 -17.968  1.00  0.00    -0.381 OA
HETATM   44  H18 UNL     1       0.561  49.390 -17.562  1.00  0.00     0.211 HD
ENDBRANCH   1  43
TORSDOF 13
ENDMDL
MODEL 5
REMARK minimizedAffinity -9.40607834
REMARK CNNscore 0.452766061
REMARK CNNaffinity 7.41557312
REMARK  13 active torsions:
REMARK  status: ('A' for Active; 'I' for Inactive)
REMARK    1  A    between atoms: C2_2  and  C3_3 
REMARK    2  A    between atoms: C3_3  and  C5_5 
REMARK    3  A    between atoms: C5_5  and  N1_6 
REMARK    4  A    between atoms: C5_5  and  C31_39 
REMARK       I    between atoms: N1_6  and  C6_7 
REMARK    5  A    between atoms: C6_7  and  C7_9 
REMARK    6  A    between atoms: C7_9  and  C8_10 
REMARK    7  A    between atoms: C8_10  and  C9_11 
REMARK    8  A    between atoms: C9_11  and  O3_13 
REMARK    9  A    between atoms: O3_13  and  C10_14 
REMARK   10  A    between atoms: C10_14  and  C11_15 
REMARK   11  A    between atoms: C11_15  and  C12_17 
REMARK   12  A    between atoms: C12_17  and  O5_18 
REMARK   13  A    between atoms: C31_39  and  O9_41 
ROOT
HETATM    1  C12 UNL     1      -2.673  48.518 -19.077  1.00  0.00     0.128 C 
HETATM    2  C13 UNL     1      -4.001  47.878 -18.613  1.00  0.00     0.047 C 
HETATM    3  C14 UNL     1      -4.891  47.768 -19.868  1.00  0.00     0.009 C 
HETATM    4  C15 UNL     1      -3.993  48.203 -21.023  1.00  0.00     0.002 C 
HETATM    5  C16 UNL     1      -4.655  48.682 -22.324  1.00  0.00     0.003 C 
HETATM    6  C17 UNL     1      -5.590  47.608 -22.896  1.00  0.00     0.010 C 
HETATM    7  C18 UNL     1      -6.217  48.064 -24.207  1.00  0.00     0.035 C 
HETATM    8  C19 UNL     1      -5.175  48.482 -25.217  1.00  0.00    -0.067 C 
HETATM    9  C20 UNL     1      -5.225  47.975 -26.462  1.00  0.00     0.053 C 
HETATM   10  C21 UNL     1      -4.307  48.432 -27.529  1.00  0.00     0.149 C 
HETATM   11  O6  UNL     1      -4.354  47.900 -28.635  1.00  0.00    -0.293 OA
HETATM   12  C22 UNL     1      -3.404  49.598 -27.229  1.00  0.00     0.084 C 
HETATM   13  C23 UNL     1      -2.947  49.550 -25.778  1.00  0.00     0.022 C 
HETATM   14  C24 UNL     1      -4.116  49.499 -24.748  1.00  0.00    -0.009 C 
HETATM   15  C25 UNL     1      -4.805  50.880 -24.670  1.00  0.00     0.021 C 
HETATM   16  C26 UNL     1      -3.544  49.031 -23.360  1.00  0.00     0.072 C 
HETATM   17  C27 UNL     1      -2.503  49.973 -22.716  1.00  0.00     0.133 C 
HETATM   18  O7  UNL     1      -2.087  50.995 -23.257  1.00  0.00    -0.297 OA
HETATM   19  C28 UNL     1      -1.923  49.538 -21.375  1.00  0.00     0.091 C 
HETATM   20  C29 UNL     1      -3.062  49.265 -20.384  1.00  0.00     0.005 C 
HETATM   21  C30 UNL     1      -3.783  50.600 -20.067  1.00  0.00     0.019 C 
ENDROOT
BRANCH   1  22
HETATM   22  C11 UNL     1      -1.907  49.357 -18.037  1.00  0.00     0.185 C 
HETATM   23  O4  UNL     1      -2.357  49.440 -16.885  1.00  0.00    -0.292 OA
BRANCH  22  24
HETATM   24  C10 UNL     1      -0.642  50.099 -18.464  1.00  0.00     0.260 C 
BRANCH  24  25
HETATM   25  O3  UNL     1      -0.861  51.502 -18.619  1.00  0.00    -0.314 OA
BRANCH  25  26
HETATM   26  C9  UNL     1       0.265  52.261 -18.540  1.00  0.00     0.259 C 
HETATM   27  O2  UNL     1       1.100  52.180 -17.649  1.00  0.00    -0.265 OA
BRANCH  26  28
HETATM   28  C8  UNL     1       0.329  53.227 -19.684  1.00  0.00     0.120 C 
BRANCH  28  29
HETATM   29  C7  UNL     1      -0.127  52.546 -20.964  1.00  0.00     0.112 C 
BRANCH  29  30
HETATM   30  C6  UNL     1       0.631  53.063 -22.165  1.00  0.00     0.218 C 
HETATM   31  N1  UNL     1       0.414  52.315 -23.299  1.00  0.00    -0.346 N 
HETATM   32  H11 UNL     1      -0.411  51.721 -23.327  1.00  0.00     0.163 HD
HETATM   33  O1  UNL     1       1.378  54.033 -22.128  1.00  0.00    -0.274 OA
BRANCH  31  34
HETATM   34  C5  UNL     1       0.922  52.737 -24.614  1.00  0.00     0.186 C 
BRANCH  34  35
HETATM   35  C3  UNL     1       1.254  51.513 -25.511  1.00  0.00     0.014 C 
HETATM   36  C4  UNL     1       0.005  51.044 -26.273  1.00  0.00     0.012 C 
BRANCH  35  37
HETATM   37  C2  UNL     1       2.404  51.828 -26.501  1.00  0.00     0.002 C 
HETATM   38  C1  UNL     1       2.021  51.687 -27.969  1.00  0.00     0.005 C 
ENDBRANCH  35  37
ENDBRANCH  34  35
BRANCH  34  39
HETATM   39  C31 UNL     1      -0.165  53.619 -25.260  1.00  0.00     0.163 C 
HETATM   40  O8  UNL     1      -1.364  53.594 -25.034  1.00  0.00    -0.648 OA
BRANCH  39  41
HETATM   41  O9  UNL     1       0.334  54.549 -26.111  1.00  0.00    -0.775 OA
HETATM   42  H43 UNL     1      -0.462  55.029 -26.422  1.00  0.00     0.167 HD
ENDBRANCH  39  41
ENDBRANCH  34  39
ENDBRANCH  31  34
ENDBRANCH  29  30
ENDBRANCH  28  29
ENDBRANCH  26  28
ENDBRANCH  25  26
ENDBRANCH  24  25
ENDBRANCH  22  24
ENDBRANCH   1  22
BRANCH   1  43
HETATM   43  O5  UNL     1      -1.785  47.427 -19.401  1.00  0.00    -0.381 OA
HETATM   44  H18 UNL     1      -0.878  47.796 -19.402  1.00  0.00     0.211 HD
ENDBRANCH   1  43
TORSDOF 13
ENDMDL
MODEL 6
REMARK minimizedAffinity -8.85392857
REMARK CNNscore 0.445353538
REMARK CNNaffinity 6.33861971
REMARK  13 active torsions:
REMARK  status: ('A' for Active; 'I' for Inactive)
REMARK    1  A    between atoms: C2_2  and  C3_3 
REMARK    2  A    between atoms: C3_3  and  C5_5 
REMARK    3  A    between atoms: C5_5  and  N1_6 
REMARK    4  A    between atoms: C5_5  and  C31_39 
REMARK       I    between atoms: N1_6  and  C6_7 
REMARK    5  A    between atoms: C6_7  and  C7_9 
REMARK    6  A    between atoms: C7_9  and  C8_10 
REMARK    7  A    between atoms: C8_10  and  C9_11 
REMARK    8  A    between atoms: C9_11  and  O3_13 
REMARK    9  A    between atoms: O3_13  and  C10_14 
REMARK   10  A    between atoms: C10_14  and  C11_15 
REMARK   11  A    between atoms: C11_15  and  C12_17 
REMARK   12  A    between atoms: C12_17  and  O5_18 
REMARK   13  A    between atoms: C31_39  and  O9_41 
ROOT
HETATM    1  C12 UNL     1      -6.668  49.480 -21.950  1.00  0.00     0.128 C 
HETATM    2  C13 UNL     1      -7.060  49.395 -20.458  1.00  0.00     0.047 C 
HETATM    3  C14 UNL     1      -5.835  49.884 -19.659  1.00  0.00     0.009 C 
HETATM    4  C15 UNL     1      -4.849  50.373 -20.716  1.00  0.00     0.002 C 
HETATM    5  C16 UNL     1      -3.362  50.470 -20.341  1.00  0.00     0.003 C 
HETATM    6  C17 UNL     1      -3.159  51.378 -19.120  1.00  0.00     0.010 C 
HETATM    7  C18 UNL     1      -1.683  51.509 -18.770  1.00  0.00     0.035 C 
HETATM    8  C19 UNL     1      -0.861  51.976 -19.948  1.00  0.00    -0.067 C 
HETATM    9  C20 UNL     1      -0.020  53.014 -19.792  1.00  0.00     0.053 C 
HETATM   10  C21 UNL     1       0.898  53.445 -20.871  1.00  0.00     0.149 C 
HETATM   11  O6  UNL     1       1.608  54.432 -20.702  1.00  0.00    -0.293 OA
HETATM   12  C22 UNL     1       0.977  52.593 -22.109  1.00  0.00     0.084 C 
HETATM   13  C23 UNL     1      -0.391  52.011 -22.437  1.00  0.00     0.022 C 
HETATM   14  C24 UNL     1      -1.031  51.201 -21.268  1.00  0.00    -0.009 C 
HETATM   15  C25 UNL     1      -0.299  49.849 -21.108  1.00  0.00     0.021 C 
HETATM   16  C26 UNL     1      -2.566  51.025 -21.559  1.00  0.00     0.072 C 
HETATM   17  C27 UNL     1      -2.916  50.217 -22.828  1.00  0.00     0.133 C 
HETATM   18  O7  UNL     1      -2.072  49.779 -23.607  1.00  0.00    -0.297 OA
HETATM   19  C28 UNL     1      -4.398  50.040 -23.140  1.00  0.00     0.091 C 
HETATM   20  C29 UNL     1      -5.114  49.438 -21.925  1.00  0.00     0.005 C 
HETATM   21  C30 UNL     1      -4.601  47.992 -21.704  1.00  0.00     0.019 C 
ENDROOT
BRANCH   1  22
HETATM   22  C11 UNL     1      -7.342  48.476 -22.903  1.00  0.00     0.185 C 
HETATM   23  O4  UNL     1      -7.686  47.370 -22.461  1.00  0.00    -0.292 OA
BRANCH  22  24
HETATM   24  C10 UNL     1      -7.526  48.850 -24.372  1.00  0.00     0.260 C 
BRANCH  24  25
HETATM   25  O3  UNL     1      -8.605  48.141 -24.982  1.00  0.00    -0.314 OA
BRANCH  25  26
HETATM   26  C9  UNL     1      -9.207  48.802 -26.007  1.00  0.00     0.259 C 
HETATM   27  O2  UNL     1      -9.817  49.857 -25.894  1.00  0.00    -0.265 OA
BRANCH  26  28
HETATM   28  C8  UNL     1      -9.041  48.046 -27.291  1.00  0.00     0.120 C 
BRANCH  28  29
HETATM   29  C7  UNL     1      -7.732  47.275 -27.271  1.00  0.00     0.112 C 
BRANCH  29  30
HETATM   30  C6  UNL     1      -7.400  46.715 -28.636  1.00  0.00     0.218 C 
HETATM   31  N1  UNL     1      -7.122  47.691 -29.564  1.00  0.00    -0.346 N 
HETATM   32  H11 UNL     1      -6.867  48.615 -29.222  1.00  0.00     0.163 HD
HETATM   33  O1  UNL     1      -7.400  45.517 -28.895  1.00  0.00    -0.274 OA
BRANCH  31  34
HETATM   34  C5  UNL     1      -6.617  47.364 -30.906  1.00  0.00     0.186 C 
BRANCH  34  35
HETATM   35  C3  UNL     1      -7.515  47.979 -32.014  1.00  0.00     0.014 C 
HETATM   36  C4  UNL     1      -7.744  46.969 -33.149  1.00  0.00     0.012 C 
BRANCH  35  37
HETATM   37  C2  UNL     1      -8.870  48.468 -31.445  1.00  0.00     0.002 C 
HETATM   38  C1  UNL     1      -8.848  49.899 -30.921  1.00  0.00     0.005 C 
ENDBRANCH  35  37
ENDBRANCH  34  35
BRANCH  34  39
HETATM   39  C31 UNL     1      -5.177  47.906 -30.995  1.00  0.00     0.163 C 
HETATM   40  O8  UNL     1      -4.238  47.404 -31.592  1.00  0.00    -0.648 OA
BRANCH  39  41
HETATM   41  O9  UNL     1      -5.015  49.105 -30.384  1.00  0.00    -0.775 OA
HETATM   42  H43 UNL     1      -4.070  49.317 -30.537  1.00  0.00     0.167 HD
ENDBRANCH  39  41
ENDBRANCH  34  39
ENDBRANCH  31  34
ENDBRANCH  29  30
ENDBRANCH  28  29
ENDBRANCH  26  28
ENDBRANCH  25  26
ENDBRANCH  24  25
ENDBRANCH  22  24
ENDBRANCH   1  22
BRANCH   1  43
HETATM   43  O5  UNL     1      -7.099  50.778 -22.412  1.00  0.00    -0.381 OA
HETATM   44  H18 UNL     1      -7.133  50.728 -23.390  1.00  0.00     0.211 HD
ENDBRANCH   1  43
TORSDOF 13
ENDMDL
MODEL 7
REMARK minimizedAffinity -7.74822235
REMARK CNNscore 0.437313437
REMARK CNNaffinity 5.81880951
REMARK  13 active torsions:
REMARK  status: ('A' for Active; 'I' for Inactive)
REMARK    1  A    between atoms: C2_2  and  C3_3 
REMARK    2  A    between atoms: C3_3  and  C5_5 
REMARK    3  A    between atoms: C5_5  and  N1_6 
REMARK    4  A    between atoms: C5_5  and  C31_39 
REMARK       I    between atoms: N1_6  and  C6_7 
REMARK    5  A    between atoms: C6_7  and  C7_9 
REMARK    6  A    between atoms: C7_9  and  C8_10 
REMARK    7  A    between atoms: C8_10  and  C9_11 
REMARK    8  A    between atoms: C9_11  and  O3_13 
REMARK    9  A    between atoms: O3_13  and  C10_14 
REMARK   10  A    between atoms: C10_14  and  C11_15 
REMARK   11  A    between atoms: C11_15  and  C12_17 
REMARK   12  A    between atoms: C12_17  and  O5_18 
REMARK   13  A    between atoms: C31_39  and  O9_41 
ROOT
HETATM    1  C12 UNL     1      -6.662  49.525 -22.208  1.00  0.00     0.128 C 
HETATM    2  C13 UNL     1      -7.117  49.372 -20.740  1.00  0.00     0.047 C 
HETATM    3  C14 UNL     1      -5.921  49.802 -19.867  1.00  0.00     0.009 C 
HETATM    4  C15 UNL     1      -4.885  50.329 -20.856  1.00  0.00     0.002 C 
HETATM    5  C16 UNL     1      -3.414  50.386 -20.416  1.00  0.00     0.003 C 
HETATM    6  C17 UNL     1      -3.251  51.229 -19.144  1.00  0.00     0.010 C 
HETATM    7  C18 UNL     1      -1.789  51.320 -18.727  1.00  0.00     0.035 C 
HETATM    8  C19 UNL     1      -0.913  51.834 -19.845  1.00  0.00    -0.067 C 
HETATM    9  C20 UNL     1      -0.066  52.850 -19.603  1.00  0.00     0.053 C 
HETATM   10  C21 UNL     1       0.901  53.321 -20.620  1.00  0.00     0.149 C 
HETATM   11  O6  UNL     1       1.615  54.289 -20.372  1.00  0.00    -0.293 OA
HETATM   12  C22 UNL     1       1.021  52.531 -21.895  1.00  0.00     0.084 C 
HETATM   13  C23 UNL     1      -0.339  51.986 -22.307  1.00  0.00     0.022 C 
HETATM   14  C24 UNL     1      -1.037  51.128 -21.209  1.00  0.00    -0.009 C 
HETATM   15  C25 UNL     1      -0.330  49.759 -21.087  1.00  0.00     0.021 C 
HETATM   16  C26 UNL     1      -2.561  50.989 -21.571  1.00  0.00     0.072 C 
HETATM   17  C27 UNL     1      -2.868  50.250 -22.892  1.00  0.00     0.133 C 
HETATM   18  O7  UNL     1      -1.997  49.840 -23.657  1.00  0.00    -0.297 OA
HETATM   19  C28 UNL     1      -4.337  50.111 -23.273  1.00  0.00     0.091 C 
HETATM   20  C29 UNL     1      -5.111  49.460 -22.120  1.00  0.00     0.005 C 
HETATM   21  C30 UNL     1      -4.626  47.997 -21.952  1.00  0.00     0.019 C 
ENDROOT
BRANCH   1  22
HETATM   22  C11 UNL     1      -7.308  48.580 -23.237  1.00  0.00     0.185 C 
HETATM   23  O4  UNL     1      -7.285  48.895 -24.436  1.00  0.00    -0.292 OA
BRANCH  22  24
HETATM   24  C10 UNL     1      -7.994  47.306 -22.751  1.00  0.00     0.260 C 
BRANCH  24  25
HETATM   25  O3  UNL     1      -8.779  46.688 -23.772  1.00  0.00    -0.314 OA
BRANCH  25  26
HETATM   26  C9  UNL     1     -10.058  46.401 -23.404  1.00  0.00     0.259 C 
HETATM   27  O2  UNL     1     -10.378  45.869 -22.349  1.00  0.00    -0.265 OA
BRANCH  26  28
HETATM   28  C8  UNL     1     -11.018  46.804 -24.482  1.00  0.00     0.120 C 
BRANCH  28  29
HETATM   29  C7  UNL     1     -12.443  46.740 -23.958  1.00  0.00     0.112 C 
BRANCH  29  30
HETATM   30  C6  UNL     1     -13.449  46.816 -25.083  1.00  0.00     0.218 C 
HETATM   31  N1  UNL     1     -14.522  45.975 -24.901  1.00  0.00    -0.346 N 
HETATM   32  H11 UNL     1     -14.706  45.634 -23.960  1.00  0.00     0.163 HD
HETATM   33  O1  UNL     1     -13.314  47.536 -26.066  1.00  0.00    -0.274 OA
BRANCH  31  34
HETATM   34  C5  UNL     1     -15.693  46.009 -25.790  1.00  0.00     0.186 C 
BRANCH  34  35
HETATM   35  C3  UNL     1     -15.835  44.687 -26.592  1.00  0.00     0.014 C 
HETATM   36  C4  UNL     1     -16.032  43.495 -25.643  1.00  0.00     0.012 C 
BRANCH  35  37
HETATM   37  C2  UNL     1     -16.997  44.761 -27.614  1.00  0.00     0.002 C 
HETATM   38  C1  UNL     1     -16.946  43.691 -28.697  1.00  0.00     0.005 C 
ENDBRANCH  35  37
ENDBRANCH  34  35
BRANCH  34  39
HETATM   39  C31 UNL     1     -16.930  46.254 -24.904  1.00  0.00     0.163 C 
HETATM   40  O8  UNL     1     -18.096  46.034 -25.190  1.00  0.00    -0.648 OA
BRANCH  39  41
HETATM   41  O9  UNL     1     -16.621  46.698 -23.660  1.00  0.00    -0.775 OA
HETATM   42  H43 UNL     1     -17.494  46.791 -23.224  1.00  0.00     0.167 HD
ENDBRANCH  39  41
ENDBRANCH  34  39
ENDBRANCH  31  34
ENDBRANCH  29  30
ENDBRANCH  28  29
ENDBRANCH  26  28
ENDBRANCH  25  26
ENDBRANCH  24  25
ENDBRANCH  22  24
ENDBRANCH   1  22
BRANCH   1  43
HETATM   43  O5  UNL     1      -7.057  50.851 -22.621  1.00  0.00    -0.381 OA
HETATM   44  H18 UNL     1      -7.050  50.851 -23.601  1.00  0.00     0.211 HD
ENDBRANCH   1  43
TORSDOF 13
ENDMDL
MODEL 8
REMARK minimizedAffinity -7.47509098
REMARK CNNscore 0.419004321
REMARK CNNaffinity 5.8947258
REMARK  13 active torsions:
REMARK  status: ('A' for Active; 'I' for Inactive)
REMARK    1  A    between atoms: C2_2  and  C3_3 
REMARK    2  A    between atoms: C3_3  and  C5_5 
REMARK    3  A    between atoms: C5_5  and  N1_6 
REMARK    4  A    between atoms: C5_5  and  C31_39 
REMARK       I    between atoms: N1_6  and  C6_7 
REMARK    5  A    between atoms: C6_7  and  C7_9 
REMARK    6  A    between atoms: C7_9  and  C8_10 
REMARK    7  A    between atoms: C8_10  and  C9_11 
REMARK    8  A    between atoms: C9_11  and  O3_13 
REMARK    9  A    between atoms: O3_13  and  C10_14 
REMARK   10  A    between atoms: C10_14  and  C11_15 
REMARK   11  A    between atoms: C11_15  and  C12_17 
REMARK   12  A    between atoms: C12_17  and  O5_18 
REMARK   13  A    between atoms: C31_39  and  O9_41 
ROOT
HETATM    1  C12 UNL     1      -7.622  48.098 -23.293  1.00  0.00     0.128 C 
HETATM    2  C13 UNL     1      -7.306  46.666 -22.807  1.00  0.00     0.047 C 
HETATM    3  C14 UNL     1      -5.820  46.666 -22.396  1.00  0.00     0.009 C 
HETATM    4  C15 UNL     1      -5.381  48.123 -22.514  1.00  0.00     0.002 C 
HETATM    5  C16 UNL     1      -3.882  48.427 -22.657  1.00  0.00     0.003 C 
HETATM    6  C17 UNL     1      -3.084  47.839 -21.486  1.00  0.00     0.010 C 
HETATM    7  C18 UNL     1      -1.603  48.172 -21.604  1.00  0.00     0.035 C 
HETATM    8  C19 UNL     1      -1.367  49.658 -21.741  1.00  0.00    -0.067 C 
HETATM    9  C20 UNL     1      -0.471  50.259 -20.938  1.00  0.00     0.053 C 
HETATM   10  C21 UNL     1      -0.108  51.684 -21.100  1.00  0.00     0.149 C 
HETATM   11  O6  UNL     1       0.673  52.203 -20.307  1.00  0.00    -0.293 OA
HETATM   12  C22 UNL     1      -0.658  52.419 -22.292  1.00  0.00     0.084 C 
HETATM   13  C23 UNL     1      -2.067  51.934 -22.606  1.00  0.00     0.022 C 
HETATM   14  C24 UNL     1      -2.170  50.394 -22.831  1.00  0.00    -0.009 C 
HETATM   15  C25 UNL     1      -1.548  50.022 -24.195  1.00  0.00     0.021 C 
HETATM   16  C26 UNL     1      -3.681  49.970 -22.721  1.00  0.00     0.072 C 
HETATM   17  C27 UNL     1      -4.624  50.580 -23.781  1.00  0.00     0.133 C 
HETATM   18  O7  UNL     1      -4.256  51.391 -24.629  1.00  0.00    -0.297 OA
HETATM   19  C28 UNL     1      -6.096  50.194 -23.692  1.00  0.00     0.091 C 
HETATM   20  C29 UNL     1      -6.231  48.667 -23.691  1.00  0.00     0.005 C 
HETATM   21  C30 UNL     1      -5.783  48.122 -25.072  1.00  0.00     0.019 C 
ENDROOT
BRANCH   1  22
HETATM   22  C11 UNL     1      -8.725  48.242 -24.358  1.00  0.00     0.185 C 
HETATM   23  O4  UNL     1      -9.033  49.377 -24.751  1.00  0.00    -0.292 OA
BRANCH  22  24
HETATM   24  C10 UNL     1      -9.439  46.992 -24.865  1.00  0.00     0.260 C 
BRANCH  24  25
HETATM   25  O3  UNL     1      -9.576  46.984 -26.287  1.00  0.00    -0.314 OA
BRANCH  25  26
HETATM   26  C9  UNL     1     -10.725  46.412 -26.740  1.00  0.00     0.259 C 
HETATM   27  O2  UNL     1     -10.795  45.310 -27.267  1.00  0.00    -0.265 OA
BRANCH  26  28
HETATM   28  C8  UNL     1     -11.890  47.331 -26.525  1.00  0.00     0.120 C 
BRANCH  28  29
HETATM   29  C7  UNL     1     -13.174  46.525 -26.427  1.00  0.00     0.112 C 
BRANCH  29  30
HETATM   30  C6  UNL     1     -13.949  46.872 -25.177  1.00  0.00     0.218 C 
HETATM   31  N1  UNL     1     -15.304  46.676 -25.313  1.00  0.00    -0.346 N 
HETATM   32  H11 UNL     1     -15.624  46.065 -26.061  1.00  0.00     0.163 HD
HETATM   33  O1  UNL     1     -13.428  47.304 -24.155  1.00  0.00    -0.274 OA
BRANCH  31  34
HETATM   34  C5  UNL     1     -16.223  46.794 -24.171  1.00  0.00     0.186 C 
BRANCH  34  35
HETATM   35  C3  UNL     1     -17.706  46.776 -24.632  1.00  0.00     0.014 C 
HETATM   36  C4  UNL     1     -17.917  45.728 -25.736  1.00  0.00     0.012 C 
BRANCH  35  37
HETATM   37  C2  UNL     1     -18.668  46.514 -23.447  1.00  0.00     0.002 C 
HETATM   38  C1  UNL     1     -19.708  45.433 -23.714  1.00  0.00     0.005 C 
ENDBRANCH  35  37
ENDBRANCH  34  35
BRANCH  34  39
HETATM   39  C31 UNL     1     -15.923  45.617 -23.222  1.00  0.00     0.163 C 
HETATM   40  O8  UNL     1     -16.011  44.426 -23.475  1.00  0.00    -0.648 OA
BRANCH  39  41
HETATM   41  O9  UNL     1     -15.449  46.008 -22.013  1.00  0.00    -0.775 OA
HETATM   42  H43 UNL     1     -15.297  45.163 -21.540  1.00  0.00     0.167 HD
ENDBRANCH  39  41
ENDBRANCH  34  39
ENDBRANCH  31  34
ENDBRANCH  29  30
ENDBRANCH  28  29
ENDBRANCH  26  28
ENDBRANCH  25  26
ENDBRANCH  24  25
ENDBRANCH  22  24
ENDBRANCH   1  22
BRANCH   1  43
HETATM   43  O5  UNL     1      -8.117  48.819 -22.144  1.00  0.00    -0.381 OA
HETATM   44  H18 UNL     1      -8.591  49.604 -22.491  1.00  0.00     0.211 HD
ENDBRANCH   1  43
TORSDOF 13
ENDMDL
MODEL 9
REMARK minimizedAffinity -7.8567009
REMARK CNNscore 0.413093776
REMARK CNNaffinity 6.42338991
REMARK  13 active torsions:
REMARK  status: ('A' for Active; 'I' for Inactive)
REMARK    1  A    between atoms: C2_2  and  C3_3 
REMARK    2  A    between atoms: C3_3  and  C5_5 
REMARK    3  A    between atoms: C5_5  and  N1_6 
REMARK    4  A    between atoms: C5_5  and  C31_39 
REMARK       I    between atoms: N1_6  and  C6_7 
REMARK    5  A    between atoms: C6_7  and  C7_9 
REMARK    6  A    between atoms: C7_9  and  C8_10 
REMARK    7  A    between atoms: C8_10  and  C9_11 
REMARK    8  A    between atoms: C9_11  and  O3_13 
REMARK    9  A    between atoms: O3_13  and  C10_14 
REMARK   10  A    between atoms: C10_14  and  C11_15 
REMARK   11  A    between atoms: C11_15  and  C12_17 
REMARK   12  A    between atoms: C12_17  and  O5_18 
REMARK   13  A    between atoms: C31_39  and  O9_41 
ROOT
HETATM    1  C12 UNL     1      -6.335  49.498 -22.245  1.00  0.00     0.128 C 
HETATM    2  C13 UNL     1      -6.887  49.451 -20.803  1.00  0.00     0.047 C 
HETATM    3  C14 UNL     1      -5.752  49.951 -19.886  1.00  0.00     0.009 C 
HETATM    4  C15 UNL     1      -4.652  50.408 -20.841  1.00  0.00     0.002 C 
HETATM    5  C16 UNL     1      -3.215  50.506 -20.308  1.00  0.00     0.003 C 
HETATM    6  C17 UNL     1      -3.137  51.441 -19.094  1.00  0.00     0.010 C 
HETATM    7  C18 UNL     1      -1.707  51.571 -18.588  1.00  0.00     0.035 C 
HETATM    8  C19 UNL     1      -0.758  52.006 -19.680  1.00  0.00    -0.067 C 
HETATM    9  C20 UNL     1       0.070  53.042 -19.458  1.00  0.00     0.053 C 
HETATM   10  C21 UNL     1       1.103  53.441 -20.440  1.00  0.00     0.149 C 
HETATM   11  O6  UNL     1       1.799  54.429 -20.218  1.00  0.00    -0.293 OA
HETATM   12  C22 UNL     1       1.309  52.561 -21.643  1.00  0.00     0.084 C 
HETATM   13  C23 UNL     1      -0.020  51.979 -22.103  1.00  0.00     0.022 C 
HETATM   14  C24 UNL     1      -0.790  51.201 -20.994  1.00  0.00    -0.009 C 
HETATM   15  C25 UNL     1      -0.092  49.848 -20.724  1.00  0.00     0.021 C 
HETATM   16  C26 UNL     1      -2.286  51.027 -21.446  1.00  0.00     0.072 C 
HETATM   17  C27 UNL     1      -2.504  50.191 -22.726  1.00  0.00     0.133 C 
HETATM   18  O7  UNL     1      -1.584  49.731 -23.399  1.00  0.00    -0.297 OA
HETATM   19  C28 UNL     1      -3.944  50.016 -23.193  1.00  0.00     0.091 C 
HETATM   20  C29 UNL     1      -4.793  49.447 -22.050  1.00  0.00     0.005 C 
HETATM   21  C30 UNL     1      -4.319  48.004 -21.742  1.00  0.00     0.019 C 
ENDROOT
BRANCH   1  22
HETATM   22  C11 UNL     1      -6.910  48.476 -23.242  1.00  0.00     0.185 C 
HETATM   23  O4  UNL     1      -7.806  47.708 -22.863  1.00  0.00    -0.292 OA
BRANCH  22  24
HETATM   24  C10 UNL     1      -6.331  48.405 -24.654  1.00  0.00     0.260 C 
BRANCH  24  25
HETATM   25  O3  UNL     1      -6.843  47.297 -25.396  1.00  0.00    -0.314 OA
BRANCH  25  26
HETATM   26  C9  UNL     1      -7.179  47.587 -26.682  1.00  0.00     0.259 C 
HETATM   27  O2  UNL     1      -6.422  47.496 -27.639  1.00  0.00    -0.265 OA
BRANCH  26  28
HETATM   28  C8  UNL     1      -8.601  48.056 -26.760  1.00  0.00     0.120 C 
BRANCH  28  29
HETATM   29  C7  UNL     1      -8.976  48.334 -28.206  1.00  0.00     0.112 C 
BRANCH  29  30
HETATM   30  C6  UNL     1     -10.080  47.414 -28.677  1.00  0.00     0.218 C 
HETATM   31  N1  UNL     1     -11.097  48.081 -29.320  1.00  0.00    -0.346 N 
HETATM   32  H11 UNL     1     -10.901  49.010 -29.684  1.00  0.00     0.163 HD
HETATM   33  O1  UNL     1     -10.080  46.203 -28.486  1.00  0.00    -0.274 OA
BRANCH  31  34
HETATM   34  C5  UNL     1     -12.186  47.363 -29.999  1.00  0.00     0.186 C 
BRANCH  34  35
HETATM   35  C3  UNL     1     -11.634  46.291 -30.978  1.00  0.00     0.014 C 
HETATM   36  C4  UNL     1     -10.579  46.903 -31.913  1.00  0.00     0.012 C 
BRANCH  35  37
HETATM   37  C2  UNL     1     -11.044  45.076 -30.220  1.00  0.00     0.002 C 
HETATM   38  C1  UNL     1     -11.521  43.725 -30.738  1.00  0.00     0.005 C 
ENDBRANCH  35  37
ENDBRANCH  34  35
BRANCH  34  39
HETATM   39  C31 UNL     1     -13.058  46.716 -28.904  1.00  0.00     0.163 C 
HETATM   40  O8  UNL     1     -14.013  45.975 -29.067  1.00  0.00    -0.648 OA
BRANCH  39  41
HETATM   41  O9  UNL     1     -12.625  46.981 -27.647  1.00  0.00    -0.775 OA
HETATM   42  H43 UNL     1     -13.261  46.499 -27.077  1.00  0.00     0.167 HD
ENDBRANCH  39  41
ENDBRANCH  34  39
ENDBRANCH  31  34
ENDBRANCH  29  30
ENDBRANCH  28  29
ENDBRANCH  26  28
ENDBRANCH  25  26
ENDBRANCH  24  25
ENDBRANCH  22  24
ENDBRANCH   1  22
BRANCH   1  43
HETATM   43  O5  UNL     1      -6.702  50.788 -22.780  1.00  0.00    -0.381 OA
HETATM   44  H18 UNL     1      -6.630  50.715 -23.755  1.00  0.00     0.211 HD
ENDBRANCH   1  43
TORSDOF 13
ENDMDL
