MODEL 1
REMARK minimizedAffinity -8.75475121
REMARK CNNscore 0.578326225
REMARK CNNaffinity 6.68546438
REMARK  8 active torsions:
REMARK  status: ('A' for Active; 'I' for Inactive)
REMARK    1  A    between atoms: C4_4  and  C5_5 
REMARK    2  A    between atoms: C5_5  and  C6_6 
REMARK    3  A    between atoms: C6_6  and  C7_7 
REMARK    4  A    between atoms: C7_7  and  C9_9 
REMARK    5  A    between atoms: C25_26  and  C27_28 
REMARK    6  A    between atoms: C27_28  and  O3_30 
REMARK    7  A    between atoms: C28_31  and  O4_32 
REMARK    8  A    between atoms: C30_34  and  O5_35 
ROOT
HETATM    1  C9  UNL     1      -0.430  50.122 -20.826  1.00  0.00    -0.002 C 
HETATM    2  C10 UNL     1      -1.076  49.635 -19.496  1.00  0.00     0.007 C 
HETATM    3  C11 UNL     1      -2.441  49.018 -19.843  1.00  0.00     0.015 C 
HETATM    4  C12 UNL     1      -2.414  48.808 -21.370  1.00  0.00    -0.005 C 
HETATM    5  C13 UNL     1      -1.657  47.469 -21.627  1.00  0.00     0.021 C 
HETATM    6  C14 UNL     1      -3.716  48.676 -22.157  1.00  0.00    -0.000 C 
HETATM    7  C15 UNL     1      -3.797  49.069 -23.456  1.00  0.00    -0.058 C 
HETATM    8  C16 UNL     1      -2.594  49.739 -24.140  1.00  0.00     0.036 C 
HETATM    9  C17 UNL     1      -1.321  49.967 -23.298  1.00  0.00     0.015 C 
HETATM   10  C18 UNL     1      -1.643  50.115 -21.808  1.00  0.00    -0.028 C 
HETATM   11  C19 UNL     1      -2.480  51.418 -21.606  1.00  0.00     0.016 C 
HETATM   12  C20 UNL     1      -5.096  48.933 -24.322  1.00  0.00     0.011 C 
HETATM   13  C21 UNL     1      -5.757  50.332 -24.293  1.00  0.00     0.023 C 
HETATM   14  C22 UNL     1      -5.995  47.810 -23.705  1.00  0.00     0.029 C 
HETATM   15  C23 UNL     1      -6.215  48.013 -22.205  1.00  0.00     0.090 C 
HETATM   16  C24 UNL     1      -4.902  48.069 -21.469  1.00  0.00     0.157 C 
HETATM   17  O1  UNL     1      -4.836  47.661 -20.311  1.00  0.00    -0.293 OA
HETATM   18  C25 UNL     1      -7.315  47.449 -24.486  1.00  0.00     0.072 C 
HETATM   19  C26 UNL     1      -7.502  45.906 -24.381  1.00  0.00     0.030 C 
HETATM   20  C28 UNL     1      -7.244  47.882 -25.972  1.00  0.00     0.139 C 
HETATM   21  C29 UNL     1      -5.840  47.716 -26.545  1.00  0.00     0.065 C 
HETATM   22  C30 UNL     1      -4.752  48.492 -25.793  1.00  0.00     0.133 C 
ENDROOT
BRANCH   1  23
HETATM   23  C7  UNL     1       0.394  51.426 -20.613  1.00  0.00    -0.014 C 
HETATM   24  C8  UNL     1       0.819  52.025 -21.965  1.00  0.00     0.010 C 
BRANCH  23  25
HETATM   25  C6  UNL     1      -0.294  52.512 -19.759  1.00  0.00     0.008 C 
BRANCH  25  26
HETATM   26  C5  UNL     1       0.550  53.092 -18.619  1.00  0.00     0.028 C 
BRANCH  26  27
HETATM   27  C4  UNL     1       0.647  52.110 -17.480  1.00  0.00    -0.025 C 
HETATM   28  C2  UNL     1       1.645  51.960 -16.588  1.00  0.00    -0.091 C 
HETATM   29  C1  UNL     1       1.544  50.919 -15.499  1.00  0.00     0.042 C 
HETATM   30  C3  UNL     1       2.914  52.764 -16.550  1.00  0.00     0.042 C 
ENDBRANCH  26  27
ENDBRANCH  25  26
ENDBRANCH  23  25
ENDBRANCH   1  23
BRANCH  22  31
HETATM   31  O5  UNL     1      -4.387  49.626 -26.587  1.00  0.00    -0.394 OA
HETATM   32  H46 UNL     1      -3.955  49.293 -27.394  1.00  0.00     0.210 HD
ENDBRANCH  22  31
BRANCH  18  33
HETATM   33  C27 UNL     1      -8.572  48.075 -23.872  1.00  0.00     0.151 C 
HETATM   34  O2  UNL     1      -9.348  47.526 -23.103  1.00  0.00    -0.649 OA
BRANCH  33  35
HETATM   35  O3  UNL     1      -8.804  49.339 -24.250  1.00  0.00    -0.776 OA
HETATM   36  H40 UNL     1      -9.616  49.592 -23.760  1.00  0.00     0.167 HD
ENDBRANCH  33  35
ENDBRANCH  18  33
BRANCH  20  37
HETATM   37  O4  UNL     1      -8.121  47.108 -26.798  1.00  0.00    -0.394 OA
HETATM   38  H42 UNL     1      -9.038  47.275 -26.514  1.00  0.00     0.210 HD
ENDBRANCH  20  37
TORSDOF 8
ENDMDL
MODEL 2
REMARK minimizedAffinity -7.58169031
REMARK CNNscore 0.574685454
REMARK CNNaffinity 6.56402254
REMARK  8 active torsions:
REMARK  status: ('A' for Active; 'I' for Inactive)
REMARK    1  A    between atoms: C4_4  and  C5_5 
REMARK    2  A    between atoms: C5_5  and  C6_6 
REMARK    3  A    between atoms: C6_6  and  C7_7 
REMARK    4  A    between atoms: C7_7  and  C9_9 
REMARK    5  A    between atoms: C25_26  and  C27_28 
REMARK    6  A    between atoms: C27_28  and  O3_30 
REMARK    7  A    between atoms: C28_31  and  O4_32 
REMARK    8  A    between atoms: C30_34  and  O5_35 
ROOT
HETATM    1  C9  UNL     1       6.179  56.036  -7.973  1.00  0.00    -0.002 C 
HETATM    2  C10 UNL     1       6.841  54.732  -8.507  1.00  0.00     0.007 C 
HETATM    3  C11 UNL     1       5.728  53.862  -9.113  1.00  0.00     0.015 C 
HETATM    4  C12 UNL     1       4.518  54.803  -9.269  1.00  0.00    -0.005 C 
HETATM    5  C13 UNL     1       4.730  55.593 -10.598  1.00  0.00     0.021 C 
HETATM    6  C14 UNL     1       3.104  54.238  -9.376  1.00  0.00    -0.000 C 
HETATM    7  C15 UNL     1       2.028  54.943  -8.937  1.00  0.00    -0.058 C 
HETATM    8  C16 UNL     1       2.221  56.302  -8.242  1.00  0.00     0.036 C 
HETATM    9  C17 UNL     1       3.664  56.810  -8.043  1.00  0.00     0.015 C 
HETATM   10  C18 UNL     1       4.666  55.655  -7.947  1.00  0.00    -0.028 C 
HETATM   11  C19 UNL     1       4.361  54.836  -6.653  1.00  0.00     0.016 C 
HETATM   12  C20 UNL     1       0.552  54.427  -9.044  1.00  0.00     0.011 C 
HETATM   13  C21 UNL     1       0.217  53.850  -7.648  1.00  0.00     0.023 C 
HETATM   14  C22 UNL     1       0.475  53.362 -10.189  1.00  0.00     0.029 C 
HETATM   15  C23 UNL     1       1.547  52.282 -10.039  1.00  0.00     0.090 C 
HETATM   16  C24 UNL     1       2.925  52.890 -10.007  1.00  0.00     0.157 C 
HETATM   17  O1  UNL     1       3.880  52.257 -10.456  1.00  0.00    -0.293 OA
HETATM   18  C25 UNL     1      -0.953  52.783 -10.524  1.00  0.00     0.072 C 
HETATM   19  C26 UNL     1      -1.022  52.604 -12.069  1.00  0.00     0.030 C 
HETATM   20  C28 UNL     1      -2.085  53.721 -10.039  1.00  0.00     0.139 C 
HETATM   21  C29 UNL     1      -1.706  55.192 -10.183  1.00  0.00     0.065 C 
HETATM   22  C30 UNL     1      -0.430  55.594  -9.433  1.00  0.00     0.133 C 
ENDROOT
BRANCH   1  23
HETATM   23  C7  UNL     1       6.880  56.538  -6.677  1.00  0.00    -0.014 C 
HETATM   24  C8  UNL     1       5.945  57.467  -5.880  1.00  0.00     0.010 C 
BRANCH  23  25
HETATM   25  C6  UNL     1       7.426  55.433  -5.748  1.00  0.00     0.008 C 
BRANCH  25  26
HETATM   26  C5  UNL     1       8.888  55.593  -5.317  1.00  0.00     0.028 C 
BRANCH  26  27
HETATM   27  C4  UNL     1       9.258  57.051  -5.235  1.00  0.00    -0.025 C 
HETATM   28  C2  UNL     1      10.444  57.595  -4.897  1.00  0.00    -0.091 C 
HETATM   29  C1  UNL     1      10.621  59.095  -4.891  1.00  0.00     0.042 C 
HETATM   30  C3  UNL     1      11.679  56.832  -4.511  1.00  0.00     0.042 C 
ENDBRANCH  26  27
ENDBRANCH  25  26
ENDBRANCH  23  25
ENDBRANCH   1  23
BRANCH  22  31
HETATM   31  O5  UNL     1      -0.815  56.338  -8.271  1.00  0.00    -0.394 OA
HETATM   32  H46 UNL     1      -1.209  57.174  -8.576  1.00  0.00     0.210 HD
ENDBRANCH  22  31
BRANCH  18  33
HETATM   33  C27 UNL     1      -1.199  51.395  -9.921  1.00  0.00     0.151 C 
HETATM   34  O2  UNL     1      -1.432  51.152  -8.746  1.00  0.00    -0.649 OA
BRANCH  33  35
HETATM   35  O3  UNL     1      -1.134  50.388 -10.802  1.00  0.00    -0.776 OA
HETATM   36  H40 UNL     1      -1.332  49.588 -10.267  1.00  0.00     0.167 HD
ENDBRANCH  33  35
ENDBRANCH  18  33
BRANCH  20  37
HETATM   37  O4  UNL     1      -3.293  53.532 -10.785  1.00  0.00    -0.394 OA
HETATM   38  H42 UNL     1      -3.611  52.625 -10.629  1.00  0.00     0.210 HD
ENDBRANCH  20  37
TORSDOF 8
ENDMDL
MODEL 3
REMARK minimizedAffinity -8.73713779
REMARK CNNscore 0.484482139
REMARK CNNaffinity 6.55861998
REMARK  8 active torsions:
REMARK  status: ('A' for Active; 'I' for Inactive)
REMARK    1  A    between atoms: C4_4  and  C5_5 
REMARK    2  A    between atoms: C5_5  and  C6_6 
REMARK    3  A    between atoms: C6_6  and  C7_7 
REMARK    4  A    between atoms: C7_7  and  C9_9 
REMARK    5  A    between atoms: C25_26  and  C27_28 
REMARK    6  A    between atoms: C27_28  and  O3_30 
REMARK    7  A    between atoms: C28_31  and  O4_32 
REMARK    8  A    between atoms: C30_34  and  O5_35 
ROOT
HETATM    1  C9  UNL     1      -0.357  50.203 -20.991  1.00  0.00    -0.002 C 
HETATM    2  C10 UNL     1      -0.472  49.667 -19.534  1.00  0.00     0.007 C 
HETATM    3  C11 UNL     1      -1.803  48.904 -19.425  1.00  0.00     0.015 C 
HETATM    4  C12 UNL     1      -2.261  48.681 -20.879  1.00  0.00    -0.005 C 
HETATM    5  C13 UNL     1      -1.497  47.425 -21.405  1.00  0.00     0.021 C 
HETATM    6  C14 UNL     1      -3.728  48.401 -21.196  1.00  0.00    -0.000 C 
HETATM    7  C15 UNL     1      -4.275  48.769 -22.385  1.00  0.00    -0.058 C 
HETATM    8  C16 UNL     1      -3.443  49.554 -23.413  1.00  0.00     0.036 C 
HETATM    9  C17 UNL     1      -1.994  49.925 -23.033  1.00  0.00     0.015 C 
HETATM   10  C18 UNL     1      -1.818  50.056 -21.517  1.00  0.00    -0.028 C 
HETATM   11  C19 UNL     1      -2.672  51.265 -21.019  1.00  0.00     0.016 C 
HETATM   12  C20 UNL     1      -5.766  48.486 -22.777  1.00  0.00     0.011 C 
HETATM   13  C21 UNL     1      -6.521  49.807 -22.497  1.00  0.00     0.023 C 
HETATM   14  C22 UNL     1      -6.289  47.281 -21.924  1.00  0.00     0.029 C 
HETATM   15  C23 UNL     1      -6.020  47.478 -20.431  1.00  0.00     0.090 C 
HETATM   16  C24 UNL     1      -4.550  47.681 -20.170  1.00  0.00     0.157 C 
HETATM   17  O1  UNL     1      -4.063  47.296 -19.108  1.00  0.00    -0.293 OA
HETATM   18  C25 UNL     1      -7.748  46.773 -22.234  1.00  0.00     0.072 C 
HETATM   19  C26 UNL     1      -7.728  45.221 -22.109  1.00  0.00     0.030 C 
HETATM   20  C28 UNL     1      -8.218  47.193 -23.649  1.00  0.00     0.139 C 
HETATM   21  C29 UNL     1      -7.074  47.170 -24.657  1.00  0.00     0.065 C 
HETATM   22  C30 UNL     1      -5.885  48.065 -24.289  1.00  0.00     0.133 C 
ENDROOT
BRANCH   1  23
HETATM   23  C7  UNL     1       0.352  51.589 -21.031  1.00  0.00    -0.014 C 
HETATM   24  C8  UNL     1       0.178  52.247 -22.412  1.00  0.00     0.010 C 
BRANCH  23  25
HETATM   25  C6  UNL     1      -0.073  52.581 -19.928  1.00  0.00     0.008 C 
BRANCH  25  26
HETATM   26  C5  UNL     1       1.038  53.018 -18.966  1.00  0.00     0.028 C 
BRANCH  26  27
HETATM   27  C4  UNL     1       0.871  52.347 -17.627  1.00  0.00    -0.025 C 
HETATM   28  C2  UNL     1       1.766  52.244 -16.625  1.00  0.00    -0.091 C 
HETATM   29  C1  UNL     1       1.397  51.540 -15.342  1.00  0.00     0.042 C 
HETATM   30  C3  UNL     1       3.167  52.788 -16.644  1.00  0.00     0.042 C 
ENDBRANCH  26  27
ENDBRANCH  25  26
ENDBRANCH  23  25
ENDBRANCH   1  23
BRANCH  22  31
HETATM   31  O5  UNL     1      -5.923  49.223 -25.132  1.00  0.00    -0.394 OA
HETATM   32  H46 UNL     1      -5.750  48.927 -26.043  1.00  0.00     0.210 HD
ENDBRANCH  22  31
BRANCH  18  33
HETATM   33  C27 UNL     1      -8.789  47.270 -21.224  1.00  0.00     0.151 C 
HETATM   34  O2  UNL     1      -9.797  46.673 -20.875  1.00  0.00    -0.649 OA
BRANCH  33  35
HETATM   35  O3  UNL     1      -8.530  48.480 -20.711  1.00  0.00    -0.776 OA
HETATM   36  H40 UNL     1      -9.266  48.636 -20.080  1.00  0.00     0.167 HD
ENDBRANCH  33  35
ENDBRANCH  18  33
BRANCH  20  37
HETATM   37  O4  UNL     1      -9.234  46.321 -24.157  1.00  0.00    -0.394 OA
HETATM   38  H42 UNL     1     -10.016  46.393 -23.582  1.00  0.00     0.210 HD
ENDBRANCH  20  37
TORSDOF 8
ENDMDL
MODEL 4
REMARK minimizedAffinity -8.91063118
REMARK CNNscore 0.482471377
REMARK CNNaffinity 6.78664207
REMARK  8 active torsions:
REMARK  status: ('A' for Active; 'I' for Inactive)
REMARK    1  A    between atoms: C4_4  and  C5_5 
REMARK    2  A    between atoms: C5_5  and  C6_6 
REMARK    3  A    between atoms: C6_6  and  C7_7 
REMARK    4  A    between atoms: C7_7  and  C9_9 
REMARK    5  A    between atoms: C25_26  and  C27_28 
REMARK    6  A    between atoms: C27_28  and  O3_30 
REMARK    7  A    between atoms: C28_31  and  O4_32 
REMARK    8  A    between atoms: C30_34  and  O5_35 
ROOT
HETATM    1  C9  UNL     1      -0.709  50.591 -22.022  1.00  0.00    -0.002 C 
HETATM    2  C10 UNL     1      -0.645  50.317 -20.491  1.00  0.00     0.007 C 
HETATM    3  C11 UNL     1      -1.927  49.563 -20.101  1.00  0.00     0.015 C 
HETATM    4  C12 UNL     1      -2.532  49.079 -21.433  1.00  0.00    -0.005 C 
HETATM    5  C13 UNL     1      -1.784  47.764 -21.817  1.00  0.00     0.021 C 
HETATM    6  C14 UNL     1      -4.014  48.723 -21.527  1.00  0.00    -0.000 C 
HETATM    7  C15 UNL     1      -4.700  48.866 -22.692  1.00  0.00    -0.058 C 
HETATM    8  C16 UNL     1      -4.014  49.472 -23.928  1.00  0.00     0.036 C 
HETATM    9  C17 UNL     1      -2.547  49.929 -23.786  1.00  0.00     0.015 C 
HETATM   10  C18 UNL     1      -2.213  50.329 -22.345  1.00  0.00    -0.028 C 
HETATM   11  C19 UNL     1      -3.051  51.591 -21.970  1.00  0.00     0.016 C 
HETATM   12  C20 UNL     1      -6.213  48.492 -22.857  1.00  0.00     0.011 C 
HETATM   13  C21 UNL     1      -6.982  49.828 -22.726  1.00  0.00     0.023 C 
HETATM   14  C22 UNL     1      -6.595  47.448 -21.755  1.00  0.00     0.029 C 
HETATM   15  C23 UNL     1      -6.173  47.908 -20.359  1.00  0.00     0.090 C 
HETATM   16  C24 UNL     1      -4.692  48.180 -20.306  1.00  0.00     0.157 C 
HETATM   17  O1  UNL     1      -4.077  47.996 -19.256  1.00  0.00    -0.293 OA
HETATM   18  C25 UNL     1      -8.060  46.867 -21.805  1.00  0.00     0.072 C 
HETATM   19  C26 UNL     1      -7.969  45.362 -21.417  1.00  0.00     0.030 C 
HETATM   20  C28 UNL     1      -8.696  47.024 -23.208  1.00  0.00     0.139 C 
HETATM   21  C29 UNL     1      -7.668  46.844 -24.321  1.00  0.00     0.065 C 
HETATM   22  C30 UNL     1      -6.480  47.810 -24.250  1.00  0.00     0.133 C 
ENDROOT
BRANCH   1  23
HETATM   23  C7  UNL     1      -0.061  51.961 -22.381  1.00  0.00    -0.014 C 
HETATM   24  C8  UNL     1       0.785  52.484 -21.207  1.00  0.00     0.010 C 
BRANCH  23  25
HETATM   25  C6  UNL     1       0.781  51.976 -23.674  1.00  0.00     0.008 C 
BRANCH  25  26
HETATM   26  C5  UNL     1       0.554  53.178 -24.598  1.00  0.00     0.028 C 
BRANCH  26  27
HETATM   27  C4  UNL     1       0.234  52.715 -25.996  1.00  0.00    -0.025 C 
HETATM   28  C2  UNL     1       1.028  52.054 -26.861  1.00  0.00    -0.091 C 
HETATM   29  C1  UNL     1       0.510  51.660 -28.223  1.00  0.00     0.042 C 
HETATM   30  C3  UNL     1       2.448  51.636 -26.601  1.00  0.00     0.042 C 
ENDBRANCH  26  27
ENDBRANCH  25  26
ENDBRANCH  23  25
ENDBRANCH   1  23
BRANCH  22  31
HETATM   31  O5  UNL     1      -6.653  48.801 -25.271  1.00  0.00    -0.394 OA
HETATM   32  H46 UNL     1      -6.569  48.353 -26.131  1.00  0.00     0.210 HD
ENDBRANCH  22  31
BRANCH  18  33
HETATM   33  C27 UNL     1      -9.002  47.516 -20.784  1.00  0.00     0.151 C 
HETATM   34  O2  UNL     1     -10.129  47.136 -20.502  1.00  0.00    -0.649 OA
BRANCH  33  35
HETATM   35  O3  UNL     1      -8.501  48.601 -20.179  1.00  0.00    -0.776 OA
HETATM   36  H40 UNL     1      -9.208  48.875 -19.554  1.00  0.00     0.167 HD
ENDBRANCH  33  35
ENDBRANCH  18  33
BRANCH  20  37
HETATM   37  O4  UNL     1      -9.728  46.058 -23.439  1.00  0.00    -0.394 OA
HETATM   38  H42 UNL     1     -10.445  46.217 -22.800  1.00  0.00     0.210 HD
ENDBRANCH  20  37
TORSDOF 8
ENDMDL
MODEL 5
REMARK minimizedAffinity -7.54569292
REMARK CNNscore 0.4475182
REMARK CNNaffinity 6.10741806
REMARK  8 active torsions:
REMARK  status: ('A' for Active; 'I' for Inactive)
REMARK    1  A    between atoms: C4_4  and  C5_5 
REMARK    2  A    between atoms: C5_5  and  C6_6 
REMARK    3  A    between atoms: C6_6  and  C7_7 
REMARK    4  A    between atoms: C7_7  and  C9_9 
REMARK    5  A    between atoms: C25_26  and  C27_28 
REMARK    6  A    between atoms: C27_28  and  O3_30 
REMARK    7  A    between atoms: C28_31  and  O4_32 
REMARK    8  A    between atoms: C30_34  and  O5_35 
ROOT
HETATM    1  C9  UNL     1       3.972  68.914 -37.967  1.00  0.00    -0.002 C 
HETATM    2  C10 UNL     1       5.297  69.629 -38.362  1.00  0.00     0.007 C 
HETATM    3  C11 UNL     1       6.460  68.705 -37.961  1.00  0.00     0.015 C 
HETATM    4  C12 UNL     1       5.811  67.333 -37.693  1.00  0.00    -0.005 C 
HETATM    5  C13 UNL     1       5.637  66.638 -39.079  1.00  0.00     0.021 C 
HETATM    6  C14 UNL     1       6.522  66.296 -36.826  1.00  0.00    -0.000 C 
HETATM    7  C15 UNL     1       5.821  65.386 -36.099  1.00  0.00    -0.058 C 
HETATM    8  C16 UNL     1       4.284  65.435 -36.067  1.00  0.00     0.036 C 
HETATM    9  C17 UNL     1       3.583  66.557 -36.861  1.00  0.00     0.015 C 
HETATM   10  C18 UNL     1       4.471  67.798 -36.997  1.00  0.00    -0.028 C 
HETATM   11  C19 UNL     1       4.698  68.408 -35.578  1.00  0.00     0.016 C 
HETATM   12  C20 UNL     1       6.494  64.282 -35.214  1.00  0.00     0.011 C 
HETATM   13  C21 UNL     1       6.463  64.838 -33.770  1.00  0.00     0.023 C 
HETATM   14  C22 UNL     1       7.944  64.026 -35.747  1.00  0.00     0.029 C 
HETATM   15  C23 UNL     1       8.734  65.325 -35.902  1.00  0.00     0.090 C 
HETATM   16  C24 UNL     1       8.021  66.285 -36.820  1.00  0.00     0.157 C 
HETATM   17  O1  UNL     1       8.674  67.067 -37.509  1.00  0.00    -0.293 OA
HETATM   18  C25 UNL     1       8.765  62.876 -35.048  1.00  0.00     0.072 C 
HETATM   19  C26 UNL     1       9.585  62.157 -36.160  1.00  0.00     0.030 C 
HETATM   20  C28 UNL     1       7.841  61.866 -34.322  1.00  0.00     0.139 C 
HETATM   21  C29 UNL     1       6.536  61.644 -35.080  1.00  0.00     0.065 C 
HETATM   22  C30 UNL     1       5.717  62.917 -35.320  1.00  0.00     0.133 C 
ENDROOT
BRANCH   1  23
HETATM   23  C7  UNL     1       2.896  69.935 -37.493  1.00  0.00    -0.014 C 
HETATM   24  C8  UNL     1       3.206  71.341 -38.038  1.00  0.00     0.010 C 
BRANCH  23  25
HETATM   25  C6  UNL     1       1.437  69.561 -37.827  1.00  0.00     0.008 C 
BRANCH  25  26
HETATM   26  C5  UNL     1       0.641  68.915 -36.687  1.00  0.00     0.028 C 
BRANCH  26  27
HETATM   27  C4  UNL     1      -0.257  69.930 -36.028  1.00  0.00    -0.025 C 
HETATM   28  C2  UNL     1       0.018  70.737 -34.984  1.00  0.00    -0.091 C 
HETATM   29  C1  UNL     1      -1.020  71.708 -34.477  1.00  0.00     0.042 C 
HETATM   30  C3  UNL     1       1.318  70.783 -34.232  1.00  0.00     0.042 C 
ENDBRANCH  26  27
ENDBRANCH  25  26
ENDBRANCH  23  25
ENDBRANCH   1  23
BRANCH  22  31
HETATM   31  O5  UNL     1       4.600  62.903 -34.423  1.00  0.00    -0.394 OA
HETATM   32  H46 UNL     1       4.019  62.168 -34.690  1.00  0.00     0.210 HD
ENDBRANCH  22  31
BRANCH  18  33
HETATM   33  C27 UNL     1       9.787  63.395 -34.030  1.00  0.00     0.151 C 
HETATM   34  O2  UNL     1      10.994  63.482 -34.202  1.00  0.00    -0.649 OA
BRANCH  33  35
HETATM   35  O3  UNL     1       9.261  63.768 -32.857  1.00  0.00    -0.776 OA
HETATM   36  H40 UNL     1      10.031  64.089 -32.339  1.00  0.00     0.167 HD
ENDBRANCH  33  35
ENDBRANCH  18  33
BRANCH  20  37
HETATM   37  O4  UNL     1       8.459  60.582 -34.179  1.00  0.00    -0.394 OA
HETATM   38  H42 UNL     1       9.245  60.681 -33.613  1.00  0.00     0.210 HD
ENDBRANCH  20  37
TORSDOF 8
ENDMDL
MODEL 6
REMARK minimizedAffinity -8.07182598
REMARK CNNscore 0.436813295
REMARK CNNaffinity 6.60412645
REMARK  8 active torsions:
REMARK  status: ('A' for Active; 'I' for Inactive)
REMARK    1  A    between atoms: C4_4  and  C5_5 
REMARK    2  A    between atoms: C5_5  and  C6_6 
REMARK    3  A    between atoms: C6_6  and  C7_7 
REMARK    4  A    between atoms: C7_7  and  C9_9 
REMARK    5  A    between atoms: C25_26  and  C27_28 
REMARK    6  A    between atoms: C27_28  and  O3_30 
REMARK    7  A    between atoms: C28_31  and  O4_32 
REMARK    8  A    between atoms: C30_34  and  O5_35 
ROOT
HETATM    1  C9  UNL     1      -1.945  50.877 -21.974  1.00  0.00    -0.002 C 
HETATM    2  C10 UNL     1      -3.088  49.826 -22.083  1.00  0.00     0.007 C 
HETATM    3  C11 UNL     1      -3.352  49.280 -20.670  1.00  0.00     0.015 C 
HETATM    4  C12 UNL     1      -2.646  50.265 -19.718  1.00  0.00    -0.005 C 
HETATM    5  C13 UNL     1      -3.616  51.471 -19.516  1.00  0.00     0.021 C 
HETATM    6  C14 UNL     1      -2.262  49.836 -18.304  1.00  0.00    -0.000 C 
HETATM    7  C15 UNL     1      -1.191  50.381 -17.668  1.00  0.00    -0.058 C 
HETATM    8  C16 UNL     1      -0.286  51.389 -18.397  1.00  0.00     0.036 C 
HETATM    9  C17 UNL     1      -0.623  51.730 -19.863  1.00  0.00     0.015 C 
HETATM   10  C18 UNL     1      -1.348  50.577 -20.564  1.00  0.00    -0.028 C 
HETATM   11  C19 UNL     1      -0.375  49.360 -20.661  1.00  0.00     0.016 C 
HETATM   12  C20 UNL     1      -0.764  50.001 -16.209  1.00  0.00     0.011 C 
HETATM   13  C21 UNL     1       0.382  48.975 -16.371  1.00  0.00     0.023 C 
HETATM   14  C22 UNL     1      -2.010  49.424 -15.456  1.00  0.00     0.029 C 
HETATM   15  C23 UNL     1      -2.700  48.318 -16.256  1.00  0.00     0.090 C 
HETATM   16  C24 UNL     1      -3.117  48.815 -17.616  1.00  0.00     0.157 C 
HETATM   17  O1  UNL     1      -4.120  48.346 -18.154  1.00  0.00    -0.293 OA
HETATM   18  C25 UNL     1      -1.816  49.065 -13.933  1.00  0.00     0.072 C 
HETATM   19  C26 UNL     1      -3.132  49.458 -13.199  1.00  0.00     0.030 C 
HETATM   20  C28 UNL     1      -0.610  49.813 -13.313  1.00  0.00     0.139 C 
HETATM   21  C29 UNL     1      -0.458  51.219 -13.885  1.00  0.00     0.065 C 
HETATM   22  C30 UNL     1      -0.289  51.270 -15.408  1.00  0.00     0.133 C 
ENDROOT
BRANCH   1  23
HETATM   23  C7  UNL     1      -1.026  50.849 -23.231  1.00  0.00    -0.014 C 
HETATM   24  C8  UNL     1      -1.860  50.630 -24.507  1.00  0.00     0.010 C 
BRANCH  23  25
HETATM   25  C6  UNL     1      -0.115  52.081 -23.413  1.00  0.00     0.008 C 
BRANCH  25  26
HETATM   26  C5  UNL     1      -0.130  52.716 -24.809  1.00  0.00     0.028 C 
BRANCH  26  27
HETATM   27  C4  UNL     1       1.149  52.407 -25.543  1.00  0.00    -0.025 C 
HETATM   28  C2  UNL     1       1.300  51.869 -26.769  1.00  0.00    -0.091 C 
HETATM   29  C1  UNL     1       2.680  51.652 -27.342  1.00  0.00     0.042 C 
HETATM   30  C3  UNL     1       0.185  51.443 -27.682  1.00  0.00     0.042 C 
ENDBRANCH  26  27
ENDBRANCH  25  26
ENDBRANCH  23  25
ENDBRANCH   1  23
BRANCH  22  31
HETATM   31  O5  UNL     1       1.084  51.561 -15.693  1.00  0.00    -0.394 OA
HETATM   32  H46 UNL     1       1.262  52.466 -15.384  1.00  0.00     0.210 HD
ENDBRANCH  22  31
BRANCH  18  33
HETATM   33  C27 UNL     1      -1.619  47.565 -13.686  1.00  0.00     0.151 C 
HETATM   34  O2  UNL     1      -2.505  46.726 -13.605  1.00  0.00    -0.649 OA
BRANCH  33  35
HETATM   35  O3  UNL     1      -0.341  47.189 -13.545  1.00  0.00    -0.776 OA
HETATM   36  H40 UNL     1      -0.389  46.217 -13.418  1.00  0.00     0.167 HD
ENDBRANCH  33  35
ENDBRANCH  18  33
BRANCH  20  37
HETATM   37  O4  UNL     1      -0.741  49.956 -11.894  1.00  0.00    -0.394 OA
HETATM   38  H42 UNL     1      -0.740  49.068 -11.495  1.00  0.00     0.210 HD
ENDBRANCH  20  37
TORSDOF 8
ENDMDL
MODEL 7
REMARK minimizedAffinity -7.57658815
REMARK CNNscore 0.404600322
REMARK CNNaffinity 6.50980949
REMARK  8 active torsions:
REMARK  status: ('A' for Active; 'I' for Inactive)
REMARK    1  A    between atoms: C4_4  and  C5_5 
REMARK    2  A    between atoms: C5_5  and  C6_6 
REMARK    3  A    between atoms: C6_6  and  C7_7 
REMARK    4  A    between atoms: C7_7  and  C9_9 
REMARK    5  A    between atoms: C25_26  and  C27_28 
REMARK    6  A    between atoms: C27_28  and  O3_30 
REMARK    7  A    between atoms: C28_31  and  O4_32 
REMARK    8  A    between atoms: C30_34  and  O5_35 
ROOT
HETATM    1  C9  UNL     1      -3.887  50.057 -23.378  1.00  0.00    -0.002 C 
HETATM    2  C10 UNL     1      -4.127  48.550 -23.683  1.00  0.00     0.007 C 
HETATM    3  C11 UNL     1      -4.006  47.783 -22.356  1.00  0.00     0.015 C 
HETATM    4  C12 UNL     1      -4.075  48.862 -21.258  1.00  0.00    -0.005 C 
HETATM    5  C13 UNL     1      -5.586  49.176 -21.028  1.00  0.00     0.021 C 
HETATM    6  C14 UNL     1      -3.520  48.585 -19.863  1.00  0.00    -0.000 C 
HETATM    7  C15 UNL     1      -3.025  49.588 -19.089  1.00  0.00    -0.058 C 
HETATM    8  C16 UNL     1      -2.937  51.021 -19.639  1.00  0.00     0.036 C 
HETATM    9  C17 UNL     1      -3.401  51.266 -21.090  1.00  0.00     0.015 C 
HETATM   10  C18 UNL     1      -3.245  50.011 -21.956  1.00  0.00    -0.028 C 
HETATM   11  C19 UNL     1      -1.725  49.679 -22.084  1.00  0.00     0.016 C 
HETATM   12  C20 UNL     1      -2.468  49.369 -17.641  1.00  0.00     0.011 C 
HETATM   13  C21 UNL     1      -0.930  49.298 -17.800  1.00  0.00     0.023 C 
HETATM   14  C22 UNL     1      -3.091  48.057 -17.056  1.00  0.00     0.029 C 
HETATM   15  C23 UNL     1      -2.936  46.874 -18.013  1.00  0.00     0.090 C 
HETATM   16  C24 UNL     1      -3.560  47.177 -19.351  1.00  0.00     0.157 C 
HETATM   17  O1  UNL     1      -4.048  46.263 -20.015  1.00  0.00    -0.293 OA
HETATM   18  C25 UNL     1      -2.729  47.703 -15.563  1.00  0.00     0.072 C 
HETATM   19  C26 UNL     1      -4.010  47.104 -14.911  1.00  0.00     0.030 C 
HETATM   20  C28 UNL     1      -2.255  48.949 -14.773  1.00  0.00     0.139 C 
HETATM   21  C29 UNL     1      -3.006  50.208 -15.195  1.00  0.00     0.065 C 
HETATM   22  C30 UNL     1      -2.893  50.546 -16.686  1.00  0.00     0.133 C 
ENDROOT
BRANCH   1  23
HETATM   23  C7  UNL     1      -3.139  50.761 -24.548  1.00  0.00    -0.014 C 
HETATM   24  C8  UNL     1      -2.677  52.168 -24.128  1.00  0.00     0.010 C 
BRANCH  23  25
HETATM   25  C6  UNL     1      -1.947  49.979 -25.138  1.00  0.00     0.008 C 
BRANCH  25  26
HETATM   26  C5  UNL     1      -1.324  50.577 -26.405  1.00  0.00     0.028 C 
BRANCH  26  27
HETATM   27  C4  UNL     1       0.166  50.730 -26.240  1.00  0.00    -0.025 C 
HETATM   28  C2  UNL     1       1.025  51.428 -27.009  1.00  0.00    -0.091 C 
HETATM   29  C1  UNL     1       2.494  51.472 -26.663  1.00  0.00     0.042 C 
HETATM   30  C3  UNL     1       0.660  52.218 -28.234  1.00  0.00     0.042 C 
ENDBRANCH  26  27
ENDBRANCH  25  26
ENDBRANCH  23  25
ENDBRANCH   1  23
BRANCH  22  31
HETATM   31  O5  UNL     1      -1.996  51.654 -16.823  1.00  0.00    -0.394 OA
HETATM   32  H46 UNL     1      -2.423  52.429 -16.415  1.00  0.00     0.210 HD
ENDBRANCH  22  31
BRANCH  18  33
HETATM   33  C27 UNL     1      -1.644  46.628 -15.442  1.00  0.00     0.151 C 
HETATM   34  O2  UNL     1      -0.491  46.805 -15.074  1.00  0.00    -0.649 OA
BRANCH  33  35
HETATM   35  O3  UNL     1      -2.041  45.397 -15.792  1.00  0.00    -0.776 OA
HETATM   36  H40 UNL     1      -1.250  44.836 -15.639  1.00  0.00     0.167 HD
ENDBRANCH  33  35
ENDBRANCH  18  33
BRANCH  20  37
HETATM   37  O4  UNL     1      -2.459  48.799 -13.364  1.00  0.00    -0.394 OA
HETATM   38  H42 UNL     1      -1.910  48.058 -13.051  1.00  0.00     0.210 HD
ENDBRANCH  20  37
TORSDOF 8
ENDMDL
MODEL 8
REMARK minimizedAffinity -7.65547419
REMARK CNNscore 0.38350752
REMARK CNNaffinity 6.60250235
REMARK  8 active torsions:
REMARK  status: ('A' for Active; 'I' for Inactive)
REMARK    1  A    between atoms: C4_4  and  C5_5 
REMARK    2  A    between atoms: C5_5  and  C6_6 
REMARK    3  A    between atoms: C6_6  and  C7_7 
REMARK    4  A    between atoms: C7_7  and  C9_9 
REMARK    5  A    between atoms: C25_26  and  C27_28 
REMARK    6  A    between atoms: C27_28  and  O3_30 
REMARK    7  A    between atoms: C28_31  and  O4_32 
REMARK    8  A    between atoms: C30_34  and  O5_35 
ROOT
HETATM    1  C9  UNL     1      -1.781  50.640 -22.407  1.00  0.00    -0.002 C 
HETATM    2  C10 UNL     1      -1.872  51.730 -21.300  1.00  0.00     0.007 C 
HETATM    3  C11 UNL     1      -2.457  51.066 -20.042  1.00  0.00     0.015 C 
HETATM    4  C12 UNL     1      -2.349  49.550 -20.298  1.00  0.00    -0.005 C 
HETATM    5  C13 UNL     1      -0.890  49.134 -19.932  1.00  0.00     0.021 C 
HETATM    6  C14 UNL     1      -3.235  48.570 -19.533  1.00  0.00    -0.000 C 
HETATM    7  C15 UNL     1      -3.609  47.384 -20.082  1.00  0.00    -0.058 C 
HETATM    8  C16 UNL     1      -3.215  47.037 -21.527  1.00  0.00     0.036 C 
HETATM    9  C17 UNL     1      -2.412  48.086 -22.325  1.00  0.00     0.015 C 
HETATM   10  C18 UNL     1      -2.695  49.511 -21.839  1.00  0.00    -0.028 C 
HETATM   11  C19 UNL     1      -4.189  49.853 -22.140  1.00  0.00     0.016 C 
HETATM   12  C20 UNL     1      -4.494  46.327 -19.336  1.00  0.00     0.011 C 
HETATM   13  C21 UNL     1      -5.931  46.548 -19.865  1.00  0.00     0.023 C 
HETATM   14  C22 UNL     1      -4.360  46.558 -17.794  1.00  0.00     0.029 C 
HETATM   15  C23 UNL     1      -4.606  48.018 -17.411  1.00  0.00     0.090 C 
HETATM   16  C24 UNL     1      -3.660  48.935 -18.143  1.00  0.00     0.157 C 
HETATM   17  O1  UNL     1      -3.291  49.980 -17.610  1.00  0.00    -0.293 OA
HETATM   18  C25 UNL     1      -5.103  45.533 -16.854  1.00  0.00     0.072 C 
HETATM   19  C26 UNL     1      -4.181  45.288 -15.624  1.00  0.00     0.030 C 
HETATM   20  C28 UNL     1      -5.401  44.197 -17.579  1.00  0.00     0.139 C 
HETATM   21  C29 UNL     1      -4.284  43.814 -18.546  1.00  0.00     0.065 C 
HETATM   22  C30 UNL     1      -3.995  44.862 -19.627  1.00  0.00     0.133 C 
ENDROOT
BRANCH   1  23
HETATM   23  C7  UNL     1      -2.064  51.238 -23.817  1.00  0.00    -0.014 C 
HETATM   24  C8  UNL     1      -2.817  52.575 -23.697  1.00  0.00     0.010 C 
BRANCH  23  25
HETATM   25  C6  UNL     1      -0.826  51.421 -24.719  1.00  0.00     0.008 C 
BRANCH  25  26
HETATM   26  C5  UNL     1      -0.825  50.603 -26.017  1.00  0.00     0.028 C 
BRANCH  26  27
HETATM   27  C4  UNL     1       0.480  50.778 -26.750  1.00  0.00    -0.025 C 
HETATM   28  C2  UNL     1       0.863  51.799 -27.542  1.00  0.00    -0.091 C 
HETATM   29  C1  UNL     1       2.232  51.797 -28.179  1.00  0.00     0.042 C 
HETATM   30  C3  UNL     1       0.036  53.008 -27.875  1.00  0.00     0.042 C 
ENDBRANCH  26  27
ENDBRANCH  25  26
ENDBRANCH  23  25
ENDBRANCH   1  23
BRANCH  22  31
HETATM   31  O5  UNL     1      -4.532  44.384 -20.865  1.00  0.00    -0.394 OA
HETATM   32  H46 UNL     1      -4.019  43.598 -21.123  1.00  0.00     0.210 HD
ENDBRANCH  22  31
BRANCH  18  33
HETATM   33  C27 UNL     1      -6.426  46.072 -16.298  1.00  0.00     0.151 C 
HETATM   34  O2  UNL     1      -7.490  46.128 -16.897  1.00  0.00    -0.649 OA
BRANCH  33  35
HETATM   35  O3  UNL     1      -6.355  46.520 -15.037  1.00  0.00    -0.776 OA
HETATM   36  H40 UNL     1      -7.273  46.804 -14.831  1.00  0.00     0.167 HD
ENDBRANCH  33  35
ENDBRANCH  18  33
BRANCH  20  37
HETATM   37  O4  UNL     1      -5.540  43.108 -16.659  1.00  0.00    -0.394 OA
HETATM   38  H42 UNL     1      -6.312  43.283 -16.091  1.00  0.00     0.210 HD
ENDBRANCH  20  37
TORSDOF 8
ENDMDL
MODEL 9
REMARK minimizedAffinity -7.25509882
REMARK CNNscore 0.377549827
REMARK CNNaffinity 6.25060654
REMARK  8 active torsions:
REMARK  status: ('A' for Active; 'I' for Inactive)
REMARK    1  A    between atoms: C4_4  and  C5_5 
REMARK    2  A    between atoms: C5_5  and  C6_6 
REMARK    3  A    between atoms: C6_6  and  C7_7 
REMARK    4  A    between atoms: C7_7  and  C9_9 
REMARK    5  A    between atoms: C25_26  and  C27_28 
REMARK    6  A    between atoms: C27_28  and  O3_30 
REMARK    7  A    between atoms: C28_31  and  O4_32 
REMARK    8  A    between atoms: C30_34  and  O5_35 
ROOT
HETATM    1  C9  UNL     1       4.024  55.063  -8.144  1.00  0.00    -0.002 C 
HETATM    2  C10 UNL     1       3.101  56.075  -7.405  1.00  0.00     0.007 C 
HETATM    3  C11 UNL     1       1.645  55.684  -7.711  1.00  0.00     0.015 C 
HETATM    4  C12 UNL     1       1.724  54.260  -8.296  1.00  0.00    -0.005 C 
HETATM    5  C13 UNL     1       1.814  53.280  -7.086  1.00  0.00     0.021 C 
HETATM    6  C14 UNL     1       0.588  53.712  -9.156  1.00  0.00    -0.000 C 
HETATM    7  C15 UNL     1       0.822  52.791 -10.129  1.00  0.00    -0.058 C 
HETATM    8  C16 UNL     1       2.259  52.341 -10.443  1.00  0.00     0.036 C 
HETATM    9  C17 UNL     1       3.407  52.987  -9.640  1.00  0.00     0.015 C 
HETATM   10  C18 UNL     1       3.043  54.394  -9.156  1.00  0.00    -0.028 C 
HETATM   11  C19 UNL     1       2.871  55.320 -10.401  1.00  0.00     0.016 C 
HETATM   12  C20 UNL     1      -0.306  52.173 -11.025  1.00  0.00     0.011 C 
HETATM   13  C21 UNL     1      -0.261  52.970 -12.350  1.00  0.00     0.023 C 
HETATM   14  C22 UNL     1      -1.672  52.301 -10.271  1.00  0.00     0.029 C 
HETATM   15  C23 UNL     1      -1.922  53.727  -9.779  1.00  0.00     0.090 C 
HETATM   16  C24 UNL     1      -0.805  54.192  -8.881  1.00  0.00     0.157 C 
HETATM   17  O1  UNL     1      -1.045  54.987  -7.973  1.00  0.00    -0.293 OA
HETATM   18  C25 UNL     1      -2.929  51.650 -10.965  1.00  0.00     0.072 C 
HETATM   19  C26 UNL     1      -3.803  51.028  -9.836  1.00  0.00     0.030 C 
HETATM   20  C28 UNL     1      -2.524  50.565 -11.993  1.00  0.00     0.139 C 
HETATM   21  C29 UNL     1      -1.299  49.779 -11.536  1.00  0.00     0.065 C 
HETATM   22  C30 UNL     1      -0.057  50.638 -11.270  1.00  0.00     0.133 C 
ENDROOT
BRANCH   1  23
HETATM   23  C7  UNL     1       5.324  55.751  -8.656  1.00  0.00    -0.014 C 
HETATM   24  C8  UNL     1       6.004  56.538  -7.522  1.00  0.00     0.010 C 
BRANCH  23  25
HETATM   25  C6  UNL     1       6.351  54.812  -9.323  1.00  0.00     0.008 C 
BRANCH  25  26
HETATM   26  C5  UNL     1       6.723  53.560  -8.520  1.00  0.00     0.028 C 
BRANCH  26  27
HETATM   27  C4  UNL     1       6.685  52.338  -9.401  1.00  0.00    -0.025 C 
HETATM   28  C2  UNL     1       7.143  51.099  -9.132  1.00  0.00    -0.091 C 
HETATM   29  C1  UNL     1       6.994  49.994 -10.150  1.00  0.00     0.042 C 
HETATM   30  C3  UNL     1       7.815  50.671  -7.858  1.00  0.00     0.042 C 
ENDBRANCH  26  27
ENDBRANCH  25  26
ENDBRANCH  23  25
ENDBRANCH   1  23
BRANCH  22  31
HETATM   31  O5  UNL     1       0.859  50.443 -12.354  1.00  0.00    -0.394 OA
HETATM   32  H46 UNL     1       1.169  49.521 -12.312  1.00  0.00     0.210 HD
ENDBRANCH  22  31
BRANCH  18  33
HETATM   33  C27 UNL     1      -3.819  52.671 -11.682  1.00  0.00     0.151 C 
HETATM   34  O2  UNL     1      -3.761  52.971 -12.866  1.00  0.00    -0.649 OA
BRANCH  33  35
HETATM   35  O3  UNL     1      -4.724  53.268 -10.896  1.00  0.00    -0.776 OA
HETATM   36  H40 UNL     1      -5.216  53.863 -11.503  1.00  0.00     0.167 HD
ENDBRANCH  33  35
ENDBRANCH  18  33
BRANCH  20  37
HETATM   37  O4  UNL     1      -3.571  49.610 -12.204  1.00  0.00    -0.394 OA
HETATM   38  H42 UNL     1      -4.335  50.074 -12.591  1.00  0.00     0.210 HD
ENDBRANCH  20  37
TORSDOF 8
ENDMDL
