MODEL 1
REMARK minimizedAffinity -9.58405399
REMARK CNNscore 0.85687238
REMARK CNNaffinity 7.50781393
REMARK  6 active torsions:
REMARK  status: ('A' for Active; 'I' for Inactive)
REMARK    1  A    between atoms: C12_13  and  C13_14 
REMARK    2  A    between atoms: C13_14  and  C15_16 
REMARK    3  A    between atoms: C15_16  and  C16_17 
REMARK    4  A    between atoms: C16_17  and  C17_18 
REMARK    5  A    between atoms: C18_19  and  C20_21 
REMARK    6  A    between atoms: C20_21  and  O3_23 
ROOT
HETATM    1  C1  UNL     1      -3.068  51.620 -26.582  1.00  0.00     0.052 C 
HETATM    2  C2  UNL     1      -1.895  52.222 -25.856  1.00  0.00    -0.013 C 
HETATM    3  C3  UNL     1      -1.759  52.397 -24.518  1.00  0.00    -0.066 C 
HETATM    4  C4  UNL     1      -2.854  52.019 -23.540  1.00  0.00     0.036 C 
HETATM    5  C5  UNL     1      -2.322  51.194 -22.374  1.00  0.00     0.010 C 
HETATM    6  C6  UNL     1      -1.260  51.991 -21.614  1.00  0.00     0.007 C 
HETATM    7  C7  UNL     1      -0.066  52.315 -22.554  1.00  0.00     0.068 C 
HETATM    8  C8  UNL     1       0.982  53.119 -21.758  1.00  0.00     0.133 C 
HETATM    9  O1  UNL     1       1.466  54.173 -22.171  1.00  0.00    -0.298 OA
HETATM   10  C9  UNL     1       1.433  52.550 -20.413  1.00  0.00     0.089 C 
HETATM   11  C10 UNL     1       0.201  52.310 -19.531  1.00  0.00    -0.026 C 
HETATM   12  C11 UNL     1      -0.437  53.703 -19.220  1.00  0.00     0.016 C 
HETATM   13  C12 UNL     1       0.402  51.543 -18.185  1.00  0.00    -0.002 C 
HETATM   14  C21 UNL     1      -1.030  50.975 -17.915  1.00  0.00     0.006 C 
HETATM   15  C22 UNL     1      -1.825  51.044 -19.234  1.00  0.00     0.011 C 
HETATM   16  C23 UNL     1      -0.760  51.315 -20.305  1.00  0.00    -0.032 C 
HETATM   17  C24 UNL     1      -0.116  49.926 -20.637  1.00  0.00     0.016 C 
HETATM   18  C25 UNL     1      -0.514  53.032 -23.867  1.00  0.00     0.027 C 
HETATM   19  C26 UNL     1       0.669  53.057 -24.860  1.00  0.00     0.018 C 
HETATM   20  C27 UNL     1       0.255  53.595 -26.212  1.00  0.00     0.084 C 
HETATM   21  C28 UNL     1      -0.825  52.723 -26.785  1.00  0.00     0.155 C 
HETATM   22  O4  UNL     1      -0.870  52.474 -27.989  1.00  0.00    -0.293 OA
ENDROOT
BRANCH  13  23
HETATM   23  C13 UNL     1       0.976  52.278 -16.934  1.00  0.00    -0.014 C 
HETATM   24  C14 UNL     1       2.475  52.564 -17.068  1.00  0.00     0.010 C 
BRANCH  23  25
HETATM   25  C15 UNL     1       0.717  51.433 -15.653  1.00  0.00     0.008 C 
BRANCH  25  26
HETATM   26  C16 UNL     1       1.445  51.893 -14.382  1.00  0.00     0.028 C 
BRANCH  26  27
HETATM   27  C17 UNL     1       2.515  50.935 -13.936  1.00  0.00    -0.013 C 
HETATM   28  C18 UNL     1       3.158  50.930 -12.752  1.00  0.00     0.008 C 
HETATM   29  C19 UNL     1       2.959  51.920 -11.644  1.00  0.00     0.055 C 
BRANCH  28  30
HETATM   30  C20 UNL     1       4.168  49.859 -12.549  1.00  0.00     0.171 C 
HETATM   31  O2  UNL     1       4.329  49.189 -11.544  1.00  0.00    -0.646 OA
BRANCH  30  32
HETATM   32  O3  UNL     1       4.943  49.676 -13.631  1.00  0.00    -0.773 OA
HETATM   33  H28 UNL     1       5.553  48.961 -13.355  1.00  0.00     0.167 HD
ENDBRANCH  30  32
ENDBRANCH  28  30
ENDBRANCH  26  27
ENDBRANCH  25  26
ENDBRANCH  23  25
ENDBRANCH  13  23
TORSDOF 6
ENDMDL
MODEL 2
REMARK minimizedAffinity -7.57211065
REMARK CNNscore 0.815401495
REMARK CNNaffinity 6.81035471
REMARK  6 active torsions:
REMARK  status: ('A' for Active; 'I' for Inactive)
REMARK    1  A    between atoms: C12_13  and  C13_14 
REMARK    2  A    between atoms: C13_14  and  C15_16 
REMARK    3  A    between atoms: C15_16  and  C16_17 
REMARK    4  A    between atoms: C16_17  and  C17_18 
REMARK    5  A    between atoms: C18_19  and  C20_21 
REMARK    6  A    between atoms: C20_21  and  O3_23 
ROOT
HETATM    1  C1  UNL     1      -2.062  51.882 -13.245  1.00  0.00     0.052 C 
HETATM    2  C2  UNL     1      -1.932  52.759 -12.029  1.00  0.00    -0.013 C 
HETATM    3  C3  UNL     1      -0.830  52.938 -11.260  1.00  0.00    -0.066 C 
HETATM    4  C4  UNL     1       0.469  52.204 -11.527  1.00  0.00     0.036 C 
HETATM    5  C5  UNL     1       1.669  53.143 -11.533  1.00  0.00     0.010 C 
HETATM    6  C6  UNL     1       1.789  53.842 -10.176  1.00  0.00     0.007 C 
HETATM    7  C7  UNL     1       0.517  54.692  -9.903  1.00  0.00     0.068 C 
HETATM    8  C8  UNL     1       0.671  55.378  -8.531  1.00  0.00     0.133 C 
HETATM    9  O1  UNL     1      -0.202  55.334  -7.663  1.00  0.00    -0.298 OA
HETATM   10  C9  UNL     1       1.962  56.155  -8.273  1.00  0.00     0.089 C 
HETATM   11  C10 UNL     1       3.161  55.230  -8.514  1.00  0.00    -0.026 C 
HETATM   12  C11 UNL     1       3.112  54.100  -7.433  1.00  0.00     0.016 C 
HETATM   13  C12 UNL     1       4.589  55.863  -8.505  1.00  0.00    -0.002 C 
HETATM   14  C21 UNL     1       5.408  54.835  -9.351  1.00  0.00     0.006 C 
HETATM   15  C22 UNL     1       4.408  53.960 -10.134  1.00  0.00     0.011 C 
HETATM   16  C23 UNL     1       3.073  54.704 -10.006  1.00  0.00    -0.032 C 
HETATM   17  C24 UNL     1       3.101  55.834 -11.089  1.00  0.00     0.016 C 
HETATM   18  C25 UNL     1      -0.798  53.859 -10.024  1.00  0.00     0.027 C 
HETATM   19  C26 UNL     1      -2.008  54.820 -10.027  1.00  0.00     0.018 C 
HETATM   20  C27 UNL     1      -3.304  54.089 -10.301  1.00  0.00     0.084 C 
HETATM   21  C28 UNL     1      -3.225  53.424 -11.646  1.00  0.00     0.155 C 
HETATM   22  O4  UNL     1      -4.204  53.371 -12.388  1.00  0.00    -0.293 OA
ENDROOT
BRANCH  13  23
HETATM   23  C13 UNL     1       5.299  56.195  -7.156  1.00  0.00    -0.014 C 
HETATM   24  C14 UNL     1       5.040  57.636  -6.704  1.00  0.00     0.010 C 
BRANCH  23  25
HETATM   25  C15 UNL     1       6.831  55.955  -7.286  1.00  0.00     0.008 C 
BRANCH  25  26
HETATM   26  C16 UNL     1       7.548  55.465  -6.020  1.00  0.00     0.028 C 
BRANCH  26  27
HETATM   27  C17 UNL     1       8.838  56.190  -5.755  1.00  0.00    -0.013 C 
HETATM   28  C18 UNL     1       9.006  57.309  -5.022  1.00  0.00     0.008 C 
HETATM   29  C19 UNL     1       7.915  58.085  -4.349  1.00  0.00     0.055 C 
BRANCH  28  30
HETATM   30  C20 UNL     1      10.395  57.820  -4.899  1.00  0.00     0.171 C 
HETATM   31  O2  UNL     1      11.362  57.211  -4.477  1.00  0.00    -0.646 OA
BRANCH  30  32
HETATM   32  O3  UNL     1      10.510  59.093  -5.313  1.00  0.00    -0.773 OA
HETATM   33  H28 UNL     1      11.458  59.294  -5.170  1.00  0.00     0.167 HD
ENDBRANCH  30  32
ENDBRANCH  28  30
ENDBRANCH  26  27
ENDBRANCH  25  26
ENDBRANCH  23  25
ENDBRANCH  13  23
TORSDOF 6
ENDMDL
MODEL 3
REMARK minimizedAffinity -7.49934435
REMARK CNNscore 0.767321527
REMARK CNNaffinity 6.86041594
REMARK  6 active torsions:
REMARK  status: ('A' for Active; 'I' for Inactive)
REMARK    1  A    between atoms: C12_13  and  C13_14 
REMARK    2  A    between atoms: C13_14  and  C15_16 
REMARK    3  A    between atoms: C15_16  and  C16_17 
REMARK    4  A    between atoms: C16_17  and  C17_18 
REMARK    5  A    between atoms: C18_19  and  C20_21 
REMARK    6  A    between atoms: C20_21  and  O3_23 
ROOT
HETATM    1  C1  UNL     1      -1.606  51.603 -13.069  1.00  0.00     0.052 C 
HETATM    2  C2  UNL     1      -1.636  52.562 -11.910  1.00  0.00    -0.013 C 
HETATM    3  C3  UNL     1      -0.608  52.892 -11.090  1.00  0.00    -0.066 C 
HETATM    4  C4  UNL     1       0.766  52.268 -11.229  1.00  0.00     0.036 C 
HETATM    5  C5  UNL     1       1.875  53.314 -11.226  1.00  0.00     0.010 C 
HETATM    6  C6  UNL     1       1.841  54.104  -9.915  1.00  0.00     0.007 C 
HETATM    7  C7  UNL     1       0.483  54.846  -9.778  1.00  0.00     0.068 C 
HETATM    8  C8  UNL     1       0.483  55.627  -8.449  1.00  0.00     0.133 C 
HETATM    9  O1  UNL     1      -0.437  55.555  -7.634  1.00  0.00    -0.298 OA
HETATM   10  C9  UNL     1       1.679  56.537  -8.167  1.00  0.00     0.089 C 
HETATM   11  C10 UNL     1       2.971  55.716  -8.272  1.00  0.00    -0.026 C 
HETATM   12  C11 UNL     1       2.952  54.656  -7.122  1.00  0.00     0.016 C 
HETATM   13  C12 UNL     1       4.331  56.480  -8.221  1.00  0.00    -0.002 C 
HETATM   14  C21 UNL     1       5.294  55.483  -8.945  1.00  0.00     0.006 C 
HETATM   15  C22 UNL     1       4.431  54.471  -9.725  1.00  0.00     0.011 C 
HETATM   16  C23 UNL     1       3.029  55.093  -9.728  1.00  0.00    -0.032 C 
HETATM   17  C24 UNL     1       3.026  56.151 -10.882  1.00  0.00     0.016 C 
HETATM   18  C25 UNL     1      -0.741  53.887  -9.920  1.00  0.00     0.027 C 
HETATM   19  C26 UNL     1      -2.030  54.727 -10.060  1.00  0.00     0.018 C 
HETATM   20  C27 UNL     1      -3.234  53.862 -10.362  1.00  0.00     0.084 C 
HETATM   21  C28 UNL     1      -3.006  53.125 -11.651  1.00  0.00     0.155 C 
HETATM   22  O4  UNL     1      -3.925  52.934 -12.446  1.00  0.00    -0.293 OA
ENDROOT
BRANCH  13  23
HETATM   23  C13 UNL     1       4.919  56.960  -6.857  1.00  0.00    -0.014 C 
HETATM   24  C14 UNL     1       6.327  56.410  -6.607  1.00  0.00     0.010 C 
BRANCH  23  25
HETATM   25  C15 UNL     1       3.977  56.538  -5.692  1.00  0.00     0.008 C 
BRANCH  25  26
HETATM   26  C16 UNL     1       3.190  57.669  -5.016  1.00  0.00     0.028 C 
BRANCH  26  27
HETATM   27  C17 UNL     1       1.707  57.421  -4.989  1.00  0.00    -0.013 C 
HETATM   28  C18 UNL     1       0.835  57.813  -4.039  1.00  0.00     0.008 C 
HETATM   29  C19 UNL     1       1.184  58.551  -2.782  1.00  0.00     0.055 C 
BRANCH  28  30
HETATM   30  C20 UNL     1      -0.590  57.455  -4.257  1.00  0.00     0.171 C 
HETATM   31  O2  UNL     1      -1.562  58.145  -4.007  1.00  0.00    -0.646 OA
BRANCH  30  32
HETATM   32  O3  UNL     1      -0.734  56.227  -4.783  1.00  0.00    -0.773 OA
HETATM   33  H28 UNL     1      -1.705  56.127  -4.863  1.00  0.00     0.167 HD
ENDBRANCH  30  32
ENDBRANCH  28  30
ENDBRANCH  26  27
ENDBRANCH  25  26
ENDBRANCH  23  25
ENDBRANCH  13  23
TORSDOF 6
ENDMDL
MODEL 4
REMARK minimizedAffinity -7.74964857
REMARK CNNscore 0.660750031
REMARK CNNaffinity 6.57579422
REMARK  6 active torsions:
REMARK  status: ('A' for Active; 'I' for Inactive)
REMARK    1  A    between atoms: C12_13  and  C13_14 
REMARK    2  A    between atoms: C13_14  and  C15_16 
REMARK    3  A    between atoms: C15_16  and  C16_17 
REMARK    4  A    between atoms: C16_17  and  C17_18 
REMARK    5  A    between atoms: C18_19  and  C20_21 
REMARK    6  A    between atoms: C20_21  and  O3_23 
ROOT
HETATM    1  C1  UNL     1      -3.888  53.758 -10.647  1.00  0.00     0.052 C 
HETATM    2  C2  UNL     1      -2.443  53.428 -10.909  1.00  0.00    -0.013 C 
HETATM    3  C3  UNL     1      -1.357  54.158 -10.555  1.00  0.00    -0.066 C 
HETATM    4  C4  UNL     1      -1.477  55.492  -9.845  1.00  0.00     0.036 C 
HETATM    5  C5  UNL     1      -0.564  55.580  -8.628  1.00  0.00     0.010 C 
HETATM    6  C6  UNL     1       0.894  55.401  -9.059  1.00  0.00     0.007 C 
HETATM    7  C7  UNL     1       1.089  54.000  -9.703  1.00  0.00     0.068 C 
HETATM    8  C8  UNL     1       2.565  53.855 -10.125  1.00  0.00     0.133 C 
HETATM    9  O1  UNL     1       2.901  53.485 -11.250  1.00  0.00    -0.298 OA
HETATM   10  C9  UNL     1       3.632  54.172  -9.077  1.00  0.00     0.089 C 
HETATM   11  C10 UNL     1       3.397  55.587  -8.533  1.00  0.00    -0.026 C 
HETATM   12  C11 UNL     1       3.633  56.591  -9.709  1.00  0.00     0.016 C 
HETATM   13  C12 UNL     1       4.245  56.051  -7.306  1.00  0.00    -0.002 C 
HETATM   14  C21 UNL     1       3.350  57.180  -6.698  1.00  0.00     0.006 C 
HETATM   15  C22 UNL     1       1.930  57.025  -7.278  1.00  0.00     0.011 C 
HETATM   16  C23 UNL     1       1.934  55.634  -7.924  1.00  0.00    -0.032 C 
HETATM   17  C24 UNL     1       1.688  54.615  -6.761  1.00  0.00     0.016 C 
HETATM   18  C25 UNL     1       0.091  53.735 -10.874  1.00  0.00     0.027 C 
HETATM   19  C26 UNL     1       0.152  52.242 -11.263  1.00  0.00     0.018 C 
HETATM   20  C27 UNL     1      -0.906  51.885 -12.285  1.00  0.00     0.084 C 
HETATM   21  C28 UNL     1      -2.266  52.171 -11.714  1.00  0.00     0.155 C 
HETATM   22  O4  UNL     1      -3.222  51.433 -11.946  1.00  0.00    -0.293 OA
ENDROOT
BRANCH  13  23
HETATM   23  C13 UNL     1       5.719  56.524  -7.497  1.00  0.00    -0.014 C 
HETATM   24  C14 UNL     1       6.717  55.366  -7.388  1.00  0.00     0.010 C 
BRANCH  23  25
HETATM   25  C15 UNL     1       6.069  57.617  -6.445  1.00  0.00     0.008 C 
BRANCH  25  26
HETATM   26  C16 UNL     1       6.877  57.147  -5.227  1.00  0.00     0.028 C 
BRANCH  26  27
HETATM   27  C17 UNL     1       8.176  57.885  -5.061  1.00  0.00    -0.013 C 
HETATM   28  C18 UNL     1       9.416  57.358  -5.068  1.00  0.00     0.008 C 
HETATM   29  C19 UNL     1       9.748  55.902  -5.203  1.00  0.00     0.055 C 
BRANCH  28  30
HETATM   30  C20 UNL     1      10.544  58.311  -4.900  1.00  0.00     0.171 C 
HETATM   31  O2  UNL     1      10.549  59.494  -5.189  1.00  0.00    -0.646 OA
BRANCH  30  32
HETATM   32  O3  UNL     1      11.632  57.727  -4.371  1.00  0.00    -0.773 OA
HETATM   33  H28 UNL     1      12.283  58.458  -4.325  1.00  0.00     0.167 HD
ENDBRANCH  30  32
ENDBRANCH  28  30
ENDBRANCH  26  27
ENDBRANCH  25  26
ENDBRANCH  23  25
ENDBRANCH  13  23
TORSDOF 6
ENDMDL
MODEL 5
REMARK minimizedAffinity -9.77550983
REMARK CNNscore 0.540180206
REMARK CNNaffinity 6.95691872
REMARK  6 active torsions:
REMARK  status: ('A' for Active; 'I' for Inactive)
REMARK    1  A    between atoms: C12_13  and  C13_14 
REMARK    2  A    between atoms: C13_14  and  C15_16 
REMARK    3  A    between atoms: C15_16  and  C16_17 
REMARK    4  A    between atoms: C16_17  and  C17_18 
REMARK    5  A    between atoms: C18_19  and  C20_21 
REMARK    6  A    between atoms: C20_21  and  O3_23 
ROOT
HETATM    1  C1  UNL     1      -4.929  48.076 -26.629  1.00  0.00     0.052 C 
HETATM    2  C2  UNL     1      -3.952  49.065 -26.053  1.00  0.00    -0.013 C 
HETATM    3  C3  UNL     1      -3.731  49.334 -24.743  1.00  0.00    -0.066 C 
HETATM    4  C4  UNL     1      -4.516  48.656 -23.637  1.00  0.00     0.036 C 
HETATM    5  C5  UNL     1      -3.608  48.106 -22.543  1.00  0.00     0.010 C 
HETATM    6  C6  UNL     1      -2.796  49.244 -21.920  1.00  0.00     0.007 C 
HETATM    7  C7  UNL     1      -1.896  49.906 -23.000  1.00  0.00     0.068 C 
HETATM    8  C8  UNL     1      -1.095  51.046 -22.340  1.00  0.00     0.133 C 
HETATM    9  O1  UNL     1      -1.043  52.182 -22.812  1.00  0.00    -0.298 OA
HETATM   10  C9  UNL     1      -0.329  50.719 -21.058  1.00  0.00     0.089 C 
HETATM   11  C10 UNL     1      -1.299  50.121 -20.032  1.00  0.00    -0.026 C 
HETATM   12  C11 UNL     1      -2.328  51.235 -19.649  1.00  0.00     0.016 C 
HETATM   13  C12 UNL     1      -0.701  49.525 -18.719  1.00  0.00    -0.002 C 
HETATM   14  C21 UNL     1      -1.818  48.525 -18.274  1.00  0.00     0.006 C 
HETATM   15  C22 UNL     1      -2.735  48.268 -19.487  1.00  0.00     0.011 C 
HETATM   16  C23 UNL     1      -1.952  48.830 -20.680  1.00  0.00    -0.032 C 
HETATM   17  C24 UNL     1      -0.923  47.722 -21.084  1.00  0.00     0.016 C 
HETATM   18  C25 UNL     1      -2.705  50.374 -24.251  1.00  0.00     0.027 C 
HETATM   19  C26 UNL     1      -1.721  50.749 -25.380  1.00  0.00     0.018 C 
HETATM   20  C27 UNL     1      -2.443  51.059 -26.674  1.00  0.00     0.084 C 
HETATM   21  C28 UNL     1      -3.225  49.853 -27.108  1.00  0.00     0.155 C 
HETATM   22  O4  UNL     1      -3.322  49.550 -28.296  1.00  0.00    -0.293 OA
ENDROOT
BRANCH  13  23
HETATM   23  C13 UNL     1      -0.268  50.462 -17.549  1.00  0.00    -0.014 C 
HETATM   24  C14 UNL     1      -1.375  50.632 -16.503  1.00  0.00     0.010 C 
BRANCH  23  25
HETATM   25  C15 UNL     1       0.143  51.856 -18.106  1.00  0.00     0.008 C 
BRANCH  25  26
HETATM   26  C16 UNL     1       1.438  52.455 -17.538  1.00  0.00     0.028 C 
BRANCH  26  27
HETATM   27  C17 UNL     1       1.776  51.936 -16.169  1.00  0.00    -0.013 C 
HETATM   28  C18 UNL     1       2.974  51.987 -15.554  1.00  0.00     0.008 C 
HETATM   29  C19 UNL     1       4.236  52.543 -16.141  1.00  0.00     0.055 C 
BRANCH  28  30
HETATM   30  C20 UNL     1       3.043  51.415 -14.184  1.00  0.00     0.171 C 
HETATM   31  O2  UNL     1       3.210  50.244 -13.890  1.00  0.00    -0.646 OA
BRANCH  30  32
HETATM   32  O3  UNL     1       2.895  52.350 -13.231  1.00  0.00    -0.773 OA
HETATM   33  H28 UNL     1       2.954  51.837 -12.399  1.00  0.00     0.167 HD
ENDBRANCH  30  32
ENDBRANCH  28  30
ENDBRANCH  26  27
ENDBRANCH  25  26
ENDBRANCH  23  25
ENDBRANCH  13  23
TORSDOF 6
ENDMDL
MODEL 6
REMARK minimizedAffinity -9.39469051
REMARK CNNscore 0.509805083
REMARK CNNaffinity 6.82591438
REMARK  6 active torsions:
REMARK  status: ('A' for Active; 'I' for Inactive)
REMARK    1  A    between atoms: C12_13  and  C13_14 
REMARK    2  A    between atoms: C13_14  and  C15_16 
REMARK    3  A    between atoms: C15_16  and  C16_17 
REMARK    4  A    between atoms: C16_17  and  C17_18 
REMARK    5  A    between atoms: C18_19  and  C20_21 
REMARK    6  A    between atoms: C20_21  and  O3_23 
ROOT
HETATM    1  C1  UNL     1      -2.971  51.551 -26.591  1.00  0.00     0.052 C 
HETATM    2  C2  UNL     1      -1.817  52.169 -25.848  1.00  0.00    -0.013 C 
HETATM    3  C3  UNL     1      -1.701  52.341 -24.508  1.00  0.00    -0.066 C 
HETATM    4  C4  UNL     1      -2.802  51.941 -23.545  1.00  0.00     0.036 C 
HETATM    5  C5  UNL     1      -2.271  51.119 -22.376  1.00  0.00     0.010 C 
HETATM    6  C6  UNL     1      -1.232  51.931 -21.599  1.00  0.00     0.007 C 
HETATM    7  C7  UNL     1      -0.031  52.278 -22.523  1.00  0.00     0.068 C 
HETATM    8  C8  UNL     1       0.992  53.096 -21.711  1.00  0.00     0.133 C 
HETATM    9  O1  UNL     1       1.465  54.160 -22.114  1.00  0.00    -0.298 OA
HETATM   10  C9  UNL     1       1.436  52.529 -20.362  1.00  0.00     0.089 C 
HETATM   11  C10 UNL     1       0.197  52.264 -19.497  1.00  0.00    -0.026 C 
HETATM   12  C11 UNL     1      -0.467  53.646 -19.188  1.00  0.00     0.016 C 
HETATM   13  C12 UNL     1       0.394  51.496 -18.152  1.00  0.00    -0.002 C 
HETATM   14  C21 UNL     1      -1.031  50.903 -17.902  1.00  0.00     0.006 C 
HETATM   15  C22 UNL     1      -1.811  50.965 -19.231  1.00  0.00     0.011 C 
HETATM   16  C23 UNL     1      -0.737  51.257 -20.287  1.00  0.00    -0.032 C 
HETATM   17  C24 UNL     1      -0.067  49.881 -20.616  1.00  0.00     0.016 C 
HETATM   18  C25 UNL     1      -0.475  52.993 -23.839  1.00  0.00     0.027 C 
HETATM   19  C26 UNL     1       0.720  53.042 -24.817  1.00  0.00     0.018 C 
HETATM   20  C27 UNL     1       0.314  53.579 -26.172  1.00  0.00     0.084 C 
HETATM   21  C28 UNL     1      -0.744  52.692 -26.762  1.00  0.00     0.155 C 
HETATM   22  O4  UNL     1      -0.770  52.447 -27.967  1.00  0.00    -0.293 OA
ENDROOT
BRANCH  13  23
HETATM   23  C13 UNL     1       0.940  52.235 -16.890  1.00  0.00    -0.014 C 
HETATM   24  C14 UNL     1       2.451  52.474 -16.969  1.00  0.00     0.010 C 
BRANCH  23  25
HETATM   25  C15 UNL     1       0.606  51.419 -15.608  1.00  0.00     0.008 C 
BRANCH  25  26
HETATM   26  C16 UNL     1       0.797  52.153 -14.273  1.00  0.00     0.028 C 
BRANCH  26  27
HETATM   27  C17 UNL     1      -0.426  52.115 -13.399  1.00  0.00    -0.013 C 
HETATM   28  C18 UNL     1      -0.611  52.763 -12.232  1.00  0.00     0.008 C 
HETATM   29  C19 UNL     1       0.399  53.631 -11.543  1.00  0.00     0.055 C 
BRANCH  28  30
HETATM   30  C20 UNL     1      -1.926  52.571 -11.566  1.00  0.00     0.171 C 
HETATM   31  O2  UNL     1      -2.120  52.118 -10.452  1.00  0.00    -0.646 OA
BRANCH  30  32
HETATM   32  O3  UNL     1      -2.952  52.961 -12.340  1.00  0.00    -0.773 OA
HETATM   33  H28 UNL     1      -3.738  52.774 -11.786  1.00  0.00     0.167 HD
ENDBRANCH  30  32
ENDBRANCH  28  30
ENDBRANCH  26  27
ENDBRANCH  25  26
ENDBRANCH  23  25
ENDBRANCH  13  23
TORSDOF 6
ENDMDL
MODEL 7
REMARK minimizedAffinity -9.56900787
REMARK CNNscore 0.508727789
REMARK CNNaffinity 6.61330414
REMARK  6 active torsions:
REMARK  status: ('A' for Active; 'I' for Inactive)
REMARK    1  A    between atoms: C12_13  and  C13_14 
REMARK    2  A    between atoms: C13_14  and  C15_16 
REMARK    3  A    between atoms: C15_16  and  C16_17 
REMARK    4  A    between atoms: C16_17  and  C17_18 
REMARK    5  A    between atoms: C18_19  and  C20_21 
REMARK    6  A    between atoms: C20_21  and  O3_23 
ROOT
HETATM    1  C1  UNL     1       0.616  52.844 -20.175  1.00  0.00     0.052 C 
HETATM    2  C2  UNL     1       0.391  52.789 -21.662  1.00  0.00    -0.013 C 
HETATM    3  C3  UNL     1      -0.277  51.835 -22.356  1.00  0.00    -0.066 C 
HETATM    4  C4  UNL     1      -0.879  50.619 -21.681  1.00  0.00     0.036 C 
HETATM    5  C5  UNL     1      -2.323  50.381 -22.108  1.00  0.00     0.010 C 
HETATM    6  C6  UNL     1      -2.389  50.166 -23.622  1.00  0.00     0.007 C 
HETATM    7  C7  UNL     1      -1.874  51.432 -24.361  1.00  0.00     0.068 C 
HETATM    8  C8  UNL     1      -1.952  51.180 -25.880  1.00  0.00     0.133 C 
HETATM    9  O1  UNL     1      -1.004  51.386 -26.638  1.00  0.00    -0.298 OA
HETATM   10  C9  UNL     1      -3.281  50.673 -26.442  1.00  0.00     0.089 C 
HETATM   11  C10 UNL     1      -3.688  49.397 -25.695  1.00  0.00    -0.026 C 
HETATM   12  C11 UNL     1      -2.628  48.296 -26.028  1.00  0.00     0.016 C 
HETATM   13  C12 UNL     1      -5.111  48.813 -25.963  1.00  0.00    -0.002 C 
HETATM   14  C21 UNL     1      -5.374  47.981 -24.665  1.00  0.00     0.006 C 
HETATM   15  C22 UNL     1      -4.371  48.448 -23.591  1.00  0.00     0.011 C 
HETATM   16  C23 UNL     1      -3.792  49.752 -24.154  1.00  0.00    -0.032 C 
HETATM   17  C24 UNL     1      -4.837  50.869 -23.820  1.00  0.00     0.016 C 
HETATM   18  C25 UNL     1      -0.450  51.865 -23.888  1.00  0.00     0.027 C 
HETATM   19  C26 UNL     1      -0.136  53.270 -24.447  1.00  0.00     0.018 C 
HETATM   20  C27 UNL     1       1.163  53.816 -23.895  1.00  0.00     0.084 C 
HETATM   21  C28 UNL     1       1.067  53.911 -22.399  1.00  0.00     0.155 C 
HETATM   22  O4  UNL     1       1.578  54.848 -21.787  1.00  0.00    -0.293 OA
ENDROOT
BRANCH  13  23
HETATM   23  C13 UNL     1      -5.394  47.977 -27.250  1.00  0.00    -0.014 C 
HETATM   24  C14 UNL     1      -4.574  48.465 -28.449  1.00  0.00     0.010 C 
BRANCH  23  25
HETATM   25  C15 UNL     1      -6.911  48.030 -27.597  1.00  0.00     0.008 C 
BRANCH  25  26
HETATM   26  C16 UNL     1      -7.768  46.879 -27.051  1.00  0.00     0.028 C 
BRANCH  26  27
HETATM   27  C17 UNL     1      -9.117  47.329 -26.564  1.00  0.00    -0.013 C 
HETATM   28  C18 UNL     1     -10.192  47.635 -27.318  1.00  0.00     0.008 C 
HETATM   29  C19 UNL     1     -10.240  47.628 -28.816  1.00  0.00     0.055 C 
BRANCH  28  30
HETATM   30  C20 UNL     1     -11.422  48.039 -26.589  1.00  0.00     0.171 C 
HETATM   31  O2  UNL     1     -11.731  47.728 -25.452  1.00  0.00    -0.646 OA
BRANCH  30  32
HETATM   32  O3  UNL     1     -12.221  48.824 -27.330  1.00  0.00    -0.773 OA
HETATM   33  H28 UNL     1     -12.979  49.003 -26.735  1.00  0.00     0.167 HD
ENDBRANCH  30  32
ENDBRANCH  28  30
ENDBRANCH  26  27
ENDBRANCH  25  26
ENDBRANCH  23  25
ENDBRANCH  13  23
TORSDOF 6
ENDMDL
MODEL 8
REMARK minimizedAffinity -9.54118729
REMARK CNNscore 0.435276836
REMARK CNNaffinity 6.69641495
REMARK  6 active torsions:
REMARK  status: ('A' for Active; 'I' for Inactive)
REMARK    1  A    between atoms: C12_13  and  C13_14 
REMARK    2  A    between atoms: C13_14  and  C15_16 
REMARK    3  A    between atoms: C15_16  and  C16_17 
REMARK    4  A    between atoms: C16_17  and  C17_18 
REMARK    5  A    between atoms: C18_19  and  C20_21 
REMARK    6  A    between atoms: C20_21  and  O3_23 
ROOT
HETATM    1  C1  UNL     1       0.833  53.155 -20.066  1.00  0.00     0.052 C 
HETATM    2  C2  UNL     1       0.627  53.053 -21.553  1.00  0.00    -0.013 C 
HETATM    3  C3  UNL     1      -0.017  52.070 -22.228  1.00  0.00    -0.066 C 
HETATM    4  C4  UNL     1      -0.611  50.865 -21.525  1.00  0.00     0.036 C 
HETATM    5  C5  UNL     1      -2.046  50.594 -21.963  1.00  0.00     0.010 C 
HETATM    6  C6  UNL     1      -2.089  50.334 -23.471  1.00  0.00     0.007 C 
HETATM    7  C7  UNL     1      -1.583  51.586 -24.240  1.00  0.00     0.068 C 
HETATM    8  C8  UNL     1      -1.638  51.289 -25.751  1.00  0.00     0.133 C 
HETATM    9  O1  UNL     1      -0.683  51.486 -26.504  1.00  0.00    -0.298 OA
HETATM   10  C9  UNL     1      -2.952  50.746 -26.315  1.00  0.00     0.089 C 
HETATM   11  C10 UNL     1      -3.350  49.486 -25.536  1.00  0.00    -0.026 C 
HETATM   12  C11 UNL     1      -2.270  48.392 -25.823  1.00  0.00     0.016 C 
HETATM   13  C12 UNL     1      -4.761  48.874 -25.804  1.00  0.00    -0.002 C 
HETATM   14  C21 UNL     1      -5.028  48.076 -24.487  1.00  0.00     0.006 C 
HETATM   15  C22 UNL     1      -4.046  48.588 -23.414  1.00  0.00     0.011 C 
HETATM   16  C23 UNL     1      -3.479  49.884 -24.008  1.00  0.00    -0.032 C 
HETATM   17  C24 UNL     1      -4.544  50.995 -23.720  1.00  0.00     0.016 C 
HETATM   18  C25 UNL     1      -0.171  52.053 -23.762  1.00  0.00     0.027 C 
HETATM   19  C26 UNL     1       0.130  53.446 -24.357  1.00  0.00     0.018 C 
HETATM   20  C27 UNL     1       1.414  54.026 -23.805  1.00  0.00     0.084 C 
HETATM   21  C28 UNL     1       1.297  54.164 -22.314  1.00  0.00     0.155 C 
HETATM   22  O4  UNL     1       1.786  55.125 -21.723  1.00  0.00    -0.293 OA
ENDROOT
BRANCH  13  23
HETATM   23  C13 UNL     1      -5.016  47.997 -27.070  1.00  0.00    -0.014 C 
HETATM   24  C14 UNL     1      -4.647  48.729 -28.365  1.00  0.00     0.010 C 
BRANCH  23  25
HETATM   25  C15 UNL     1      -6.508  47.559 -27.124  1.00  0.00     0.008 C 
BRANCH  25  26
HETATM   26  C16 UNL     1      -6.934  46.767 -28.368  1.00  0.00     0.028 C 
BRANCH  26  27
HETATM   27  C17 UNL     1      -7.333  47.648 -29.519  1.00  0.00    -0.013 C 
HETATM   28  C18 UNL     1      -8.515  48.273 -29.692  1.00  0.00     0.008 C 
HETATM   29  C19 UNL     1      -9.697  48.178 -28.776  1.00  0.00     0.055 C 
BRANCH  28  30
HETATM   30  C20 UNL     1      -8.653  49.106 -30.915  1.00  0.00     0.171 C 
HETATM   31  O2  UNL     1      -8.484  48.745 -32.066  1.00  0.00    -0.646 OA
BRANCH  30  32
HETATM   32  O3  UNL     1      -9.000  50.373 -30.634  1.00  0.00    -0.773 OA
HETATM   33  H28 UNL     1      -9.047  50.796 -31.517  1.00  0.00     0.167 HD
ENDBRANCH  30  32
ENDBRANCH  28  30
ENDBRANCH  26  27
ENDBRANCH  25  26
ENDBRANCH  23  25
ENDBRANCH  13  23
TORSDOF 6
ENDMDL
MODEL 9
REMARK minimizedAffinity -9.40806103
REMARK CNNscore 0.39377749
REMARK CNNaffinity 6.6229558
REMARK  6 active torsions:
REMARK  status: ('A' for Active; 'I' for Inactive)
REMARK    1  A    between atoms: C12_13  and  C13_14 
REMARK    2  A    between atoms: C13_14  and  C15_16 
REMARK    3  A    between atoms: C15_16  and  C16_17 
REMARK    4  A    between atoms: C16_17  and  C17_18 
REMARK    5  A    between atoms: C18_19  and  C20_21 
REMARK    6  A    between atoms: C20_21  and  O3_23 
ROOT
HETATM    1  C1  UNL     1       0.647  52.892 -19.959  1.00  0.00     0.052 C 
HETATM    2  C2  UNL     1       0.496  52.871 -21.456  1.00  0.00    -0.013 C 
HETATM    3  C3  UNL     1      -0.125  51.928 -22.206  1.00  0.00    -0.066 C 
HETATM    4  C4  UNL     1      -0.745  50.689 -21.591  1.00  0.00     0.036 C 
HETATM    5  C5  UNL     1      -2.164  50.447 -22.095  1.00  0.00     0.010 C 
HETATM    6  C6  UNL     1      -2.152  50.268 -23.615  1.00  0.00     0.007 C 
HETATM    7  C7  UNL     1      -1.616  51.558 -24.296  1.00  0.00     0.068 C 
HETATM    8  C8  UNL     1      -1.616  51.343 -25.823  1.00  0.00     0.133 C 
HETATM    9  O1  UNL     1      -0.634  51.577 -26.528  1.00  0.00    -0.298 OA
HETATM   10  C9  UNL     1      -2.909  50.836 -26.463  1.00  0.00     0.089 C 
HETATM   11  C10 UNL     1      -3.337  49.537 -25.768  1.00  0.00    -0.026 C 
HETATM   12  C11 UNL     1      -2.250  48.456 -26.074  1.00  0.00     0.016 C 
HETATM   13  C12 UNL     1      -4.739  48.945 -26.120  1.00  0.00    -0.002 C 
HETATM   14  C21 UNL     1      -5.055  48.079 -24.858  1.00  0.00     0.006 C 
HETATM   15  C22 UNL     1      -4.112  48.529 -23.724  1.00  0.00     0.011 C 
HETATM   16  C23 UNL     1      -3.522  49.853 -24.226  1.00  0.00    -0.032 C 
HETATM   17  C24 UNL     1      -4.595  50.951 -23.917  1.00  0.00     0.016 C 
HETATM   18  C25 UNL     1      -0.222  51.994 -23.743  1.00  0.00     0.027 C 
HETATM   19  C26 UNL     1       0.103  53.416 -24.251  1.00  0.00     0.018 C 
HETATM   20  C27 UNL     1       1.366  53.961 -23.622  1.00  0.00     0.084 C 
HETATM   21  C28 UNL     1       1.195  54.019 -22.131  1.00  0.00     0.155 C 
HETATM   22  O4  UNL     1       1.664  54.945 -21.472  1.00  0.00    -0.293 OA
ENDROOT
BRANCH  13  23
HETATM   23  C13 UNL     1      -4.949  48.139 -27.440  1.00  0.00    -0.014 C 
HETATM   24  C14 UNL     1      -4.589  48.960 -28.683  1.00  0.00     0.010 C 
BRANCH  23  25
HETATM   25  C15 UNL     1      -6.424  47.655 -27.541  1.00  0.00     0.008 C 
BRANCH  25  26
HETATM   26  C16 UNL     1      -6.955  47.400 -28.959  1.00  0.00     0.028 C 
BRANCH  26  27
HETATM   27  C17 UNL     1      -5.877  47.427 -30.006  1.00  0.00    -0.013 C 
HETATM   28  C18 UNL     1      -5.868  46.765 -31.179  1.00  0.00     0.008 C 
HETATM   29  C19 UNL     1      -6.929  45.822 -31.660  1.00  0.00     0.055 C 
BRANCH  28  30
HETATM   30  C20 UNL     1      -4.684  46.976 -32.052  1.00  0.00     0.171 C 
HETATM   31  O2  UNL     1      -4.548  47.838 -32.901  1.00  0.00    -0.646 OA
BRANCH  30  32
HETATM   32  O3  UNL     1      -3.710  46.080 -31.819  1.00  0.00    -0.773 OA
HETATM   33  H28 UNL     1      -3.012  46.332 -32.457  1.00  0.00     0.167 HD
ENDBRANCH  30  32
ENDBRANCH  28  30
ENDBRANCH  26  27
ENDBRANCH  25  26
ENDBRANCH  23  25
ENDBRANCH  13  23
TORSDOF 6
ENDMDL
