MODEL 1
REMARK minimizedAffinity -6.23889208
REMARK CNNscore 0.555425823
REMARK CNNaffinity 6.49473715
REMARK  14 active torsions:
REMARK  status: ('A' for Active; 'I' for Inactive)
REMARK    1  A    between atoms: C2_2  and  C3_3 
REMARK    2  A    between atoms: C2_2  and  C27_31 
REMARK    3  A    between atoms: C4_4  and  C5_5 
REMARK    4  A    between atoms: C6_6  and  C7_7 
REMARK    5  A    between atoms: C6_6  and  C9_9 
REMARK    6  A    between atoms: C13_13  and  O1_14 
REMARK    7  A    between atoms: C15_16  and  C16_17 
REMARK    8  A    between atoms: C16_17  and  C17_18 
REMARK    9  A    between atoms: C17_18  and  C18_19 
REMARK   10  A    between atoms: C18_19  and  O2_20 
REMARK   11  A    between atoms: C20_22  and  C22_24 
REMARK   12  A    between atoms: C25_28  and  O4_30 
REMARK   13  A    between atoms: C27_31  and  C28_32 
REMARK   14  A    between atoms: C28_32  and  C29_33 
ROOT
HETATM    1  C9  UNL     1      -3.692  11.311  16.490  1.00  0.00     0.044 C 
HETATM    2  C10 UNL     1      -3.240  10.334  17.586  1.00  0.00     0.013 C 
HETATM    3  C11 UNL     1      -2.109   9.541  16.967  1.00  0.00     0.017 C 
HETATM    4  C12 UNL     1      -2.467   9.335  15.468  1.00  0.00     0.025 C 
HETATM    5  C13 UNL     1      -3.148  10.731  15.129  1.00  0.00     0.141 C 
HETATM    6  C15 UNL     1      -1.111   8.892  14.720  1.00  0.00     0.029 C 
HETATM    7  C19 UNL     1      -1.378   7.997  13.489  1.00  0.00    -0.066 C 
HETATM    8  C20 UNL     1      -0.634   6.910  13.152  1.00  0.00    -0.021 C 
HETATM    9  C21 UNL     1       0.560   6.374  13.903  1.00  0.00     0.052 C 
HETATM   10  C23 UNL     1      -2.661   8.402  12.814  1.00  0.00     0.038 C 
HETATM   11  C24 UNL     1      -3.832   8.007  13.715  1.00  0.00     0.042 C 
HETATM   12  C25 UNL     1      -3.558   8.197  15.237  1.00  0.00     0.065 C 
HETATM   13  C26 UNL     1      -3.196   6.852  15.900  1.00  0.00     0.047 C 
ENDROOT
BRANCH   5  14
HETATM   14  O1  UNL     1      -2.281  11.646  14.466  1.00  0.00    -0.389 OA
HETATM   15  C14 UNL     1      -1.140  12.004  15.240  1.00  0.00     0.202 C 
ENDBRANCH   5  14
BRANCH   6  16
HETATM   16  C16 UNL     1      -0.136  10.047  14.372  1.00  0.00     0.012 C 
BRANCH  16  17
HETATM   17  C17 UNL     1       1.227   9.616  13.814  1.00  0.00     0.027 C 
BRANCH  17  18
HETATM   18  C18 UNL     1       2.385  10.067  14.705  1.00  0.00     0.164 C 
BRANCH  18  19
HETATM   19  O2  UNL     1       2.555   9.187  15.808  1.00  0.00    -0.401 OA
HETATM   20  H27 UNL     1       2.901   8.347  15.460  1.00  0.00     0.209 HD
ENDBRANCH  18  19
ENDBRANCH  17  18
ENDBRANCH  16  17
ENDBRANCH   6  16
BRANCH  12  21
HETATM   21  O4  UNL     1      -4.819   8.571  15.817  1.00  0.00    -0.389 OA
HETATM   22  H39 UNL     1      -5.453   7.850  15.659  1.00  0.00     0.210 HD
ENDBRANCH  12  21
BRANCH   1  23
HETATM   23  C6  UNL     1      -3.366  12.777  16.831  1.00  0.00    -0.074 C 
HETATM   24  C5  UNL     1      -2.374  13.149  17.672  1.00  0.00     0.003 C 
BRANCH  24  25
HETATM   25  C4  UNL     1      -1.493  12.294  18.445  1.00  0.00     0.001 C 
HETATM   26  C3  UNL     1      -0.468  12.784  19.166  1.00  0.00     0.006 C 
BRANCH  26  27
HETATM   27  C2  UNL     1       0.470  12.014  19.986  1.00  0.00    -0.067 C 
HETATM   28  C1  UNL     1       0.355  10.673  19.991  1.00  0.00     0.019 C 
BRANCH  27  29
HETATM   29  C27 UNL     1       1.521  12.776  20.781  1.00  0.00     0.041 C 
BRANCH  29  30
HETATM   30  C28 UNL     1       2.780  12.002  21.203  1.00  0.00     0.032 C 
BRANCH  30  31
HETATM   31  C29 UNL     1       2.428  10.663  21.796  1.00  0.00    -0.024 C 
HETATM   32  C30 UNL     1       3.190   9.889  22.594  1.00  0.00    -0.091 C 
HETATM   33  C31 UNL     1       2.695   8.545  23.060  1.00  0.00     0.042 C 
HETATM   34  C32 UNL     1       4.560  10.255  23.098  1.00  0.00     0.042 C 
ENDBRANCH  30  31
ENDBRANCH  29  30
ENDBRANCH  27  29
ENDBRANCH  26  27
ENDBRANCH  24  25
BRANCH  23  35
HETATM   35  C7  UNL     1      -4.232  13.822  16.123  1.00  0.00     0.030 C 
HETATM   36  C8  UNL     1      -3.613  14.570  14.945  1.00  0.00     0.010 C 
ENDBRANCH  23  35
ENDBRANCH   1  23
BRANCH   8  37
HETATM   37  C22 UNL     1      -0.957   6.059  11.959  1.00  0.00     0.265 C 
HETATM   38  O3  UNL     1      -0.789   4.843  11.946  1.00  0.00    -0.302 OA
ENDBRANCH   8  37
TORSDOF 14
ENDMDL
MODEL 2
REMARK minimizedAffinity -7.354949
REMARK CNNscore 0.51482451
REMARK CNNaffinity 6.42837334
REMARK  14 active torsions:
REMARK  status: ('A' for Active; 'I' for Inactive)
REMARK    1  A    between atoms: C2_2  and  C3_3 
REMARK    2  A    between atoms: C2_2  and  C27_31 
REMARK    3  A    between atoms: C4_4  and  C5_5 
REMARK    4  A    between atoms: C6_6  and  C7_7 
REMARK    5  A    between atoms: C6_6  and  C9_9 
REMARK    6  A    between atoms: C13_13  and  O1_14 
REMARK    7  A    between atoms: C15_16  and  C16_17 
REMARK    8  A    between atoms: C16_17  and  C17_18 
REMARK    9  A    between atoms: C17_18  and  C18_19 
REMARK   10  A    between atoms: C18_19  and  O2_20 
REMARK   11  A    between atoms: C20_22  and  C22_24 
REMARK   12  A    between atoms: C25_28  and  O4_30 
REMARK   13  A    between atoms: C27_31  and  C28_32 
REMARK   14  A    between atoms: C28_32  and  C29_33 
ROOT
HETATM    1  C9  UNL     1       1.040  10.044  16.964  1.00  0.00     0.044 C 
HETATM    2  C10 UNL     1       1.970  10.849  16.044  1.00  0.00     0.013 C 
HETATM    3  C11 UNL     1       1.426  10.639  14.648  1.00  0.00     0.017 C 
HETATM    4  C12 UNL     1       0.902   9.177  14.581  1.00  0.00     0.025 C 
HETATM    5  C13 UNL     1       0.289   9.011  16.040  1.00  0.00     0.141 C 
HETATM    6  C15 UNL     1      -0.050   9.079  13.287  1.00  0.00     0.029 C 
HETATM    7  C19 UNL     1      -0.073   7.662  12.672  1.00  0.00    -0.066 C 
HETATM    8  C20 UNL     1      -0.061   7.401  11.337  1.00  0.00    -0.021 C 
HETATM    9  C21 UNL     1      -0.014   8.421  10.227  1.00  0.00     0.052 C 
HETATM   10  C23 UNL     1       0.052   6.618  13.750  1.00  0.00     0.038 C 
HETATM   11  C24 UNL     1       1.474   6.666  14.312  1.00  0.00     0.042 C 
HETATM   12  C25 UNL     1       2.069   8.102  14.424  1.00  0.00     0.065 C 
HETATM   13  C26 UNL     1       3.020   8.394  13.245  1.00  0.00     0.047 C 
ENDROOT
BRANCH   5  14
HETATM   14  O1  UNL     1      -1.124   9.177  16.090  1.00  0.00    -0.389 OA
HETATM   15  C14 UNL     1      -1.812   8.014  16.541  1.00  0.00     0.202 C 
ENDBRANCH   5  14
BRANCH   6  16
HETATM   16  C16 UNL     1      -1.488   9.629  13.476  1.00  0.00     0.012 C 
BRANCH  16  17
HETATM   17  C17 UNL     1      -2.594   8.856  12.745  1.00  0.00     0.027 C 
BRANCH  17  18
HETATM   18  C18 UNL     1      -3.869   8.742  13.581  1.00  0.00     0.164 C 
BRANCH  18  19
HETATM   19  O2  UNL     1      -4.354   7.407  13.596  1.00  0.00    -0.401 OA
HETATM   20  H27 UNL     1      -3.734   6.878  14.126  1.00  0.00     0.209 HD
ENDBRANCH  18  19
ENDBRANCH  17  18
ENDBRANCH  16  17
ENDBRANCH   6  16
BRANCH  12  21
HETATM   21  O4  UNL     1       2.911   8.086  15.588  1.00  0.00    -0.389 OA
HETATM   22  H39 UNL     1       3.610   7.424  15.450  1.00  0.00     0.210 HD
ENDBRANCH  12  21
BRANCH   1  23
HETATM   23  C6  UNL     1       0.188  10.943  17.881  1.00  0.00    -0.074 C 
HETATM   24  C5  UNL     1       0.511  11.228  19.163  1.00  0.00     0.003 C 
BRANCH  24  25
HETATM   25  C4  UNL     1       1.634  10.726  19.932  1.00  0.00     0.001 C 
HETATM   26  C3  UNL     1       1.470   9.972  21.034  1.00  0.00     0.006 C 
BRANCH  26  27
HETATM   27  C2  UNL     1       2.530   9.408  21.873  1.00  0.00    -0.067 C 
HETATM   28  C1  UNL     1       2.232   8.341  22.638  1.00  0.00     0.019 C 
BRANCH  27  29
HETATM   29  C27 UNL     1       3.906  10.058  21.827  1.00  0.00     0.041 C 
BRANCH  29  30
HETATM   30  C28 UNL     1       4.267  11.019  22.970  1.00  0.00     0.032 C 
BRANCH  30  31
HETATM   31  C29 UNL     1       5.758  11.189  23.094  1.00  0.00    -0.024 C 
HETATM   32  C30 UNL     1       6.464  12.336  23.046  1.00  0.00    -0.091 C 
HETATM   33  C31 UNL     1       7.967  12.317  23.140  1.00  0.00     0.042 C 
HETATM   34  C32 UNL     1       5.868  13.710  22.907  1.00  0.00     0.042 C 
ENDBRANCH  30  31
ENDBRANCH  29  30
ENDBRANCH  27  29
ENDBRANCH  26  27
ENDBRANCH  24  25
BRANCH  23  35
HETATM   35  C7  UNL     1      -1.066  11.536  17.234  1.00  0.00     0.030 C 
HETATM   36  C8  UNL     1      -2.308  11.684  18.109  1.00  0.00     0.010 C 
ENDBRANCH  23  35
ENDBRANCH   1  23
BRANCH   8  37
HETATM   37  C22 UNL     1      -0.054   6.001  10.796  1.00  0.00     0.265 C 
HETATM   38  O3  UNL     1       0.969   5.447  10.406  1.00  0.00    -0.302 OA
ENDBRANCH   8  37
TORSDOF 14
ENDMDL
MODEL 3
REMARK minimizedAffinity -8.12322044
REMARK CNNscore 0.493586838
REMARK CNNaffinity 7.09932947
REMARK  14 active torsions:
REMARK  status: ('A' for Active; 'I' for Inactive)
REMARK    1  A    between atoms: C2_2  and  C3_3 
REMARK    2  A    between atoms: C2_2  and  C27_31 
REMARK    3  A    between atoms: C4_4  and  C5_5 
REMARK    4  A    between atoms: C6_6  and  C7_7 
REMARK    5  A    between atoms: C6_6  and  C9_9 
REMARK    6  A    between atoms: C13_13  and  O1_14 
REMARK    7  A    between atoms: C15_16  and  C16_17 
REMARK    8  A    between atoms: C16_17  and  C17_18 
REMARK    9  A    between atoms: C17_18  and  C18_19 
REMARK   10  A    between atoms: C18_19  and  O2_20 
REMARK   11  A    between atoms: C20_22  and  C22_24 
REMARK   12  A    between atoms: C25_28  and  O4_30 
REMARK   13  A    between atoms: C27_31  and  C28_32 
REMARK   14  A    between atoms: C28_32  and  C29_33 
ROOT
HETATM    1  C9  UNL     1      -1.726   5.407  12.865  1.00  0.00     0.044 C 
HETATM    2  C10 UNL     1      -1.450   5.322  14.374  1.00  0.00     0.013 C 
HETATM    3  C11 UNL     1      -2.814   5.359  15.028  1.00  0.00     0.017 C 
HETATM    4  C12 UNL     1      -3.698   6.317  14.181  1.00  0.00     0.025 C 
HETATM    5  C13 UNL     1      -3.189   5.975  12.714  1.00  0.00     0.141 C 
HETATM    6  C15 UNL     1      -5.228   6.031  14.595  1.00  0.00     0.029 C 
HETATM    7  C19 UNL     1      -6.128   7.276  14.435  1.00  0.00    -0.066 C 
HETATM    8  C20 UNL     1      -7.098   7.643  15.314  1.00  0.00    -0.021 C 
HETATM    9  C21 UNL     1      -7.465   6.929  16.592  1.00  0.00     0.052 C 
HETATM   10  C23 UNL     1      -5.676   8.105  13.262  1.00  0.00     0.038 C 
HETATM   11  C24 UNL     1      -4.340   8.760  13.614  1.00  0.00     0.042 C 
HETATM   12  C25 UNL     1      -3.387   7.856  14.454  1.00  0.00     0.065 C 
HETATM   13  C26 UNL     1      -3.443   8.241  15.946  1.00  0.00     0.047 C 
ENDROOT
BRANCH   5  14
HETATM   14  O1  UNL     1      -4.040   5.081  12.005  1.00  0.00    -0.389 OA
HETATM   15  C14 UNL     1      -4.362   3.905  12.742  1.00  0.00     0.202 C 
ENDBRANCH   5  14
BRANCH   6  16
HETATM   16  C16 UNL     1      -5.873   4.785  13.934  1.00  0.00     0.012 C 
BRANCH  16  17
HETATM   17  C17 UNL     1      -7.345   4.535  14.290  1.00  0.00     0.027 C 
BRANCH  17  18
HETATM   18  C18 UNL     1      -8.224   4.393  13.047  1.00  0.00     0.164 C 
BRANCH  18  19
HETATM   19  O2  UNL     1      -8.755   3.080  12.943  1.00  0.00    -0.401 OA
HETATM   20  H27 UNL     1      -9.413   2.975  13.651  1.00  0.00     0.209 HD
ENDBRANCH  18  19
ENDBRANCH  17  18
ENDBRANCH  16  17
ENDBRANCH   6  16
BRANCH  12  21
HETATM   21  O4  UNL     1      -2.056   8.193  14.030  1.00  0.00    -0.389 OA
HETATM   22  H39 UNL     1      -1.906   9.136  14.217  1.00  0.00     0.210 HD
ENDBRANCH  12  21
BRANCH   1  23
HETATM   23  C6  UNL     1      -1.380   4.102  12.123  1.00  0.00    -0.074 C 
HETATM   24  C5  UNL     1      -0.133   3.784  11.705  1.00  0.00     0.003 C 
BRANCH  24  25
HETATM   25  C4  UNL     1       1.071   4.588  11.799  1.00  0.00     0.001 C 
HETATM   26  C3  UNL     1       1.118   5.864  11.376  1.00  0.00     0.006 C 
BRANCH  26  27
HETATM   27  C2  UNL     1       2.273   6.763  11.436  1.00  0.00    -0.067 C 
HETATM   28  C1  UNL     1       2.557   7.352  12.611  1.00  0.00     0.019 C 
BRANCH  27  29
HETATM   29  C27 UNL     1       3.085   6.974  10.165  1.00  0.00     0.041 C 
BRANCH  29  30
HETATM   30  C28 UNL     1       3.204   5.784   9.201  1.00  0.00     0.032 C 
BRANCH  30  31
HETATM   31  C29 UNL     1       2.699   6.138   7.827  1.00  0.00    -0.024 C 
HETATM   32  C30 UNL     1       1.936   7.192   7.477  1.00  0.00    -0.091 C 
HETATM   33  C31 UNL     1       1.478   7.369   6.052  1.00  0.00     0.042 C 
HETATM   34  C32 UNL     1       1.472   8.272   8.416  1.00  0.00     0.042 C 
ENDBRANCH  30  31
ENDBRANCH  29  30
ENDBRANCH  27  29
ENDBRANCH  26  27
ENDBRANCH  24  25
BRANCH  23  35
HETATM   35  C7  UNL     1      -2.552   3.142  11.905  1.00  0.00     0.030 C 
HETATM   36  C8  UNL     1      -2.257   1.814  11.212  1.00  0.00     0.010 C 
ENDBRANCH  23  35
ENDBRANCH   1  23
BRANCH   8  37
HETATM   37  C22 UNL     1      -7.924   8.881  15.123  1.00  0.00     0.265 C 
HETATM   38  O3  UNL     1      -8.994   9.060  15.698  1.00  0.00    -0.302 OA
ENDBRANCH   8  37
TORSDOF 14
ENDMDL
MODEL 4
REMARK minimizedAffinity -7.57836342
REMARK CNNscore 0.490975559
REMARK CNNaffinity 7.09863472
REMARK  14 active torsions:
REMARK  status: ('A' for Active; 'I' for Inactive)
REMARK    1  A    between atoms: C2_2  and  C3_3 
REMARK    2  A    between atoms: C2_2  and  C27_31 
REMARK    3  A    between atoms: C4_4  and  C5_5 
REMARK    4  A    between atoms: C6_6  and  C7_7 
REMARK    5  A    between atoms: C6_6  and  C9_9 
REMARK    6  A    between atoms: C13_13  and  O1_14 
REMARK    7  A    between atoms: C15_16  and  C16_17 
REMARK    8  A    between atoms: C16_17  and  C17_18 
REMARK    9  A    between atoms: C17_18  and  C18_19 
REMARK   10  A    between atoms: C18_19  and  O2_20 
REMARK   11  A    between atoms: C20_22  and  C22_24 
REMARK   12  A    between atoms: C25_28  and  O4_30 
REMARK   13  A    between atoms: C27_31  and  C28_32 
REMARK   14  A    between atoms: C28_32  and  C29_33 
ROOT
HETATM    1  C9  UNL     1      -4.595   6.467  14.075  1.00  0.00     0.044 C 
HETATM    2  C10 UNL     1      -4.654   7.718  13.185  1.00  0.00     0.013 C 
HETATM    3  C11 UNL     1      -3.229   7.944  12.725  1.00  0.00     0.017 C 
HETATM    4  C12 UNL     1      -2.303   7.548  13.909  1.00  0.00     0.025 C 
HETATM    5  C13 UNL     1      -3.085   6.293  14.495  1.00  0.00     0.141 C 
HETATM    6  C15 UNL     1      -0.821   7.368  13.304  1.00  0.00     0.029 C 
HETATM    7  C19 UNL     1       0.284   7.679  14.338  1.00  0.00    -0.066 C 
HETATM    8  C20 UNL     1       1.429   8.357  14.060  1.00  0.00    -0.021 C 
HETATM    9  C21 UNL     1       1.826   8.933  12.723  1.00  0.00     0.052 C 
HETATM   10  C23 UNL     1      -0.157   7.269  15.718  1.00  0.00     0.038 C 
HETATM   11  C24 UNL     1      -1.260   8.221  16.181  1.00  0.00     0.042 C 
HETATM   12  C25 UNL     1      -2.243   8.657  15.052  1.00  0.00     0.065 C 
HETATM   13  C26 UNL     1      -1.886  10.063  14.529  1.00  0.00     0.047 C 
ENDROOT
BRANCH   5  14
HETATM   14  O1  UNL     1      -2.554   5.040  14.078  1.00  0.00    -0.389 OA
HETATM   15  C14 UNL     1      -2.365   4.948  12.669  1.00  0.00     0.202 C 
ENDBRANCH   5  14
BRANCH   6  16
HETATM   16  C16 UNL     1      -0.555   6.017  12.589  1.00  0.00     0.012 C 
BRANCH  16  17
HETATM   17  C17 UNL     1       0.910   5.560  12.564  1.00  0.00     0.027 C 
BRANCH  17  18
HETATM   18  C18 UNL     1       1.487   5.550  11.148  1.00  0.00     0.164 C 
BRANCH  18  19
HETATM   19  O2  UNL     1       2.037   4.280  10.828  1.00  0.00    -0.401 OA
HETATM   20  H27 UNL     1       1.295   3.658  10.733  1.00  0.00     0.209 HD
ENDBRANCH  18  19
ENDBRANCH  17  18
ENDBRANCH  16  17
ENDBRANCH   6  16
BRANCH  12  21
HETATM   21  O4  UNL     1      -3.523   8.808  15.687  1.00  0.00    -0.389 OA
HETATM   22  H39 UNL     1      -3.445   9.494  16.372  1.00  0.00     0.210 HD
ENDBRANCH  12  21
BRANCH   1  23
HETATM   23  C6  UNL     1      -5.311   5.257  13.446  1.00  0.00    -0.074 C 
HETATM   24  C5  UNL     1      -6.573   4.885  13.761  1.00  0.00     0.003 C 
BRANCH  24  25
HETATM   25  C4  UNL     1      -7.455   5.472  14.752  1.00  0.00     0.001 C 
HETATM   26  C3  UNL     1      -8.170   6.586  14.508  1.00  0.00     0.006 C 
BRANCH  26  27
HETATM   27  C2  UNL     1      -9.093   7.251  15.430  1.00  0.00    -0.067 C 
HETATM   28  C1  UNL     1      -8.665   7.511  16.679  1.00  0.00     0.019 C 
BRANCH  27  29
HETATM   29  C27 UNL     1     -10.481   7.612  14.919  1.00  0.00     0.041 C 
BRANCH  29  30
HETATM   30  C28 UNL     1     -11.040   6.780  13.754  1.00  0.00     0.032 C 
BRANCH  30  31
HETATM   31  C29 UNL     1     -12.336   7.352  13.244  1.00  0.00    -0.024 C 
HETATM   32  C30 UNL     1     -13.581   6.881  13.450  1.00  0.00    -0.091 C 
HETATM   33  C31 UNL     1     -14.772   7.556  12.820  1.00  0.00     0.042 C 
HETATM   34  C32 UNL     1     -13.923   5.686  14.298  1.00  0.00     0.042 C 
ENDBRANCH  30  31
ENDBRANCH  29  30
ENDBRANCH  27  29
ENDBRANCH  26  27
ENDBRANCH  24  25
BRANCH  23  35
HETATM   35  C7  UNL     1      -4.505   4.492  12.393  1.00  0.00     0.030 C 
HETATM   36  C8  UNL     1      -5.204   3.351  11.660  1.00  0.00     0.010 C 
ENDBRANCH  23  35
ENDBRANCH   1  23
BRANCH   8  37
HETATM   37  C22 UNL     1       2.456   8.657  15.112  1.00  0.00     0.265 C 
HETATM   38  O3  UNL     1       2.429   9.678  15.793  1.00  0.00    -0.302 OA
ENDBRANCH   8  37
TORSDOF 14
ENDMDL
MODEL 5
REMARK minimizedAffinity -7.66272068
REMARK CNNscore 0.408710122
REMARK CNNaffinity 6.87234735
REMARK  14 active torsions:
REMARK  status: ('A' for Active; 'I' for Inactive)
REMARK    1  A    between atoms: C2_2  and  C3_3 
REMARK    2  A    between atoms: C2_2  and  C27_31 
REMARK    3  A    between atoms: C4_4  and  C5_5 
REMARK    4  A    between atoms: C6_6  and  C7_7 
REMARK    5  A    between atoms: C6_6  and  C9_9 
REMARK    6  A    between atoms: C13_13  and  O1_14 
REMARK    7  A    between atoms: C15_16  and  C16_17 
REMARK    8  A    between atoms: C16_17  and  C17_18 
REMARK    9  A    between atoms: C17_18  and  C18_19 
REMARK   10  A    between atoms: C18_19  and  O2_20 
REMARK   11  A    between atoms: C20_22  and  C22_24 
REMARK   12  A    between atoms: C25_28  and  O4_30 
REMARK   13  A    between atoms: C27_31  and  C28_32 
REMARK   14  A    between atoms: C28_32  and  C29_33 
ROOT
HETATM    1  C9  UNL     1      -2.716   8.312  15.376  1.00  0.00     0.044 C 
HETATM    2  C10 UNL     1      -2.827   7.223  16.453  1.00  0.00     0.013 C 
HETATM    3  C11 UNL     1      -3.477   6.044  15.760  1.00  0.00     0.017 C 
HETATM    4  C12 UNL     1      -4.509   6.624  14.752  1.00  0.00     0.025 C 
HETATM    5  C13 UNL     1      -3.733   7.914  14.238  1.00  0.00     0.141 C 
HETATM    6  C15 UNL     1      -4.878   5.439  13.726  1.00  0.00     0.029 C 
HETATM    7  C19 UNL     1      -6.309   5.570  13.159  1.00  0.00    -0.066 C 
HETATM    8  C20 UNL     1      -7.161   4.527  12.971  1.00  0.00    -0.021 C 
HETATM    9  C21 UNL     1      -6.884   3.077  13.285  1.00  0.00     0.052 C 
HETATM   10  C23 UNL     1      -6.679   7.020  12.994  1.00  0.00     0.038 C 
HETATM   11  C24 UNL     1      -6.863   7.636  14.382  1.00  0.00     0.042 C 
HETATM   12  C25 UNL     1      -5.854   7.116  15.450  1.00  0.00     0.065 C 
HETATM   13  C26 UNL     1      -6.510   6.045  16.346  1.00  0.00     0.047 C 
ENDROOT
BRANCH   5  14
HETATM   14  O1  UNL     1      -3.088   7.734  12.983  1.00  0.00    -0.389 OA
HETATM   15  C14 UNL     1      -2.297   6.551  12.919  1.00  0.00     0.202 C 
ENDBRANCH   5  14
BRANCH   6  16
HETATM   16  C16 UNL     1      -3.847   5.195  12.594  1.00  0.00     0.012 C 
BRANCH  16  17
HETATM   17  C17 UNL     1      -4.132   3.991  11.687  1.00  0.00     0.027 C 
BRANCH  17  18
HETATM   18  C18 UNL     1      -3.336   2.753  12.102  1.00  0.00     0.164 C 
BRANCH  18  19
HETATM   19  O2  UNL     1      -3.812   1.591  11.437  1.00  0.00    -0.401 OA
HETATM   20  H27 UNL     1      -3.563   1.669  10.501  1.00  0.00     0.209 HD
ENDBRANCH  18  19
ENDBRANCH  17  18
ENDBRANCH  16  17
ENDBRANCH   6  16
BRANCH  12  21
HETATM   21  O4  UNL     1      -5.602   8.229  16.323  1.00  0.00    -0.389 OA
HETATM   22  H39 UNL     1      -6.444   8.494  16.731  1.00  0.00     0.210 HD
ENDBRANCH  12  21
BRANCH   1  23
HETATM   23  C6  UNL     1      -1.258   8.600  14.969  1.00  0.00    -0.074 C 
HETATM   24  C5  UNL     1      -0.476   9.516  15.583  1.00  0.00     0.003 C 
BRANCH  24  25
HETATM   25  C4  UNL     1      -0.838  10.424  16.656  1.00  0.00     0.001 C 
HETATM   26  C3  UNL     1       0.014  10.742  17.647  1.00  0.00     0.006 C 
BRANCH  26  27
HETATM   27  C2  UNL     1      -0.246  11.652  18.765  1.00  0.00    -0.067 C 
HETATM   28  C1  UNL     1      -1.384  12.369  18.747  1.00  0.00     0.019 C 
BRANCH  27  29
HETATM   29  C27 UNL     1       0.785  11.730  19.882  1.00  0.00     0.041 C 
BRANCH  29  30
HETATM   30  C28 UNL     1       1.066  10.440  20.670  1.00  0.00     0.032 C 
BRANCH  30  31
HETATM   31  C29 UNL     1       2.341  10.550  21.464  1.00  0.00    -0.024 C 
HETATM   32  C30 UNL     1       2.860   9.644  22.316  1.00  0.00    -0.091 C 
HETATM   33  C31 UNL     1       4.131   9.940  23.070  1.00  0.00     0.042 C 
HETATM   34  C32 UNL     1       2.270   8.290  22.602  1.00  0.00     0.042 C 
ENDBRANCH  30  31
ENDBRANCH  29  30
ENDBRANCH  27  29
ENDBRANCH  26  27
ENDBRANCH  24  25
BRANCH  23  35
HETATM   35  C7  UNL     1      -0.718   7.747  13.819  1.00  0.00     0.030 C 
HETATM   36  C8  UNL     1       0.560   8.219  13.131  1.00  0.00     0.010 C 
ENDBRANCH  23  35
ENDBRANCH   1  23
BRANCH   8  37
HETATM   37  C22 UNL     1      -8.553   4.716  12.443  1.00  0.00     0.265 C 
HETATM   38  O3  UNL     1      -8.975   5.804  12.062  1.00  0.00    -0.302 OA
ENDBRANCH   8  37
TORSDOF 14
ENDMDL
MODEL 6
REMARK minimizedAffinity -7.70598555
REMARK CNNscore 0.375666887
REMARK CNNaffinity 6.92823267
REMARK  14 active torsions:
REMARK  status: ('A' for Active; 'I' for Inactive)
REMARK    1  A    between atoms: C2_2  and  C3_3 
REMARK    2  A    between atoms: C2_2  and  C27_31 
REMARK    3  A    between atoms: C4_4  and  C5_5 
REMARK    4  A    between atoms: C6_6  and  C7_7 
REMARK    5  A    between atoms: C6_6  and  C9_9 
REMARK    6  A    between atoms: C13_13  and  O1_14 
REMARK    7  A    between atoms: C15_16  and  C16_17 
REMARK    8  A    between atoms: C16_17  and  C17_18 
REMARK    9  A    between atoms: C17_18  and  C18_19 
REMARK   10  A    between atoms: C18_19  and  O2_20 
REMARK   11  A    between atoms: C20_22  and  C22_24 
REMARK   12  A    between atoms: C25_28  and  O4_30 
REMARK   13  A    between atoms: C27_31  and  C28_32 
REMARK   14  A    between atoms: C28_32  and  C29_33 
ROOT
HETATM    1  C9  UNL     1      -1.221   6.406  14.012  1.00  0.00     0.044 C 
HETATM    2  C10 UNL     1      -0.062   5.446  14.318  1.00  0.00     0.013 C 
HETATM    3  C11 UNL     1       1.156   6.079  13.678  1.00  0.00     0.017 C 
HETATM    4  C12 UNL     1       0.678   6.752  12.361  1.00  0.00     0.025 C 
HETATM    5  C13 UNL     1      -0.746   7.304  12.806  1.00  0.00     0.141 C 
HETATM    6  C15 UNL     1       1.838   7.773  11.909  1.00  0.00     0.029 C 
HETATM    7  C19 UNL     1       1.891   7.970  10.377  1.00  0.00    -0.066 C 
HETATM    8  C20 UNL     1       3.038   8.052   9.651  1.00  0.00    -0.021 C 
HETATM    9  C21 UNL     1       4.445   7.957  10.187  1.00  0.00     0.052 C 
HETATM   10  C23 UNL     1       0.507   7.898   9.789  1.00  0.00     0.038 C 
HETATM   11  C24 UNL     1       0.015   6.452   9.876  1.00  0.00     0.042 C 
HETATM   12  C25 UNL     1       0.442   5.710  11.178  1.00  0.00     0.065 C 
HETATM   13  C26 UNL     1       1.655   4.794  10.913  1.00  0.00     0.047 C 
ENDROOT
BRANCH   5  14
HETATM   14  O1  UNL     1      -0.746   8.688  13.137  1.00  0.00    -0.389 OA
HETATM   15  C14 UNL     1      -1.912   9.375  12.693  1.00  0.00     0.202 C 
ENDBRANCH   5  14
BRANCH   6  16
HETATM   16  C16 UNL     1       1.849   9.136  12.649  1.00  0.00     0.012 C 
BRANCH  16  17
HETATM   17  C17 UNL     1       2.770   9.216  13.874  1.00  0.00     0.027 C 
BRANCH  17  18
HETATM   18  C18 UNL     1       4.048   8.397  13.690  1.00  0.00     0.164 C 
BRANCH  18  19
HETATM   19  O2  UNL     1       4.203   7.447  14.735  1.00  0.00    -0.401 OA
HETATM   20  H27 UNL     1       3.522   6.764  14.611  1.00  0.00     0.209 HD
ENDBRANCH  18  19
ENDBRANCH  17  18
ENDBRANCH  16  17
ENDBRANCH   6  16
BRANCH  12  21
HETATM   21  O4  UNL     1      -0.639   4.816  11.490  1.00  0.00    -0.389 OA
HETATM   22  H39 UNL     1      -0.746   4.196  10.748  1.00  0.00     0.210 HD
ENDBRANCH  12  21
BRANCH   1  23
HETATM   23  C6  UNL     1      -1.753   7.116  15.272  1.00  0.00    -0.074 C 
HETATM   24  C5  UNL     1      -3.052   7.096  15.652  1.00  0.00     0.003 C 
BRANCH  24  25
HETATM   25  C4  UNL     1      -4.175   6.491  14.959  1.00  0.00     0.001 C 
HETATM   26  C3  UNL     1      -5.392   6.386  15.521  1.00  0.00     0.006 C 
BRANCH  26  27
HETATM   27  C2  UNL     1      -6.590   5.807  14.909  1.00  0.00    -0.067 C 
HETATM   28  C1  UNL     1      -7.614   5.469  15.714  1.00  0.00     0.019 C 
BRANCH  27  29
HETATM   29  C27 UNL     1      -6.607   5.625  13.397  1.00  0.00     0.041 C 
BRANCH  29  30
HETATM   30  C28 UNL     1      -6.588   4.184  12.863  1.00  0.00     0.032 C 
BRANCH  30  31
HETATM   31  C29 UNL     1      -5.187   3.739  12.536  1.00  0.00    -0.024 C 
HETATM   32  C30 UNL     1      -4.811   2.635  11.861  1.00  0.00    -0.091 C 
HETATM   33  C31 UNL     1      -3.352   2.316  11.664  1.00  0.00     0.042 C 
HETATM   34  C32 UNL     1      -5.753   1.637  11.245  1.00  0.00     0.042 C 
ENDBRANCH  30  31
ENDBRANCH  29  30
ENDBRANCH  27  29
ENDBRANCH  26  27
ENDBRANCH  24  25
BRANCH  23  35
HETATM   35  C7  UNL     1      -0.698   7.841  16.110  1.00  0.00     0.030 C 
HETATM   36  C8  UNL     1      -1.001   9.274  16.540  1.00  0.00     0.010 C 
ENDBRANCH  23  35
ENDBRANCH   1  23
BRANCH   8  37
HETATM   37  C22 UNL     1       3.030   8.215   8.159  1.00  0.00     0.265 C 
HETATM   38  O3  UNL     1       3.317   9.272   7.606  1.00  0.00    -0.302 OA
ENDBRANCH   8  37
TORSDOF 14
ENDMDL
MODEL 7
REMARK minimizedAffinity -7.44022083
REMARK CNNscore 0.318345666
REMARK CNNaffinity 6.48548746
REMARK  14 active torsions:
REMARK  status: ('A' for Active; 'I' for Inactive)
REMARK    1  A    between atoms: C2_2  and  C3_3 
REMARK    2  A    between atoms: C2_2  and  C27_31 
REMARK    3  A    between atoms: C4_4  and  C5_5 
REMARK    4  A    between atoms: C6_6  and  C7_7 
REMARK    5  A    between atoms: C6_6  and  C9_9 
REMARK    6  A    between atoms: C13_13  and  O1_14 
REMARK    7  A    between atoms: C15_16  and  C16_17 
REMARK    8  A    between atoms: C16_17  and  C17_18 
REMARK    9  A    between atoms: C17_18  and  C18_19 
REMARK   10  A    between atoms: C18_19  and  O2_20 
REMARK   11  A    between atoms: C20_22  and  C22_24 
REMARK   12  A    between atoms: C25_28  and  O4_30 
REMARK   13  A    between atoms: C27_31  and  C28_32 
REMARK   14  A    between atoms: C28_32  and  C29_33 
ROOT
HETATM    1  C9  UNL     1      -1.361   9.410  14.584  1.00  0.00     0.044 C 
HETATM    2  C10 UNL     1      -1.786   9.800  13.161  1.00  0.00     0.013 C 
HETATM    3  C11 UNL     1      -2.282   8.517  12.530  1.00  0.00     0.017 C 
HETATM    4  C12 UNL     1      -1.386   7.369  13.073  1.00  0.00     0.025 C 
HETATM    5  C13 UNL     1      -1.166   7.845  14.575  1.00  0.00     0.141 C 
HETATM    6  C15 UNL     1      -2.156   5.988  12.766  1.00  0.00     0.029 C 
HETATM    7  C19 UNL     1      -1.188   4.800  12.569  1.00  0.00    -0.066 C 
HETATM    8  C20 UNL     1      -1.339   3.832  11.627  1.00  0.00    -0.021 C 
HETATM    9  C21 UNL     1      -2.448   3.740  10.608  1.00  0.00     0.052 C 
HETATM   10  C23 UNL     1       0.020   4.953  13.455  1.00  0.00     0.038 C 
HETATM   11  C24 UNL     1       0.871   6.108  12.924  1.00  0.00     0.042 C 
HETATM   12  C25 UNL     1       0.044   7.308  12.372  1.00  0.00     0.065 C 
HETATM   13  C26 UNL     1      -0.026   7.262  10.832  1.00  0.00     0.047 C 
ENDROOT
BRANCH   5  14
HETATM   14  O1  UNL     1      -2.016   7.195  15.513  1.00  0.00    -0.389 OA
HETATM   15  C14 UNL     1      -3.354   7.683  15.496  1.00  0.00     0.202 C 
ENDBRANCH   5  14
BRANCH   6  16
HETATM   16  C16 UNL     1      -3.292   5.626  13.758  1.00  0.00     0.012 C 
BRANCH  16  17
HETATM   17  C17 UNL     1      -4.694   5.513  13.145  1.00  0.00     0.027 C 
BRANCH  17  18
HETATM   18  C18 UNL     1      -5.152   4.061  13.013  1.00  0.00     0.164 C 
BRANCH  18  19
HETATM   19  O2  UNL     1      -6.389   3.974  12.320  1.00  0.00    -0.401 OA
HETATM   20  H27 UNL     1      -6.218   4.202  11.390  1.00  0.00     0.209 HD
ENDBRANCH  18  19
ENDBRANCH  17  18
ENDBRANCH  16  17
ENDBRANCH   6  16
BRANCH  12  21
HETATM   21  O4  UNL     1       0.814   8.484  12.675  1.00  0.00    -0.389 OA
HETATM   22  H39 UNL     1       1.673   8.410  12.226  1.00  0.00     0.210 HD
ENDBRANCH  12  21
BRANCH   1  23
HETATM   23  C6  UNL     1      -2.276  10.015  15.665  1.00  0.00    -0.074 C 
HETATM   24  C5  UNL     1      -1.848  10.371  16.898  1.00  0.00     0.003 C 
BRANCH  24  25
HETATM   25  C4  UNL     1      -0.521  10.209  17.462  1.00  0.00     0.001 C 
HETATM   26  C3  UNL     1       0.169  11.240  17.982  1.00  0.00     0.006 C 
BRANCH  26  27
HETATM   27  C2  UNL     1       1.503  11.184  18.585  1.00  0.00    -0.067 C 
HETATM   28  C1  UNL     1       2.472  10.528  17.919  1.00  0.00     0.019 C 
BRANCH  27  29
HETATM   29  C27 UNL     1       1.715  11.873  19.926  1.00  0.00     0.041 C 
BRANCH  29  30
HETATM   30  C28 UNL     1       2.760  11.261  20.872  1.00  0.00     0.032 C 
BRANCH  30  31
HETATM   31  C29 UNL     1       2.282   9.952  21.444  1.00  0.00    -0.024 C 
HETATM   32  C30 UNL     1       2.690   9.352  22.579  1.00  0.00    -0.091 C 
HETATM   33  C31 UNL     1       2.136   8.009  22.980  1.00  0.00     0.042 C 
HETATM   34  C32 UNL     1       3.695   9.921  23.543  1.00  0.00     0.042 C 
ENDBRANCH  30  31
ENDBRANCH  29  30
ENDBRANCH  27  29
ENDBRANCH  26  27
ENDBRANCH  24  25
BRANCH  23  35
HETATM   35  C7  UNL     1      -3.734  10.225  15.246  1.00  0.00     0.030 C 
HETATM   36  C8  UNL     1      -4.507  11.354  15.924  1.00  0.00     0.010 C 
ENDBRANCH  23  35
ENDBRANCH   1  23
BRANCH   8  37
HETATM   37  C22 UNL     1      -0.350   2.715  11.461  1.00  0.00     0.265 C 
HETATM   38  O3  UNL     1      -0.576   1.726  10.771  1.00  0.00    -0.302 OA
ENDBRANCH   8  37
TORSDOF 14
ENDMDL
MODEL 8
REMARK minimizedAffinity -5.93124676
REMARK CNNscore 0.274062634
REMARK CNNaffinity 6.08843613
REMARK  14 active torsions:
REMARK  status: ('A' for Active; 'I' for Inactive)
REMARK    1  A    between atoms: C2_2  and  C3_3 
REMARK    2  A    between atoms: C2_2  and  C27_31 
REMARK    3  A    between atoms: C4_4  and  C5_5 
REMARK    4  A    between atoms: C6_6  and  C7_7 
REMARK    5  A    between atoms: C6_6  and  C9_9 
REMARK    6  A    between atoms: C13_13  and  O1_14 
REMARK    7  A    between atoms: C15_16  and  C16_17 
REMARK    8  A    between atoms: C16_17  and  C17_18 
REMARK    9  A    between atoms: C17_18  and  C18_19 
REMARK   10  A    between atoms: C18_19  and  O2_20 
REMARK   11  A    between atoms: C20_22  and  C22_24 
REMARK   12  A    between atoms: C25_28  and  O4_30 
REMARK   13  A    between atoms: C27_31  and  C28_32 
REMARK   14  A    between atoms: C28_32  and  C29_33 
ROOT
HETATM    1  C9  UNL     1      -3.336  11.219  17.655  1.00  0.00     0.044 C 
HETATM    2  C10 UNL     1      -2.852   9.987  18.436  1.00  0.00     0.013 C 
HETATM    3  C11 UNL     1      -1.703   9.430  17.623  1.00  0.00     0.017 C 
HETATM    4  C12 UNL     1      -2.062   9.641  16.126  1.00  0.00     0.025 C 
HETATM    5  C13 UNL     1      -2.782  11.058  16.188  1.00  0.00     0.141 C 
HETATM    6  C15 UNL     1      -0.699   9.462  15.287  1.00  0.00     0.029 C 
HETATM    7  C19 UNL     1      -0.948   8.940  13.855  1.00  0.00    -0.066 C 
HETATM    8  C20 UNL     1      -0.176   8.011  13.229  1.00  0.00    -0.021 C 
HETATM    9  C21 UNL     1       1.035   7.319  13.803  1.00  0.00     0.052 C 
HETATM   10  C23 UNL     1      -2.245   9.482  13.315  1.00  0.00     0.038 C 
HETATM   11  C24 UNL     1      -3.400   8.819  14.068  1.00  0.00     0.042 C 
HETATM   12  C25 UNL     1      -3.124   8.583  15.583  1.00  0.00     0.065 C 
HETATM   13  C26 UNL     1      -2.722   7.118  15.845  1.00  0.00     0.047 C 
ENDROOT
BRANCH   5  14
HETATM   14  O1  UNL     1      -1.944  12.144  15.810  1.00  0.00    -0.389 OA
HETATM   15  C14 UNL     1      -2.556  13.031  14.877  1.00  0.00     0.202 C 
ENDBRANCH   5  14
BRANCH   6  16
HETATM   16  C16 UNL     1       0.243  10.694  15.278  1.00  0.00     0.012 C 
BRANCH  16  17
HETATM   17  C17 UNL     1       1.678  10.433  15.754  1.00  0.00     0.027 C 
BRANCH  17  18
HETATM   18  C18 UNL     1       1.725   9.510  16.972  1.00  0.00     0.164 C 
BRANCH  18  19
HETATM   19  O2  UNL     1       2.627   8.432  16.763  1.00  0.00    -0.401 OA
HETATM   20  H27 UNL     1       3.527   8.800  16.771  1.00  0.00     0.209 HD
ENDBRANCH  18  19
ENDBRANCH  17  18
ENDBRANCH  16  17
ENDBRANCH   6  16
BRANCH  12  21
HETATM   21  O4  UNL     1      -4.391   8.746  16.241  1.00  0.00    -0.389 OA
HETATM   22  H39 UNL     1      -5.006   8.081  15.886  1.00  0.00     0.210 HD
ENDBRANCH  12  21
BRANCH   1  23
HETATM   23  C6  UNL     1      -3.048  12.540  18.393  1.00  0.00    -0.074 C 
HETATM   24  C5  UNL     1      -1.884  12.806  19.030  1.00  0.00     0.003 C 
BRANCH  24  25
HETATM   25  C4  UNL     1      -0.742  11.928  19.203  1.00  0.00     0.001 C 
HETATM   26  C3  UNL     1       0.391  12.332  19.806  1.00  0.00     0.006 C 
BRANCH  26  27
HETATM   27  C2  UNL     1       1.591  11.528  20.042  1.00  0.00    -0.067 C 
HETATM   28  C1  UNL     1       1.470  10.408  20.778  1.00  0.00     0.019 C 
BRANCH  27  29
HETATM   29  C27 UNL     1       2.905  12.004  19.437  1.00  0.00     0.041 C 
BRANCH  29  30
HETATM   30  C28 UNL     1       4.183  11.264  19.861  1.00  0.00     0.032 C 
BRANCH  30  31
HETATM   31  C29 UNL     1       4.970  12.060  20.868  1.00  0.00    -0.024 C 
HETATM   32  C30 UNL     1       5.120  11.807  22.183  1.00  0.00    -0.091 C 
HETATM   33  C31 UNL     1       5.909  12.743  23.061  1.00  0.00     0.042 C 
HETATM   34  C32 UNL     1       4.552  10.613  22.902  1.00  0.00     0.042 C 
ENDBRANCH  30  31
ENDBRANCH  29  30
ENDBRANCH  27  29
ENDBRANCH  26  27
ENDBRANCH  24  25
BRANCH  23  35
HETATM   35  C7  UNL     1      -4.171  13.578  18.340  1.00  0.00     0.030 C 
HETATM   36  C8  UNL     1      -4.976  13.813  19.616  1.00  0.00     0.010 C 
ENDBRANCH  23  35
ENDBRANCH   1  23
BRANCH   8  37
HETATM   37  C22 UNL     1      -0.483   7.518  11.845  1.00  0.00     0.265 C 
HETATM   38  O3  UNL     1       0.334   7.561  10.930  1.00  0.00    -0.302 OA
ENDBRANCH   8  37
TORSDOF 14
ENDMDL
MODEL 9
REMARK minimizedAffinity -7.80358458
REMARK CNNscore 0.259654731
REMARK CNNaffinity 6.76011324
REMARK  14 active torsions:
REMARK  status: ('A' for Active; 'I' for Inactive)
REMARK    1  A    between atoms: C2_2  and  C3_3 
REMARK    2  A    between atoms: C2_2  and  C27_31 
REMARK    3  A    between atoms: C4_4  and  C5_5 
REMARK    4  A    between atoms: C6_6  and  C7_7 
REMARK    5  A    between atoms: C6_6  and  C9_9 
REMARK    6  A    between atoms: C13_13  and  O1_14 
REMARK    7  A    between atoms: C15_16  and  C16_17 
REMARK    8  A    between atoms: C16_17  and  C17_18 
REMARK    9  A    between atoms: C17_18  and  C18_19 
REMARK   10  A    between atoms: C18_19  and  O2_20 
REMARK   11  A    between atoms: C20_22  and  C22_24 
REMARK   12  A    between atoms: C25_28  and  O4_30 
REMARK   13  A    between atoms: C27_31  and  C28_32 
REMARK   14  A    between atoms: C28_32  and  C29_33 
ROOT
HETATM    1  C9  UNL     1      -3.012   5.500  13.462  1.00  0.00     0.044 C 
HETATM    2  C10 UNL     1      -4.209   6.397  13.113  1.00  0.00     0.013 C 
HETATM    3  C11 UNL     1      -3.650   7.802  13.064  1.00  0.00     0.017 C 
HETATM    4  C12 UNL     1      -2.563   7.897  14.171  1.00  0.00     0.025 C 
HETATM    5  C13 UNL     1      -1.913   6.449  14.076  1.00  0.00     0.141 C 
HETATM    6  C15 UNL     1      -1.680   9.205  13.848  1.00  0.00     0.029 C 
HETATM    7  C19 UNL     1      -1.076   9.841  15.120  1.00  0.00    -0.066 C 
HETATM    8  C20 UNL     1      -1.000  11.179  15.349  1.00  0.00    -0.021 C 
HETATM    9  C21 UNL     1      -1.489  12.274  14.433  1.00  0.00     0.052 C 
HETATM   10  C23 UNL     1      -0.734   8.777  16.129  1.00  0.00     0.038 C 
HETATM   11  C24 UNL     1      -2.035   8.198  16.687  1.00  0.00     0.042 C 
HETATM   12  C25 UNL     1      -3.175   8.058  15.634  1.00  0.00     0.065 C 
HETATM   13  C26 UNL     1      -4.180   9.220  15.757  1.00  0.00     0.047 C 
ENDROOT
BRANCH   5  14
HETATM   14  O1  UNL     1      -0.699   6.413  13.334  1.00  0.00    -0.389 OA
HETATM   15  C14 UNL     1       0.446   6.143  14.138  1.00  0.00     0.202 C 
ENDBRANCH   5  14
BRANCH   6  16
HETATM   16  C16 UNL     1      -0.602   9.023  12.748  1.00  0.00     0.012 C 
BRANCH  16  17
HETATM   17  C17 UNL     1      -1.125   9.016  11.305  1.00  0.00     0.027 C 
BRANCH  17  18
HETATM   18  C18 UNL     1      -0.088   8.482  10.317  1.00  0.00     0.164 C 
BRANCH  18  19
HETATM   19  O2  UNL     1      -0.329   8.973   9.006  1.00  0.00    -0.401 OA
HETATM   20  H27 UNL     1      -0.117   9.922   9.006  1.00  0.00     0.209 HD
ENDBRANCH  18  19
ENDBRANCH  17  18
ENDBRANCH  16  17
ENDBRANCH   6  16
BRANCH  12  21
HETATM   21  O4  UNL     1      -3.913   6.884  16.012  1.00  0.00    -0.389 OA
HETATM   22  H39 UNL     1      -4.271   7.024  16.905  1.00  0.00     0.210 HD
ENDBRANCH  12  21
BRANCH   1  23
HETATM   23  C6  UNL     1      -2.599   4.580  12.297  1.00  0.00    -0.074 C 
HETATM   24  C5  UNL     1      -3.483   3.918  11.516  1.00  0.00     0.003 C 
BRANCH  24  25
HETATM   25  C4  UNL     1      -4.928   3.879  11.638  1.00  0.00     0.001 C 
HETATM   26  C3  UNL     1      -5.545   3.343  12.706  1.00  0.00     0.006 C 
BRANCH  26  27
HETATM   27  C2  UNL     1      -6.989   3.264  12.933  1.00  0.00    -0.067 C 
HETATM   28  C1  UNL     1      -7.608   2.097  12.677  1.00  0.00     0.019 C 
BRANCH  27  29
HETATM   29  C27 UNL     1      -7.704   4.505  13.449  1.00  0.00     0.041 C 
BRANCH  29  30
HETATM   30  C28 UNL     1      -7.407   4.938  14.893  1.00  0.00     0.032 C 
BRANCH  30  31
HETATM   31  C29 UNL     1      -7.248   6.432  14.996  1.00  0.00    -0.024 C 
HETATM   32  C30 UNL     1      -8.219   7.356  15.133  1.00  0.00    -0.091 C 
HETATM   33  C31 UNL     1      -7.882   8.824  15.172  1.00  0.00     0.042 C 
HETATM   34  C32 UNL     1      -9.687   7.053  15.263  1.00  0.00     0.042 C 
ENDBRANCH  30  31
ENDBRANCH  29  30
ENDBRANCH  27  29
ENDBRANCH  26  27
ENDBRANCH  24  25
BRANCH  23  35
HETATM   35  C7  UNL     1      -1.093   4.476  12.046  1.00  0.00     0.030 C 
HETATM   36  C8  UNL     1      -0.539   3.115  11.634  1.00  0.00     0.010 C 
ENDBRANCH  23  35
ENDBRANCH   1  23
BRANCH   8  37
HETATM   37  C22 UNL     1      -0.429  11.742  16.618  1.00  0.00     0.265 C 
HETATM   38  O3  UNL     1      -1.118  11.986  17.604  1.00  0.00    -0.302 OA
ENDBRANCH   8  37
TORSDOF 14
ENDMDL
