MODEL 1
REMARK minimizedAffinity -10.5157003
REMARK CNNscore 0.364424706
REMARK CNNaffinity 7.5066433
REMARK  11 active torsions:
REMARK  status: ('A' for Active; 'I' for Inactive)
REMARK    1  A    between atoms: C3_3  and  O1_4 
REMARK    2  A    between atoms: N1_14  and  O2_16 
REMARK    3  A    between atoms: O2_16  and  C13_17 
REMARK    4  A    between atoms: C13_17  and  C14_18 
REMARK       I    between atoms: C14_18  and  N2_20 
REMARK    5  A    between atoms: N2_20  and  C15_21 
REMARK    6  A    between atoms: C15_21  and  C16_22 
REMARK    7  A    between atoms: C15_21  and  C17_25 
REMARK    8  A    between atoms: C16_22  and  O5_24 
REMARK    9  A    between atoms: C17_25  and  O6_26 
REMARK   10  A    between atoms: C17_25  and  C18_27 
REMARK   11  A    between atoms: C22_31  and  N3_32 
ROOT
HETATM    1  C1  UNL     1       2.481   6.295   6.718  1.00  0.00     0.015 C 
HETATM    2  C2  UNL     1       2.640   6.167   7.901  1.00  0.00    -0.078 C 
HETATM    3  C3  UNL     1       2.840   6.011   9.352  1.00  0.00     0.128 C 
HETATM    4  C4  UNL     1       2.136   4.756   9.891  1.00  0.00     0.052 C 
HETATM    5  C5  UNL     1       1.773   5.062  11.352  1.00  0.00     0.010 C 
HETATM    6  C6  UNL     1       2.186   6.521  11.616  1.00  0.00     0.002 C 
HETATM    7  C7  UNL     1       1.310   7.288  12.628  1.00  0.00    -0.004 C 
HETATM    8  C8  UNL     1       1.305   6.646  14.030  1.00  0.00     0.010 C 
HETATM    9  C9  UNL     1      -0.068   6.154  14.474  1.00  0.00     0.035 C 
HETATM   10  C10 UNL     1      -1.153   7.198  14.332  1.00  0.00    -0.069 C 
HETATM   11  C11 UNL     1      -2.214   7.165  15.157  1.00  0.00     0.030 C 
HETATM   12  C12 UNL     1      -3.363   8.091  14.983  1.00  0.00     0.032 C 
HETATM   13  N1  UNL     1      -4.221   8.180  15.960  1.00  0.00    -0.271 N 
ATOM     14  H1  UNL     1      -4.154   7.657  16.832  1.00  0.00     0.194 HD
HETATM   15  C24 UNL     1      -3.464   8.891  13.697  1.00  0.00     0.060 C 
HETATM   16  C25 UNL     1      -2.469   8.439  12.628  1.00  0.00     0.020 C 
HETATM   17  C26 UNL     1      -1.038   8.202  13.180  1.00  0.00    -0.016 C 
HETATM   18  C27 UNL     1      -0.471   9.543  13.707  1.00  0.00     0.020 C 
HETATM   19  C28 UNL     1      -0.113   7.573  12.081  1.00  0.00     0.002 C 
HETATM   20  C29 UNL     1       0.018   8.380  10.780  1.00  0.00     0.007 C 
HETATM   21  C30 UNL     1       0.826   7.600   9.735  1.00  0.00     0.014 C 
HETATM   22  C31 UNL     1       2.245   7.176  10.208  1.00  0.00     0.003 C 
HETATM   23  C32 UNL     1       3.168   8.411  10.211  1.00  0.00     0.020 C 
ENDROOT
BRANCH   3  24
HETATM   24  O1  UNL     1       4.245   5.866   9.573  1.00  0.00    -0.377 OA
HETATM   25  H2  UNL     1       4.386   5.584  10.492  1.00  0.00     0.211 HD
ENDBRANCH   3  24
BRANCH  13  26
HETATM   26  O2  UNL     1      -5.248   9.088  15.660  1.00  0.00    -0.271 OA
BRANCH  26  27
HETATM   27  C13 UNL     1      -6.496   8.401  15.683  1.00  0.00     0.303 C 
BRANCH  27  28
HETATM   28  C14 UNL     1      -6.644   7.531  14.442  1.00  0.00     0.244 C 
HETATM   29  O3  UNL     1      -5.987   7.714  13.419  1.00  0.00    -0.271 OA
HETATM   30  N2  UNL     1      -7.636   6.582  14.525  1.00  0.00    -0.342 N 
HETATM   31  H16 UNL     1      -8.196   6.535  15.371  1.00  0.00     0.163 HD
BRANCH  30  32
HETATM   32  C15 UNL     1      -8.069   5.819  13.347  1.00  0.00     0.216 C 
BRANCH  32  33
HETATM   33  C16 UNL     1      -9.491   6.218  12.931  1.00  0.00     0.166 C 
HETATM   34  O4  UNL     1     -10.399   6.542  13.685  1.00  0.00    -0.648 OA
BRANCH  33  35
HETATM   35  O5  UNL     1      -9.690   6.280  11.594  1.00  0.00    -0.775 OA
HETATM   36  H18 UNL     1     -10.642   6.500  11.506  1.00  0.00     0.167 HD
ENDBRANCH  33  35
ENDBRANCH  32  33
BRANCH  32  37
HETATM   37  C17 UNL     1      -8.071   4.293  13.617  1.00  0.00     0.184 C 
BRANCH  37  38
HETATM   38  O6  UNL     1      -7.875   4.019  15.017  1.00  0.00    -0.388 OA
HETATM   39  H20 UNL     1      -7.436   3.155  15.097  1.00  0.00     0.210 HD
ENDBRANCH  37  38
BRANCH  37  40
HETATM   40  C18 UNL     1      -7.025   3.536  12.812  1.00  0.00    -0.025 A 
HETATM   41  C19 UNL     1      -7.255   2.215  12.392  1.00  0.00     0.010 A 
HETATM   42  C20 UNL     1      -6.285   1.514  11.671  1.00  0.00     0.003 A 
HETATM   43  C21 UNL     1      -5.064   2.116  11.365  1.00  0.00     0.036 A 
HETATM   44  C22 UNL     1      -4.823   3.429  11.784  1.00  0.00     0.103 A 
HETATM   45  C23 UNL     1      -5.797   4.142  12.498  1.00  0.00     0.045 A 
BRANCH  44  46
HETATM   46  N3  UNL     1      -3.535   4.065  11.480  1.00  0.00    -0.116 N 
HETATM   47  O7  UNL     1      -2.948   3.710  10.447  1.00  0.00    -0.532 OA
HETATM   48  O8  UNL     1      -3.104   4.911  12.277  1.00  0.00    -0.532 OA
ENDBRANCH  44  46
ENDBRANCH  37  40
ENDBRANCH  32  37
ENDBRANCH  30  32
ENDBRANCH  27  28
ENDBRANCH  26  27
ENDBRANCH  13  26
TORSDOF 11
ENDMDL
MODEL 2
REMARK minimizedAffinity -8.21326447
REMARK CNNscore 0.359500378
REMARK CNNaffinity 7.07952499
REMARK  11 active torsions:
REMARK  status: ('A' for Active; 'I' for Inactive)
REMARK    1  A    between atoms: C3_3  and  O1_4 
REMARK    2  A    between atoms: N1_14  and  O2_16 
REMARK    3  A    between atoms: O2_16  and  C13_17 
REMARK    4  A    between atoms: C13_17  and  C14_18 
REMARK       I    between atoms: C14_18  and  N2_20 
REMARK    5  A    between atoms: N2_20  and  C15_21 
REMARK    6  A    between atoms: C15_21  and  C16_22 
REMARK    7  A    between atoms: C15_21  and  C17_25 
REMARK    8  A    between atoms: C16_22  and  O5_24 
REMARK    9  A    between atoms: C17_25  and  O6_26 
REMARK   10  A    between atoms: C17_25  and  C18_27 
REMARK   11  A    between atoms: C22_31  and  N3_32 
ROOT
HETATM    1  C1  UNL     1       1.837   8.356   8.031  1.00  0.00     0.015 C 
HETATM    2  C2  UNL     1       1.805   7.813   9.102  1.00  0.00    -0.078 C 
HETATM    3  C3  UNL     1       1.772   7.148  10.415  1.00  0.00     0.128 C 
HETATM    4  C4  UNL     1       1.055   5.790  10.348  1.00  0.00     0.052 C 
HETATM    5  C5  UNL     1       0.442   5.560  11.737  1.00  0.00     0.010 C 
HETATM    6  C6  UNL     1       0.729   6.825  12.565  1.00  0.00     0.002 C 
HETATM    7  C7  UNL     1      -0.341   7.190  13.616  1.00  0.00    -0.004 C 
HETATM    8  C8  UNL     1      -0.544   6.090  14.677  1.00  0.00     0.010 C 
HETATM    9  C9  UNL     1      -1.943   5.487  14.676  1.00  0.00     0.035 C 
HETATM   10  C10 UNL     1      -3.043   6.523  14.726  1.00  0.00    -0.069 C 
HETATM   11  C11 UNL     1      -4.222   6.210  15.291  1.00  0.00     0.030 C 
HETATM   12  C12 UNL     1      -5.373   7.148  15.259  1.00  0.00     0.032 C 
HETATM   13  N1  UNL     1      -6.384   6.893  16.041  1.00  0.00    -0.271 N 
ATOM     14  H1  UNL     1      -6.434   6.092  16.670  1.00  0.00     0.194 HD
HETATM   15  C24 UNL     1      -5.302   8.356  14.341  1.00  0.00     0.060 C 
HETATM   16  C25 UNL     1      -4.123   8.303  13.370  1.00  0.00     0.020 C 
HETATM   17  C26 UNL     1      -2.792   7.871  14.040  1.00  0.00    -0.016 C 
HETATM   18  C27 UNL     1      -2.390   8.930  15.096  1.00  0.00     0.020 C 
HETATM   19  C28 UNL     1      -1.667   7.666  12.967  1.00  0.00     0.002 C 
HETATM   20  C29 UNL     1      -1.366   8.882  12.077  1.00  0.00     0.007 C 
HETATM   21  C30 UNL     1      -0.358   8.517  10.981  1.00  0.00     0.014 C 
HETATM   22  C31 UNL     1       0.984   7.938  11.510  1.00  0.00     0.003 C 
HETATM   23  C32 UNL     1       1.829   9.081  12.108  1.00  0.00     0.020 C 
ENDROOT
BRANCH   3  24
HETATM   24  O1  UNL     1       3.127   6.920  10.810  1.00  0.00    -0.377 OA
HETATM   25  H2  UNL     1       3.129   6.328  11.579  1.00  0.00     0.211 HD
ENDBRANCH   3  24
BRANCH  13  26
HETATM   26  O2  UNL     1      -7.393   7.858  15.908  1.00  0.00    -0.271 OA
BRANCH  26  27
HETATM   27  C13 UNL     1      -8.650   7.259  16.209  1.00  0.00     0.303 C 
BRANCH  27  28
HETATM   28  C14 UNL     1      -9.780   8.051  15.565  1.00  0.00     0.244 C 
HETATM   29  O3  UNL     1     -10.277   7.743  14.484  1.00  0.00    -0.271 OA
HETATM   30  N2  UNL     1     -10.140   9.190  16.247  1.00  0.00    -0.342 N 
HETATM   31  H16 UNL     1      -9.635   9.430  17.096  1.00  0.00     0.163 HD
BRANCH  30  32
HETATM   32  C15 UNL     1     -11.041  10.187  15.656  1.00  0.00     0.216 C 
BRANCH  32  33
HETATM   33  C16 UNL     1     -10.258  11.418  15.181  1.00  0.00     0.166 C 
HETATM   34  O4  UNL     1     -10.719  12.381  14.585  1.00  0.00    -0.648 OA
BRANCH  33  35
HETATM   35  O5  UNL     1      -8.955  11.431  15.546  1.00  0.00    -0.775 OA
HETATM   36  H18 UNL     1      -8.600  12.246  15.131  1.00  0.00     0.167 HD
ENDBRANCH  33  35
ENDBRANCH  32  33
BRANCH  32  37
HETATM   37  C17 UNL     1     -12.109  10.673  16.669  1.00  0.00     0.184 C 
BRANCH  37  38
HETATM   38  O6  UNL     1     -12.696  11.915  16.239  1.00  0.00    -0.388 OA
HETATM   39  H20 UNL     1     -12.977  12.406  17.030  1.00  0.00     0.210 HD
ENDBRANCH  37  38
BRANCH  37  40
HETATM   40  C18 UNL     1     -11.570  10.840  18.081  1.00  0.00    -0.025 A 
HETATM   41  C19 UNL     1     -11.726   9.824  19.039  1.00  0.00     0.010 A 
HETATM   42  C20 UNL     1     -11.249   9.989  20.342  1.00  0.00     0.003 A 
HETATM   43  C21 UNL     1     -10.617  11.175  20.715  1.00  0.00     0.036 A 
HETATM   44  C22 UNL     1     -10.462  12.196  19.770  1.00  0.00     0.103 A 
HETATM   45  C23 UNL     1     -10.929  12.033  18.458  1.00  0.00     0.045 A 
BRANCH  44  46
HETATM   46  N3  UNL     1      -9.813  13.454  20.158  1.00  0.00    -0.116 N 
HETATM   47  O7  UNL     1      -9.450  13.574  21.338  1.00  0.00    -0.532 OA
HETATM   48  O8  UNL     1      -9.673  14.327  19.288  1.00  0.00    -0.532 OA
ENDBRANCH  44  46
ENDBRANCH  37  40
ENDBRANCH  32  37
ENDBRANCH  30  32
ENDBRANCH  27  28
ENDBRANCH  26  27
ENDBRANCH  13  26
TORSDOF 11
ENDMDL
MODEL 3
REMARK minimizedAffinity -8.32611752
REMARK CNNscore 0.348240793
REMARK CNNaffinity 6.83122587
REMARK  11 active torsions:
REMARK  status: ('A' for Active; 'I' for Inactive)
REMARK    1  A    between atoms: C3_3  and  O1_4 
REMARK    2  A    between atoms: N1_14  and  O2_16 
REMARK    3  A    between atoms: O2_16  and  C13_17 
REMARK    4  A    between atoms: C13_17  and  C14_18 
REMARK       I    between atoms: C14_18  and  N2_20 
REMARK    5  A    between atoms: N2_20  and  C15_21 
REMARK    6  A    between atoms: C15_21  and  C16_22 
REMARK    7  A    between atoms: C15_21  and  C17_25 
REMARK    8  A    between atoms: C16_22  and  O5_24 
REMARK    9  A    between atoms: C17_25  and  O6_26 
REMARK   10  A    between atoms: C17_25  and  C18_27 
REMARK   11  A    between atoms: C22_31  and  N3_32 
ROOT
HETATM    1  C1  UNL     1     -12.572   3.584  30.598  1.00  0.00     0.015 C 
HETATM    2  C2  UNL     1     -13.013   3.099  29.592  1.00  0.00    -0.078 C 
HETATM    3  C3  UNL     1     -13.556   2.502  28.361  1.00  0.00     0.128 C 
HETATM    4  C4  UNL     1     -12.440   2.058  27.403  1.00  0.00     0.052 C 
HETATM    5  C5  UNL     1     -13.024   2.163  25.986  1.00  0.00     0.010 C 
HETATM    6  C6  UNL     1     -14.438   2.754  26.130  1.00  0.00     0.002 C 
HETATM    7  C7  UNL     1     -14.913   3.638  24.959  1.00  0.00    -0.004 C 
HETATM    8  C8  UNL     1     -14.963   2.883  23.615  1.00  0.00     0.010 C 
HETATM    9  C9  UNL     1     -14.013   3.441  22.562  1.00  0.00     0.035 C 
HETATM   10  C10 UNL     1     -14.141   4.935  22.370  1.00  0.00    -0.069 C 
HETATM   11  C11 UNL     1     -13.848   5.475  21.174  1.00  0.00     0.030 C 
HETATM   12  C12 UNL     1     -13.842   6.946  20.967  1.00  0.00     0.032 C 
HETATM   13  N1  UNL     1     -13.808   7.384  19.740  1.00  0.00    -0.271 N 
ATOM     14  H1  UNL     1     -13.786   6.782  18.917  1.00  0.00     0.194 HD
HETATM   15  C24 UNL     1     -13.894   7.853  22.184  1.00  0.00     0.060 C 
HETATM   16  C25 UNL     1     -13.697   7.103  23.500  1.00  0.00     0.020 C 
HETATM   17  C26 UNL     1     -14.515   5.787  23.588  1.00  0.00    -0.016 C 
HETATM   18  C27 UNL     1     -16.026   6.126  23.547  1.00  0.00     0.020 C 
HETATM   19  C28 UNL     1     -14.137   4.979  24.878  1.00  0.00     0.002 C 
HETATM   20  C29 UNL     1     -14.316   5.727  26.208  1.00  0.00     0.007 C 
HETATM   21  C30 UNL     1     -13.781   4.892  27.378  1.00  0.00     0.014 C 
HETATM   22  C31 UNL     1     -14.423   3.481  27.505  1.00  0.00     0.003 C 
HETATM   23  C32 UNL     1     -15.851   3.623  28.069  1.00  0.00     0.020 C 
ENDROOT
BRANCH   3  24
HETATM   24  O1  UNL     1     -14.304   1.345  28.745  1.00  0.00    -0.377 OA
HETATM   25  H2  UNL     1     -14.519   0.837  27.946  1.00  0.00     0.211 HD
ENDBRANCH   3  24
BRANCH  13  26
HETATM   26  O2  UNL     1     -13.807   8.786  19.694  1.00  0.00    -0.271 OA
BRANCH  26  27
HETATM   27  C13 UNL     1     -12.629   9.228  19.027  1.00  0.00     0.303 C 
BRANCH  27  28
HETATM   28  C14 UNL     1     -12.950   9.619  17.590  1.00  0.00     0.244 C 
HETATM   29  O3  UNL     1     -13.915  10.320  17.291  1.00  0.00    -0.271 OA
HETATM   30  N2  UNL     1     -12.127   9.051  16.646  1.00  0.00    -0.342 N 
HETATM   31  H16 UNL     1     -11.395   8.418  16.955  1.00  0.00     0.163 HD
BRANCH  30  32
HETATM   32  C15 UNL     1     -12.433   9.132  15.212  1.00  0.00     0.216 C 
BRANCH  32  33
HETATM   33  C16 UNL     1     -13.339   7.971  14.781  1.00  0.00     0.166 C 
HETATM   34  O4  UNL     1     -14.361   8.063  14.116  1.00  0.00    -0.648 OA
BRANCH  33  35
HETATM   35  O5  UNL     1     -12.885   6.744  15.126  1.00  0.00    -0.775 OA
HETATM   36  H18 UNL     1     -13.590   6.135  14.822  1.00  0.00     0.167 HD
ENDBRANCH  33  35
ENDBRANCH  32  33
BRANCH  32  37
HETATM   37  C17 UNL     1     -11.151   9.073  14.344  1.00  0.00     0.184 C 
BRANCH  37  38
HETATM   38  O6  UNL     1     -11.460   8.669  12.997  1.00  0.00    -0.388 OA
HETATM   39  H20 UNL     1     -10.684   8.211  12.633  1.00  0.00     0.210 HD
ENDBRANCH  37  38
BRANCH  37  40
HETATM   40  C18 UNL     1     -10.082   8.148  14.906  1.00  0.00    -0.025 A 
HETATM   41  C19 UNL     1      -9.550   8.356  16.190  1.00  0.00     0.010 A 
HETATM   42  C20 UNL     1      -8.553   7.517  16.696  1.00  0.00     0.003 A 
HETATM   43  C21 UNL     1      -8.062   6.463  15.926  1.00  0.00     0.036 A 
HETATM   44  C22 UNL     1      -8.582   6.251  14.643  1.00  0.00     0.103 A 
HETATM   45  C23 UNL     1      -9.590   7.082  14.134  1.00  0.00     0.045 A 
BRANCH  44  46
HETATM   46  N3  UNL     1      -8.060   5.154  13.819  1.00  0.00    -0.116 N 
HETATM   47  O7  UNL     1      -7.047   4.563  14.223  1.00  0.00    -0.532 OA
HETATM   48  O8  UNL     1      -8.654   4.888  12.764  1.00  0.00    -0.532 OA
ENDBRANCH  44  46
ENDBRANCH  37  40
ENDBRANCH  32  37
ENDBRANCH  30  32
ENDBRANCH  27  28
ENDBRANCH  26  27
ENDBRANCH  13  26
TORSDOF 11
ENDMDL
MODEL 4
REMARK minimizedAffinity -9.40654945
REMARK CNNscore 0.299005449
REMARK CNNaffinity 7.477211
REMARK  11 active torsions:
REMARK  status: ('A' for Active; 'I' for Inactive)
REMARK    1  A    between atoms: C3_3  and  O1_4 
REMARK    2  A    between atoms: N1_14  and  O2_16 
REMARK    3  A    between atoms: O2_16  and  C13_17 
REMARK    4  A    between atoms: C13_17  and  C14_18 
REMARK       I    between atoms: C14_18  and  N2_20 
REMARK    5  A    between atoms: N2_20  and  C15_21 
REMARK    6  A    between atoms: C15_21  and  C16_22 
REMARK    7  A    between atoms: C15_21  and  C17_25 
REMARK    8  A    between atoms: C16_22  and  O5_24 
REMARK    9  A    between atoms: C17_25  and  O6_26 
REMARK   10  A    between atoms: C17_25  and  C18_27 
REMARK   11  A    between atoms: C22_31  and  N3_32 
ROOT
HETATM    1  C1  UNL     1       2.873   7.954   8.016  1.00  0.00     0.015 C 
HETATM    2  C2  UNL     1       2.845   7.631   9.172  1.00  0.00    -0.078 C 
HETATM    3  C3  UNL     1       2.815   7.234  10.590  1.00  0.00     0.128 C 
HETATM    4  C4  UNL     1       2.223   5.829  10.776  1.00  0.00     0.052 C 
HETATM    5  C5  UNL     1       1.575   5.817  12.169  1.00  0.00     0.010 C 
HETATM    6  C6  UNL     1       1.717   7.241  12.737  1.00  0.00     0.002 C 
HETATM    7  C7  UNL     1       0.578   7.702  13.669  1.00  0.00    -0.004 C 
HETATM    8  C8  UNL     1       0.428   6.817  14.922  1.00  0.00     0.010 C 
HETATM    9  C9  UNL     1      -0.913   6.097  15.008  1.00  0.00     0.035 C 
HETATM   10  C10 UNL     1      -2.100   7.016  14.826  1.00  0.00    -0.069 C 
HETATM   11  C11 UNL     1      -3.269   6.710  15.414  1.00  0.00     0.030 C 
HETATM   12  C12 UNL     1      -4.495   7.513  15.170  1.00  0.00     0.032 C 
HETATM   13  N1  UNL     1      -5.511   7.321  15.964  1.00  0.00    -0.271 N 
ATOM     14  H1  UNL     1      -5.518   6.658  16.738  1.00  0.00     0.194 HD
HETATM   15  C24 UNL     1      -4.492   8.519  14.033  1.00  0.00     0.060 C 
HETATM   16  C25 UNL     1      -3.274   8.388  13.120  1.00  0.00     0.020 C 
HETATM   17  C26 UNL     1      -1.939   8.222  13.893  1.00  0.00    -0.016 C 
HETATM   18  C27 UNL     1      -1.675   9.499  14.727  1.00  0.00     0.020 C 
HETATM   19  C28 UNL     1      -0.758   7.917  12.908  1.00  0.00     0.002 C 
HETATM   20  C29 UNL     1      -0.527   8.958  11.802  1.00  0.00     0.007 C 
HETATM   21  C30 UNL     1       0.553   8.482  10.824  1.00  0.00     0.014 C 
HETATM   22  C31 UNL     1       1.918   8.146  11.488  1.00  0.00     0.003 C 
HETATM   23  C32 UNL     1       2.635   9.457  11.867  1.00  0.00     0.020 C 
ENDROOT
BRANCH   3  24
HETATM   24  O1  UNL     1       4.168   7.215  11.053  1.00  0.00    -0.377 OA
HETATM   25  H2  UNL     1       4.190   6.787  11.925  1.00  0.00     0.211 HD
ENDBRANCH   3  24
BRANCH  13  26
HETATM   26  O2  UNL     1      -6.594   8.143  15.619  1.00  0.00    -0.271 OA
BRANCH  26  27
HETATM   27  C13 UNL     1      -7.784   7.359  15.600  1.00  0.00     0.303 C 
BRANCH  27  28
HETATM   28  C14 UNL     1      -7.500   5.981  15.019  1.00  0.00     0.244 C 
HETATM   29  O3  UNL     1      -7.080   5.046  15.698  1.00  0.00    -0.271 OA
HETATM   30  N2  UNL     1      -7.664   5.891  13.657  1.00  0.00    -0.342 N 
HETATM   31  H16 UNL     1      -7.938   6.723  13.142  1.00  0.00     0.163 HD
BRANCH  30  32
HETATM   32  C15 UNL     1      -7.213   4.712  12.905  1.00  0.00     0.216 C 
BRANCH  32  33
HETATM   33  C16 UNL     1      -8.127   3.510  13.175  1.00  0.00     0.166 C 
HETATM   34  O4  UNL     1      -9.087   3.167  12.499  1.00  0.00    -0.648 OA
BRANCH  33  35
HETATM   35  O5  UNL     1      -7.753   2.742  14.225  1.00  0.00    -0.775 OA
HETATM   36  H18 UNL     1      -8.455   2.061  14.283  1.00  0.00     0.167 HD
ENDBRANCH  33  35
ENDBRANCH  32  33
BRANCH  32  37
HETATM   37  C17 UNL     1      -5.770   4.300  13.289  1.00  0.00     0.184 C 
BRANCH  37  38
HETATM   38  O6  UNL     1      -5.116   5.348  14.029  1.00  0.00    -0.388 OA
HETATM   39  H20 UNL     1      -4.160   5.287  13.859  1.00  0.00     0.210 HD
ENDBRANCH  37  38
BRANCH  37  40
HETATM   40  C18 UNL     1      -4.909   3.926  12.092  1.00  0.00    -0.025 A 
HETATM   41  C19 UNL     1      -5.474   3.774  10.815  1.00  0.00     0.010 A 
HETATM   42  C20 UNL     1      -4.685   3.410   9.721  1.00  0.00     0.003 A 
HETATM   43  C21 UNL     1      -3.319   3.180   9.885  1.00  0.00     0.036 A 
HETATM   44  C22 UNL     1      -2.747   3.322  11.154  1.00  0.00     0.103 A 
HETATM   45  C23 UNL     1      -3.531   3.698  12.254  1.00  0.00     0.045 A 
BRANCH  44  46
HETATM   46  N3  UNL     1      -1.313   3.066  11.339  1.00  0.00    -0.116 N 
HETATM   47  O7  UNL     1      -0.740   3.652  12.270  1.00  0.00    -0.532 OA
HETATM   48  O8  UNL     1      -0.757   2.288  10.550  1.00  0.00    -0.532 OA
ENDBRANCH  44  46
ENDBRANCH  37  40
ENDBRANCH  32  37
ENDBRANCH  30  32
ENDBRANCH  27  28
ENDBRANCH  26  27
ENDBRANCH  13  26
TORSDOF 11
ENDMDL
MODEL 5
REMARK minimizedAffinity -7.90739822
REMARK CNNscore 0.267007351
REMARK CNNaffinity 6.55737925
REMARK  11 active torsions:
REMARK  status: ('A' for Active; 'I' for Inactive)
REMARK    1  A    between atoms: C3_3  and  O1_4 
REMARK    2  A    between atoms: N1_14  and  O2_16 
REMARK    3  A    between atoms: O2_16  and  C13_17 
REMARK    4  A    between atoms: C13_17  and  C14_18 
REMARK       I    between atoms: C14_18  and  N2_20 
REMARK    5  A    between atoms: N2_20  and  C15_21 
REMARK    6  A    between atoms: C15_21  and  C16_22 
REMARK    7  A    between atoms: C15_21  and  C17_25 
REMARK    8  A    between atoms: C16_22  and  O5_24 
REMARK    9  A    between atoms: C17_25  and  O6_26 
REMARK   10  A    between atoms: C17_25  and  C18_27 
REMARK   11  A    between atoms: C22_31  and  N3_32 
ROOT
HETATM    1  C1  UNL     1     -12.452   2.986  30.400  1.00  0.00     0.015 C 
HETATM    2  C2  UNL     1     -12.919   2.583  29.370  1.00  0.00    -0.078 C 
HETATM    3  C3  UNL     1     -13.494   2.087  28.108  1.00  0.00     0.128 C 
HETATM    4  C4  UNL     1     -12.402   1.701  27.098  1.00  0.00     0.052 C 
HETATM    5  C5  UNL     1     -13.011   1.920  25.705  1.00  0.00     0.010 C 
HETATM    6  C6  UNL     1     -14.413   2.518  25.921  1.00  0.00     0.002 C 
HETATM    7  C7  UNL     1     -14.896   3.493  24.828  1.00  0.00    -0.004 C 
HETATM    8  C8  UNL     1     -14.983   2.842  23.433  1.00  0.00     0.010 C 
HETATM    9  C9  UNL     1     -14.044   3.463  22.406  1.00  0.00     0.035 C 
HETATM   10  C10 UNL     1     -14.154   4.969  22.328  1.00  0.00    -0.069 C 
HETATM   11  C11 UNL     1     -13.875   5.594  21.171  1.00  0.00     0.030 C 
HETATM   12  C12 UNL     1     -13.850   7.076  21.073  1.00  0.00     0.032 C 
HETATM   13  N1  UNL     1     -13.833   7.604  19.882  1.00  0.00    -0.271 N 
ATOM     14  H1  UNL     1     -13.835   7.065  19.016  1.00  0.00     0.194 HD
HETATM   15  C24 UNL     1     -13.867   7.890  22.355  1.00  0.00     0.060 C 
HETATM   16  C25 UNL     1     -13.656   7.040  23.608  1.00  0.00     0.020 C 
HETATM   17  C26 UNL     1     -14.492   5.733  23.614  1.00  0.00    -0.016 C 
HETATM   18  C27 UNL     1     -15.998   6.095  23.628  1.00  0.00     0.020 C 
HETATM   19  C28 UNL     1     -14.102   4.826  24.831  1.00  0.00     0.002 C 
HETATM   20  C29 UNL     1     -14.245   5.475  26.217  1.00  0.00     0.007 C 
HETATM   21  C30 UNL     1     -13.701   4.547  27.311  1.00  0.00     0.014 C 
HETATM   22  C31 UNL     1     -14.362   3.139  27.345  1.00  0.00     0.003 C 
HETATM   23  C32 UNL     1     -15.777   3.258  27.946  1.00  0.00     0.020 C 
ENDROOT
BRANCH   3  24
HETATM   24  O1  UNL     1     -14.251   0.915  28.419  1.00  0.00    -0.377 OA
HETATM   25  H2  UNL     1     -14.489   0.471  27.589  1.00  0.00     0.211 HD
ENDBRANCH   3  24
BRANCH  13  26
HETATM   26  O2  UNL     1     -13.812   9.005  19.941  1.00  0.00    -0.271 OA
BRANCH  26  27
HETATM   27  C13 UNL     1     -13.600   9.522  18.630  1.00  0.00     0.303 C 
BRANCH  27  28
HETATM   28  C14 UNL     1     -12.110   9.689  18.362  1.00  0.00     0.244 C 
HETATM   29  O3  UNL     1     -11.246   9.308  19.148  1.00  0.00    -0.271 OA
HETATM   30  N2  UNL     1     -11.812  10.382  17.212  1.00  0.00    -0.342 N 
HETATM   31  H16 UNL     1     -12.576  10.739  16.645  1.00  0.00     0.163 HD
BRANCH  30  32
HETATM   32  C15 UNL     1     -10.445  10.834  16.921  1.00  0.00     0.216 C 
BRANCH  32  33
HETATM   33  C16 UNL     1     -10.224  12.265  17.430  1.00  0.00     0.166 C 
HETATM   34  O4  UNL     1      -9.953  13.241  16.743  1.00  0.00    -0.648 OA
BRANCH  33  35
HETATM   35  O5  UNL     1     -10.433  12.430  18.756  1.00  0.00    -0.775 OA
HETATM   36  H18 UNL     1     -10.209  13.370  18.917  1.00  0.00     0.167 HD
ENDBRANCH  33  35
ENDBRANCH  32  33
BRANCH  32  37
HETATM   37  C17 UNL     1     -10.146  10.825  15.401  1.00  0.00     0.184 C 
BRANCH  37  38
HETATM   38  O6  UNL     1     -11.080  11.657  14.689  1.00  0.00    -0.388 OA
HETATM   39  H20 UNL     1     -11.180  11.299  13.790  1.00  0.00     0.210 HD
ENDBRANCH  37  38
BRANCH  37  40
HETATM   40  C18 UNL     1     -10.157   9.432  14.791  1.00  0.00    -0.025 A 
HETATM   41  C19 UNL     1     -11.179   9.037  13.912  1.00  0.00     0.010 A 
HETATM   42  C20 UNL     1     -11.199   7.750  13.368  1.00  0.00     0.003 A 
HETATM   43  C21 UNL     1     -10.204   6.830  13.701  1.00  0.00     0.036 A 
HETATM   44  C22 UNL     1      -9.184   7.212  14.581  1.00  0.00     0.103 A 
HETATM   45  C23 UNL     1      -9.152   8.506  15.121  1.00  0.00     0.045 A 
BRANCH  44  46
HETATM   46  N3  UNL     1      -8.142   6.246  14.950  1.00  0.00    -0.116 N 
HETATM   47  O7  UNL     1      -7.222   6.055  14.140  1.00  0.00    -0.532 OA
HETATM   48  O8  UNL     1      -8.246   5.670  16.043  1.00  0.00    -0.532 OA
ENDBRANCH  44  46
ENDBRANCH  37  40
ENDBRANCH  32  37
ENDBRANCH  30  32
ENDBRANCH  27  28
ENDBRANCH  26  27
ENDBRANCH  13  26
TORSDOF 11
ENDMDL
MODEL 6
REMARK minimizedAffinity -9.55645943
REMARK CNNscore 0.22862047
REMARK CNNaffinity 7.13687181
REMARK  11 active torsions:
REMARK  status: ('A' for Active; 'I' for Inactive)
REMARK    1  A    between atoms: C3_3  and  O1_4 
REMARK    2  A    between atoms: N1_14  and  O2_16 
REMARK    3  A    between atoms: O2_16  and  C13_17 
REMARK    4  A    between atoms: C13_17  and  C14_18 
REMARK       I    between atoms: C14_18  and  N2_20 
REMARK    5  A    between atoms: N2_20  and  C15_21 
REMARK    6  A    between atoms: C15_21  and  C16_22 
REMARK    7  A    between atoms: C15_21  and  C17_25 
REMARK    8  A    between atoms: C16_22  and  O5_24 
REMARK    9  A    between atoms: C17_25  and  O6_26 
REMARK   10  A    between atoms: C17_25  and  C18_27 
REMARK   11  A    between atoms: C22_31  and  N3_32 
ROOT
HETATM    1  C1  UNL     1       1.731   8.788  11.798  1.00  0.00     0.015 C 
HETATM    2  C2  UNL     1       1.147   7.746  11.918  1.00  0.00    -0.078 C 
HETATM    3  C3  UNL     1       0.433   6.466  12.066  1.00  0.00     0.128 C 
HETATM    4  C4  UNL     1      -0.391   6.125  10.815  1.00  0.00     0.052 C 
HETATM    5  C5  UNL     1      -1.579   5.282  11.301  1.00  0.00     0.010 C 
HETATM    6  C6  UNL     1      -1.483   5.221  12.836  1.00  0.00     0.002 C 
HETATM    7  C7  UNL     1      -2.829   5.142  13.585  1.00  0.00    -0.004 C 
HETATM    8  C8  UNL     1      -3.652   3.891  13.216  1.00  0.00     0.010 C 
HETATM    9  C9  UNL     1      -4.987   4.209  12.552  1.00  0.00     0.035 C 
HETATM   10  C10 UNL     1      -5.813   5.216  13.320  1.00  0.00    -0.069 C 
HETATM   11  C11 UNL     1      -7.154   5.179  13.228  1.00  0.00     0.030 C 
HETATM   12  C12 UNL     1      -8.005   6.218  13.864  1.00  0.00     0.032 C 
HETATM   13  N1  UNL     1      -9.283   5.978  13.956  1.00  0.00    -0.271 N 
ATOM     14  H1  UNL     1      -9.733   5.127  13.621  1.00  0.00     0.194 HD
HETATM   15  C24 UNL     1      -7.345   7.481  14.385  1.00  0.00     0.060 C 
HETATM   16  C25 UNL     1      -5.886   7.618  13.952  1.00  0.00     0.020 C 
HETATM   17  C26 UNL     1      -5.072   6.306  14.104  1.00  0.00    -0.016 C 
HETATM   18  C27 UNL     1      -5.007   5.921  15.602  1.00  0.00     0.020 C 
HETATM   19  C28 UNL     1      -3.641   6.460  13.482  1.00  0.00     0.002 C 
HETATM   20  C29 UNL     1      -2.788   7.604  14.052  1.00  0.00     0.007 C 
HETATM   21  C30 UNL     1      -1.475   7.744  13.271  1.00  0.00     0.014 C 
HETATM   22  C31 UNL     1      -0.614   6.450  13.226  1.00  0.00     0.003 C 
HETATM   23  C32 UNL     1       0.056   6.239  14.599  1.00  0.00     0.020 C 
ENDROOT
BRANCH   3  24
HETATM   24  O1  UNL     1       1.421   5.448  12.242  1.00  0.00    -0.377 OA
HETATM   25  H2  UNL     1       0.990   4.582  12.163  1.00  0.00     0.211 HD
ENDBRANCH   3  24
BRANCH  13  26
HETATM   26  O2  UNL     1      -9.961   7.039  14.576  1.00  0.00    -0.271 OA
BRANCH  26  27
HETATM   27  C13 UNL     1     -10.788   7.686  13.613  1.00  0.00     0.303 C 
BRANCH  27  28
HETATM   28  C14 UNL     1     -12.184   7.077  13.621  1.00  0.00     0.244 C 
HETATM   29  O3  UNL     1     -12.412   5.942  14.031  1.00  0.00    -0.271 OA
HETATM   30  N2  UNL     1     -13.154   7.867  13.050  1.00  0.00    -0.342 N 
HETATM   31  H16 UNL     1     -12.884   8.766  12.658  1.00  0.00     0.163 HD
BRANCH  30  32
HETATM   32  C15 UNL     1     -14.498   7.348  12.764  1.00  0.00     0.216 C 
BRANCH  32  33
HETATM   33  C16 UNL     1     -15.293   8.336  11.901  1.00  0.00     0.166 C 
HETATM   34  O4  UNL     1     -15.040   9.523  11.745  1.00  0.00    -0.648 OA
BRANCH  33  35
HETATM   35  O5  UNL     1     -16.313   7.782  11.205  1.00  0.00    -0.775 OA
HETATM   36  H18 UNL     1     -16.734   8.544  10.753  1.00  0.00     0.167 HD
ENDBRANCH  33  35
ENDBRANCH  32  33
BRANCH  32  37
HETATM   37  C17 UNL     1     -15.309   7.100  14.061  1.00  0.00     0.184 C 
BRANCH  37  38
HETATM   38  O6  UNL     1     -14.452   7.141  15.217  1.00  0.00    -0.388 OA
HETATM   39  H20 UNL     1     -14.837   6.564  15.899  1.00  0.00     0.210 HD
ENDBRANCH  37  38
BRANCH  37  40
HETATM   40  C18 UNL     1     -16.072   5.784  14.055  1.00  0.00    -0.025 A 
HETATM   41  C19 UNL     1     -17.376   5.708  13.540  1.00  0.00     0.010 A 
HETATM   42  C20 UNL     1     -18.084   4.503  13.555  1.00  0.00     0.003 A 
HETATM   43  C21 UNL     1     -17.504   3.354  14.093  1.00  0.00     0.036 A 
HETATM   44  C22 UNL     1     -16.206   3.420  14.614  1.00  0.00     0.103 A 
HETATM   45  C23 UNL     1     -15.487   4.624  14.592  1.00  0.00     0.045 A 
BRANCH  44  46
HETATM   46  N3  UNL     1     -15.594   2.219  15.197  1.00  0.00    -0.116 N 
HETATM   47  O7  UNL     1     -16.309   1.497  15.907  1.00  0.00    -0.532 OA
HETATM   48  O8  UNL     1     -14.398   2.003  14.954  1.00  0.00    -0.532 OA
ENDBRANCH  44  46
ENDBRANCH  37  40
ENDBRANCH  32  37
ENDBRANCH  30  32
ENDBRANCH  27  28
ENDBRANCH  26  27
ENDBRANCH  13  26
TORSDOF 11
ENDMDL
MODEL 7
REMARK minimizedAffinity -9.07030582
REMARK CNNscore 0.225118279
REMARK CNNaffinity 6.35928106
REMARK  11 active torsions:
REMARK  status: ('A' for Active; 'I' for Inactive)
REMARK    1  A    between atoms: C3_3  and  O1_4 
REMARK    2  A    between atoms: N1_14  and  O2_16 
REMARK    3  A    between atoms: O2_16  and  C13_17 
REMARK    4  A    between atoms: C13_17  and  C14_18 
REMARK       I    between atoms: C14_18  and  N2_20 
REMARK    5  A    between atoms: N2_20  and  C15_21 
REMARK    6  A    between atoms: C15_21  and  C16_22 
REMARK    7  A    between atoms: C15_21  and  C17_25 
REMARK    8  A    between atoms: C16_22  and  O5_24 
REMARK    9  A    between atoms: C17_25  and  O6_26 
REMARK   10  A    between atoms: C17_25  and  C18_27 
REMARK   11  A    between atoms: C22_31  and  N3_32 
ROOT
HETATM    1  C1  UNL     1       2.699   8.049   7.745  1.00  0.00     0.015 C 
HETATM    2  C2  UNL     1       2.255   7.512   8.723  1.00  0.00    -0.078 C 
HETATM    3  C3  UNL     1       1.711   6.849   9.920  1.00  0.00     0.128 C 
HETATM    4  C4  UNL     1       0.205   7.105  10.079  1.00  0.00     0.052 C 
HETATM    5  C5  UNL     1      -0.083   7.049  11.587  1.00  0.00     0.010 C 
HETATM    6  C6  UNL     1       1.271   6.855  12.292  1.00  0.00     0.002 C 
HETATM    7  C7  UNL     1       1.396   7.503  13.686  1.00  0.00    -0.004 C 
HETATM    8  C8  UNL     1       0.370   6.956  14.699  1.00  0.00     0.010 C 
HETATM    9  C9  UNL     1      -0.607   8.008  15.212  1.00  0.00     0.035 C 
HETATM   10  C10 UNL     1       0.073   9.258  15.723  1.00  0.00    -0.069 C 
HETATM   11  C11 UNL     1      -0.520   9.987  16.684  1.00  0.00     0.030 C 
HETATM   12  C12 UNL     1       0.045  11.285  17.135  1.00  0.00     0.032 C 
HETATM   13  N1  UNL     1      -0.428  11.801  18.235  1.00  0.00    -0.271 N 
ATOM     14  H1  UNL     1      -1.158  11.371  18.802  1.00  0.00     0.194 HD
HETATM   15  C24 UNL     1       1.147  11.925  16.310  1.00  0.00     0.060 C 
HETATM   16  C25 UNL     1       1.358  11.243  14.959  1.00  0.00     0.020 C 
HETATM   17  C26 UNL     1       1.379   9.694  15.048  1.00  0.00    -0.016 C 
HETATM   18  C27 UNL     1       2.587   9.252  15.909  1.00  0.00     0.020 C 
HETATM   19  C28 UNL     1       1.421   9.052  13.618  1.00  0.00     0.002 C 
HETATM   20  C29 UNL     1       2.599   9.482  12.730  1.00  0.00     0.007 C 
HETATM   21  C30 UNL     1       2.454   8.905  11.316  1.00  0.00     0.014 C 
HETATM   22  C31 UNL     1       2.326   7.357  11.265  1.00  0.00     0.003 C 
HETATM   23  C32 UNL     1       3.706   6.725  11.538  1.00  0.00     0.020 C 
ENDROOT
BRANCH   3  24
HETATM   24  O1  UNL     1       1.912   5.443   9.755  1.00  0.00    -0.377 OA
HETATM   25  H2  UNL     1       1.406   4.976  10.439  1.00  0.00     0.211 HD
ENDBRANCH   3  24
BRANCH  13  26
HETATM   26  O2  UNL     1       0.195  13.020  18.539  1.00  0.00    -0.271 OA
BRANCH  26  27
HETATM   27  C13 UNL     1       0.275  13.160  19.955  1.00  0.00     0.303 C 
BRANCH  27  28
HETATM   28  C14 UNL     1       1.722  13.040  20.416  1.00  0.00     0.244 C 
HETATM   29  O3  UNL     1       2.595  13.839  20.083  1.00  0.00    -0.271 OA
HETATM   30  N2  UNL     1       1.992  11.916  21.161  1.00  0.00    -0.342 N 
HETATM   31  H16 UNL     1       1.241  11.254  21.336  1.00  0.00     0.163 HD
BRANCH  30  32
HETATM   32  C15 UNL     1       3.369  11.524  21.488  1.00  0.00     0.216 C 
BRANCH  32  33
HETATM   33  C16 UNL     1       3.545  10.004  21.376  1.00  0.00     0.166 C 
HETATM   34  O4  UNL     1       4.165   9.290  22.152  1.00  0.00    -0.648 OA
BRANCH  33  35
HETATM   35  O5  UNL     1       2.871   9.433  20.351  1.00  0.00    -0.775 OA
HETATM   36  H18 UNL     1       3.124   8.488  20.396  1.00  0.00     0.167 HD
ENDBRANCH  33  35
ENDBRANCH  32  33
BRANCH  32  37
HETATM   37  C17 UNL     1       3.759  11.936  22.930  1.00  0.00     0.184 C 
BRANCH  37  38
HETATM   38  O6  UNL     1       2.681  12.642  23.572  1.00  0.00    -0.388 OA
HETATM   39  H20 UNL     1       3.066  13.255  24.221  1.00  0.00     0.210 HD
ENDBRANCH  37  38
BRANCH  37  40
HETATM   40  C18 UNL     1       5.019  12.786  22.996  1.00  0.00    -0.025 A 
HETATM   41  C19 UNL     1       4.942  14.188  23.033  1.00  0.00     0.010 A 
HETATM   42  C20 UNL     1       6.101  14.969  23.072  1.00  0.00     0.003 A 
HETATM   43  C21 UNL     1       7.357  14.363  23.066  1.00  0.00     0.036 A 
HETATM   44  C22 UNL     1       7.444  12.966  23.023  1.00  0.00     0.103 A 
HETATM   45  C23 UNL     1       6.286  12.177  22.995  1.00  0.00     0.045 A 
BRANCH  44  46
HETATM   46  N3  UNL     1       8.763  12.320  23.000  1.00  0.00    -0.116 N 
HETATM   47  O7  UNL     1       9.705  12.954  22.500  1.00  0.00    -0.532 OA
HETATM   48  O8  UNL     1       8.857  11.177  23.471  1.00  0.00    -0.532 OA
ENDBRANCH  44  46
ENDBRANCH  37  40
ENDBRANCH  32  37
ENDBRANCH  30  32
ENDBRANCH  27  28
ENDBRANCH  26  27
ENDBRANCH  13  26
TORSDOF 11
ENDMDL
MODEL 8
REMARK minimizedAffinity -8.18982315
REMARK CNNscore 0.22026585
REMARK CNNaffinity 6.55062532
REMARK  11 active torsions:
REMARK  status: ('A' for Active; 'I' for Inactive)
REMARK    1  A    between atoms: C3_3  and  O1_4 
REMARK    2  A    between atoms: N1_14  and  O2_16 
REMARK    3  A    between atoms: O2_16  and  C13_17 
REMARK    4  A    between atoms: C13_17  and  C14_18 
REMARK       I    between atoms: C14_18  and  N2_20 
REMARK    5  A    between atoms: N2_20  and  C15_21 
REMARK    6  A    between atoms: C15_21  and  C16_22 
REMARK    7  A    between atoms: C15_21  and  C17_25 
REMARK    8  A    between atoms: C16_22  and  O5_24 
REMARK    9  A    between atoms: C17_25  and  O6_26 
REMARK   10  A    between atoms: C17_25  and  C18_27 
REMARK   11  A    between atoms: C22_31  and  N3_32 
ROOT
HETATM    1  C1  UNL     1     -12.523   3.474  30.224  1.00  0.00     0.015 C 
HETATM    2  C2  UNL     1     -12.978   3.041  29.201  1.00  0.00    -0.078 C 
HETATM    3  C3  UNL     1     -13.537   2.506  27.948  1.00  0.00     0.128 C 
HETATM    4  C4  UNL     1     -12.434   2.091  26.963  1.00  0.00     0.052 C 
HETATM    5  C5  UNL     1     -13.025   2.268  25.556  1.00  0.00     0.010 C 
HETATM    6  C6  UNL     1     -14.430   2.871  25.737  1.00  0.00     0.002 C 
HETATM    7  C7  UNL     1     -14.901   3.813  24.610  1.00  0.00    -0.004 C 
HETATM    8  C8  UNL     1     -14.970   3.120  23.234  1.00  0.00     0.010 C 
HETATM    9  C9  UNL     1     -14.019   3.711  22.200  1.00  0.00     0.035 C 
HETATM   10  C10 UNL     1     -14.128   5.214  22.076  1.00  0.00    -0.069 C 
HETATM   11  C11 UNL     1     -13.835   5.804  20.904  1.00  0.00     0.030 C 
HETATM   12  C12 UNL     1     -13.810   7.283  20.763  1.00  0.00     0.032 C 
HETATM   13  N1  UNL     1     -13.779   7.774  19.557  1.00  0.00    -0.271 N 
ATOM     14  H1  UNL     1     -13.770   7.211  18.707  1.00  0.00     0.194 HD
HETATM   15  C24 UNL     1     -13.842   8.134  22.020  1.00  0.00     0.060 C 
HETATM   16  C25 UNL     1     -13.647   7.323  23.300  1.00  0.00     0.020 C 
HETATM   17  C26 UNL     1     -14.482   6.016  23.334  1.00  0.00    -0.016 C 
HETATM   18  C27 UNL     1     -15.988   6.377  23.320  1.00  0.00     0.020 C 
HETATM   19  C28 UNL     1     -14.107   5.146  24.583  1.00  0.00     0.002 C 
HETATM   20  C29 UNL     1     -14.267   5.835  25.947  1.00  0.00     0.007 C 
HETATM   21  C30 UNL     1     -13.736   4.941  27.075  1.00  0.00     0.014 C 
HETATM   22  C31 UNL     1     -14.396   3.535  27.143  1.00  0.00     0.003 C 
HETATM   23  C32 UNL     1     -15.818   3.670  27.723  1.00  0.00     0.020 C 
ENDROOT
BRANCH   3  24
HETATM   24  O1  UNL     1     -14.298   1.344  28.285  1.00  0.00    -0.377 OA
HETATM   25  H2  UNL     1     -14.525   0.875  27.465  1.00  0.00     0.211 HD
ENDBRANCH   3  24
BRANCH  13  26
HETATM   26  O2  UNL     1     -13.759   9.177  19.574  1.00  0.00    -0.271 OA
BRANCH  26  27
HETATM   27  C13 UNL     1     -13.743   9.658  18.233  1.00  0.00     0.303 C 
BRANCH  27  28
HETATM   28  C14 UNL     1     -12.358   9.484  17.625  1.00  0.00     0.244 C 
HETATM   29  O3  UNL     1     -11.344   9.348  18.306  1.00  0.00    -0.271 OA
HETATM   30  N2  UNL     1     -12.320   9.581  16.253  1.00  0.00    -0.342 N 
HETATM   31  H16 UNL     1     -13.184   9.772  15.754  1.00  0.00     0.163 HD
BRANCH  30  32
HETATM   32  C15 UNL     1     -11.049   9.670  15.524  1.00  0.00     0.216 C 
BRANCH  32  33
HETATM   33  C16 UNL     1     -10.573  11.126  15.433  1.00  0.00     0.166 C 
HETATM   34  O4  UNL     1     -11.260  12.122  15.612  1.00  0.00    -0.648 OA
BRANCH  33  35
HETATM   35  O5  UNL     1      -9.247  11.272  15.207  1.00  0.00    -0.775 OA
HETATM   36  H18 UNL     1      -9.124  12.242  15.134  1.00  0.00     0.167 HD
ENDBRANCH  33  35
ENDBRANCH  32  33
BRANCH  32  37
HETATM   37  C17 UNL     1     -11.172   9.126  14.079  1.00  0.00     0.184 C 
BRANCH  37  38
HETATM   38  O6  UNL     1     -11.314  10.203  13.135  1.00  0.00    -0.388 OA
HETATM   39  H20 UNL     1     -11.826   9.874  12.376  1.00  0.00     0.210 HD
ENDBRANCH  37  38
BRANCH  37  40
HETATM   40  C18 UNL     1     -12.326   8.151  13.897  1.00  0.00    -0.025 A 
HETATM   41  C19 UNL     1     -12.332   6.909  14.553  1.00  0.00     0.010 A 
HETATM   42  C20 UNL     1     -13.382   6.006  14.368  1.00  0.00     0.003 A 
HETATM   43  C21 UNL     1     -14.440   6.323  13.516  1.00  0.00     0.036 A 
HETATM   44  C22 UNL     1     -14.440   7.555  12.852  1.00  0.00     0.103 A 
HETATM   45  C23 UNL     1     -13.395   8.470  13.043  1.00  0.00     0.045 A 
BRANCH  44  46
HETATM   46  N3  UNL     1     -15.542   7.891  11.941  1.00  0.00    -0.116 N 
HETATM   47  O7  UNL     1     -15.545   9.024  11.436  1.00  0.00    -0.532 OA
HETATM   48  O8  UNL     1     -16.409   7.028  11.738  1.00  0.00    -0.532 OA
ENDBRANCH  44  46
ENDBRANCH  37  40
ENDBRANCH  32  37
ENDBRANCH  30  32
ENDBRANCH  27  28
ENDBRANCH  26  27
ENDBRANCH  13  26
TORSDOF 11
ENDMDL
MODEL 9
REMARK minimizedAffinity -8.33019638
REMARK CNNscore 0.203456104
REMARK CNNaffinity 5.61844778
REMARK  11 active torsions:
REMARK  status: ('A' for Active; 'I' for Inactive)
REMARK    1  A    between atoms: C3_3  and  O1_4 
REMARK    2  A    between atoms: N1_14  and  O2_16 
REMARK    3  A    between atoms: O2_16  and  C13_17 
REMARK    4  A    between atoms: C13_17  and  C14_18 
REMARK       I    between atoms: C14_18  and  N2_20 
REMARK    5  A    between atoms: N2_20  and  C15_21 
REMARK    6  A    between atoms: C15_21  and  C16_22 
REMARK    7  A    between atoms: C15_21  and  C17_25 
REMARK    8  A    between atoms: C16_22  and  O5_24 
REMARK    9  A    between atoms: C17_25  and  O6_26 
REMARK   10  A    between atoms: C17_25  and  C18_27 
REMARK   11  A    between atoms: C22_31  and  N3_32 
ROOT
HETATM    1  C1  UNL     1      -3.353 -10.042   6.621  1.00  0.00     0.015 C 
HETATM    2  C2  UNL     1      -3.215 -10.539   5.536  1.00  0.00    -0.078 C 
HETATM    3  C3  UNL     1      -3.043 -11.153   4.209  1.00  0.00     0.128 C 
HETATM    4  C4  UNL     1      -2.287 -10.225   3.246  1.00  0.00     0.052 C 
HETATM    5  C5  UNL     1      -2.787 -10.570   1.835  1.00  0.00     0.010 C 
HETATM    6  C6  UNL     1      -3.894 -11.627   2.002  1.00  0.00     0.002 C 
HETATM    7  C7  UNL     1      -5.023 -11.580   0.952  1.00  0.00    -0.004 C 
HETATM    8  C8  UNL     1      -4.516 -11.799  -0.488  1.00  0.00     0.010 C 
HETATM    9  C9  UNL     1      -4.742 -10.604  -1.406  1.00  0.00     0.035 C 
HETATM   10  C10 UNL     1      -6.165 -10.092  -1.385  1.00  0.00    -0.069 C 
HETATM   11  C11 UNL     1      -6.666  -9.486  -2.475  1.00  0.00     0.030 C 
HETATM   12  C12 UNL     1      -8.014  -8.860  -2.466  1.00  0.00     0.032 C 
HETATM   13  N1  UNL     1      -8.534  -8.529  -3.614  1.00  0.00    -0.271 N 
ATOM     14  H1  UNL     1      -8.077  -8.671  -4.514  1.00  0.00     0.194 HD
HETATM   15  C24 UNL     1      -8.714  -8.660  -1.134  1.00  0.00     0.060 C 
HETATM   16  C25 UNL     1      -7.805  -8.919   0.067  1.00  0.00     0.020 C 
HETATM   17  C26 UNL     1      -6.950 -10.207  -0.073  1.00  0.00    -0.016 C 
HETATM   18  C27 UNL     1      -7.891 -11.435  -0.130  1.00  0.00     0.020 C 
HETATM   19  C28 UNL     1      -5.917 -10.322   1.100  1.00  0.00     0.002 C 
HETATM   20  C29 UNL     1      -6.514 -10.312   2.516  1.00  0.00     0.007 C 
HETATM   21  C30 UNL     1      -5.404 -10.285   3.574  1.00  0.00     0.014 C 
HETATM   22  C31 UNL     1      -4.386 -11.455   3.467  1.00  0.00     0.003 C 
HETATM   23  C32 UNL     1      -5.045 -12.750   3.983  1.00  0.00     0.020 C 
ENDROOT
BRANCH   3  24
HETATM   24  O1  UNL     1      -2.268 -12.341   4.387  1.00  0.00    -0.377 OA
HETATM   25  H2  UNL     1      -1.992 -12.663   3.514  1.00  0.00     0.211 HD
ENDBRANCH   3  24
BRANCH  13  26
HETATM   26  O2  UNL     1      -9.803  -7.952  -3.455  1.00  0.00    -0.271 OA
BRANCH  26  27
HETATM   27  C13 UNL     1     -10.257  -7.474  -4.718  1.00  0.00     0.303 C 
BRANCH  27  28
HETATM   28  C14 UNL     1     -10.535  -5.978  -4.648  1.00  0.00     0.244 C 
HETATM   29  O3  UNL     1      -9.998  -5.239  -3.826  1.00  0.00    -0.271 OA
HETATM   30  N2  UNL     1     -11.504  -5.537  -5.519  1.00  0.00    -0.342 N 
HETATM   31  H16 UNL     1     -11.966  -6.214  -6.119  1.00  0.00     0.163 HD
BRANCH  30  32
HETATM   32  C15 UNL     1     -12.060  -4.181  -5.427  1.00  0.00     0.216 C 
BRANCH  32  33
HETATM   33  C16 UNL     1     -13.590  -4.210  -5.533  1.00  0.00     0.166 C 
HETATM   34  O4  UNL     1     -14.356  -3.331  -5.161  1.00  0.00    -0.648 OA
BRANCH  33  35
HETATM   35  O5  UNL     1     -14.090  -5.291  -6.175  1.00  0.00    -0.775 OA
HETATM   36  H18 UNL     1     -15.061  -5.175  -6.115  1.00  0.00     0.167 HD
ENDBRANCH  33  35
ENDBRANCH  32  33
BRANCH  32  37
HETATM   37  C17 UNL     1     -11.528  -3.261  -6.555  1.00  0.00     0.184 C 
BRANCH  37  38
HETATM   38  O6  UNL     1     -10.594  -3.965  -7.394  1.00  0.00    -0.388 OA
HETATM   39  H20 UNL     1      -9.966  -3.318  -7.758  1.00  0.00     0.210 HD
ENDBRANCH  37  38
BRANCH  37  40
HETATM   40  C18 UNL     1     -10.871  -1.989  -6.039  1.00  0.00    -0.025 A 
HETATM   41  C19 UNL     1     -11.269  -1.414  -4.822  1.00  0.00     0.010 A 
HETATM   42  C20 UNL     1     -10.679  -0.234  -4.360  1.00  0.00     0.003 A 
HETATM   43  C21 UNL     1      -9.688   0.397  -5.112  1.00  0.00     0.036 A 
HETATM   44  C22 UNL     1      -9.289  -0.165  -6.330  1.00  0.00     0.103 A 
HETATM   45  C23 UNL     1      -9.869  -1.354  -6.793  1.00  0.00     0.045 A 
BRANCH  44  46
HETATM   46  N3  UNL     1      -8.258   0.502  -7.136  1.00  0.00    -0.116 N 
HETATM   47  O7  UNL     1      -8.457   1.682  -7.460  1.00  0.00    -0.532 OA
HETATM   48  O8  UNL     1      -7.256  -0.155  -7.453  1.00  0.00    -0.532 OA
ENDBRANCH  44  46
ENDBRANCH  37  40
ENDBRANCH  32  37
ENDBRANCH  30  32
ENDBRANCH  27  28
ENDBRANCH  26  27
ENDBRANCH  13  26
TORSDOF 11
ENDMDL
