MODEL 1
REMARK minimizedAffinity -7.26654673
REMARK CNNscore 0.712122202
REMARK CNNaffinity 6.60355806
REMARK  8 active torsions:
REMARK  status: ('A' for Active; 'I' for Inactive)
REMARK    1  A    between atoms: C4_4  and  C5_5 
REMARK    2  A    between atoms: C5_5  and  C6_6 
REMARK    3  A    between atoms: C6_6  and  C7_7 
REMARK    4  A    between atoms: C7_7  and  C9_9 
REMARK    5  A    between atoms: C18_18  and  C20_20 
REMARK    6  A    between atoms: C20_20  and  O2_22 
REMARK    7  A    between atoms: C21_23  and  O3_24 
REMARK    8  A    between atoms: C23_26  and  O4_27 
ROOT
HETATM    1  C9  UNL     1       4.272  55.104  -8.162  1.00  0.00    -0.002 C 
HETATM    2  C10 UNL     1       3.586  56.423  -7.746  1.00  0.00     0.006 C 
HETATM    3  C11 UNL     1       2.120  56.337  -8.215  1.00  0.00     0.011 C 
HETATM    4  C12 UNL     1       1.915  54.889  -8.704  1.00  0.00    -0.032 C 
HETATM    5  C13 UNL     1       1.499  54.037  -7.465  1.00  0.00     0.016 C 
HETATM    6  C14 UNL     1       0.858  54.728  -9.824  1.00  0.00     0.004 C 
HETATM    7  C15 UNL     1      -0.571  55.109  -9.384  1.00  0.00     0.007 C 
HETATM    8  C16 UNL     1      -1.547  53.942  -9.320  1.00  0.00     0.007 C 
HETATM    9  C17 UNL     1      -1.661  53.290 -10.703  1.00  0.00     0.018 C 
HETATM   10  C18 UNL     1      -2.902  52.359 -10.906  1.00  0.00     0.072 C 
HETATM   11  C19 UNL     1      -4.179  53.231 -11.047  1.00  0.00     0.030 C 
HETATM   12  C21 UNL     1      -2.705  51.556 -12.216  1.00  0.00     0.139 C 
HETATM   13  C22 UNL     1      -1.425  50.705 -12.251  1.00  0.00     0.065 C 
HETATM   14  C23 UNL     1      -0.351  51.143 -11.252  1.00  0.00     0.130 C 
HETATM   15  C24 UNL     1      -0.312  52.647 -11.066  1.00  0.00    -0.001 A 
HETATM   16  C25 UNL     1       0.586  53.398 -12.020  1.00  0.00     0.024 A 
HETATM   17  C26 UNL     1       0.978  53.359 -10.554  1.00  0.00    -0.025 A 
HETATM   18  C27 UNL     1       2.164  52.444 -10.181  1.00  0.00     0.011 C 
HETATM   19  C28 UNL     1       3.411  53.049  -9.513  1.00  0.00     0.011 C 
HETATM   20  C29 UNL     1       3.333  54.556  -9.284  1.00  0.00    -0.032 C 
HETATM   21  C30 UNL     1       3.652  55.253 -10.636  1.00  0.00     0.016 C 
ENDROOT
BRANCH   1  22
HETATM   22  C7  UNL     1       5.804  55.145  -8.446  1.00  0.00    -0.014 C 
HETATM   23  C8  UNL     1       6.052  55.488  -9.922  1.00  0.00     0.010 C 
BRANCH  22  24
HETATM   24  C6  UNL     1       6.630  53.916  -7.991  1.00  0.00     0.008 C 
BRANCH  24  25
HETATM   25  C5  UNL     1       6.890  52.802  -9.026  1.00  0.00     0.028 C 
BRANCH  25  26
HETATM   26  C4  UNL     1       7.010  51.435  -8.405  1.00  0.00    -0.025 C 
HETATM   27  C2  UNL     1       6.993  50.235  -9.017  1.00  0.00    -0.091 C 
HETATM   28  C1  UNL     1       6.820  50.012 -10.493  1.00  0.00     0.042 C 
HETATM   29  C3  UNL     1       7.158  48.968  -8.219  1.00  0.00     0.042 C 
ENDBRANCH  25  26
ENDBRANCH  24  25
ENDBRANCH  22  24
ENDBRANCH   1  22
BRANCH  14  30
HETATM   30  O4  UNL     1      -0.571  50.530  -9.985  1.00  0.00    -0.395 OA
HETATM   31  H39 UNL     1      -0.377  49.583 -10.085  1.00  0.00     0.210 HD
ENDBRANCH  14  30
BRANCH  10  32
HETATM   32  C20 UNL     1      -3.213  51.440  -9.723  1.00  0.00     0.151 C 
HETATM   33  O1  UNL     1      -2.699  51.463  -8.615  1.00  0.00    -0.649 OA
BRANCH  32  34
HETATM   34  O2  UNL     1      -4.264  50.617  -9.917  1.00  0.00    -0.776 OA
HETATM   35  H33 UNL     1      -4.321  50.150  -9.057  1.00  0.00     0.167 HD
ENDBRANCH  32  34
ENDBRANCH  10  32
BRANCH  12  36
HETATM   36  O3  UNL     1      -2.666  52.461 -13.338  1.00  0.00    -0.394 OA
HETATM   37  H35 UNL     1      -2.738  51.926 -14.146  1.00  0.00     0.210 HD
ENDBRANCH  12  36
TORSDOF 8
ENDMDL
MODEL 2
REMARK minimizedAffinity -7.86062241
REMARK CNNscore 0.637016356
REMARK CNNaffinity 6.65454674
REMARK  8 active torsions:
REMARK  status: ('A' for Active; 'I' for Inactive)
REMARK    1  A    between atoms: C4_4  and  C5_5 
REMARK    2  A    between atoms: C5_5  and  C6_6 
REMARK    3  A    between atoms: C6_6  and  C7_7 
REMARK    4  A    between atoms: C7_7  and  C9_9 
REMARK    5  A    between atoms: C18_18  and  C20_20 
REMARK    6  A    between atoms: C20_20  and  O2_22 
REMARK    7  A    between atoms: C21_23  and  O3_24 
REMARK    8  A    between atoms: C23_26  and  O4_27 
ROOT
HETATM    1  C9  UNL     1       4.623  54.724  -8.634  1.00  0.00    -0.002 C 
HETATM    2  C10 UNL     1       4.057  56.087  -8.177  1.00  0.00     0.006 C 
HETATM    3  C11 UNL     1       2.562  56.102  -8.551  1.00  0.00     0.011 C 
HETATM    4  C12 UNL     1       2.228  54.673  -9.023  1.00  0.00    -0.032 C 
HETATM    5  C13 UNL     1       1.834  53.849  -7.759  1.00  0.00     0.016 C 
HETATM    6  C14 UNL     1       1.093  54.587 -10.073  1.00  0.00     0.004 C 
HETATM    7  C15 UNL     1      -0.276  55.064  -9.544  1.00  0.00     0.007 C 
HETATM    8  C16 UNL     1      -1.324  53.967  -9.415  1.00  0.00     0.007 C 
HETATM    9  C17 UNL     1      -1.570  53.327 -10.787  1.00  0.00     0.018 C 
HETATM   10  C18 UNL     1      -2.882  52.485 -10.909  1.00  0.00     0.072 C 
HETATM   11  C19 UNL     1      -4.103  53.442 -10.970  1.00  0.00     0.030 C 
HETATM   12  C21 UNL     1      -2.825  51.672 -12.227  1.00  0.00     0.139 C 
HETATM   13  C22 UNL     1      -1.611  50.736 -12.341  1.00  0.00     0.065 C 
HETATM   14  C23 UNL     1      -0.448  51.097 -11.414  1.00  0.00     0.130 C 
HETATM   15  C24 UNL     1      -0.295  52.594 -11.234  1.00  0.00    -0.001 A 
HETATM   16  C25 UNL     1       0.591  53.284 -12.245  1.00  0.00     0.024 A 
HETATM   17  C26 UNL     1       1.072  53.214 -10.807  1.00  0.00    -0.025 A 
HETATM   18  C27 UNL     1       2.214  52.220 -10.508  1.00  0.00     0.011 C 
HETATM   19  C28 UNL     1       3.539  52.737  -9.923  1.00  0.00     0.011 C 
HETATM   20  C29 UNL     1       3.579  54.245  -9.692  1.00  0.00    -0.032 C 
HETATM   21  C30 UNL     1       3.858  54.921 -11.063  1.00  0.00     0.016 C 
ENDROOT
BRANCH   1  22
HETATM   22  C7  UNL     1       6.133  54.661  -9.015  1.00  0.00    -0.014 C 
HETATM   23  C8  UNL     1       6.593  53.197  -9.084  1.00  0.00     0.010 C 
BRANCH  22  24
HETATM   24  C6  UNL     1       7.101  55.533  -8.177  1.00  0.00     0.008 C 
BRANCH  24  25
HETATM   25  C5  UNL     1       7.286  55.173  -6.689  1.00  0.00     0.028 C 
BRANCH  25  26
HETATM   26  C4  UNL     1       7.976  56.255  -5.901  1.00  0.00    -0.025 C 
HETATM   27  C2  UNL     1       7.453  57.396  -5.412  1.00  0.00    -0.091 C 
HETATM   28  C1  UNL     1       6.028  57.845  -5.583  1.00  0.00     0.042 C 
HETATM   29  C3  UNL     1       8.305  58.348  -4.615  1.00  0.00     0.042 C 
ENDBRANCH  25  26
ENDBRANCH  24  25
ENDBRANCH  22  24
ENDBRANCH   1  22
BRANCH  14  30
HETATM   30  O4  UNL     1      -0.629  50.498 -10.134  1.00  0.00    -0.395 OA
HETATM   31  H39 UNL     1      -0.507  49.539 -10.244  1.00  0.00     0.210 HD
ENDBRANCH  14  30
BRANCH  10  32
HETATM   32  C20 UNL     1      -3.179  51.586  -9.706  1.00  0.00     0.151 C 
HETATM   33  O1  UNL     1      -2.599  51.575  -8.631  1.00  0.00    -0.649 OA
BRANCH  32  34
HETATM   34  O2  UNL     1      -4.292  50.832  -9.834  1.00  0.00    -0.776 OA
HETATM   35  H33 UNL     1      -4.326  50.369  -8.970  1.00  0.00     0.167 HD
ENDBRANCH  32  34
ENDBRANCH  10  32
BRANCH  12  36
HETATM   36  O3  UNL     1      -2.796  52.575 -13.351  1.00  0.00    -0.394 OA
HETATM   37  H35 UNL     1      -2.956  52.048 -14.151  1.00  0.00     0.210 HD
ENDBRANCH  12  36
TORSDOF 8
ENDMDL
MODEL 3
REMARK minimizedAffinity -7.62876463
REMARK CNNscore 0.407933116
REMARK CNNaffinity 6.0871253
REMARK  8 active torsions:
REMARK  status: ('A' for Active; 'I' for Inactive)
REMARK    1  A    between atoms: C4_4  and  C5_5 
REMARK    2  A    between atoms: C5_5  and  C6_6 
REMARK    3  A    between atoms: C6_6  and  C7_7 
REMARK    4  A    between atoms: C7_7  and  C9_9 
REMARK    5  A    between atoms: C18_18  and  C20_20 
REMARK    6  A    between atoms: C20_20  and  O2_22 
REMARK    7  A    between atoms: C21_23  and  O3_24 
REMARK    8  A    between atoms: C23_26  and  O4_27 
ROOT
HETATM    1  C9  UNL     1      -8.703  46.857 -27.423  1.00  0.00    -0.002 C 
HETATM    2  C10 UNL     1      -8.689  48.304 -27.963  1.00  0.00     0.006 C 
HETATM    3  C11 UNL     1      -8.885  48.217 -29.489  1.00  0.00     0.011 C 
HETATM    4  C12 UNL     1      -9.225  46.744 -29.791  1.00  0.00    -0.032 C 
HETATM    5  C13 UNL     1     -10.770  46.588 -29.651  1.00  0.00     0.016 C 
HETATM    6  C14 UNL     1      -8.777  46.249 -31.189  1.00  0.00     0.004 C 
HETATM    7  C15 UNL     1      -9.482  46.973 -32.355  1.00  0.00     0.007 C 
HETATM    8  C16 UNL     1     -10.425  46.096 -33.168  1.00  0.00     0.007 C 
HETATM    9  C17 UNL     1      -9.643  44.924 -33.773  1.00  0.00     0.018 C 
HETATM   10  C18 UNL     1     -10.358  44.175 -34.946  1.00  0.00     0.072 C 
HETATM   11  C19 UNL     1     -10.313  45.058 -36.222  1.00  0.00     0.030 C 
HETATM   12  C21 UNL     1      -9.591  42.859 -35.229  1.00  0.00     0.139 C 
HETATM   13  C22 UNL     1      -9.482  41.916 -34.018  1.00  0.00     0.065 C 
HETATM   14  C23 UNL     1      -9.699  42.600 -32.667  1.00  0.00     0.130 C 
HETATM   15  C24 UNL     1      -9.149  44.012 -32.638  1.00  0.00    -0.001 A 
HETATM   16  C25 UNL     1      -7.704  44.139 -32.218  1.00  0.00     0.024 A 
HETATM   17  C26 UNL     1      -8.767  44.697 -31.288  1.00  0.00    -0.025 A 
HETATM   18  C27 UNL     1      -9.053  43.889 -30.005  1.00  0.00     0.011 C 
HETATM   19  C28 UNL     1      -8.861  44.554 -28.630  1.00  0.00     0.011 C 
HETATM   20  C29 UNL     1      -8.388  46.003 -28.692  1.00  0.00    -0.032 C 
HETATM   21  C30 UNL     1      -6.856  45.984 -28.957  1.00  0.00     0.016 C 
ENDROOT
BRANCH   1  22
HETATM   22  C7  UNL     1      -7.893  46.563 -26.124  1.00  0.00    -0.014 C 
HETATM   23  C8  UNL     1      -8.761  45.769 -25.137  1.00  0.00     0.010 C 
BRANCH  22  24
HETATM   24  C6  UNL     1      -7.202  47.771 -25.446  1.00  0.00     0.008 C 
BRANCH  24  25
HETATM   25  C5  UNL     1      -5.780  48.142 -25.914  1.00  0.00     0.028 C 
BRANCH  25  26
HETATM   26  C4  UNL     1      -4.834  48.414 -24.775  1.00  0.00    -0.025 C 
HETATM   27  C2  UNL     1      -3.506  48.640 -24.826  1.00  0.00    -0.091 C 
HETATM   28  C1  UNL     1      -2.670  48.640 -26.075  1.00  0.00     0.042 C 
HETATM   29  C3  UNL     1      -2.731  48.925 -23.567  1.00  0.00     0.042 C 
ENDBRANCH  25  26
ENDBRANCH  24  25
ENDBRANCH  22  24
ENDBRANCH   1  22
BRANCH  14  30
HETATM   30  O4  UNL     1     -11.088  42.643 -32.348  1.00  0.00    -0.395 OA
HETATM   31  H39 UNL     1     -11.368  41.732 -32.158  1.00  0.00     0.210 HD
ENDBRANCH  14  30
BRANCH  10  32
HETATM   32  C20 UNL     1     -11.851  43.920 -34.727  1.00  0.00     0.151 C 
HETATM   33  O1  UNL     1     -12.473  42.903 -34.991  1.00  0.00    -0.649 OA
BRANCH  32  34
HETATM   34  O2  UNL     1     -12.489  44.894 -34.044  1.00  0.00    -0.776 OA
HETATM   35  H33 UNL     1     -13.400  44.537 -33.978  1.00  0.00     0.167 HD
ENDBRANCH  32  34
ENDBRANCH  10  32
BRANCH  12  36
HETATM   36  O3  UNL     1      -8.253  43.164 -35.673  1.00  0.00    -0.394 OA
HETATM   37  H35 UNL     1      -7.870  42.343 -36.023  1.00  0.00     0.210 HD
ENDBRANCH  12  36
TORSDOF 8
ENDMDL
MODEL 4
REMARK minimizedAffinity -7.61215353
REMARK CNNscore 0.374530286
REMARK CNNaffinity 6.10500526
REMARK  8 active torsions:
REMARK  status: ('A' for Active; 'I' for Inactive)
REMARK    1  A    between atoms: C4_4  and  C5_5 
REMARK    2  A    between atoms: C5_5  and  C6_6 
REMARK    3  A    between atoms: C6_6  and  C7_7 
REMARK    4  A    between atoms: C7_7  and  C9_9 
REMARK    5  A    between atoms: C18_18  and  C20_20 
REMARK    6  A    between atoms: C20_20  and  O2_22 
REMARK    7  A    between atoms: C21_23  and  O3_24 
REMARK    8  A    between atoms: C23_26  and  O4_27 
ROOT
HETATM    1  C9  UNL     1      -4.972  47.900 -22.745  1.00  0.00    -0.002 C 
HETATM    2  C10 UNL     1      -5.687  47.769 -21.382  1.00  0.00     0.006 C 
HETATM    3  C11 UNL     1      -7.191  47.605 -21.677  1.00  0.00     0.011 C 
HETATM    4  C12 UNL     1      -7.308  47.427 -23.204  1.00  0.00    -0.032 C 
HETATM    5  C13 UNL     1      -7.151  45.904 -23.505  1.00  0.00     0.016 C 
HETATM    6  C14 UNL     1      -8.634  47.943 -23.816  1.00  0.00     0.004 C 
HETATM    7  C15 UNL     1      -9.881  47.182 -23.321  1.00  0.00     0.007 C 
HETATM    8  C16 UNL     1     -10.580  46.348 -24.386  1.00  0.00     0.007 C 
HETATM    9  C17 UNL     1     -11.034  47.258 -25.534  1.00  0.00     0.018 C 
HETATM   10  C18 UNL     1     -12.106  46.643 -26.494  1.00  0.00     0.072 C 
HETATM   11  C19 UNL     1     -13.482  46.612 -25.775  1.00  0.00     0.030 C 
HETATM   12  C21 UNL     1     -12.222  47.548 -27.746  1.00  0.00     0.139 C 
HETATM   13  C22 UNL     1     -10.904  47.739 -28.515  1.00  0.00     0.065 C 
HETATM   14  C23 UNL     1      -9.648  47.432 -27.697  1.00  0.00     0.130 C 
HETATM   15  C24 UNL     1      -9.794  47.829 -26.242  1.00  0.00    -0.001 A 
HETATM   16  C25 UNL     1      -9.392  49.248 -25.911  1.00  0.00     0.024 A 
HETATM   17  C26 UNL     1      -8.540  48.119 -25.359  1.00  0.00    -0.025 A 
HETATM   18  C27 UNL     1      -7.166  47.902 -26.028  1.00  0.00     0.011 C 
HETATM   19  C28 UNL     1      -5.884  48.003 -25.183  1.00  0.00     0.011 C 
HETATM   20  C29 UNL     1      -6.126  48.322 -23.710  1.00  0.00    -0.032 C 
HETATM   21  C30 UNL     1      -6.385  49.850 -23.599  1.00  0.00     0.016 C 
ENDROOT
BRANCH   1  22
HETATM   22  C7  UNL     1      -3.646  48.718 -22.789  1.00  0.00    -0.014 C 
HETATM   23  C8  UNL     1      -2.964  48.534 -24.152  1.00  0.00     0.010 C 
BRANCH  22  24
HETATM   24  C6  UNL     1      -2.658  48.508 -21.614  1.00  0.00     0.008 C 
BRANCH  24  25
HETATM   25  C5  UNL     1      -1.290  49.216 -21.691  1.00  0.00     0.028 C 
BRANCH  25  26
HETATM   26  C4  UNL     1      -0.967  50.011 -20.453  1.00  0.00    -0.025 C 
HETATM   27  C2  UNL     1      -0.203  51.116 -20.345  1.00  0.00    -0.091 C 
HETATM   28  C1  UNL     1       0.524  51.786 -21.477  1.00  0.00     0.042 C 
HETATM   29  C3  UNL     1      -0.021  51.792 -19.012  1.00  0.00     0.042 C 
ENDBRANCH  25  26
ENDBRANCH  24  25
ENDBRANCH  22  24
ENDBRANCH   1  22
BRANCH  14  30
HETATM   30  O4  UNL     1      -9.338  46.042 -27.763  1.00  0.00    -0.395 OA
HETATM   31  H39 UNL     1      -9.037  45.857 -28.669  1.00  0.00     0.210 HD
ENDBRANCH  14  30
BRANCH  10  32
HETATM   32  C20 UNL     1     -11.858  45.182 -26.877  1.00  0.00     0.151 C 
HETATM   33  O1  UNL     1     -10.859  44.716 -27.404  1.00  0.00    -0.649 OA
BRANCH  32  34
HETATM   34  O2  UNL     1     -12.809  44.324 -26.450  1.00  0.00    -0.776 OA
HETATM   35  H33 UNL     1     -12.459  43.461 -26.755  1.00  0.00     0.167 HD
ENDBRANCH  32  34
ENDBRANCH  10  32
BRANCH  12  36
HETATM   36  O3  UNL     1     -12.700  48.852 -27.357  1.00  0.00    -0.394 OA
HETATM   37  H35 UNL     1     -12.946  49.325 -28.169  1.00  0.00     0.210 HD
ENDBRANCH  12  36
TORSDOF 8
ENDMDL
MODEL 5
REMARK minimizedAffinity -8.02698898
REMARK CNNscore 0.346502811
REMARK CNNaffinity 6.65720034
REMARK  8 active torsions:
REMARK  status: ('A' for Active; 'I' for Inactive)
REMARK    1  A    between atoms: C4_4  and  C5_5 
REMARK    2  A    between atoms: C5_5  and  C6_6 
REMARK    3  A    between atoms: C6_6  and  C7_7 
REMARK    4  A    between atoms: C7_7  and  C9_9 
REMARK    5  A    between atoms: C18_18  and  C20_20 
REMARK    6  A    between atoms: C20_20  and  O2_22 
REMARK    7  A    between atoms: C21_23  and  O3_24 
REMARK    8  A    between atoms: C23_26  and  O4_27 
ROOT
HETATM    1  C9  UNL     1      -3.165  50.155 -23.415  1.00  0.00    -0.002 C 
HETATM    2  C10 UNL     1      -3.097  48.639 -23.701  1.00  0.00     0.006 C 
HETATM    3  C11 UNL     1      -2.663  47.952 -22.391  1.00  0.00     0.011 C 
HETATM    4  C12 UNL     1      -2.693  49.048 -21.307  1.00  0.00    -0.032 C 
HETATM    5  C13 UNL     1      -4.141  49.086 -20.729  1.00  0.00     0.016 C 
HETATM    6  C14 UNL     1      -1.679  48.847 -20.154  1.00  0.00     0.004 C 
HETATM    7  C15 UNL     1      -1.940  47.578 -19.316  1.00  0.00     0.007 C 
HETATM    8  C16 UNL     1      -2.383  47.844 -17.884  1.00  0.00     0.007 C 
HETATM    9  C17 UNL     1      -1.303  48.651 -17.153  1.00  0.00     0.018 C 
HETATM   10  C18 UNL     1      -1.410  48.656 -15.592  1.00  0.00     0.072 C 
HETATM   11  C19 UNL     1      -0.961  47.275 -15.043  1.00  0.00     0.030 C 
HETATM   12  C21 UNL     1      -0.456  49.743 -15.037  1.00  0.00     0.139 C 
HETATM   13  C22 UNL     1      -0.733  51.160 -15.568  1.00  0.00     0.065 C 
HETATM   14  C23 UNL     1      -1.539  51.199 -16.867  1.00  0.00     0.130 C 
HETATM   15  C24 UNL     1      -1.202  50.046 -17.792  1.00  0.00    -0.001 A 
HETATM   16  C25 UNL     1      -0.063  50.294 -18.753  1.00  0.00     0.024 A 
HETATM   17  C26 UNL     1      -1.461  50.147 -19.328  1.00  0.00    -0.025 A 
HETATM   18  C27 UNL     1      -2.142  51.440 -19.824  1.00  0.00     0.011 C 
HETATM   19  C28 UNL     1      -2.582  51.551 -21.295  1.00  0.00     0.011 C 
HETATM   20  C29 UNL     1      -2.283  50.314 -22.136  1.00  0.00    -0.032 C 
HETATM   21  C30 UNL     1      -0.780  50.365 -22.526  1.00  0.00     0.016 C 
ENDROOT
BRANCH   1  22
HETATM   22  C7  UNL     1      -2.908  51.126 -24.606  1.00  0.00    -0.014 C 
HETATM   23  C8  UNL     1      -4.155  51.986 -24.857  1.00  0.00     0.010 C 
BRANCH  22  24
HETATM   24  C6  UNL     1      -2.365  50.498 -25.914  1.00  0.00     0.008 C 
BRANCH  24  25
HETATM   25  C5  UNL     1      -1.583  51.412 -26.879  1.00  0.00     0.028 C 
BRANCH  25  26
HETATM   26  C4  UNL     1      -0.105  51.123 -26.899  1.00  0.00    -0.025 C 
HETATM   27  C2  UNL     1       0.862  51.662 -26.131  1.00  0.00    -0.091 C 
HETATM   28  C1  UNL     1       0.654  52.715 -25.079  1.00  0.00     0.042 C 
HETATM   29  C3  UNL     1       2.293  51.218 -26.282  1.00  0.00     0.042 C 
ENDBRANCH  25  26
ENDBRANCH  24  25
ENDBRANCH  22  24
ENDBRANCH   1  22
BRANCH  14  30
HETATM   30  O4  UNL     1      -2.936  51.168 -16.588  1.00  0.00    -0.395 OA
HETATM   31  H39 UNL     1      -3.168  52.021 -16.183  1.00  0.00     0.210 HD
ENDBRANCH  14  30
BRANCH  10  32
HETATM   32  C20 UNL     1      -2.831  48.824 -15.049  1.00  0.00     0.151 C 
HETATM   33  O1  UNL     1      -3.167  49.404 -14.028  1.00  0.00    -0.649 OA
BRANCH  32  34
HETATM   34  O2  UNL     1      -3.801  48.388 -15.880  1.00  0.00    -0.776 OA
HETATM   35  H33 UNL     1      -4.615  48.610 -15.380  1.00  0.00     0.167 HD
ENDBRANCH  32  34
ENDBRANCH  10  32
BRANCH  12  36
HETATM   36  O3  UNL     1       0.907  49.405 -15.368  1.00  0.00    -0.394 OA
HETATM   37  H35 UNL     1       1.485  49.989 -14.849  1.00  0.00     0.210 HD
ENDBRANCH  12  36
TORSDOF 8
ENDMDL
MODEL 6
REMARK minimizedAffinity -7.62386084
REMARK CNNscore 0.308540225
REMARK CNNaffinity 6.27643442
REMARK  8 active torsions:
REMARK  status: ('A' for Active; 'I' for Inactive)
REMARK    1  A    between atoms: C4_4  and  C5_5 
REMARK    2  A    between atoms: C5_5  and  C6_6 
REMARK    3  A    between atoms: C6_6  and  C7_7 
REMARK    4  A    between atoms: C7_7  and  C9_9 
REMARK    5  A    between atoms: C18_18  and  C20_20 
REMARK    6  A    between atoms: C20_20  and  O2_22 
REMARK    7  A    between atoms: C21_23  and  O3_24 
REMARK    8  A    between atoms: C23_26  and  O4_27 
ROOT
HETATM    1  C9  UNL     1      -4.038  50.331 -23.634  1.00  0.00    -0.002 C 
HETATM    2  C10 UNL     1      -4.499  49.468 -24.828  1.00  0.00     0.006 C 
HETATM    3  C11 UNL     1      -5.505  48.437 -24.276  1.00  0.00     0.011 C 
HETATM    4  C12 UNL     1      -5.777  48.849 -22.816  1.00  0.00    -0.032 C 
HETATM    5  C13 UNL     1      -6.949  49.879 -22.838  1.00  0.00     0.016 C 
HETATM    6  C14 UNL     1      -6.135  47.677 -21.868  1.00  0.00     0.004 C 
HETATM    7  C15 UNL     1      -7.451  46.963 -22.238  1.00  0.00     0.007 C 
HETATM    8  C16 UNL     1      -8.576  47.143 -21.228  1.00  0.00     0.007 C 
HETATM    9  C17 UNL     1      -8.134  46.596 -19.865  1.00  0.00     0.018 C 
HETATM   10  C18 UNL     1      -9.289  46.333 -18.842  1.00  0.00     0.072 C 
HETATM   11  C19 UNL     1     -10.071  45.060 -19.267  1.00  0.00     0.030 C 
HETATM   12  C21 UNL     1      -8.662  46.085 -17.447  1.00  0.00     0.139 C 
HETATM   13  C22 UNL     1      -7.784  47.238 -16.932  1.00  0.00     0.065 C 
HETATM   14  C23 UNL     1      -7.287  48.186 -18.026  1.00  0.00     0.130 C 
HETATM   15  C24 UNL     1      -6.986  47.464 -19.324  1.00  0.00    -0.001 A 
HETATM   16  C25 UNL     1      -5.581  46.928 -19.461  1.00  0.00     0.024 A 
HETATM   17  C26 UNL     1      -5.998  48.071 -20.369  1.00  0.00    -0.025 A 
HETATM   18  C27 UNL     1      -5.419  49.462 -20.038  1.00  0.00     0.011 C 
HETATM   19  C28 UNL     1      -4.571  50.202 -21.087  1.00  0.00     0.011 C 
HETATM   20  C29 UNL     1      -4.389  49.443 -22.398  1.00  0.00    -0.032 C 
HETATM   21  C30 UNL     1      -3.279  48.378 -22.172  1.00  0.00     0.016 C 
ENDROOT
BRANCH   1  22
HETATM   22  C7  UNL     1      -2.612  50.957 -23.703  1.00  0.00    -0.014 C 
HETATM   23  C8  UNL     1      -2.714  52.454 -24.027  1.00  0.00     0.010 C 
BRANCH  22  24
HETATM   24  C6  UNL     1      -1.579  50.238 -24.606  1.00  0.00     0.008 C 
BRANCH  24  25
HETATM   25  C5  UNL     1      -1.376  50.778 -26.037  1.00  0.00     0.028 C 
BRANCH  25  26
HETATM   26  C4  UNL     1       0.069  50.796 -26.462  1.00  0.00    -0.025 C 
HETATM   27  C2  UNL     1       1.054  51.612 -26.039  1.00  0.00    -0.091 C 
HETATM   28  C1  UNL     1       0.897  52.723 -25.040  1.00  0.00     0.042 C 
HETATM   29  C3  UNL     1       2.456  51.453 -26.566  1.00  0.00     0.042 C 
ENDBRANCH  25  26
ENDBRANCH  24  25
ENDBRANCH  22  24
ENDBRANCH   1  22
BRANCH  14  30
HETATM   30  O4  UNL     1      -8.252  49.203 -18.280  1.00  0.00    -0.395 OA
HETATM   31  H39 UNL     1      -8.268  49.786 -17.502  1.00  0.00     0.210 HD
ENDBRANCH  14  30
BRANCH  10  32
HETATM   32  C20 UNL     1     -10.361  47.424 -18.792  1.00  0.00     0.151 C 
HETATM   33  O1  UNL     1     -10.580  48.282 -19.633  1.00  0.00    -0.649 OA
BRANCH  32  34
HETATM   34  O2  UNL     1     -11.222  47.313 -17.759  1.00  0.00    -0.776 OA
HETATM   35  H33 UNL     1     -11.835  48.061 -17.921  1.00  0.00     0.167 HD
ENDBRANCH  32  34
ENDBRANCH  10  32
BRANCH  12  36
HETATM   36  O3  UNL     1      -7.850  44.893 -17.485  1.00  0.00    -0.394 OA
HETATM   37  H35 UNL     1      -7.634  44.659 -16.568  1.00  0.00     0.210 HD
ENDBRANCH  12  36
TORSDOF 8
ENDMDL
MODEL 7
REMARK minimizedAffinity -7.54091406
REMARK CNNscore 0.289846003
REMARK CNNaffinity 6.56332922
REMARK  8 active torsions:
REMARK  status: ('A' for Active; 'I' for Inactive)
REMARK    1  A    between atoms: C4_4  and  C5_5 
REMARK    2  A    between atoms: C5_5  and  C6_6 
REMARK    3  A    between atoms: C6_6  and  C7_7 
REMARK    4  A    between atoms: C7_7  and  C9_9 
REMARK    5  A    between atoms: C18_18  and  C20_20 
REMARK    6  A    between atoms: C20_20  and  O2_22 
REMARK    7  A    between atoms: C21_23  and  O3_24 
REMARK    8  A    between atoms: C23_26  and  O4_27 
ROOT
HETATM    1  C9  UNL     1      -2.816  51.375 -22.993  1.00  0.00    -0.002 C 
HETATM    2  C10 UNL     1      -4.234  51.824 -23.407  1.00  0.00     0.006 C 
HETATM    3  C11 UNL     1      -5.228  50.859 -22.731  1.00  0.00     0.011 C 
HETATM    4  C12 UNL     1      -4.391  49.997 -21.764  1.00  0.00    -0.032 C 
HETATM    5  C13 UNL     1      -4.318  50.764 -20.408  1.00  0.00     0.016 C 
HETATM    6  C14 UNL     1      -4.945  48.570 -21.525  1.00  0.00     0.004 C 
HETATM    7  C15 UNL     1      -6.327  48.551 -20.838  1.00  0.00     0.007 C 
HETATM    8  C16 UNL     1      -6.326  47.983 -19.426  1.00  0.00     0.007 C 
HETATM    9  C17 UNL     1      -5.817  46.536 -19.454  1.00  0.00     0.018 C 
HETATM   10  C18 UNL     1      -6.133  45.689 -18.178  1.00  0.00     0.072 C 
HETATM   11  C19 UNL     1      -7.641  45.317 -18.170  1.00  0.00     0.030 C 
HETATM   12  C21 UNL     1      -5.302  44.382 -18.237  1.00  0.00     0.139 C 
HETATM   13  C22 UNL     1      -3.783  44.602 -18.334  1.00  0.00     0.065 C 
HETATM   14  C23 UNL     1      -3.379  45.991 -18.833  1.00  0.00     0.130 C 
HETATM   15  C24 UNL     1      -4.338  46.534 -19.874  1.00  0.00    -0.001 A 
HETATM   16  C25 UNL     1      -4.019  46.171 -21.305  1.00  0.00     0.024 A 
HETATM   17  C26 UNL     1      -3.883  47.625 -20.892  1.00  0.00    -0.025 A 
HETATM   18  C27 UNL     1      -2.447  48.164 -20.724  1.00  0.00     0.011 C 
HETATM   19  C28 UNL     1      -1.977  49.356 -21.576  1.00  0.00     0.011 C 
HETATM   20  C29 UNL     1      -3.032  49.897 -22.537  1.00  0.00    -0.032 C 
HETATM   21  C30 UNL     1      -3.065  48.955 -23.773  1.00  0.00     0.016 C 
ENDROOT
BRANCH   1  22
HETATM   22  C7  UNL     1      -1.647  51.672 -23.980  1.00  0.00    -0.014 C 
HETATM   23  C8  UNL     1      -1.591  50.588 -25.065  1.00  0.00     0.010 C 
BRANCH  22  24
HETATM   24  C6  UNL     1      -0.255  51.936 -23.352  1.00  0.00     0.008 C 
BRANCH  24  25
HETATM   25  C5  UNL     1       0.597  53.076 -23.947  1.00  0.00     0.028 C 
BRANCH  25  26
HETATM   26  C4  UNL     1       0.058  53.597 -25.253  1.00  0.00    -0.025 C 
HETATM   27  C2  UNL     1       0.380  53.213 -26.504  1.00  0.00    -0.091 C 
HETATM   28  C1  UNL     1       1.398  52.166 -26.859  1.00  0.00     0.042 C 
HETATM   29  C3  UNL     1      -0.298  53.840 -27.694  1.00  0.00     0.042 C 
ENDBRANCH  25  26
ENDBRANCH  24  25
ENDBRANCH  22  24
ENDBRANCH   1  22
BRANCH  14  30
HETATM   30  O4  UNL     1      -3.314  46.911 -17.747  1.00  0.00    -0.395 OA
HETATM   31  H39 UNL     1      -2.547  46.662 -17.204  1.00  0.00     0.210 HD
ENDBRANCH  14  30
BRANCH  10  32
HETATM   32  C20 UNL     1      -5.929  46.427 -16.853  1.00  0.00     0.151 C 
HETATM   33  O1  UNL     1      -5.494  45.964 -15.809  1.00  0.00    -0.649 OA
BRANCH  32  34
HETATM   34  O2  UNL     1      -6.136  47.759 -16.919  1.00  0.00    -0.776 OA
HETATM   35  H33 UNL     1      -5.926  48.045 -16.004  1.00  0.00     0.167 HD
ENDBRANCH  32  34
ENDBRANCH  10  32
BRANCH  12  36
HETATM   36  O3  UNL     1      -5.711  43.600 -19.377  1.00  0.00    -0.394 OA
HETATM   37  H35 UNL     1      -5.319  42.716 -19.278  1.00  0.00     0.210 HD
ENDBRANCH  12  36
TORSDOF 8
ENDMDL
MODEL 8
REMARK minimizedAffinity -7.71842718
REMARK CNNscore 0.279492199
REMARK CNNaffinity 5.63496161
REMARK  8 active torsions:
REMARK  status: ('A' for Active; 'I' for Inactive)
REMARK    1  A    between atoms: C4_4  and  C5_5 
REMARK    2  A    between atoms: C5_5  and  C6_6 
REMARK    3  A    between atoms: C6_6  and  C7_7 
REMARK    4  A    between atoms: C7_7  and  C9_9 
REMARK    5  A    between atoms: C18_18  and  C20_20 
REMARK    6  A    between atoms: C20_20  and  O2_22 
REMARK    7  A    between atoms: C21_23  and  O3_24 
REMARK    8  A    between atoms: C23_26  and  O4_27 
ROOT
HETATM    1  C9  UNL     1     -13.783  45.364 -26.330  1.00  0.00    -0.002 C 
HETATM    2  C10 UNL     1     -13.284  43.907 -26.220  1.00  0.00     0.006 C 
HETATM    3  C11 UNL     1     -11.964  43.821 -27.012  1.00  0.00     0.011 C 
HETATM    4  C12 UNL     1     -11.602  45.271 -27.392  1.00  0.00    -0.032 C 
HETATM    5  C13 UNL     1     -10.776  45.865 -26.210  1.00  0.00     0.016 C 
HETATM    6  C14 UNL     1     -10.801  45.415 -28.709  1.00  0.00     0.004 C 
HETATM    7  C15 UNL     1      -9.409  44.752 -28.661  1.00  0.00     0.007 C 
HETATM    8  C16 UNL     1      -8.240  45.727 -28.716  1.00  0.00     0.007 C 
HETATM    9  C17 UNL     1      -8.308  46.538 -30.016  1.00  0.00     0.018 C 
HETATM   10  C18 UNL     1      -6.988  47.276 -30.415  1.00  0.00     0.072 C 
HETATM   11  C19 UNL     1      -5.958  46.239 -30.940  1.00  0.00     0.030 C 
HETATM   12  C21 UNL     1      -7.308  48.275 -31.556  1.00  0.00     0.139 C 
HETATM   13  C22 UNL     1      -8.383  49.316 -31.202  1.00  0.00     0.065 C 
HETATM   14  C23 UNL     1      -9.278  48.922 -30.025  1.00  0.00     0.130 C 
HETATM   15  C24 UNL     1      -9.557  47.433 -29.983  1.00  0.00    -0.001 A 
HETATM   16  C25 UNL     1     -10.766  46.975 -30.766  1.00  0.00     0.024 A 
HETATM   17  C26 UNL     1     -10.817  46.873 -29.252  1.00  0.00    -0.025 A 
HETATM   18  C27 UNL     1     -11.701  47.905 -28.521  1.00  0.00     0.011 C 
HETATM   19  C28 UNL     1     -12.865  47.421 -27.639  1.00  0.00     0.011 C 
HETATM   20  C29 UNL     1     -13.023  45.904 -27.583  1.00  0.00    -0.032 C 
HETATM   21  C30 UNL     1     -13.752  45.462 -28.883  1.00  0.00     0.016 C 
ENDROOT
BRANCH   1  22
HETATM   22  C7  UNL     1     -15.320  45.609 -26.245  1.00  0.00    -0.014 C 
HETATM   23  C8  UNL     1     -15.637  46.530 -25.059  1.00  0.00     0.010 C 
BRANCH  22  24
HETATM   24  C6  UNL     1     -16.228  44.354 -26.262  1.00  0.00     0.008 C 
BRANCH  24  25
HETATM   25  C5  UNL     1     -17.528  44.419 -27.089  1.00  0.00     0.028 C 
BRANCH  25  26
HETATM   26  C4  UNL     1     -18.589  45.279 -26.456  1.00  0.00    -0.025 C 
HETATM   27  C2  UNL     1     -19.389  44.986 -25.412  1.00  0.00    -0.091 C 
HETATM   28  C1  UNL     1     -19.399  43.685 -24.660  1.00  0.00     0.042 C 
HETATM   29  C3  UNL     1     -20.378  45.999 -24.899  1.00  0.00     0.042 C 
ENDBRANCH  25  26
ENDBRANCH  24  25
ENDBRANCH  22  24
ENDBRANCH   1  22
BRANCH  14  30
HETATM   30  O4  UNL     1      -8.678  49.310 -28.792  1.00  0.00    -0.395 OA
HETATM   31  H39 UNL     1      -8.708  50.281 -28.750  1.00  0.00     0.210 HD
ENDBRANCH  14  30
BRANCH  10  32
HETATM   32  C20 UNL     1      -6.261  47.961 -29.255  1.00  0.00     0.151 C 
HETATM   33  O1  UNL     1      -6.431  47.767 -28.061  1.00  0.00    -0.649 OA
BRANCH  32  34
HETATM   34  O2  UNL     1      -5.239  48.759 -29.630  1.00  0.00    -0.776 OA
HETATM   35  H33 UNL     1      -4.891  49.066 -28.766  1.00  0.00     0.167 HD
ENDBRANCH  32  34
ENDBRANCH  10  32
BRANCH  12  36
HETATM   36  O3  UNL     1      -7.759  47.551 -32.720  1.00  0.00    -0.394 OA
HETATM   37  H35 UNL     1      -7.764  48.175 -33.465  1.00  0.00     0.210 HD
ENDBRANCH  12  36
TORSDOF 8
ENDMDL
MODEL 9
REMARK minimizedAffinity -7.58402586
REMARK CNNscore 0.256706685
REMARK CNNaffinity 6.2733264
REMARK  8 active torsions:
REMARK  status: ('A' for Active; 'I' for Inactive)
REMARK    1  A    between atoms: C4_4  and  C5_5 
REMARK    2  A    between atoms: C5_5  and  C6_6 
REMARK    3  A    between atoms: C6_6  and  C7_7 
REMARK    4  A    between atoms: C7_7  and  C9_9 
REMARK    5  A    between atoms: C18_18  and  C20_20 
REMARK    6  A    between atoms: C20_20  and  O2_22 
REMARK    7  A    between atoms: C21_23  and  O3_24 
REMARK    8  A    between atoms: C23_26  and  O4_27 
ROOT
HETATM    1  C9  UNL     1      -3.327  49.853 -23.259  1.00  0.00    -0.002 C 
HETATM    2  C10 UNL     1      -2.439  48.590 -23.288  1.00  0.00     0.006 C 
HETATM    3  C11 UNL     1      -3.045  47.589 -22.283  1.00  0.00     0.011 C 
HETATM    4  C12 UNL     1      -4.393  48.194 -21.843  1.00  0.00    -0.032 C 
HETATM    5  C13 UNL     1      -5.470  47.716 -22.866  1.00  0.00     0.016 C 
HETATM    6  C14 UNL     1      -4.836  47.814 -20.409  1.00  0.00     0.004 C 
HETATM    7  C15 UNL     1      -5.099  46.306 -20.223  1.00  0.00     0.007 C 
HETATM    8  C16 UNL     1      -6.556  45.943 -19.967  1.00  0.00     0.007 C 
HETATM    9  C17 UNL     1      -7.045  46.646 -18.695  1.00  0.00     0.018 C 
HETATM   10  C18 UNL     1      -8.362  46.071 -18.075  1.00  0.00     0.072 C 
HETATM   11  C19 UNL     1      -8.055  44.713 -17.386  1.00  0.00     0.030 C 
HETATM   12  C21 UNL     1      -8.874  47.064 -17.002  1.00  0.00     0.139 C 
HETATM   13  C22 UNL     1      -9.141  48.484 -17.529  1.00  0.00     0.065 C 
HETATM   14  C23 UNL     1      -8.428  48.812 -18.842  1.00  0.00     0.130 C 
HETATM   15  C24 UNL     1      -7.061  48.164 -18.936  1.00  0.00    -0.001 A 
HETATM   16  C25 UNL     1      -5.917  48.973 -18.371  1.00  0.00     0.024 A 
HETATM   17  C26 UNL     1      -5.958  48.749 -19.872  1.00  0.00    -0.025 A 
HETATM   18  C27 UNL     1      -6.365  49.959 -20.739  1.00  0.00     0.011 C 
HETATM   19  C28 UNL     1      -5.393  50.491 -21.807  1.00  0.00     0.011 C 
HETATM   20  C29 UNL     1      -4.075  49.728 -21.893  1.00  0.00    -0.032 C 
HETATM   21  C30 UNL     1      -3.166  50.232 -20.737  1.00  0.00     0.016 C 
ENDROOT
BRANCH   1  22
HETATM   22  C7  UNL     1      -2.654  51.216 -23.602  1.00  0.00    -0.014 C 
HETATM   23  C8  UNL     1      -3.606  52.068 -24.454  1.00  0.00     0.010 C 
BRANCH  22  24
HETATM   24  C6  UNL     1      -1.230  51.158 -24.209  1.00  0.00     0.008 C 
BRANCH  24  25
HETATM   25  C5  UNL     1      -1.098  50.779 -25.698  1.00  0.00     0.028 C 
BRANCH  25  26
HETATM   26  C4  UNL     1       0.322  50.827 -26.197  1.00  0.00    -0.025 C 
HETATM   27  C2  UNL     1       0.962  51.848 -26.800  1.00  0.00    -0.091 C 
HETATM   28  C1  UNL     1       0.355  53.182 -27.131  1.00  0.00     0.042 C 
HETATM   29  C3  UNL     1       2.407  51.712 -27.203  1.00  0.00     0.042 C 
ENDBRANCH  25  26
ENDBRANCH  24  25
ENDBRANCH  22  24
ENDBRANCH   1  22
BRANCH  14  30
HETATM   30  O4  UNL     1      -9.212  48.389 -19.954  1.00  0.00    -0.395 OA
HETATM   31  H39 UNL     1      -9.989  48.972 -19.998  1.00  0.00     0.210 HD
ENDBRANCH  14  30
BRANCH  10  32
HETATM   32  C20 UNL     1      -9.452  45.730 -19.093  1.00  0.00     0.151 C 
HETATM   33  O1  UNL     1     -10.659  45.865 -18.956  1.00  0.00    -0.649 OA
BRANCH  32  34
HETATM   34  O2  UNL     1      -8.988  45.369 -20.308  1.00  0.00    -0.776 OA
HETATM   35  H33 UNL     1      -9.818  45.230 -20.812  1.00  0.00     0.167 HD
ENDBRANCH  32  34
ENDBRANCH  10  32
BRANCH  12  36
HETATM   36  O3  UNL     1      -7.911  47.163 -15.934  1.00  0.00    -0.394 OA
HETATM   37  H35 UNL     1      -8.339  47.631 -15.198  1.00  0.00     0.210 HD
ENDBRANCH  12  36
TORSDOF 8
ENDMDL
