MODEL 1
REMARK minimizedAffinity -7.78484344
REMARK CNNscore 0.439366072
REMARK CNNaffinity 6.1824379
REMARK  4 active torsions:
REMARK  status: ('A' for Active; 'I' for Inactive)
REMARK    1  A    between atoms: C3_3  and  C4_4 
REMARK    2  A    between atoms: C4_4  and  O1_5 
REMARK    3  A    between atoms: C6_9  and  C7_10 
REMARK    4  A    between atoms: C7_10  and  C9_12 
ROOT
HETATM    1  C9  UNL     1      -8.141  47.554 -26.008  1.00  0.00     0.000 C 
HETATM    2  C10 UNL     1      -7.791  47.710 -27.516  1.00  0.00     0.006 C 
HETATM    3  C11 UNL     1      -8.960  47.122 -28.321  1.00  0.00     0.006 C 
HETATM    4  C12 UNL     1     -10.021  46.843 -27.268  1.00  0.00    -0.001 C 
HETATM    5  C13 UNL     1     -11.164  45.879 -27.616  1.00  0.00     0.000 C 
HETATM    6  C14 UNL     1     -11.873  46.238 -28.932  1.00  0.00     0.010 C 
HETATM    7  C15 UNL     1     -12.967  45.226 -29.272  1.00  0.00     0.036 C 
HETATM    8  C16 UNL     1     -13.917  44.994 -28.119  1.00  0.00    -0.063 A 
HETATM    9  C17 UNL     1     -15.242  45.131 -28.298  1.00  0.00     0.058 A 
HETATM   10  C18 UNL     1     -16.207  44.949 -27.192  1.00  0.00     0.172 A 
HETATM   11  O4  UNL     1     -17.415  45.038 -27.375  1.00  0.00    -0.289 OA
HETATM   12  C19 UNL     1     -15.656  44.664 -25.855  1.00  0.00     0.052 A 
HETATM   13  C20 UNL     1     -14.337  44.529 -25.668  1.00  0.00    -0.008 A 
HETATM   14  C21 UNL     1     -13.278  44.638 -26.765  1.00  0.00     0.005 A 
HETATM   15  C22 UNL     1     -12.686  43.211 -26.880  1.00  0.00     0.025 C 
HETATM   16  C23 UNL     1     -12.185  45.755 -26.415  1.00  0.00    -0.025 C 
HETATM   17  C24 UNL     1     -12.918  47.115 -26.161  1.00  0.00     0.017 C 
HETATM   18  C25 UNL     1     -11.386  45.426 -25.111  1.00  0.00     0.012 C 
HETATM   19  C26 UNL     1     -10.176  46.346 -24.838  1.00  0.00     0.011 C 
HETATM   20  C27 UNL     1      -9.197  46.399 -26.026  1.00  0.00    -0.036 C 
HETATM   21  C28 UNL     1      -8.498  45.026 -26.191  1.00  0.00     0.016 C 
ENDROOT
BRANCH   1  22
HETATM   22  C7  UNL     1      -6.873  47.445 -25.102  1.00  0.00     0.016 C 
HETATM   23  C8  UNL     1      -7.203  47.809 -23.644  1.00  0.00     0.013 C 
BRANCH  22  24
HETATM   24  C6  UNL     1      -5.683  48.355 -25.548  1.00  0.00     0.140 C 
HETATM   25  O3  UNL     1      -5.154  47.881 -26.798  1.00  0.00    -0.311 OA
HETATM   26  C5  UNL     1      -4.034  48.441 -27.318  1.00  0.00     0.292 C 
HETATM   27  C3  UNL     1      -3.251  49.352 -26.434  1.00  0.00     0.042 C 
HETATM   28  O2  UNL     1      -3.679  48.191 -28.463  1.00  0.00    -0.260 OA
HETATM   29  C2  UNL     1      -3.477  49.359 -25.100  1.00  0.00    -0.067 C 
HETATM   30  C1  UNL     1      -2.713  50.183 -24.104  1.00  0.00     0.044 C 
HETATM   31  C29 UNL     1      -4.566  48.493 -24.517  1.00  0.00     0.067 C 
BRANCH  27  32
HETATM   32  C4  UNL     1      -2.243  50.208 -27.145  1.00  0.00     0.209 C 
BRANCH  32  33
HETATM   33  O1  UNL     1      -2.770  50.758 -28.347  1.00  0.00    -0.396 OA
HETATM   34  H6  UNL     1      -3.677  50.425 -28.471  1.00  0.00     0.209 HD
ENDBRANCH  32  33
ENDBRANCH  27  32
ENDBRANCH  22  24
ENDBRANCH   1  22
TORSDOF 4
ENDMDL
MODEL 2
REMARK minimizedAffinity -10.2569132
REMARK CNNscore 0.40854758
REMARK CNNaffinity 6.58431292
REMARK  4 active torsions:
REMARK  status: ('A' for Active; 'I' for Inactive)
REMARK    1  A    between atoms: C3_3  and  C4_4 
REMARK    2  A    between atoms: C4_4  and  O1_5 
REMARK    3  A    between atoms: C6_9  and  C7_10 
REMARK    4  A    between atoms: C7_10  and  C9_12 
ROOT
HETATM    1  C9  UNL     1      -6.313  49.441 -22.897  1.00  0.00     0.000 C 
HETATM    2  C10 UNL     1      -7.004  49.524 -21.504  1.00  0.00     0.006 C 
HETATM    3  C11 UNL     1      -5.955  50.030 -20.502  1.00  0.00     0.006 C 
HETATM    4  C12 UNL     1      -4.773  50.415 -21.378  1.00  0.00    -0.001 C 
HETATM    5  C13 UNL     1      -3.394  50.572 -20.722  1.00  0.00     0.000 C 
HETATM    6  C14 UNL     1      -3.413  51.504 -19.500  1.00  0.00     0.010 C 
HETATM    7  C15 UNL     1      -2.035  51.592 -18.842  1.00  0.00     0.036 C 
HETATM    8  C16 UNL     1      -0.942  51.919 -19.834  1.00  0.00    -0.063 A 
HETATM    9  C17 UNL     1      -0.118  52.958 -19.611  1.00  0.00     0.058 A 
HETATM   10  C18 UNL     1       0.942  53.338 -20.569  1.00  0.00     0.172 A 
HETATM   11  O4  UNL     1       1.712  54.263 -20.338  1.00  0.00    -0.289 OA
HETATM   12  C19 UNL     1       1.030  52.566 -21.821  1.00  0.00     0.052 A 
HETATM   13  C20 UNL     1       0.211  51.531 -22.051  1.00  0.00    -0.008 A 
HETATM   14  C21 UNL     1      -0.867  51.033 -21.089  1.00  0.00     0.005 A 
HETATM   15  C22 UNL     1      -0.380  49.629 -20.650  1.00  0.00     0.025 C 
HETATM   16  C23 UNL     1      -2.310  51.019 -21.784  1.00  0.00    -0.025 C 
HETATM   17  C24 UNL     1      -2.620  52.453 -22.330  1.00  0.00     0.017 C 
HETATM   18  C25 UNL     1      -2.378  50.047 -23.008  1.00  0.00     0.012 C 
HETATM   19  C26 UNL     1      -3.794  49.825 -23.584  1.00  0.00     0.011 C 
HETATM   20  C27 UNL     1      -4.798  49.355 -22.515  1.00  0.00    -0.036 C 
HETATM   21  C28 UNL     1      -4.435  47.922 -22.049  1.00  0.00     0.016 C 
ENDROOT
BRANCH   1  22
HETATM   22  C7  UNL     1      -6.952  48.358 -23.824  1.00  0.00     0.016 C 
HETATM   23  C8  UNL     1      -6.652  46.941 -23.305  1.00  0.00     0.013 C 
BRANCH  22  24
HETATM   24  C6  UNL     1      -6.471  48.419 -25.310  1.00  0.00     0.140 C 
HETATM   25  O3  UNL     1      -7.303  47.575 -26.124  1.00  0.00    -0.311 OA
HETATM   26  C5  UNL     1      -6.996  47.372 -27.429  1.00  0.00     0.292 C 
HETATM   27  C3  UNL     1      -5.655  47.828 -27.894  1.00  0.00     0.042 C 
HETATM   28  O2  UNL     1      -7.789  46.822 -28.183  1.00  0.00    -0.260 OA
HETATM   29  C2  UNL     1      -4.693  48.131 -26.993  1.00  0.00    -0.067 C 
HETATM   30  C1  UNL     1      -3.289  48.539 -27.339  1.00  0.00     0.044 C 
HETATM   31  C29 UNL     1      -4.998  48.070 -25.517  1.00  0.00     0.067 C 
BRANCH  27  32
HETATM   32  C4  UNL     1      -5.498  47.907 -29.385  1.00  0.00     0.209 C 
BRANCH  32  33
HETATM   33  O1  UNL     1      -5.023  49.182 -29.800  1.00  0.00    -0.396 OA
HETATM   34  H6  UNL     1      -4.933  49.752 -29.015  1.00  0.00     0.209 HD
ENDBRANCH  32  33
ENDBRANCH  27  32
ENDBRANCH  22  24
ENDBRANCH   1  22
TORSDOF 4
ENDMDL
MODEL 3
REMARK minimizedAffinity -7.69711447
REMARK CNNscore 0.372778505
REMARK CNNaffinity 5.58071518
REMARK  4 active torsions:
REMARK  status: ('A' for Active; 'I' for Inactive)
REMARK    1  A    between atoms: C3_3  and  C4_4 
REMARK    2  A    between atoms: C4_4  and  O1_5 
REMARK    3  A    between atoms: C6_9  and  C7_10 
REMARK    4  A    between atoms: C7_10  and  C9_12 
ROOT
HETATM    1  C9  UNL     1     -12.835  45.838 -27.619  1.00  0.00     0.000 C 
HETATM    2  C10 UNL     1     -13.403  47.262 -27.890  1.00  0.00     0.006 C 
HETATM    3  C11 UNL     1     -12.314  48.058 -28.625  1.00  0.00     0.006 C 
HETATM    4  C12 UNL     1     -11.250  47.015 -28.934  1.00  0.00    -0.001 C 
HETATM    5  C13 UNL     1      -9.834  47.494 -29.288  1.00  0.00     0.000 C 
HETATM    6  C14 UNL     1      -9.820  48.546 -30.409  1.00  0.00     0.010 C 
HETATM    7  C15 UNL     1      -8.401  49.037 -30.696  1.00  0.00     0.036 C 
HETATM    8  C16 UNL     1      -7.431  47.900 -30.922  1.00  0.00    -0.063 A 
HETATM    9  C17 UNL     1      -6.677  47.868 -32.035  1.00  0.00     0.058 A 
HETATM   10  C18 UNL     1      -5.741  46.758 -32.317  1.00  0.00     0.172 A 
HETATM   11  O4  UNL     1      -5.031  46.758 -33.315  1.00  0.00    -0.289 OA
HETATM   12  C19 UNL     1      -5.703  45.644 -31.353  1.00  0.00     0.052 A 
HETATM   13  C20 UNL     1      -6.453  45.668 -30.243  1.00  0.00    -0.008 A 
HETATM   14  C21 UNL     1      -7.396  46.802 -29.844  1.00  0.00     0.005 A 
HETATM   15  C22 UNL     1      -6.760  47.411 -28.569  1.00  0.00     0.025 C 
HETATM   16  C23 UNL     1      -8.890  46.270 -29.620  1.00  0.00    -0.025 C 
HETATM   17  C24 UNL     1      -9.363  45.534 -30.918  1.00  0.00     0.017 C 
HETATM   18  C25 UNL     1      -8.989  45.232 -28.454  1.00  0.00     0.012 C 
HETATM   19  C26 UNL     1     -10.427  44.845 -28.045  1.00  0.00     0.011 C 
HETATM   20  C27 UNL     1     -11.290  46.073 -27.697  1.00  0.00    -0.036 C 
HETATM   21  C28 UNL     1     -10.772  46.725 -26.391  1.00  0.00     0.016 C 
ENDROOT
BRANCH   1  22
HETATM   22  C7  UNL     1     -13.465  45.168 -26.356  1.00  0.00     0.016 C 
HETATM   23  C8  UNL     1     -13.383  43.635 -26.447  1.00  0.00     0.013 C 
BRANCH  22  24
HETATM   24  C6  UNL     1     -14.964  45.538 -26.111  1.00  0.00     0.140 C 
HETATM   25  O3  UNL     1     -15.188  45.746 -24.707  1.00  0.00    -0.311 OA
HETATM   26  C5  UNL     1     -16.445  45.956 -24.242  1.00  0.00     0.292 C 
HETATM   27  C3  UNL     1     -17.572  45.699 -25.183  1.00  0.00     0.042 C 
HETATM   28  O2  UNL     1     -16.635  46.325 -23.091  1.00  0.00    -0.260 OA
HETATM   29  C2  UNL     1     -17.359  44.997 -26.319  1.00  0.00    -0.067 C 
HETATM   30  C1  UNL     1     -18.424  44.622 -27.311  1.00  0.00     0.044 C 
HETATM   31  C29 UNL     1     -15.967  44.530 -26.666  1.00  0.00     0.067 C 
BRANCH  27  32
HETATM   32  C4  UNL     1     -18.893  46.270 -24.755  1.00  0.00     0.209 C 
BRANCH  32  33
HETATM   33  O1  UNL     1     -18.911  47.690 -24.850  1.00  0.00    -0.396 OA
HETATM   34  H6  UNL     1     -18.033  47.994 -25.144  1.00  0.00     0.209 HD
ENDBRANCH  32  33
ENDBRANCH  27  32
ENDBRANCH  22  24
ENDBRANCH   1  22
TORSDOF 4
ENDMDL
MODEL 4
REMARK minimizedAffinity -9.59374523
REMARK CNNscore 0.356538594
REMARK CNNaffinity 6.98805809
REMARK  4 active torsions:
REMARK  status: ('A' for Active; 'I' for Inactive)
REMARK    1  A    between atoms: C3_3  and  C4_4 
REMARK    2  A    between atoms: C4_4  and  O1_5 
REMARK    3  A    between atoms: C6_9  and  C7_10 
REMARK    4  A    between atoms: C7_10  and  C9_12 
ROOT
HETATM    1  C9  UNL     1      -1.939  51.611 -22.397  1.00  0.00     0.000 C 
HETATM    2  C10 UNL     1      -2.888  52.497 -23.255  1.00  0.00     0.006 C 
HETATM    3  C11 UNL     1      -4.292  51.881 -23.169  1.00  0.00     0.006 C 
HETATM    4  C12 UNL     1      -4.149  50.798 -22.110  1.00  0.00    -0.001 C 
HETATM    5  C13 UNL     1      -5.215  49.696 -22.038  1.00  0.00     0.000 C 
HETATM    6  C14 UNL     1      -6.648  50.250 -21.971  1.00  0.00     0.010 C 
HETATM    7  C15 UNL     1      -7.682  49.125 -21.955  1.00  0.00     0.036 C 
HETATM    8  C16 UNL     1      -7.387  48.084 -20.899  1.00  0.00    -0.063 A 
HETATM    9  C17 UNL     1      -8.331  47.744 -20.004  1.00  0.00     0.058 A 
HETATM   10  C18 UNL     1      -8.077  46.758 -18.931  1.00  0.00     0.172 A 
HETATM   11  O4  UNL     1      -8.957  46.428 -18.144  1.00  0.00    -0.289 OA
HETATM   12  C19 UNL     1      -6.719  46.195 -18.839  1.00  0.00     0.052 A 
HETATM   13  C20 UNL     1      -5.772  46.530 -19.725  1.00  0.00    -0.008 A 
HETATM   14  C21 UNL     1      -5.968  47.490 -20.898  1.00  0.00     0.005 A 
HETATM   15  C22 UNL     1      -5.826  46.600 -22.159  1.00  0.00     0.025 C 
HETATM   16  C23 UNL     1      -4.916  48.697 -20.849  1.00  0.00    -0.025 C 
HETATM   17  C24 UNL     1      -5.042  49.419 -19.466  1.00  0.00     0.017 C 
HETATM   18  C25 UNL     1      -3.435  48.208 -20.967  1.00  0.00     0.012 C 
HETATM   19  C26 UNL     1      -2.390  49.332 -21.144  1.00  0.00     0.011 C 
HETATM   20  C27 UNL     1      -2.711  50.251 -22.338  1.00  0.00    -0.036 C 
HETATM   21  C28 UNL     1      -2.538  49.469 -23.664  1.00  0.00     0.016 C 
ENDROOT
BRANCH   1  22
HETATM   22  C7  UNL     1      -0.459  51.652 -22.897  1.00  0.00     0.016 C 
HETATM   23  C8  UNL     1       0.415  52.507 -21.964  1.00  0.00     0.013 C 
BRANCH  22  24
HETATM   24  C6  UNL     1      -0.284  52.219 -24.343  1.00  0.00     0.140 C 
HETATM   25  O3  UNL     1      -1.569  52.327 -24.980  1.00  0.00    -0.311 OA
HETATM   26  C5  UNL     1      -1.653  52.679 -26.287  1.00  0.00     0.292 C 
HETATM   27  C3  UNL     1      -0.388  52.682 -27.076  1.00  0.00     0.042 C 
HETATM   28  O2  UNL     1      -2.731  52.964 -26.792  1.00  0.00    -0.260 OA
HETATM   29  C2  UNL     1       0.713  52.065 -26.592  1.00  0.00    -0.067 C 
HETATM   30  C1  UNL     1       2.022  51.948 -27.320  1.00  0.00     0.044 C 
HETATM   31  C29 UNL     1       0.680  51.428 -25.225  1.00  0.00     0.067 C 
BRANCH  27  32
HETATM   32  C4  UNL     1      -0.468  53.404 -28.391  1.00  0.00     0.209 C 
BRANCH  32  33
HETATM   33  O1  UNL     1      -1.656  54.179 -28.497  1.00  0.00    -0.396 OA
HETATM   34  H6  UNL     1      -2.190  54.044 -27.693  1.00  0.00     0.209 HD
ENDBRANCH  32  33
ENDBRANCH  27  32
ENDBRANCH  22  24
ENDBRANCH   1  22
TORSDOF 4
ENDMDL
MODEL 5
REMARK minimizedAffinity -9.94183731
REMARK CNNscore 0.314177364
REMARK CNNaffinity 6.79761648
REMARK  4 active torsions:
REMARK  status: ('A' for Active; 'I' for Inactive)
REMARK    1  A    between atoms: C3_3  and  C4_4 
REMARK    2  A    between atoms: C4_4  and  O1_5 
REMARK    3  A    between atoms: C6_9  and  C7_10 
REMARK    4  A    between atoms: C7_10  and  C9_12 
ROOT
HETATM    1  C9  UNL     1      -0.641  51.326 -25.074  1.00  0.00     0.000 C 
HETATM    2  C10 UNL     1       0.305  52.554 -24.929  1.00  0.00     0.006 C 
HETATM    3  C11 UNL     1       0.484  52.820 -23.427  1.00  0.00     0.006 C 
HETATM    4  C12 UNL     1      -0.185  51.625 -22.765  1.00  0.00    -0.001 C 
HETATM    5  C13 UNL     1      -0.576  51.730 -21.284  1.00  0.00     0.000 C 
HETATM    6  C14 UNL     1       0.585  52.191 -20.388  1.00  0.00     0.010 C 
HETATM    7  C15 UNL     1       0.145  52.336 -18.931  1.00  0.00     0.036 C 
HETATM    8  C16 UNL     1      -0.563  51.103 -18.417  1.00  0.00    -0.063 A 
HETATM    9  C17 UNL     1      -0.142  50.506 -17.288  1.00  0.00     0.058 A 
HETATM   10  C18 UNL     1      -0.780  49.278 -16.766  1.00  0.00     0.172 A 
HETATM   11  O4  UNL     1      -0.414  48.764 -15.715  1.00  0.00    -0.289 OA
HETATM   12  C19 UNL     1      -1.869  48.689 -17.565  1.00  0.00     0.052 A 
HETATM   13  C20 UNL     1      -2.291  49.276 -18.692  1.00  0.00    -0.008 A 
HETATM   14  C21 UNL     1      -1.732  50.577 -19.268  1.00  0.00     0.005 A 
HETATM   15  C22 UNL     1      -2.898  51.591 -19.148  1.00  0.00     0.025 C 
HETATM   16  C23 UNL     1      -1.213  50.378 -20.770  1.00  0.00    -0.025 C 
HETATM   17  C24 UNL     1      -0.159  49.220 -20.789  1.00  0.00     0.017 C 
HETATM   18  C25 UNL     1      -2.357  49.959 -21.750  1.00  0.00     0.012 C 
HETATM   19  C26 UNL     1      -1.968  49.962 -23.245  1.00  0.00     0.011 C 
HETATM   20  C27 UNL     1      -1.389  51.315 -23.700  1.00  0.00    -0.036 C 
HETATM   21  C28 UNL     1      -2.500  52.396 -23.676  1.00  0.00     0.016 C 
ENDROOT
BRANCH   1  22
HETATM   22  C7  UNL     1      -1.452  51.343 -26.409  1.00  0.00     0.016 C 
HETATM   23  C8  UNL     1      -2.223  52.664 -26.570  1.00  0.00     0.013 C 
BRANCH  22  24
HETATM   24  C6  UNL     1      -2.490  50.182 -26.545  1.00  0.00     0.140 C 
HETATM   25  O3  UNL     1      -3.000  50.143 -27.889  1.00  0.00    -0.311 OA
HETATM   26  C5  UNL     1      -4.009  49.294 -28.209  1.00  0.00     0.292 C 
HETATM   27  C3  UNL     1      -4.721  48.625 -27.084  1.00  0.00     0.042 C 
HETATM   28  O2  UNL     1      -4.323  49.106 -29.377  1.00  0.00    -0.260 OA
HETATM   29  C2  UNL     1      -4.575  49.085 -25.820  1.00  0.00    -0.067 C 
HETATM   30  C1  UNL     1      -5.287  48.534 -24.618  1.00  0.00     0.044 C 
HETATM   31  C29 UNL     1      -3.640  50.235 -25.542  1.00  0.00     0.067 C 
BRANCH  27  32
HETATM   32  C4  UNL     1      -5.570  47.453 -27.484  1.00  0.00     0.209 C 
BRANCH  32  33
HETATM   33  O1  UNL     1      -6.788  47.865 -28.093  1.00  0.00    -0.396 OA
HETATM   34  H6  UNL     1      -6.825  48.839 -28.087  1.00  0.00     0.209 HD
ENDBRANCH  32  33
ENDBRANCH  27  32
ENDBRANCH  22  24
ENDBRANCH   1  22
TORSDOF 4
ENDMDL
MODEL 6
REMARK minimizedAffinity -7.97003746
REMARK CNNscore 0.300070316
REMARK CNNaffinity 6.53177023
REMARK  4 active torsions:
REMARK  status: ('A' for Active; 'I' for Inactive)
REMARK    1  A    between atoms: C3_3  and  C4_4 
REMARK    2  A    between atoms: C4_4  and  O1_5 
REMARK    3  A    between atoms: C6_9  and  C7_10 
REMARK    4  A    between atoms: C7_10  and  C9_12 
ROOT
HETATM    1  C9  UNL     1       1.184  51.973 -13.331  1.00  0.00     0.000 C 
HETATM    2  C10 UNL     1      -0.367  52.098 -13.311  1.00  0.00     0.006 C 
HETATM    3  C11 UNL     1      -0.743  52.941 -12.083  1.00  0.00     0.006 C 
HETATM    4  C12 UNL     1       0.596  53.442 -11.564  1.00  0.00    -0.001 C 
HETATM    5  C13 UNL     1       0.674  53.969 -10.123  1.00  0.00     0.000 C 
HETATM    6  C14 UNL     1      -0.392  55.032  -9.814  1.00  0.00     0.010 C 
HETATM    7  C15 UNL     1      -0.318  55.492  -8.359  1.00  0.00     0.036 C 
HETATM    8  C16 UNL     1       1.079  55.902  -7.954  1.00  0.00    -0.063 A 
HETATM    9  C17 UNL     1       1.295  57.110  -7.403  1.00  0.00     0.058 A 
HETATM   10  C18 UNL     1       2.649  57.569  -7.024  1.00  0.00     0.172 A 
HETATM   11  O4  UNL     1       2.829  58.656  -6.488  1.00  0.00    -0.289 OA
HETATM   12  C19 UNL     1       3.777  56.671  -7.327  1.00  0.00     0.052 A 
HETATM   13  C20 UNL     1       3.570  55.467  -7.877  1.00  0.00    -0.008 A 
HETATM   14  C21 UNL     1       2.203  54.890  -8.241  1.00  0.00     0.005 A 
HETATM   15  C22 UNL     1       2.016  53.690  -7.278  1.00  0.00     0.025 C 
HETATM   16  C23 UNL     1       2.131  54.483  -9.788  1.00  0.00    -0.025 C 
HETATM   17  C24 UNL     1       2.496  55.735 -10.655  1.00  0.00     0.017 C 
HETATM   18  C25 UNL     1       3.156  53.363 -10.163  1.00  0.00     0.012 C 
HETATM   19  C26 UNL     1       2.990  52.776 -11.582  1.00  0.00     0.011 C 
HETATM   20  C27 UNL     1       1.563  52.256 -11.840  1.00  0.00    -0.036 C 
HETATM   21  C28 UNL     1       1.294  51.006 -10.964  1.00  0.00     0.016 C 
ENDROOT
BRANCH   1  22
HETATM   22  C7  UNL     1       1.676  50.666 -14.032  1.00  0.00     0.016 C 
HETATM   23  C8  UNL     1       3.212  50.596 -14.054  1.00  0.00     0.013 C 
BRANCH  22  24
HETATM   24  C6  UNL     1       1.184  50.504 -15.507  1.00  0.00     0.140 C 
HETATM   25  O3  UNL     1       1.231  51.775 -16.177  1.00  0.00    -0.311 OA
HETATM   26  C5  UNL     1       0.731  51.902 -17.431  1.00  0.00     0.292 C 
HETATM   27  C3  UNL     1      -0.085  50.772 -17.959  1.00  0.00     0.042 C 
HETATM   28  O2  UNL     1       0.935  52.915 -18.088  1.00  0.00    -0.260 OA
HETATM   29  C2  UNL     1      -0.558  49.826 -17.115  1.00  0.00    -0.067 C 
HETATM   30  C1  UNL     1      -1.440  48.679 -17.518  1.00  0.00     0.044 C 
HETATM   31  C29 UNL     1      -0.203  49.880 -15.650  1.00  0.00     0.067 C 
BRANCH  27  32
HETATM   32  C4  UNL     1      -0.313  50.798 -19.443  1.00  0.00     0.209 C 
BRANCH  32  33
HETATM   33  O1  UNL     1      -0.139  52.104 -19.981  1.00  0.00    -0.396 OA
HETATM   34  H6  UNL     1       0.060  52.718 -19.252  1.00  0.00     0.209 HD
ENDBRANCH  32  33
ENDBRANCH  27  32
ENDBRANCH  22  24
ENDBRANCH   1  22
TORSDOF 4
ENDMDL
MODEL 7
REMARK minimizedAffinity -8.58742523
REMARK CNNscore 0.281115711
REMARK CNNaffinity 6.55853653
REMARK  4 active torsions:
REMARK  status: ('A' for Active; 'I' for Inactive)
REMARK    1  A    between atoms: C3_3  and  C4_4 
REMARK    2  A    between atoms: C4_4  and  O1_5 
REMARK    3  A    between atoms: C6_9  and  C7_10 
REMARK    4  A    between atoms: C7_10  and  C9_12 
ROOT
HETATM    1  C9  UNL     1      -1.905  49.026 -20.793  1.00  0.00     0.000 C 
HETATM    2  C10 UNL     1      -1.698  47.790 -21.715  1.00  0.00     0.006 C 
HETATM    3  C11 UNL     1      -2.986  46.954 -21.657  1.00  0.00     0.006 C 
HETATM    4  C12 UNL     1      -3.954  47.834 -20.880  1.00  0.00    -0.001 C 
HETATM    5  C13 UNL     1      -5.200  47.184 -20.261  1.00  0.00     0.000 C 
HETATM    6  C14 UNL     1      -6.007  46.352 -21.270  1.00  0.00     0.010 C 
HETATM    7  C15 UNL     1      -7.208  45.678 -20.606  1.00  0.00     0.036 C 
HETATM    8  C16 UNL     1      -8.051  46.652 -19.815  1.00  0.00    -0.063 A 
HETATM    9  C17 UNL     1      -9.373  46.742 -20.045  1.00  0.00     0.058 A 
HETATM   10  C18 UNL     1     -10.232  47.705 -19.322  1.00  0.00     0.172 A 
HETATM   11  O4  UNL     1     -11.441  47.752 -19.512  1.00  0.00    -0.289 OA
HETATM   12  C19 UNL     1      -9.573  48.614 -18.368  1.00  0.00     0.052 A 
HETATM   13  C20 UNL     1      -8.257  48.532 -18.134  1.00  0.00    -0.008 A 
HETATM   14  C21 UNL     1      -7.309  47.527 -18.790  1.00  0.00     0.005 A 
HETATM   15  C22 UNL     1      -6.848  46.610 -17.629  1.00  0.00     0.025 C 
HETATM   16  C23 UNL     1      -6.100  48.265 -19.538  1.00  0.00    -0.025 C 
HETATM   17  C24 UNL     1      -6.693  49.282 -20.571  1.00  0.00     0.017 C 
HETATM   18  C25 UNL     1      -5.202  49.090 -18.560  1.00  0.00     0.012 C 
HETATM   19  C26 UNL     1      -3.901  49.645 -19.181  1.00  0.00     0.011 C 
HETATM   20  C27 UNL     1      -3.046  48.545 -19.837  1.00  0.00    -0.036 C 
HETATM   21  C28 UNL     1      -2.480  47.600 -18.747  1.00  0.00     0.016 C 
ENDROOT
BRANCH   1  22
HETATM   22  C7  UNL     1      -0.565  49.571 -20.204  1.00  0.00     0.016 C 
HETATM   23  C8  UNL     1      -0.750  50.036 -18.750  1.00  0.00     0.013 C 
BRANCH  22  24
HETATM   24  C6  UNL     1       0.046  50.770 -20.999  1.00  0.00     0.140 C 
HETATM   25  O3  UNL     1      -0.031  51.967 -20.207  1.00  0.00    -0.311 OA
HETATM   26  C5  UNL     1       0.326  53.161 -20.741  1.00  0.00     0.292 C 
HETATM   27  C3  UNL     1       0.535  53.214 -22.217  1.00  0.00     0.042 C 
HETATM   28  O2  UNL     1       0.453  54.153 -20.035  1.00  0.00    -0.260 OA
HETATM   29  C2  UNL     1       0.083  52.208 -23.001  1.00  0.00    -0.067 C 
HETATM   30  C1  UNL     1       0.178  52.179 -24.500  1.00  0.00     0.044 C 
HETATM   31  C29 UNL     1      -0.574  51.003 -22.375  1.00  0.00     0.067 C 
BRANCH  27  32
HETATM   32  C4  UNL     1       1.258  54.435 -22.708  1.00  0.00     0.209 C 
BRANCH  32  33
HETATM   33  O1  UNL     1       2.251  54.869 -21.785  1.00  0.00    -0.396 OA
HETATM   34  H6  UNL     1       2.223  54.289 -21.002  1.00  0.00     0.209 HD
ENDBRANCH  32  33
ENDBRANCH  27  32
ENDBRANCH  22  24
ENDBRANCH   1  22
TORSDOF 4
ENDMDL
MODEL 8
REMARK minimizedAffinity -9.53709984
REMARK CNNscore 0.254618078
REMARK CNNaffinity 6.00943995
REMARK  4 active torsions:
REMARK  status: ('A' for Active; 'I' for Inactive)
REMARK    1  A    between atoms: C3_3  and  C4_4 
REMARK    2  A    between atoms: C4_4  and  O1_5 
REMARK    3  A    between atoms: C6_9  and  C7_10 
REMARK    4  A    between atoms: C7_10  and  C9_12 
ROOT
HETATM    1  C9  UNL     1      -7.125  49.172 -22.799  1.00  0.00     0.000 C 
HETATM    2  C10 UNL     1      -7.608  49.286 -21.324  1.00  0.00     0.006 C 
HETATM    3  C11 UNL     1      -6.420  49.787 -20.489  1.00  0.00     0.006 C 
HETATM    4  C12 UNL     1      -5.369  50.140 -21.531  1.00  0.00    -0.001 C 
HETATM    5  C13 UNL     1      -3.908  50.282 -21.081  1.00  0.00     0.000 C 
HETATM    6  C14 UNL     1      -3.738  51.230 -19.883  1.00  0.00     0.010 C 
HETATM    7  C15 UNL     1      -2.280  51.303 -19.430  1.00  0.00     0.036 C 
HETATM    8  C16 UNL     1      -1.335  51.598 -20.572  1.00  0.00    -0.063 A 
HETATM    9  C17 UNL     1      -0.472  52.626 -20.485  1.00  0.00     0.058 A 
HETATM   10  C18 UNL     1       0.446  52.975 -21.591  1.00  0.00     0.172 A 
HETATM   11  O4  UNL     1       1.256  53.889 -21.486  1.00  0.00    -0.289 OA
HETATM   12  C19 UNL     1       0.343  52.185 -22.831  1.00  0.00     0.052 A 
HETATM   13  C20 UNL     1      -0.516  51.161 -22.925  1.00  0.00    -0.008 A 
HETATM   14  C21 UNL     1      -1.453  50.695 -21.812  1.00  0.00     0.005 A 
HETATM   15  C22 UNL     1      -0.930  49.288 -21.425  1.00  0.00     0.025 C 
HETATM   16  C23 UNL     1      -2.981  50.696 -22.293  1.00  0.00    -0.025 C 
HETATM   17  C24 UNL     1      -3.344  52.128 -22.812  1.00  0.00     0.017 C 
HETATM   18  C25 UNL     1      -3.238  49.710 -23.479  1.00  0.00     0.012 C 
HETATM   19  C26 UNL     1      -4.724  49.504 -23.845  1.00  0.00     0.011 C 
HETATM   20  C27 UNL     1      -5.572  49.065 -22.636  1.00  0.00    -0.036 C 
HETATM   21  C28 UNL     1      -5.168  47.633 -22.204  1.00  0.00     0.016 C 
ENDROOT
BRANCH   1  22
HETATM   22  C7  UNL     1      -7.906  48.088 -23.608  1.00  0.00     0.016 C 
HETATM   23  C8  UNL     1      -7.348  46.683 -23.329  1.00  0.00     0.013 C 
BRANCH  22  24
HETATM   24  C6  UNL     1      -7.879  48.299 -25.157  1.00  0.00     0.140 C 
HETATM   25  O3  UNL     1      -9.175  48.012 -25.708  1.00  0.00    -0.311 OA
HETATM   26  C5  UNL     1      -9.357  48.006 -27.052  1.00  0.00     0.292 C 
HETATM   27  C3  UNL     1      -8.135  48.040 -27.907  1.00  0.00     0.042 C 
HETATM   28  O2  UNL     1     -10.481  47.958 -27.534  1.00  0.00    -0.260 OA
HETATM   29  C2  UNL     1      -6.924  47.771 -27.368  1.00  0.00    -0.067 C 
HETATM   30  C1  UNL     1      -5.635  47.713 -28.137  1.00  0.00     0.044 C 
HETATM   31  C29 UNL     1      -6.802  47.500 -25.889  1.00  0.00     0.067 C 
BRANCH  27  32
HETATM   32  C4  UNL     1      -8.383  48.384 -29.347  1.00  0.00     0.209 C 
BRANCH  32  33
HETATM   33  O1  UNL     1      -8.874  49.711 -29.497  1.00  0.00    -0.396 OA
HETATM   34  H6  UNL     1      -8.980  50.106 -28.612  1.00  0.00     0.209 HD
ENDBRANCH  32  33
ENDBRANCH  27  32
ENDBRANCH  22  24
ENDBRANCH   1  22
TORSDOF 4
ENDMDL
MODEL 9
REMARK minimizedAffinity -9.55156517
REMARK CNNscore 0.24461621
REMARK CNNaffinity 6.39022017
REMARK  4 active torsions:
REMARK  status: ('A' for Active; 'I' for Inactive)
REMARK    1  A    between atoms: C3_3  and  C4_4 
REMARK    2  A    between atoms: C4_4  and  O1_5 
REMARK    3  A    between atoms: C6_9  and  C7_10 
REMARK    4  A    between atoms: C7_10  and  C9_12 
ROOT
HETATM    1  C9  UNL     1      -2.726  49.994 -23.848  1.00  0.00     0.000 C 
HETATM    2  C10 UNL     1      -2.990  49.085 -25.084  1.00  0.00     0.006 C 
HETATM    3  C11 UNL     1      -4.221  48.223 -24.765  1.00  0.00     0.006 C 
HETATM    4  C12 UNL     1      -4.742  48.804 -23.459  1.00  0.00    -0.001 C 
HETATM    5  C13 UNL     1      -5.704  47.959 -22.612  1.00  0.00     0.000 C 
HETATM    6  C14 UNL     1      -6.901  47.426 -23.415  1.00  0.00     0.010 C 
HETATM    7  C15 UNL     1      -7.806  46.546 -22.552  1.00  0.00     0.036 C 
HETATM    8  C16 UNL     1      -8.199  47.219 -21.256  1.00  0.00    -0.063 A 
HETATM    9  C17 UNL     1      -9.496  47.324 -20.917  1.00  0.00     0.058 A 
HETATM   10  C18 UNL     1      -9.930  48.004 -19.678  1.00  0.00     0.172 A 
HETATM   11  O4  UNL     1     -11.112  48.061 -19.359  1.00  0.00    -0.289 OA
HETATM   12  C19 UNL     1      -8.884  48.622 -18.843  1.00  0.00     0.052 A 
HETATM   13  C20 UNL     1      -7.590  48.523 -19.176  1.00  0.00    -0.008 A 
HETATM   14  C21 UNL     1      -7.052  47.786 -20.402  1.00  0.00     0.005 A 
HETATM   15  C22 UNL     1      -6.257  46.589 -19.820  1.00  0.00     0.025 C 
HETATM   16  C23 UNL     1      -6.166  48.751 -21.323  1.00  0.00    -0.025 C 
HETATM   17  C24 UNL     1      -7.024  50.001 -21.713  1.00  0.00     0.017 C 
HETATM   18  C25 UNL     1      -4.898  49.290 -20.585  1.00  0.00     0.012 C 
HETATM   19  C26 UNL     1      -3.894  50.047 -21.481  1.00  0.00     0.011 C 
HETATM   20  C27 UNL     1      -3.449  49.215 -22.699  1.00  0.00    -0.036 C 
HETATM   21  C28 UNL     1      -2.587  48.017 -22.229  1.00  0.00     0.016 C 
ENDROOT
BRANCH   1  22
HETATM   22  C7  UNL     1      -1.223  50.392 -23.702  1.00  0.00     0.016 C 
HETATM   23  C8  UNL     1      -0.955  51.042 -22.334  1.00  0.00     0.013 C 
BRANCH  22  24
HETATM   24  C6  UNL     1      -0.712  51.386 -24.795  1.00  0.00     0.140 C 
HETATM   25  O3  UNL     1      -1.828  51.894 -25.547  1.00  0.00    -0.311 OA
HETATM   26  C5  UNL     1      -1.615  52.680 -26.632  1.00  0.00     0.292 C 
HETATM   27  C3  UNL     1      -0.220  52.765 -27.151  1.00  0.00     0.042 C 
HETATM   28  O2  UNL     1      -2.541  53.277 -27.166  1.00  0.00    -0.260 OA
HETATM   29  C2  UNL     1       0.706  51.863 -26.754  1.00  0.00    -0.067 C 
HETATM   30  C1  UNL     1       2.122  51.808 -27.254  1.00  0.00     0.044 C 
HETATM   31  C29 UNL     1       0.344  50.811 -25.736  1.00  0.00     0.067 C 
BRANCH  27  32
HETATM   32  C4  UNL     1       0.028  53.895 -28.109  1.00  0.00     0.209 C 
BRANCH  32  33
HETATM   33  O1  UNL     1      -0.299  55.155 -27.535  1.00  0.00    -0.396 OA
HETATM   34  H6  UNL     1      -0.654  55.008 -26.640  1.00  0.00     0.209 HD
ENDBRANCH  32  33
ENDBRANCH  27  32
ENDBRANCH  22  24
ENDBRANCH   1  22
TORSDOF 4
ENDMDL
