MODEL 1
REMARK minimizedAffinity -9.15893459
REMARK  7 active torsions:
REMARK  status: ('A' for Active; 'I' for Inactive)
REMARK    1  A    between atoms: C2_2  and  C4_4 
REMARK    2  A    between atoms: C7_7  and  O1_9 
REMARK    3  A    between atoms: C9_10  and  C10_11 
REMARK    4  A    between atoms: C11_12  and  C12_13 
REMARK    5  A    between atoms: C14_15  and  C15_16 
REMARK    6  A    between atoms: C24_26  and  C26_28 
REMARK    7  A    between atoms: C29_32  and  O4_34 
ROOT
HETATM    1  C15 UNL     1      -6.935  50.212 -22.010  1.00  0.00     0.149 C 
HETATM    2  C16 UNL     1      -6.333  49.678 -20.705  1.00  0.00     0.054 C 
HETATM    3  C17 UNL     1      -6.717  48.169 -20.640  1.00  0.00     0.050 C 
HETATM    4  C18 UNL     1      -8.026  48.262 -21.450  1.00  0.00     0.272 C 
HETATM    5  O2  UNL     1      -8.631  47.065 -21.875  1.00  0.00    -0.360 OA
HETATM    6  C19 UNL     1      -7.970  46.393 -22.928  1.00  0.00     0.171 C 
HETATM    7  C20 UNL     1      -7.058  45.323 -22.371  1.00  0.00     0.027 C 
HETATM    8  C21 UNL     1      -5.821  45.805 -21.620  1.00  0.00     0.012 C 
HETATM    9  C22 UNL     1      -5.602  47.321 -21.372  1.00  0.00     0.032 C 
HETATM   10  C23 UNL     1      -4.255  47.444 -20.614  1.00  0.00    -0.066 C 
HETATM   11  C24 UNL     1      -3.090  47.803 -21.220  1.00  0.00    -0.021 C 
HETATM   12  C25 UNL     1      -2.930  48.121 -22.687  1.00  0.00     0.052 C 
HETATM   13  C27 UNL     1      -4.387  47.072 -19.141  1.00  0.00     0.038 C 
HETATM   14  C28 UNL     1      -5.540  47.772 -18.422  1.00  0.00     0.042 C 
HETATM   15  C29 UNL     1      -6.891  47.672 -19.165  1.00  0.00     0.067 C 
HETATM   16  C30 UNL     1      -7.952  48.418 -18.333  1.00  0.00     0.047 C 
HETATM   17  O5  UNL     1      -7.755  49.160 -22.543  1.00  0.00    -0.351 OA
ENDROOT
BRANCH   1  18
HETATM   18  C14 UNL     1      -5.902  50.567 -23.036  1.00  0.00     0.011 C 
HETATM   19  C12 UNL     1      -4.737  51.234 -22.870  1.00  0.00    -0.064 C 
HETATM   20  C13 UNL     1      -4.256  51.787 -21.553  1.00  0.00     0.048 C 
BRANCH  19  21
HETATM   21  C11 UNL     1      -3.876  51.398 -24.041  1.00  0.00     0.003 C 
HETATM   22  C10 UNL     1      -2.576  51.737 -24.041  1.00  0.00    -0.018 C 
BRANCH  22  23
HETATM   23  C9  UNL     1      -1.686  51.852 -25.264  1.00  0.00     0.050 C 
HETATM   24  C4  UNL     1      -1.325  50.536 -26.011  1.00  0.00     0.024 C 
HETATM   25  C5  UNL     1      -0.053  50.910 -26.784  1.00  0.00     0.013 C 
HETATM   26  C6  UNL     1       0.740  51.691 -25.744  1.00  0.00     0.039 C 
HETATM   27  C7  UNL     1      -0.312  52.573 -25.040  1.00  0.00     0.062 C 
HETATM   28  C8  UNL     1       0.094  52.844 -23.589  1.00  0.00     0.046 C 
BRANCH  24  29
HETATM   29  C2  UNL     1      -2.441  49.964 -26.872  1.00  0.00    -0.088 C 
HETATM   30  C1  UNL     1      -2.946  50.665 -27.906  1.00  0.00     0.014 C 
HETATM   31  C3  UNL     1      -2.979  48.595 -26.541  1.00  0.00     0.043 C 
ENDBRANCH  24  29
BRANCH  27  32
HETATM   32  O1  UNL     1      -0.343  53.835 -25.726  1.00  0.00    -0.390 OA
HETATM   33  H14 UNL     1      -0.995  54.400 -25.275  1.00  0.00     0.210 HD
ENDBRANCH  27  32
ENDBRANCH  22  23
ENDBRANCH  19  21
ENDBRANCH   1  18
BRANCH  15  34
HETATM   34  O4  UNL     1      -7.300  46.299 -19.161  1.00  0.00    -0.389 OA
HETATM   35  H44 UNL     1      -7.430  46.014 -18.240  1.00  0.00     0.210 HD
ENDBRANCH  15  34
BRANCH  11  36
HETATM   36  C26 UNL     1      -1.788  47.944 -20.486  1.00  0.00     0.265 C 
HETATM   37  O3  UNL     1      -0.712  47.613 -20.975  1.00  0.00    -0.302 OA
ENDBRANCH  11  36
TORSDOF 7
ENDMDL
MODEL 2
REMARK minimizedAffinity -8.9704752
REMARK  7 active torsions:
REMARK  status: ('A' for Active; 'I' for Inactive)
REMARK    1  A    between atoms: C2_2  and  C4_4 
REMARK    2  A    between atoms: C7_7  and  O1_9 
REMARK    3  A    between atoms: C9_10  and  C10_11 
REMARK    4  A    between atoms: C11_12  and  C12_13 
REMARK    5  A    between atoms: C14_15  and  C15_16 
REMARK    6  A    between atoms: C24_26  and  C26_28 
REMARK    7  A    between atoms: C29_32  and  O4_34 
ROOT
HETATM    1  C15 UNL     1      -2.643  48.147 -22.375  1.00  0.00     0.149 C 
HETATM    2  C16 UNL     1      -1.994  48.706 -23.647  1.00  0.00     0.054 C 
HETATM    3  C17 UNL     1      -3.025  49.706 -24.253  1.00  0.00     0.050 C 
HETATM    4  C18 UNL     1      -4.301  49.029 -23.711  1.00  0.00     0.272 C 
HETATM    5  O2  UNL     1      -5.517  49.731 -23.803  1.00  0.00    -0.360 OA
HETATM    6  C19 UNL     1      -5.657  50.818 -22.912  1.00  0.00     0.171 C 
HETATM    7  C20 UNL     1      -5.265  52.107 -23.597  1.00  0.00     0.027 C 
HETATM    8  C21 UNL     1      -3.784  52.287 -23.918  1.00  0.00     0.012 C 
HETATM    9  C22 UNL     1      -2.781  51.139 -23.632  1.00  0.00     0.032 C 
HETATM   10  C23 UNL     1      -1.385  51.670 -24.050  1.00  0.00    -0.066 C 
HETATM   11  C24 UNL     1      -0.466  52.130 -23.157  1.00  0.00    -0.021 C 
HETATM   12  C25 UNL     1      -0.659  52.200 -21.662  1.00  0.00     0.052 C 
HETATM   13  C27 UNL     1      -1.194  51.658 -25.562  1.00  0.00     0.038 C 
HETATM   14  C28 UNL     1      -1.546  50.327 -26.226  1.00  0.00     0.042 C 
HETATM   15  C29 UNL     1      -2.929  49.772 -25.815  1.00  0.00     0.067 C 
HETATM   16  C30 UNL     1      -3.148  48.436 -26.551  1.00  0.00     0.047 C 
HETATM   17  O5  UNL     1      -3.996  48.628 -22.362  1.00  0.00    -0.351 OA
ENDROOT
BRANCH   1  18
HETATM   18  C14 UNL     1      -1.969  48.606 -21.118  1.00  0.00     0.011 C 
HETATM   19  C12 UNL     1      -2.423  49.465 -20.178  1.00  0.00    -0.064 C 
HETATM   20  C13 UNL     1      -3.754  50.170 -20.244  1.00  0.00     0.048 C 
BRANCH  19  21
HETATM   21  C11 UNL     1      -1.578  49.699 -19.007  1.00  0.00     0.003 C 
HETATM   22  C10 UNL     1      -1.860  50.488 -17.957  1.00  0.00    -0.018 C 
BRANCH  22  23
HETATM   23  C9  UNL     1      -0.992  50.678 -16.727  1.00  0.00     0.050 C 
HETATM   24  C4  UNL     1       0.546  50.760 -16.945  1.00  0.00     0.024 C 
HETATM   25  C5  UNL     1       1.115  50.399 -15.566  1.00  0.00     0.013 C 
HETATM   26  C6  UNL     1       0.248  49.213 -15.159  1.00  0.00     0.039 C 
HETATM   27  C7  UNL     1      -1.178  49.612 -15.593  1.00  0.00     0.062 C 
HETATM   28  C8  UNL     1      -2.002  48.370 -15.943  1.00  0.00     0.046 C 
BRANCH  24  29
HETATM   29  C2  UNL     1       1.041  52.085 -17.504  1.00  0.00    -0.088 C 
HETATM   30  C1  UNL     1       0.399  52.691 -18.522  1.00  0.00     0.014 C 
HETATM   31  C3  UNL     1       2.275  52.707 -16.900  1.00  0.00     0.043 C 
ENDBRANCH  24  29
BRANCH  27  32
HETATM   32  O1  UNL     1      -1.807  50.249 -14.468  1.00  0.00    -0.390 OA
HETATM   33  H14 UNL     1      -2.713  50.488 -14.734  1.00  0.00     0.210 HD
ENDBRANCH  27  32
ENDBRANCH  22  23
ENDBRANCH  19  21
ENDBRANCH   1  18
BRANCH  15  34
HETATM   34  O4  UNL     1      -3.933  50.658 -26.325  1.00  0.00    -0.389 OA
HETATM   35  H44 UNL     1      -3.878  50.665 -27.297  1.00  0.00     0.210 HD
ENDBRANCH  15  34
BRANCH  11  36
HETATM   36  C26 UNL     1       0.893  52.626 -23.556  1.00  0.00     0.265 C 
HETATM   37  O3  UNL     1       1.065  53.425 -24.473  1.00  0.00    -0.302 OA
ENDBRANCH  11  36
TORSDOF 7
ENDMDL
MODEL 3
REMARK minimizedAffinity -8.81209469
REMARK  7 active torsions:
REMARK  status: ('A' for Active; 'I' for Inactive)
REMARK    1  A    between atoms: C2_2  and  C4_4 
REMARK    2  A    between atoms: C7_7  and  O1_9 
REMARK    3  A    between atoms: C9_10  and  C10_11 
REMARK    4  A    between atoms: C11_12  and  C12_13 
REMARK    5  A    between atoms: C14_15  and  C15_16 
REMARK    6  A    between atoms: C24_26  and  C26_28 
REMARK    7  A    between atoms: C29_32  and  O4_34 
ROOT
HETATM    1  C15 UNL     1      -6.427  49.686 -22.554  1.00  0.00     0.149 C 
HETATM    2  C16 UNL     1      -5.154  50.541 -22.568  1.00  0.00     0.054 C 
HETATM    3  C17 UNL     1      -4.072  49.716 -21.807  1.00  0.00     0.050 C 
HETATM    4  C18 UNL     1      -5.030  48.942 -20.879  1.00  0.00     0.272 C 
HETATM    5  O2  UNL     1      -4.514  47.857 -20.146  1.00  0.00    -0.360 OA
HETATM    6  C19 UNL     1      -4.228  46.697 -20.900  1.00  0.00     0.171 C 
HETATM    7  C20 UNL     1      -2.768  46.676 -21.290  1.00  0.00     0.027 C 
HETATM    8  C21 UNL     1      -2.320  47.710 -22.317  1.00  0.00     0.012 C 
HETATM    9  C22 UNL     1      -3.321  48.778 -22.834  1.00  0.00     0.032 C 
HETATM   10  C23 UNL     1      -2.545  49.634 -23.869  1.00  0.00    -0.066 C 
HETATM   11  C24 UNL     1      -2.673  49.471 -25.214  1.00  0.00    -0.021 C 
HETATM   12  C25 UNL     1      -3.560  48.455 -25.891  1.00  0.00     0.052 C 
HETATM   13  C27 UNL     1      -1.602  50.628 -23.201  1.00  0.00     0.038 C 
HETATM   14  C28 UNL     1      -2.255  51.469 -22.105  1.00  0.00     0.042 C 
HETATM   15  C29 UNL     1      -3.045  50.638 -21.068  1.00  0.00     0.067 C 
HETATM   16  C30 UNL     1      -3.647  51.609 -20.034  1.00  0.00     0.047 C 
HETATM   17  O5  UNL     1      -6.158  48.568 -21.694  1.00  0.00    -0.351 OA
ENDROOT
BRANCH   1  18
HETATM   18  C14 UNL     1      -6.800  49.159 -23.907  1.00  0.00     0.011 C 
HETATM   19  C12 UNL     1      -7.086  47.889 -24.272  1.00  0.00    -0.064 C 
HETATM   20  C13 UNL     1      -7.059  46.710 -23.334  1.00  0.00     0.048 C 
BRANCH  19  21
HETATM   21  C11 UNL     1      -7.479  47.655 -25.662  1.00  0.00     0.003 C 
HETATM   22  C10 UNL     1      -6.661  47.385 -26.692  1.00  0.00    -0.018 C 
BRANCH  22  23
HETATM   23  C9  UNL     1      -7.092  47.094 -28.118  1.00  0.00     0.050 C 
HETATM   24  C4  UNL     1      -7.160  45.602 -28.553  1.00  0.00     0.024 C 
HETATM   25  C5  UNL     1      -7.072  45.679 -30.083  1.00  0.00     0.013 C 
HETATM   26  C6  UNL     1      -5.967  46.708 -30.292  1.00  0.00     0.039 C 
HETATM   27  C7  UNL     1      -6.252  47.798 -29.239  1.00  0.00     0.062 C 
HETATM   28  C8  UNL     1      -4.952  48.478 -28.801  1.00  0.00     0.046 C 
BRANCH  24  29
HETATM   29  C2  UNL     1      -8.367  44.839 -28.028  1.00  0.00    -0.088 C 
HETATM   30  C1  UNL     1      -9.562  44.925 -28.645  1.00  0.00     0.014 C 
HETATM   31  C3  UNL     1      -8.202  43.987 -26.795  1.00  0.00     0.043 C 
ENDBRANCH  24  29
BRANCH  27  32
HETATM   32  O1  UNL     1      -7.076  48.796 -29.866  1.00  0.00    -0.390 OA
HETATM   33  H14 UNL     1      -7.244  49.494 -29.208  1.00  0.00     0.210 HD
ENDBRANCH  27  32
ENDBRANCH  22  23
ENDBRANCH  19  21
ENDBRANCH   1  18
BRANCH  15  34
HETATM   34  O4  UNL     1      -2.110  49.835 -20.338  1.00  0.00    -0.389 OA
HETATM   35  H44 UNL     1      -1.497  50.423 -19.863  1.00  0.00     0.210 HD
ENDBRANCH  15  34
BRANCH  11  36
HETATM   36  C26 UNL     1      -1.938  50.311 -26.219  1.00  0.00     0.265 C 
HETATM   37  O3  UNL     1      -0.720  50.262 -26.360  1.00  0.00    -0.302 OA
ENDBRANCH  11  36
TORSDOF 7
ENDMDL
MODEL 4
REMARK minimizedAffinity -8.76717854
REMARK  7 active torsions:
REMARK  status: ('A' for Active; 'I' for Inactive)
REMARK    1  A    between atoms: C2_2  and  C4_4 
REMARK    2  A    between atoms: C7_7  and  O1_9 
REMARK    3  A    between atoms: C9_10  and  C10_11 
REMARK    4  A    between atoms: C11_12  and  C12_13 
REMARK    5  A    between atoms: C14_15  and  C15_16 
REMARK    6  A    between atoms: C24_26  and  C26_28 
REMARK    7  A    between atoms: C29_32  and  O4_34 
ROOT
HETATM    1  C15 UNL     1      -1.234  48.491 -19.789  1.00  0.00     0.149 C 
HETATM    2  C16 UNL     1      -0.900  49.086 -21.162  1.00  0.00     0.054 C 
HETATM    3  C17 UNL     1      -2.204  49.780 -21.660  1.00  0.00     0.050 C 
HETATM    4  C18 UNL     1      -3.206  48.873 -20.916  1.00  0.00     0.272 C 
HETATM    5  O2  UNL     1      -4.555  49.274 -20.867  1.00  0.00    -0.360 OA
HETATM    6  C19 UNL     1      -4.832  50.364 -20.012  1.00  0.00     0.171 C 
HETATM    7  C20 UNL     1      -4.842  51.654 -20.801  1.00  0.00     0.027 C 
HETATM    8  C21 UNL     1      -3.498  52.140 -21.333  1.00  0.00     0.012 C 
HETATM    9  C22 UNL     1      -2.225  51.272 -21.141  1.00  0.00     0.032 C 
HETATM   10  C23 UNL     1      -1.058  52.073 -21.773  1.00  0.00    -0.066 C 
HETATM   11  C24 UNL     1      -0.167  52.794 -21.038  1.00  0.00    -0.021 C 
HETATM   12  C25 UNL     1      -0.180  52.930 -19.536  1.00  0.00     0.052 C 
HETATM   13  C27 UNL     1      -1.062  51.992 -23.296  1.00  0.00     0.038 C 
HETATM   14  C28 UNL     1      -1.173  50.571 -23.845  1.00  0.00     0.042 C 
HETATM   15  C29 UNL     1      -2.324  49.749 -23.221  1.00  0.00     0.067 C 
HETATM   16  C30 UNL     1      -2.315  48.347 -23.861  1.00  0.00     0.047 C 
HETATM   17  O5  UNL     1      -2.649  48.654 -19.606  1.00  0.00    -0.351 OA
ENDROOT
BRANCH   1  18
HETATM   18  C14 UNL     1      -0.532  49.183 -18.659  1.00  0.00     0.011 C 
HETATM   19  C12 UNL     1      -0.754  49.073 -17.329  1.00  0.00    -0.064 C 
HETATM   20  C13 UNL     1      -1.821  48.202 -16.716  1.00  0.00     0.048 C 
BRANCH  19  21
HETATM   21  C11 UNL     1       0.121  49.825 -16.431  1.00  0.00     0.003 C 
HETATM   22  C10 UNL     1      -0.175  50.971 -15.794  1.00  0.00    -0.018 C 
BRANCH  22  23
HETATM   23  C9  UNL     1       0.730  51.710 -14.825  1.00  0.00     0.050 C 
HETATM   24  C4  UNL     1       2.260  51.458 -14.945  1.00  0.00     0.024 C 
HETATM   25  C5  UNL     1       2.791  51.870 -13.565  1.00  0.00     0.013 C 
HETATM   26  C6  UNL     1       1.768  51.243 -12.624  1.00  0.00     0.039 C 
HETATM   27  C7  UNL     1       0.408  51.504 -13.305  1.00  0.00     0.062 C 
HETATM   28  C8  UNL     1      -0.591  50.398 -12.955  1.00  0.00     0.046 C 
BRANCH  24  29
HETATM   29  C2  UNL     1       2.933  52.161 -16.114  1.00  0.00    -0.088 C 
HETATM   30  C1  UNL     1       2.204  52.693 -17.114  1.00  0.00     0.014 C 
HETATM   31  C3  UNL     1       4.439  52.244 -16.136  1.00  0.00     0.043 C 
ENDBRANCH  24  29
BRANCH  27  32
HETATM   32  O1  UNL     1      -0.106  52.738 -12.777  1.00  0.00    -0.390 OA
HETATM   33  H14 UNL     1      -0.972  52.898 -13.193  1.00  0.00     0.210 HD
ENDBRANCH  27  32
ENDBRANCH  22  23
ENDBRANCH  19  21
ENDBRANCH   1  18
BRANCH  15  34
HETATM   34  O4  UNL     1      -3.564  50.344 -23.623  1.00  0.00    -0.389 OA
HETATM   35  H44 UNL     1      -3.635  50.292 -24.592  1.00  0.00     0.210 HD
ENDBRANCH  15  34
BRANCH  11  36
HETATM   36  C26 UNL     1       0.977  53.554 -21.645  1.00  0.00     0.265 C 
HETATM   37  O3  UNL     1       1.566  54.452 -21.051  1.00  0.00    -0.302 OA
ENDBRANCH  11  36
TORSDOF 7
ENDMDL
MODEL 5
REMARK minimizedAffinity -8.53610134
REMARK  7 active torsions:
REMARK  status: ('A' for Active; 'I' for Inactive)
REMARK    1  A    between atoms: C2_2  and  C4_4 
REMARK    2  A    between atoms: C7_7  and  O1_9 
REMARK    3  A    between atoms: C9_10  and  C10_11 
REMARK    4  A    between atoms: C11_12  and  C12_13 
REMARK    5  A    between atoms: C14_15  and  C15_16 
REMARK    6  A    between atoms: C24_26  and  C26_28 
REMARK    7  A    between atoms: C29_32  and  O4_34 
ROOT
HETATM    1  C15 UNL     1      -4.023  46.692 -21.165  1.00  0.00     0.149 C 
HETATM    2  C16 UNL     1      -5.076  47.151 -22.181  1.00  0.00     0.054 C 
HETATM    3  C17 UNL     1      -6.347  47.510 -21.352  1.00  0.00     0.050 C 
HETATM    4  C18 UNL     1      -6.101  46.536 -20.182  1.00  0.00     0.272 C 
HETATM    5  O2  UNL     1      -6.891  46.674 -19.025  1.00  0.00    -0.360 OA
HETATM    6  C19 UNL     1      -6.593  47.795 -18.218  1.00  0.00     0.171 C 
HETATM    7  C20 UNL     1      -7.516  48.942 -18.561  1.00  0.00     0.027 C 
HETATM    8  C21 UNL     1      -7.312  49.601 -19.921  1.00  0.00     0.012 C 
HETATM    9  C22 UNL     1      -6.267  49.027 -20.915  1.00  0.00     0.032 C 
HETATM   10  C23 UNL     1      -6.309  49.944 -22.164  1.00  0.00    -0.066 C 
HETATM   11  C24 UNL     1      -5.384  50.914 -22.406  1.00  0.00    -0.021 C 
HETATM   12  C25 UNL     1      -4.210  51.243 -21.517  1.00  0.00     0.052 C 
HETATM   13  C27 UNL     1      -7.520  49.662 -23.046  1.00  0.00     0.038 C 
HETATM   14  C28 UNL     1      -7.713  48.185 -23.387  1.00  0.00     0.042 C 
HETATM   15  C29 UNL     1      -7.664  47.249 -22.158  1.00  0.00     0.067 C 
HETATM   16  C30 UNL     1      -7.868  45.802 -22.648  1.00  0.00     0.047 C 
HETATM   17  O5  UNL     1      -4.691  46.604 -19.897  1.00  0.00    -0.351 OA
ENDROOT
BRANCH   1  18
HETATM   18  C14 UNL     1      -2.878  47.649 -21.028  1.00  0.00     0.011 C 
HETATM   19  C12 UNL     1      -2.267  48.383 -21.986  1.00  0.00    -0.064 C 
HETATM   20  C13 UNL     1      -2.639  48.350 -23.446  1.00  0.00     0.048 C 
BRANCH  19  21
HETATM   21  C11 UNL     1      -1.199  49.291 -21.567  1.00  0.00     0.003 C 
HETATM   22  C10 UNL     1      -1.212  50.109 -20.503  1.00  0.00    -0.018 C 
BRANCH  22  23
HETATM   23  C9  UNL     1      -0.072  51.007 -20.056  1.00  0.00     0.050 C 
HETATM   24  C4  UNL     1      -0.173  51.635 -18.637  1.00  0.00     0.024 C 
HETATM   25  C5  UNL     1       0.770  52.842 -18.720  1.00  0.00     0.013 C 
HETATM   26  C6  UNL     1       0.417  53.436 -20.079  1.00  0.00     0.039 C 
HETATM   27  C7  UNL     1       0.255  52.212 -21.004  1.00  0.00     0.062 C 
HETATM   28  C8  UNL     1      -0.754  52.506 -22.117  1.00  0.00     0.046 C 
BRANCH  24  29
HETATM   29  C2  UNL     1       0.126  50.679 -17.492  1.00  0.00    -0.088 C 
HETATM   30  C1  UNL     1      -0.468  49.472 -17.426  1.00  0.00     0.014 C 
HETATM   31  C3  UNL     1       1.099  51.113 -16.425  1.00  0.00     0.043 C 
ENDBRANCH  24  29
BRANCH  27  32
HETATM   32  O1  UNL     1       1.529  51.970 -21.623  1.00  0.00    -0.390 OA
HETATM   33  H14 UNL     1       1.427  51.207 -22.220  1.00  0.00     0.210 HD
ENDBRANCH  27  32
ENDBRANCH  22  23
ENDBRANCH  19  21
ENDBRANCH   1  18
BRANCH  15  34
HETATM   34  O4  UNL     1      -8.800  47.537 -21.334  1.00  0.00    -0.389 OA
HETATM   35  H44 UNL     1      -9.609  47.343 -21.840  1.00  0.00     0.210 HD
ENDBRANCH  15  34
BRANCH  11  36
HETATM   36  C26 UNL     1      -5.410  51.790 -23.625  1.00  0.00     0.265 C 
HETATM   37  O3  UNL     1      -4.594  51.683 -24.536  1.00  0.00    -0.302 OA
ENDBRANCH  11  36
TORSDOF 7
ENDMDL
MODEL 6
REMARK minimizedAffinity -8.51422977
REMARK  7 active torsions:
REMARK  status: ('A' for Active; 'I' for Inactive)
REMARK    1  A    between atoms: C2_2  and  C4_4 
REMARK    2  A    between atoms: C7_7  and  O1_9 
REMARK    3  A    between atoms: C9_10  and  C10_11 
REMARK    4  A    between atoms: C11_12  and  C12_13 
REMARK    5  A    between atoms: C14_15  and  C15_16 
REMARK    6  A    between atoms: C24_26  and  C26_28 
REMARK    7  A    between atoms: C29_32  and  O4_34 
ROOT
HETATM    1  C15 UNL     1      -6.011  47.873 -29.058  1.00  0.00     0.149 C 
HETATM    2  C16 UNL     1      -7.396  48.296 -29.562  1.00  0.00     0.054 C 
HETATM    3  C17 UNL     1      -8.046  47.012 -30.163  1.00  0.00     0.050 C 
HETATM    4  C18 UNL     1      -6.740  46.307 -30.583  1.00  0.00     0.272 C 
HETATM    5  O2  UNL     1      -6.809  44.956 -30.970  1.00  0.00    -0.360 OA
HETATM    6  C19 UNL     1      -7.027  44.035 -29.921  1.00  0.00     0.171 C 
HETATM    7  C20 UNL     1      -8.499  43.714 -29.807  1.00  0.00     0.027 C 
HETATM    8  C21 UNL     1      -9.404  44.831 -29.297  1.00  0.00     0.012 C 
HETATM    9  C22 UNL     1      -8.819  46.242 -29.020  1.00  0.00     0.032 C 
HETATM   10  C23 UNL     1      -9.998  47.104 -28.498  1.00  0.00    -0.066 C 
HETATM   11  C24 UNL     1     -10.188  47.384 -27.179  1.00  0.00    -0.021 C 
HETATM   12  C25 UNL     1      -9.310  46.906 -26.049  1.00  0.00     0.052 C 
HETATM   13  C27 UNL     1     -10.926  47.549 -29.622  1.00  0.00     0.038 C 
HETATM   14  C28 UNL     1     -10.207  48.184 -30.812  1.00  0.00     0.042 C 
HETATM   15  C29 UNL     1      -9.020  47.347 -31.342  1.00  0.00     0.067 C 
HETATM   16  C30 UNL     1      -8.392  48.103 -32.529  1.00  0.00     0.047 C 
HETATM   17  O5  UNL     1      -5.806  46.524 -29.507  1.00  0.00    -0.351 OA
ENDROOT
BRANCH   1  18
HETATM   18  C14 UNL     1      -5.895  47.892 -27.563  1.00  0.00     0.011 C 
HETATM   19  C12 UNL     1      -4.832  48.235 -26.800  1.00  0.00    -0.064 C 
HETATM   20  C13 UNL     1      -3.496  48.664 -27.350  1.00  0.00     0.048 C 
BRANCH  19  21
HETATM   21  C11 UNL     1      -5.006  48.220 -25.348  1.00  0.00     0.003 C 
HETATM   22  C10 UNL     1      -4.078  48.521 -24.425  1.00  0.00    -0.018 C 
BRANCH  22  23
HETATM   23  C9  UNL     1      -4.293  48.548 -22.923  1.00  0.00     0.050 C 
HETATM   24  C4  UNL     1      -3.268  47.779 -22.041  1.00  0.00     0.024 C 
HETATM   25  C5  UNL     1      -4.038  47.542 -20.735  1.00  0.00     0.013 C 
HETATM   26  C6  UNL     1      -5.410  47.111 -21.240  1.00  0.00     0.039 C 
HETATM   27  C7  UNL     1      -5.696  48.054 -22.428  1.00  0.00     0.062 C 
HETATM   28  C8  UNL     1      -6.587  47.362 -23.463  1.00  0.00     0.046 C 
BRANCH  24  29
HETATM   29  C2  UNL     1      -1.927  48.475 -21.866  1.00  0.00    -0.088 C 
HETATM   30  C1  UNL     1      -0.948  47.916 -21.128  1.00  0.00     0.014 C 
HETATM   31  C3  UNL     1      -1.716  49.812 -22.530  1.00  0.00     0.043 C 
ENDBRANCH  24  29
BRANCH  27  32
HETATM   32  O1  UNL     1      -6.421  49.183 -21.914  1.00  0.00    -0.390 OA
HETATM   33  H14 UNL     1      -6.618  49.773 -22.664  1.00  0.00     0.210 HD
ENDBRANCH  27  32
ENDBRANCH  22  23
ENDBRANCH  19  21
ENDBRANCH   1  18
BRANCH  15  34
HETATM   34  O4  UNL     1      -9.544  46.134 -31.896  1.00  0.00    -0.389 OA
HETATM   35  H44 UNL     1     -10.125  46.359 -32.645  1.00  0.00     0.210 HD
ENDBRANCH  15  34
BRANCH  11  36
HETATM   36  C26 UNL     1     -11.316  48.235 -26.673  1.00  0.00     0.265 C 
HETATM   37  O3  UNL     1     -12.176  47.809 -25.908  1.00  0.00    -0.302 OA
ENDBRANCH  11  36
TORSDOF 7
ENDMDL
MODEL 7
REMARK minimizedAffinity -8.31814957
REMARK  7 active torsions:
REMARK  status: ('A' for Active; 'I' for Inactive)
REMARK    1  A    between atoms: C2_2  and  C4_4 
REMARK    2  A    between atoms: C7_7  and  O1_9 
REMARK    3  A    between atoms: C9_10  and  C10_11 
REMARK    4  A    between atoms: C11_12  and  C12_13 
REMARK    5  A    between atoms: C14_15  and  C15_16 
REMARK    6  A    between atoms: C24_26  and  C26_28 
REMARK    7  A    between atoms: C29_32  and  O4_34 
ROOT
HETATM    1  C15 UNL     1      -2.694  48.888 -24.425  1.00  0.00     0.149 C 
HETATM    2  C16 UNL     1      -2.573  48.079 -23.128  1.00  0.00     0.054 C 
HETATM    3  C17 UNL     1      -2.972  49.051 -21.976  1.00  0.00     0.050 C 
HETATM    4  C18 UNL     1      -2.532  50.361 -22.660  1.00  0.00     0.272 C 
HETATM    5  O2  UNL     1      -2.928  51.580 -22.079  1.00  0.00    -0.360 OA
HETATM    6  C19 UNL     1      -4.295  51.905 -22.225  1.00  0.00     0.171 C 
HETATM    7  C20 UNL     1      -5.067  51.473 -20.999  1.00  0.00     0.027 C 
HETATM    8  C21 UNL     1      -5.229  49.971 -20.788  1.00  0.00     0.012 C 
HETATM    9  C22 UNL     1      -4.534  48.971 -21.750  1.00  0.00     0.032 C 
HETATM   10  C23 UNL     1      -4.931  47.554 -21.260  1.00  0.00    -0.066 C 
HETATM   11  C24 UNL     1      -5.899  46.805 -21.855  1.00  0.00    -0.021 C 
HETATM   12  C25 UNL     1      -6.721  47.227 -23.048  1.00  0.00     0.052 C 
HETATM   13  C27 UNL     1      -4.148  47.134 -20.021  1.00  0.00     0.038 C 
HETATM   14  C28 UNL     1      -2.636  47.318 -20.146  1.00  0.00     0.042 C 
HETATM   15  C29 UNL     1      -2.217  48.720 -20.644  1.00  0.00     0.067 C 
HETATM   16  C30 UNL     1      -0.679  48.761 -20.724  1.00  0.00     0.047 C 
HETATM   17  O5  UNL     1      -2.942  50.248 -24.036  1.00  0.00    -0.351 OA
ENDROOT
BRANCH   1  18
HETATM   18  C14 UNL     1      -3.823  48.436 -25.300  1.00  0.00     0.011 C 
HETATM   19  C12 UNL     1      -4.040  48.702 -26.608  1.00  0.00    -0.064 C 
HETATM   20  C13 UNL     1      -3.144  49.566 -27.459  1.00  0.00     0.048 C 
BRANCH  19  21
HETATM   21  C11 UNL     1      -5.204  48.082 -27.243  1.00  0.00     0.003 C 
HETATM   22  C10 UNL     1      -5.443  47.987 -28.561  1.00  0.00    -0.018 C 
BRANCH  22  23
HETATM   23  C9  UNL     1      -6.632  47.295 -29.202  1.00  0.00     0.050 C 
HETATM   24  C4  UNL     1      -7.248  46.085 -28.442  1.00  0.00     0.024 C 
HETATM   25  C5  UNL     1      -7.993  45.322 -29.546  1.00  0.00     0.013 C 
HETATM   26  C6  UNL     1      -6.989  45.347 -30.693  1.00  0.00     0.039 C 
HETATM   27  C7  UNL     1      -6.409  46.777 -30.665  1.00  0.00     0.062 C 
HETATM   28  C8  UNL     1      -4.970  46.786 -31.187  1.00  0.00     0.046 C 
BRANCH  24  29
HETATM   29  C2  UNL     1      -8.105  46.454 -27.242  1.00  0.00    -0.088 C 
HETATM   30  C1  UNL     1      -8.123  45.678 -26.140  1.00  0.00     0.014 C 
HETATM   31  C3  UNL     1      -8.944  47.705 -27.311  1.00  0.00     0.043 C 
ENDBRANCH  24  29
BRANCH  27  32
HETATM   32  O1  UNL     1      -7.202  47.578 -31.557  1.00  0.00    -0.390 OA
HETATM   33  H14 UNL     1      -6.829  48.478 -31.554  1.00  0.00     0.210 HD
ENDBRANCH  27  32
ENDBRANCH  22  23
ENDBRANCH  19  21
ENDBRANCH   1  18
BRANCH  15  34
HETATM   34  O4  UNL     1      -2.572  49.674 -19.636  1.00  0.00    -0.389 OA
HETATM   35  H44 UNL     1      -2.074  49.472 -18.825  1.00  0.00     0.210 HD
ENDBRANCH  15  34
BRANCH  11  36
HETATM   36  C26 UNL     1      -6.271  45.425 -21.396  1.00  0.00     0.265 C 
HETATM   37  O3  UNL     1      -5.607  44.431 -21.678  1.00  0.00    -0.302 OA
ENDBRANCH  11  36
TORSDOF 7
ENDMDL
MODEL 8
REMARK minimizedAffinity -8.26137352
REMARK  7 active torsions:
REMARK  status: ('A' for Active; 'I' for Inactive)
REMARK    1  A    between atoms: C2_2  and  C4_4 
REMARK    2  A    between atoms: C7_7  and  O1_9 
REMARK    3  A    between atoms: C9_10  and  C10_11 
REMARK    4  A    between atoms: C11_12  and  C12_13 
REMARK    5  A    between atoms: C14_15  and  C15_16 
REMARK    6  A    between atoms: C24_26  and  C26_28 
REMARK    7  A    between atoms: C29_32  and  O4_34 
ROOT
HETATM    1  C15 UNL     1      -2.224  47.264 -20.994  1.00  0.00     0.149 C 
HETATM    2  C16 UNL     1      -3.277  46.167 -21.192  1.00  0.00     0.054 C 
HETATM    3  C17 UNL     1      -4.319  46.360 -20.048  1.00  0.00     0.050 C 
HETATM    4  C18 UNL     1      -3.362  46.982 -19.011  1.00  0.00     0.272 C 
HETATM    5  O2  UNL     1      -3.920  47.565 -17.858  1.00  0.00    -0.360 OA
HETATM    6  C19 UNL     1      -4.579  48.798 -18.061  1.00  0.00     0.171 C 
HETATM    7  C20 UNL     1      -6.063  48.572 -18.238  1.00  0.00     0.027 C 
HETATM    8  C21 UNL     1      -6.500  47.884 -19.527  1.00  0.00     0.012 C 
HETATM    9  C22 UNL     1      -5.437  47.367 -20.533  1.00  0.00     0.032 C 
HETATM   10  C23 UNL     1      -6.226  46.757 -21.721  1.00  0.00    -0.066 C 
HETATM   11  C24 UNL     1      -6.415  47.408 -22.901  1.00  0.00    -0.021 C 
HETATM   12  C25 UNL     1      -5.906  48.791 -23.227  1.00  0.00     0.052 C 
HETATM   13  C27 UNL     1      -6.794  45.382 -21.388  1.00  0.00     0.038 C 
HETATM   14  C28 UNL     1      -5.775  44.412 -20.791  1.00  0.00     0.042 C 
HETATM   15  C29 UNL     1      -4.968  45.003 -19.613  1.00  0.00     0.067 C 
HETATM   16  C30 UNL     1      -3.984  43.925 -19.117  1.00  0.00     0.047 C 
HETATM   17  O5  UNL     1      -2.524  47.898 -19.742  1.00  0.00    -0.351 OA
ENDROOT
BRANCH   1  18
HETATM   18  C14 UNL     1      -2.251  48.310 -22.068  1.00  0.00     0.011 C 
HETATM   19  C12 UNL     1      -2.568  49.620 -21.967  1.00  0.00    -0.064 C 
HETATM   20  C13 UNL     1      -2.993  50.295 -20.687  1.00  0.00     0.048 C 
BRANCH  19  21
HETATM   21  C11 UNL     1      -2.458  50.440 -23.173  1.00  0.00     0.003 C 
HETATM   22  C10 UNL     1      -1.353  50.637 -23.913  1.00  0.00    -0.018 C 
BRANCH  22  23
HETATM   23  C9  UNL     1      -1.271  51.451 -25.191  1.00  0.00     0.050 C 
HETATM   24  C4  UNL     1      -1.124  50.668 -26.527  1.00  0.00     0.024 C 
HETATM   25  C5  UNL     1      -0.534  51.714 -27.482  1.00  0.00     0.013 C 
HETATM   26  C6  UNL     1       0.530  52.380 -26.617  1.00  0.00     0.039 C 
HETATM   27  C7  UNL     1      -0.138  52.534 -25.235  1.00  0.00     0.062 C 
HETATM   28  C8  UNL     1       0.909  52.481 -24.120  1.00  0.00     0.046 C 
BRANCH  24  29
HETATM   29  C2  UNL     1      -2.400  50.008 -27.025  1.00  0.00    -0.088 C 
HETATM   30  C1  UNL     1      -3.194  50.626 -27.922  1.00  0.00     0.014 C 
HETATM   31  C3  UNL     1      -2.766  48.648 -26.488  1.00  0.00     0.043 C 
ENDBRANCH  24  29
BRANCH  27  32
HETATM   32  O1  UNL     1      -0.750  53.834 -25.196  1.00  0.00    -0.390 OA
HETATM   33  H14 UNL     1      -1.160  53.941 -24.319  1.00  0.00     0.210 HD
ENDBRANCH  27  32
ENDBRANCH  22  23
ENDBRANCH  19  21
ENDBRANCH   1  18
BRANCH  15  34
HETATM   34  O4  UNL     1      -5.871  45.226 -18.523  1.00  0.00    -0.389 OA
HETATM   35  H44 UNL     1      -6.244  44.370 -18.247  1.00  0.00     0.210 HD
ENDBRANCH  15  34
BRANCH  11  36
HETATM   36  C26 UNL     1      -7.160  46.813 -24.060  1.00  0.00     0.265 C 
HETATM   37  O3  UNL     1      -8.379  46.894 -24.176  1.00  0.00    -0.302 OA
ENDBRANCH  11  36
TORSDOF 7
ENDMDL
MODEL 9
REMARK minimizedAffinity -8.18291569
REMARK  7 active torsions:
REMARK  status: ('A' for Active; 'I' for Inactive)
REMARK    1  A    between atoms: C2_2  and  C4_4 
REMARK    2  A    between atoms: C7_7  and  O1_9 
REMARK    3  A    between atoms: C9_10  and  C10_11 
REMARK    4  A    between atoms: C11_12  and  C12_13 
REMARK    5  A    between atoms: C14_15  and  C15_16 
REMARK    6  A    between atoms: C24_26  and  C26_28 
REMARK    7  A    between atoms: C29_32  and  O4_34 
ROOT
HETATM    1  C15 UNL     1      -5.871  47.854 -29.310  1.00  0.00     0.149 C 
HETATM    2  C16 UNL     1      -7.318  48.257 -29.620  1.00  0.00     0.054 C 
HETATM    3  C17 UNL     1      -7.996  46.992 -30.229  1.00  0.00     0.050 C 
HETATM    4  C18 UNL     1      -6.729  46.365 -30.844  1.00  0.00     0.272 C 
HETATM    5  O2  UNL     1      -6.803  45.040 -31.313  1.00  0.00    -0.360 OA
HETATM    6  C19 UNL     1      -6.868  44.045 -30.312  1.00  0.00     0.171 C 
HETATM    7  C20 UNL     1      -8.307  43.663 -30.051  1.00  0.00     0.027 C 
HETATM    8  C21 UNL     1      -9.178  44.710 -29.365  1.00  0.00     0.012 C 
HETATM    9  C22 UNL     1      -8.606  46.120 -29.060  1.00  0.00     0.032 C 
HETATM   10  C23 UNL     1      -9.740  46.902 -28.348  1.00  0.00    -0.066 C 
HETATM   11  C24 UNL     1      -9.782  47.088 -27.000  1.00  0.00    -0.021 C 
HETATM   12  C25 UNL     1      -8.764  46.571 -26.014  1.00  0.00     0.052 C 
HETATM   13  C27 UNL     1     -10.808  47.384 -29.324  1.00  0.00     0.038 C 
HETATM   14  C28 UNL     1     -10.252  48.121 -30.542  1.00  0.00     0.042 C 
HETATM   15  C29 UNL     1      -9.112  47.366 -31.262  1.00  0.00     0.067 C 
HETATM   16  C30 UNL     1      -8.651  48.220 -32.458  1.00  0.00     0.047 C 
HETATM   17  O5  UNL     1      -5.682  46.547 -29.872  1.00  0.00    -0.351 OA
ENDROOT
BRANCH   1  18
HETATM   18  C14 UNL     1      -5.581  47.781 -27.841  1.00  0.00     0.011 C 
HETATM   19  C12 UNL     1      -4.626  48.426 -27.133  1.00  0.00    -0.064 C 
HETATM   20  C13 UNL     1      -3.616  49.370 -27.734  1.00  0.00     0.048 C 
BRANCH  19  21
HETATM   21  C11 UNL     1      -4.596  48.216 -25.686  1.00  0.00     0.003 C 
HETATM   22  C10 UNL     1      -3.802  48.839 -24.800  1.00  0.00    -0.018 C 
BRANCH  22  23
HETATM   23  C9  UNL     1      -3.821  48.644 -23.295  1.00  0.00     0.050 C 
HETATM   24  C4  UNL     1      -5.094  49.111 -22.532  1.00  0.00     0.024 C 
HETATM   25  C5  UNL     1      -4.592  49.290 -21.092  1.00  0.00     0.013 C 
HETATM   26  C6  UNL     1      -3.261  50.002 -21.299  1.00  0.00     0.039 C 
HETATM   27  C7  UNL     1      -2.626  49.288 -22.511  1.00  0.00     0.062 C 
HETATM   28  C8  UNL     1      -1.727  50.249 -23.293  1.00  0.00     0.046 C 
BRANCH  24  29
HETATM   29  C2  UNL     1      -6.296  48.189 -22.670  1.00  0.00    -0.088 C 
HETATM   30  C1  UNL     1      -6.203  46.880 -22.364  1.00  0.00     0.014 C 
HETATM   31  C3  UNL     1      -7.596  48.769 -23.166  1.00  0.00     0.043 C 
ENDBRANCH  24  29
BRANCH  27  32
HETATM   32  O1  UNL     1      -1.795  48.232 -22.000  1.00  0.00    -0.390 OA
HETATM   33  H14 UNL     1      -1.381  47.789 -22.762  1.00  0.00     0.210 HD
ENDBRANCH  27  32
ENDBRANCH  22  23
ENDBRANCH  19  21
ENDBRANCH   1  18
BRANCH  15  34
HETATM   34  O4  UNL     1      -9.662  46.173 -31.834  1.00  0.00    -0.389 OA
HETATM   35  H44 UNL     1     -10.333  46.423 -32.493  1.00  0.00     0.210 HD
ENDBRANCH  15  34
BRANCH  11  36
HETATM   36  C26 UNL     1     -10.867  47.862 -26.309  1.00  0.00     0.265 C 
HETATM   37  O3  UNL     1     -10.779  49.064 -26.076  1.00  0.00    -0.302 OA
ENDBRANCH  11  36
TORSDOF 7
ENDMDL
