MODEL 1
REMARK minimizedAffinity -10.0273952
REMARK  5 active torsions:
REMARK  status: ('A' for Active; 'I' for Inactive)
REMARK    1  A    between atoms: C2_2  and  C4_4 
REMARK    2  A    between atoms: C10_10  and  C11_11 
REMARK    3  A    between atoms: C11_11  and  O2_13 
REMARK    4  A    between atoms: C20_22  and  C22_24 
REMARK    5  A    between atoms: C22_24  and  O3_25 
ROOT
HETATM    1  C4  UNL     1      -5.278  48.041 -25.528  1.00  0.00     0.025 C 
HETATM    2  C5  UNL     1      -6.752  47.669 -25.801  1.00  0.00     0.037 C 
HETATM    3  C6  UNL     1      -7.480  48.291 -24.656  1.00  0.00    -0.023 C 
HETATM    4  C7  UNL     1      -6.716  49.167 -23.996  1.00  0.00    -0.078 C 
HETATM    5  C8  UNL     1      -7.102  49.996 -22.820  1.00  0.00     0.036 C 
HETATM    6  C9  UNL     1      -6.000  49.973 -21.752  1.00  0.00     0.026 C 
HETATM    7  C10 UNL     1      -4.572  50.313 -22.313  1.00  0.00     0.057 C 
HETATM    8  C12 UNL     1      -4.264  49.249 -23.441  1.00  0.00     0.014 C 
HETATM    9  C13 UNL     1      -2.828  49.303 -23.994  1.00  0.00     0.007 C 
HETATM   10  C14 UNL     1      -1.751  49.360 -22.914  1.00  0.00     0.007 C 
HETATM   11  C15 UNL     1      -2.022  50.455 -21.873  1.00  0.00     0.007 C 
HETATM   12  C16 UNL     1      -0.836  50.710 -20.886  1.00  0.00    -0.018 C 
HETATM   13  C17 UNL     1      -0.387  49.458 -20.097  1.00  0.00     0.020 C 
HETATM   14  C18 UNL     1       0.436  51.303 -21.466  1.00  0.00    -0.020 C 
HETATM   15  C19 UNL     1       0.942  52.263 -20.669  1.00  0.00    -0.018 C 
HETATM   16  C20 UNL     1       0.039  52.588 -19.489  1.00  0.00    -0.001 C 
HETATM   17  C21 UNL     1      -0.133  54.112 -19.364  1.00  0.00     0.022 C 
HETATM   18  C23 UNL     1      -1.255  51.944 -20.039  1.00  0.00     0.012 C 
HETATM   19  C24 UNL     1      -2.453  51.658 -19.150  1.00  0.00     0.007 C 
HETATM   20  C25 UNL     1      -3.663  51.362 -20.062  1.00  0.00     0.011 C 
HETATM   21  C26 UNL     1      -3.435  50.262 -21.166  1.00  0.00    -0.021 C 
HETATM   22  C27 UNL     1      -3.517  48.901 -20.412  1.00  0.00     0.017 C 
HETATM   23  C28 UNL     1      -5.328  49.271 -24.572  1.00  0.00     0.028 C 
ENDROOT
BRANCH   7  24
HETATM   24  C11 UNL     1      -4.693  51.754 -22.869  1.00  0.00     0.149 C 
HETATM   25  O1  UNL     1      -3.765  52.512 -23.110  1.00  0.00    -0.649 OA
BRANCH  24  26
HETATM   26  O2  UNL     1      -5.941  52.175 -23.123  1.00  0.00    -0.776 OA
HETATM   27  H14 UNL     1      -5.816  53.082 -23.475  1.00  0.00     0.167 HD
ENDBRANCH  24  26
ENDBRANCH   7  24
BRANCH   1  28
HETATM   28  C2  UNL     1      -4.476  48.216 -26.812  1.00  0.00    -0.088 C 
HETATM   29  C1  UNL     1      -5.074  48.148 -28.015  1.00  0.00     0.014 C 
HETATM   30  C3  UNL     1      -2.998  48.483 -26.710  1.00  0.00     0.043 C 
ENDBRANCH   1  28
BRANCH  16  31
HETATM   31  C22 UNL     1       0.538  51.993 -18.156  1.00  0.00     0.177 C 
BRANCH  31  32
HETATM   32  O3  UNL     1       1.208  52.959 -17.348  1.00  0.00    -0.400 OA
HETATM   33  H31 UNL     1       0.537  53.560 -16.984  1.00  0.00     0.209 HD
ENDBRANCH  31  32
ENDBRANCH  16  31
TORSDOF 5
ENDMDL
MODEL 2
REMARK minimizedAffinity -9.14748669
REMARK  5 active torsions:
REMARK  status: ('A' for Active; 'I' for Inactive)
REMARK    1  A    between atoms: C2_2  and  C4_4 
REMARK    2  A    between atoms: C10_10  and  C11_11 
REMARK    3  A    between atoms: C11_11  and  O2_13 
REMARK    4  A    between atoms: C20_22  and  C22_24 
REMARK    5  A    between atoms: C22_24  and  O3_25 
ROOT
HETATM    1  C4  UNL     1      -5.794  47.564 -26.775  1.00  0.00     0.025 C 
HETATM    2  C5  UNL     1      -7.205  47.157 -27.253  1.00  0.00     0.037 C 
HETATM    3  C6  UNL     1      -8.050  47.361 -26.040  1.00  0.00    -0.023 C 
HETATM    4  C7  UNL     1      -7.417  48.078 -25.106  1.00  0.00    -0.078 C 
HETATM    5  C8  UNL     1      -7.947  48.501 -23.780  1.00  0.00     0.036 C 
HETATM    6  C9  UNL     1      -6.902  48.274 -22.678  1.00  0.00     0.026 C 
HETATM    7  C10 UNL     1      -5.492  48.883 -23.011  1.00  0.00     0.057 C 
HETATM    8  C12 UNL     1      -5.018  48.215 -24.363  1.00  0.00     0.014 C 
HETATM    9  C13 UNL     1      -3.571  48.550 -24.768  1.00  0.00     0.007 C 
HETATM   10  C14 UNL     1      -2.559  48.393 -23.635  1.00  0.00     0.007 C 
HETATM   11  C15 UNL     1      -2.996  49.119 -22.354  1.00  0.00     0.007 C 
HETATM   12  C16 UNL     1      -1.893  49.187 -21.247  1.00  0.00    -0.018 C 
HETATM   13  C17 UNL     1      -1.353  47.807 -20.805  1.00  0.00     0.020 C 
HETATM   14  C18 UNL     1      -0.665  50.030 -21.540  1.00  0.00    -0.020 C 
HETATM   15  C19 UNL     1      -0.304  50.765 -20.471  1.00  0.00    -0.018 C 
HETATM   16  C20 UNL     1      -1.293  50.660 -19.320  1.00  0.00    -0.001 C 
HETATM   17  C21 UNL     1      -1.632  52.065 -18.791  1.00  0.00     0.022 C 
HETATM   18  C23 UNL     1      -2.482  50.087 -20.126  1.00  0.00     0.012 C 
HETATM   19  C24 UNL     1      -3.685  49.457 -19.445  1.00  0.00     0.007 C 
HETATM   20  C25 UNL     1      -4.812  49.326 -20.494  1.00  0.00     0.011 C 
HETATM   21  C26 UNL     1      -4.414  48.609 -21.839  1.00  0.00    -0.021 C 
HETATM   22  C27 UNL     1      -4.388  47.088 -21.501  1.00  0.00     0.017 C 
HETATM   23  C28 UNL     1      -6.022  48.463 -25.521  1.00  0.00     0.028 C 
ENDROOT
BRANCH   7  24
HETATM   24  C11 UNL     1      -5.739  50.406 -23.153  1.00  0.00     0.149 C 
HETATM   25  O1  UNL     1      -5.003  51.205 -23.715  1.00  0.00    -0.649 OA
BRANCH  24  26
HETATM   26  O2  UNL     1      -6.884  50.861 -22.622  1.00  0.00    -0.776 OA
HETATM   27  H14 UNL     1      -6.870  51.821 -22.820  1.00  0.00     0.167 HD
ENDBRANCH  24  26
ENDBRANCH   7  24
BRANCH   1  28
HETATM   28  C2  UNL     1      -4.954  48.167 -27.894  1.00  0.00    -0.088 C 
HETATM   29  C1  UNL     1      -5.296  47.996 -29.184  1.00  0.00     0.014 C 
HETATM   30  C3  UNL     1      -3.738  48.974 -27.529  1.00  0.00     0.043 C 
ENDBRANCH   1  28
BRANCH  16  31
HETATM   31  C22 UNL     1      -0.799  49.758 -18.171  1.00  0.00     0.177 C 
BRANCH  31  32
HETATM   32  O3  UNL     1      -1.165  48.391 -18.359  1.00  0.00    -0.400 OA
HETATM   33  H31 UNL     1      -0.605  48.028 -19.065  1.00  0.00     0.209 HD
ENDBRANCH  31  32
ENDBRANCH  16  31
TORSDOF 5
ENDMDL
MODEL 3
REMARK minimizedAffinity -8.96147633
REMARK  5 active torsions:
REMARK  status: ('A' for Active; 'I' for Inactive)
REMARK    1  A    between atoms: C2_2  and  C4_4 
REMARK    2  A    between atoms: C10_10  and  C11_11 
REMARK    3  A    between atoms: C11_11  and  O2_13 
REMARK    4  A    between atoms: C20_22  and  C22_24 
REMARK    5  A    between atoms: C22_24  and  O3_25 
ROOT
HETATM    1  C4  UNL     1       0.137  52.465 -23.169  1.00  0.00     0.025 C 
HETATM    2  C5  UNL     1       0.750  53.249 -24.349  1.00  0.00     0.037 C 
HETATM    3  C6  UNL     1      -0.253  53.070 -25.439  1.00  0.00    -0.023 C 
HETATM    4  C7  UNL     1      -1.414  52.596 -24.975  1.00  0.00    -0.078 C 
HETATM    5  C8  UNL     1      -2.650  52.313 -25.756  1.00  0.00     0.036 C 
HETATM    6  C9  UNL     1      -3.252  50.960 -25.352  1.00  0.00     0.026 C 
HETATM    7  C10 UNL     1      -3.441  50.793 -23.801  1.00  0.00     0.057 C 
HETATM    8  C12 UNL     1      -2.013  50.973 -23.149  1.00  0.00     0.014 C 
HETATM    9  C13 UNL     1      -1.956  50.667 -21.641  1.00  0.00     0.007 C 
HETATM   10  C14 UNL     1      -2.630  49.354 -21.251  1.00  0.00     0.007 C 
HETATM   11  C15 UNL     1      -4.050  49.231 -21.824  1.00  0.00     0.007 C 
HETATM   12  C16 UNL     1      -4.865  48.021 -21.263  1.00  0.00    -0.018 C 
HETATM   13  C17 UNL     1      -4.188  46.646 -21.475  1.00  0.00     0.020 C 
HETATM   14  C18 UNL     1      -5.250  48.062 -19.795  1.00  0.00    -0.020 C 
HETATM   15  C19 UNL     1      -6.521  47.659 -19.605  1.00  0.00    -0.018 C 
HETATM   16  C20 UNL     1      -7.262  47.408 -20.910  1.00  0.00    -0.001 C 
HETATM   17  C21 UNL     1      -8.638  48.098 -20.873  1.00  0.00     0.022 C 
HETATM   18  C23 UNL     1      -6.299  48.179 -21.842  1.00  0.00     0.012 C 
HETATM   19  C24 UNL     1      -6.337  48.014 -23.352  1.00  0.00     0.007 C 
HETATM   20  C25 UNL     1      -5.517  49.163 -23.978  1.00  0.00     0.011 C 
HETATM   21  C26 UNL     1      -4.060  49.352 -23.411  1.00  0.00    -0.021 C 
HETATM   22  C27 UNL     1      -3.213  48.225 -24.076  1.00  0.00     0.017 C 
HETATM   23  C28 UNL     1      -1.385  52.353 -23.490  1.00  0.00     0.028 C 
ENDROOT
BRANCH   7  24
HETATM   24  C11 UNL     1      -4.429  51.915 -23.395  1.00  0.00     0.149 C 
HETATM   25  O1  UNL     1      -4.384  52.576 -22.368  1.00  0.00    -0.649 OA
BRANCH  24  26
HETATM   26  O2  UNL     1      -5.400  52.183 -24.282  1.00  0.00    -0.776 OA
HETATM   27  H14 UNL     1      -5.903  52.915 -23.866  1.00  0.00     0.167 HD
ENDBRANCH  24  26
ENDBRANCH   7  24
BRANCH   1  28
HETATM   28  C2  UNL     1       0.500  53.070 -21.819  1.00  0.00    -0.088 C 
HETATM   29  C1  UNL     1       0.086  52.502 -20.672  1.00  0.00     0.014 C 
HETATM   30  C3  UNL     1       1.350  54.312 -21.790  1.00  0.00     0.043 C 
ENDBRANCH   1  28
BRANCH  16  31
HETATM   31  C22 UNL     1      -7.422  45.911 -21.244  1.00  0.00     0.177 C 
BRANCH  31  32
HETATM   32  O3  UNL     1      -6.286  45.384 -21.929  1.00  0.00    -0.400 OA
HETATM   33  H31 UNL     1      -5.563  45.302 -21.286  1.00  0.00     0.209 HD
ENDBRANCH  31  32
ENDBRANCH  16  31
TORSDOF 5
ENDMDL
MODEL 4
REMARK minimizedAffinity -8.76978302
REMARK  5 active torsions:
REMARK  status: ('A' for Active; 'I' for Inactive)
REMARK    1  A    between atoms: C2_2  and  C4_4 
REMARK    2  A    between atoms: C10_10  and  C11_11 
REMARK    3  A    between atoms: C11_11  and  O2_13 
REMARK    4  A    between atoms: C20_22  and  C22_24 
REMARK    5  A    between atoms: C22_24  and  O3_25 
ROOT
HETATM    1  C4  UNL     1       0.093  51.714 -24.821  1.00  0.00     0.025 C 
HETATM    2  C5  UNL     1       0.377  51.659 -26.338  1.00  0.00     0.037 C 
HETATM    3  C6  UNL     1      -0.623  50.671 -26.838  1.00  0.00    -0.023 C 
HETATM    4  C7  UNL     1      -1.572  50.418 -25.931  1.00  0.00    -0.078 C 
HETATM    5  C8  UNL     1      -2.743  49.510 -26.077  1.00  0.00     0.036 C 
HETATM    6  C9  UNL     1      -2.923  48.646 -24.821  1.00  0.00     0.026 C 
HETATM    7  C10 UNL     1      -2.936  49.472 -23.484  1.00  0.00     0.057 C 
HETATM    8  C12 UNL     1      -1.563  50.252 -23.421  1.00  0.00     0.014 C 
HETATM    9  C13 UNL     1      -1.307  50.985 -22.091  1.00  0.00     0.007 C 
HETATM   10  C14 UNL     1      -1.567  50.130 -20.853  1.00  0.00     0.007 C 
HETATM   11  C15 UNL     1      -2.941  49.445 -20.893  1.00  0.00     0.007 C 
HETATM   12  C16 UNL     1      -3.352  48.753 -19.552  1.00  0.00    -0.018 C 
HETATM   13  C17 UNL     1      -2.347  47.688 -19.054  1.00  0.00     0.020 C 
HETATM   14  C18 UNL     1      -3.617  49.653 -18.358  1.00  0.00    -0.020 C 
HETATM   15  C19 UNL     1      -4.712  49.263 -17.678  1.00  0.00    -0.018 C 
HETATM   16  C20 UNL     1      -5.457  48.126 -18.361  1.00  0.00    -0.001 C 
HETATM   17  C21 UNL     1      -6.961  48.450 -18.425  1.00  0.00     0.022 C 
HETATM   18  C23 UNL     1      -4.815  48.274 -19.760  1.00  0.00     0.012 C 
HETATM   19  C24 UNL     1      -4.926  47.186 -20.815  1.00  0.00     0.007 C 
HETATM   20  C25 UNL     1      -4.500  47.792 -22.171  1.00  0.00     0.011 C 
HETATM   21  C26 UNL     1      -3.108  48.529 -22.184  1.00  0.00    -0.021 C 
HETATM   22  C27 UNL     1      -2.043  47.391 -22.221  1.00  0.00     0.017 C 
HETATM   23  C28 UNL     1      -1.362  51.181 -24.649  1.00  0.00     0.028 C 
ENDROOT
BRANCH   7  24
HETATM   24  C11 UNL     1      -4.156  50.418 -23.612  1.00  0.00     0.149 C 
HETATM   25  O1  UNL     1      -4.289  51.498 -23.055  1.00  0.00    -0.649 OA
BRANCH  24  26
HETATM   26  O2  UNL     1      -5.131  50.002 -24.434  1.00  0.00    -0.776 OA
HETATM   27  H14 UNL     1      -5.794  50.724 -24.398  1.00  0.00     0.167 HD
ENDBRANCH  24  26
ENDBRANCH   7  24
BRANCH   1  28
HETATM   28  C2  UNL     1       0.385  53.087 -24.227  1.00  0.00    -0.088 C 
HETATM   29  C1  UNL     1       0.208  54.206 -24.951  1.00  0.00     0.014 C 
HETATM   30  C3  UNL     1       0.860  53.169 -22.801  1.00  0.00     0.043 C 
ENDBRANCH   1  28
BRANCH  16  31
HETATM   31  C22 UNL     1      -5.231  46.756 -17.690  1.00  0.00     0.177 C 
BRANCH  31  32
HETATM   32  O3  UNL     1      -5.167  46.853 -16.268  1.00  0.00    -0.400 OA
HETATM   33  H31 UNL     1      -6.066  47.017 -15.940  1.00  0.00     0.209 HD
ENDBRANCH  31  32
ENDBRANCH  16  31
TORSDOF 5
ENDMDL
MODEL 5
REMARK minimizedAffinity -8.75361156
REMARK  5 active torsions:
REMARK  status: ('A' for Active; 'I' for Inactive)
REMARK    1  A    between atoms: C2_2  and  C4_4 
REMARK    2  A    between atoms: C10_10  and  C11_11 
REMARK    3  A    between atoms: C11_11  and  O2_13 
REMARK    4  A    between atoms: C20_22  and  C22_24 
REMARK    5  A    between atoms: C22_24  and  O3_25 
ROOT
HETATM    1  C4  UNL     1      -0.074  52.949 -23.865  1.00  0.00     0.025 C 
HETATM    2  C5  UNL     1       1.072  53.721 -23.175  1.00  0.00     0.037 C 
HETATM    3  C6  UNL     1       0.962  53.297 -21.749  1.00  0.00    -0.023 C 
HETATM    4  C7  UNL     1       0.174  52.227 -21.606  1.00  0.00    -0.078 C 
HETATM    5  C8  UNL     1      -0.153  51.508 -20.344  1.00  0.00     0.036 C 
HETATM    6  C9  UNL     1      -1.655  51.197 -20.267  1.00  0.00     0.026 C 
HETATM    7  C10 UNL     1      -2.218  50.489 -21.552  1.00  0.00     0.057 C 
HETATM    8  C12 UNL     1      -1.920  51.455 -22.768  1.00  0.00     0.014 C 
HETATM    9  C13 UNL     1      -2.557  51.019 -24.100  1.00  0.00     0.007 C 
HETATM   10  C14 UNL     1      -4.031  50.639 -23.985  1.00  0.00     0.007 C 
HETATM   11  C15 UNL     1      -4.291  49.635 -22.852  1.00  0.00     0.007 C 
HETATM   12  C16 UNL     1      -5.736  49.037 -22.844  1.00  0.00    -0.018 C 
HETATM   13  C17 UNL     1      -6.860  50.095 -22.758  1.00  0.00     0.020 C 
HETATM   14  C18 UNL     1      -6.119  48.130 -24.000  1.00  0.00    -0.020 C 
HETATM   15  C19 UNL     1      -6.797  47.047 -23.575  1.00  0.00    -0.018 C 
HETATM   16  C20 UNL     1      -6.873  46.955 -22.058  1.00  0.00    -0.001 C 
HETATM   17  C21 UNL     1      -6.495  45.535 -21.599  1.00  0.00     0.022 C 
HETATM   18  C23 UNL     1      -5.730  47.946 -21.738  1.00  0.00     0.012 C 
HETATM   19  C24 UNL     1      -5.537  48.529 -20.348  1.00  0.00     0.007 C 
HETATM   20  C25 UNL     1      -4.134  49.173 -20.292  1.00  0.00     0.011 C 
HETATM   21  C26 UNL     1      -3.803  50.194 -21.444  1.00  0.00    -0.021 C 
HETATM   22  C27 UNL     1      -4.552  51.505 -21.057  1.00  0.00     0.017 C 
HETATM   23  C28 UNL     1      -0.404  51.757 -22.915  1.00  0.00     0.028 C 
ENDROOT
BRANCH   7  24
HETATM   24  C11 UNL     1      -1.440  49.153 -21.646  1.00  0.00     0.149 C 
HETATM   25  O1  UNL     1      -0.557  48.780 -20.887  1.00  0.00    -0.649 OA
BRANCH  24  26
HETATM   26  O2  UNL     1      -1.805  48.337 -22.646  1.00  0.00    -0.776 OA
HETATM   27  H14 UNL     1      -1.225  47.554 -22.535  1.00  0.00     0.167 HD
ENDBRANCH  24  26
ENDBRANCH   7  24
BRANCH   1  28
HETATM   28  C2  UNL     1       0.254  52.592 -25.309  1.00  0.00    -0.088 C 
HETATM   29  C1  UNL     1       0.766  51.389 -25.625  1.00  0.00     0.014 C 
HETATM   30  C3  UNL     1      -0.023  53.609 -26.385  1.00  0.00     0.043 C 
ENDBRANCH   1  28
BRANCH  16  31
HETATM   31  C22 UNL     1      -8.250  47.354 -21.490  1.00  0.00     0.177 C 
BRANCH  31  32
HETATM   32  O3  UNL     1      -9.280  47.303 -22.477  1.00  0.00    -0.400 OA
HETATM   33  H31 UNL     1      -9.474  46.369 -22.656  1.00  0.00     0.209 HD
ENDBRANCH  31  32
ENDBRANCH  16  31
TORSDOF 5
ENDMDL
MODEL 6
REMARK minimizedAffinity -8.60107613
REMARK  5 active torsions:
REMARK  status: ('A' for Active; 'I' for Inactive)
REMARK    1  A    between atoms: C2_2  and  C4_4 
REMARK    2  A    between atoms: C10_10  and  C11_11 
REMARK    3  A    between atoms: C11_11  and  O2_13 
REMARK    4  A    between atoms: C20_22  and  C22_24 
REMARK    5  A    between atoms: C22_24  and  O3_25 
ROOT
HETATM    1  C4  UNL     1      -0.500  52.075 -24.878  1.00  0.00     0.025 C 
HETATM    2  C5  UNL     1       0.669  53.041 -24.583  1.00  0.00     0.037 C 
HETATM    3  C6  UNL     1       0.724  53.068 -23.092  1.00  0.00    -0.023 C 
HETATM    4  C7  UNL     1       0.009  52.078 -22.548  1.00  0.00    -0.078 C 
HETATM    5  C8  UNL     1      -0.153  51.771 -21.100  1.00  0.00     0.036 C 
HETATM    6  C9  UNL     1      -1.621  51.470 -20.768  1.00  0.00     0.026 C 
HETATM    7  C10 UNL     1      -2.273  50.395 -21.711  1.00  0.00     0.057 C 
HETATM    8  C12 UNL     1      -2.148  50.951 -23.185  1.00  0.00     0.014 C 
HETATM    9  C13 UNL     1      -2.892  50.120 -24.246  1.00  0.00     0.007 C 
HETATM   10  C14 UNL     1      -4.326  49.765 -23.860  1.00  0.00     0.007 C 
HETATM   11  C15 UNL     1      -4.419  49.148 -22.457  1.00  0.00     0.007 C 
HETATM   12  C16 UNL     1      -5.824  48.554 -22.109  1.00  0.00    -0.018 C 
HETATM   13  C17 UNL     1      -6.986  49.568 -22.220  1.00  0.00     0.020 C 
HETATM   14  C18 UNL     1      -6.274  47.332 -22.889  1.00  0.00    -0.020 C 
HETATM   15  C19 UNL     1      -6.850  46.417 -22.087  1.00  0.00    -0.018 C 
HETATM   16  C20 UNL     1      -6.768  46.789 -20.614  1.00  0.00    -0.001 C 
HETATM   17  C21 UNL     1      -6.274  45.583 -19.795  1.00  0.00     0.022 C 
HETATM   18  C23 UNL     1      -5.651  47.852 -20.734  1.00  0.00     0.012 C 
HETATM   19  C24 UNL     1      -5.351  48.833 -19.614  1.00  0.00     0.007 C 
HETATM   20  C25 UNL     1      -3.984  49.489 -19.909  1.00  0.00     0.011 C 
HETATM   21  C26 UNL     1      -3.822  50.117 -21.344  1.00  0.00    -0.021 C 
HETATM   22  C27 UNL     1      -4.594  51.470 -21.288  1.00  0.00     0.017 C 
HETATM   23  C28 UNL     1      -0.671  51.222 -23.584  1.00  0.00     0.028 C 
ENDROOT
BRANCH   7  24
HETATM   24  C11 UNL     1      -1.441  49.108 -21.485  1.00  0.00     0.149 C 
HETATM   25  O1  UNL     1      -0.507  48.984 -20.706  1.00  0.00    -0.649 OA
BRANCH  24  26
HETATM   26  O2  UNL     1      -1.816  48.040 -22.204  1.00  0.00    -0.776 OA
HETATM   27  H14 UNL     1      -1.197  47.335 -21.919  1.00  0.00     0.167 HD
ENDBRANCH  24  26
ENDBRANCH   7  24
BRANCH   1  28
HETATM   28  C2  UNL     1      -0.300  51.302 -26.175  1.00  0.00    -0.088 C 
HETATM   29  C1  UNL     1      -1.308  51.153 -27.054  1.00  0.00     0.014 C 
HETATM   30  C3  UNL     1       1.057  50.719 -26.466  1.00  0.00     0.043 C 
ENDBRANCH   1  28
BRANCH  16  31
HETATM   31  C22 UNL     1      -8.100  47.317 -20.042  1.00  0.00     0.177 C 
BRANCH  31  32
HETATM   32  O3  UNL     1      -8.272  46.979 -18.666  1.00  0.00    -0.400 OA
HETATM   33  H31 UNL     1      -7.671  47.538 -18.146  1.00  0.00     0.209 HD
ENDBRANCH  31  32
ENDBRANCH  16  31
TORSDOF 5
ENDMDL
MODEL 7
REMARK minimizedAffinity -8.08953571
REMARK  5 active torsions:
REMARK  status: ('A' for Active; 'I' for Inactive)
REMARK    1  A    between atoms: C2_2  and  C4_4 
REMARK    2  A    between atoms: C10_10  and  C11_11 
REMARK    3  A    between atoms: C11_11  and  O2_13 
REMARK    4  A    between atoms: C20_22  and  C22_24 
REMARK    5  A    between atoms: C22_24  and  O3_25 
ROOT
HETATM    1  C4  UNL     1      -2.920  49.553 -26.373  1.00  0.00     0.025 C 
HETATM    2  C5  UNL     1      -3.827  48.962 -27.474  1.00  0.00     0.037 C 
HETATM    3  C6  UNL     1      -4.908  48.284 -26.700  1.00  0.00    -0.023 C 
HETATM    4  C7  UNL     1      -4.910  48.655 -25.416  1.00  0.00    -0.078 C 
HETATM    5  C8  UNL     1      -5.850  48.212 -24.349  1.00  0.00     0.036 C 
HETATM    6  C9  UNL     1      -5.089  47.871 -23.060  1.00  0.00     0.026 C 
HETATM    7  C10 UNL     1      -4.103  49.002 -22.593  1.00  0.00     0.057 C 
HETATM    8  C12 UNL     1      -3.088  49.237 -23.782  1.00  0.00     0.014 C 
HETATM    9  C13 UNL     1      -1.925  50.188 -23.449  1.00  0.00     0.007 C 
HETATM   10  C14 UNL     1      -1.232  49.879 -22.124  1.00  0.00     0.007 C 
HETATM   11  C15 UNL     1      -2.227  49.736 -20.962  1.00  0.00     0.007 C 
HETATM   12  C16 UNL     1      -1.558  49.654 -19.551  1.00  0.00    -0.018 C 
HETATM   13  C17 UNL     1      -0.539  48.501 -19.398  1.00  0.00     0.020 C 
HETATM   14  C18 UNL     1      -0.846  50.896 -19.046  1.00  0.00    -0.020 C 
HETATM   15  C19 UNL     1      -1.117  51.129 -17.748  1.00  0.00    -0.018 C 
HETATM   16  C20 UNL     1      -2.161  50.178 -17.183  1.00  0.00    -0.001 C 
HETATM   17  C21 UNL     1      -3.232  50.971 -16.412  1.00  0.00     0.022 C 
HETATM   18  C23 UNL     1      -2.731  49.677 -18.531  1.00  0.00     0.012 C 
HETATM   19  C24 UNL     1      -3.606  48.439 -18.625  1.00  0.00     0.007 C 
HETATM   20  C25 UNL     1      -4.278  48.434 -20.015  1.00  0.00     0.011 C 
HETATM   21  C26 UNL     1      -3.307  48.601 -21.245  1.00  0.00    -0.021 C 
HETATM   22  C27 UNL     1      -2.637  47.206 -21.430  1.00  0.00     0.017 C 
HETATM   23  C28 UNL     1      -3.812  49.635 -25.097  1.00  0.00     0.028 C 
ENDROOT
BRANCH   7  24
HETATM   24  C11 UNL     1      -5.005  50.232 -22.325  1.00  0.00     0.149 C 
HETATM   25  O1  UNL     1      -6.169  50.203 -21.953  1.00  0.00    -0.649 OA
BRANCH  24  26
HETATM   26  O2  UNL     1      -4.423  51.428 -22.499  1.00  0.00    -0.776 OA
HETATM   27  H14 UNL     1      -5.129  52.070 -22.271  1.00  0.00     0.167 HD
ENDBRANCH  24  26
ENDBRANCH   7  24
BRANCH   1  28
HETATM   28  C2  UNL     1      -2.245  50.847 -26.810  1.00  0.00    -0.088 C 
HETATM   29  C1  UNL     1      -2.973  51.913 -27.188  1.00  0.00     0.014 C 
HETATM   30  C3  UNL     1      -0.742  50.918 -26.796  1.00  0.00     0.043 C 
ENDBRANCH   1  28
BRANCH  16  31
HETATM   31  C22 UNL     1      -1.562  49.074 -16.288  1.00  0.00     0.177 C 
BRANCH  31  32
HETATM   32  O3  UNL     1      -0.161  49.248 -16.077  1.00  0.00    -0.400 OA
HETATM   33  H31 UNL     1      -0.043  49.996 -15.467  1.00  0.00     0.209 HD
ENDBRANCH  31  32
ENDBRANCH  16  31
TORSDOF 5
ENDMDL
MODEL 8
REMARK minimizedAffinity -8.01211643
REMARK  5 active torsions:
REMARK  status: ('A' for Active; 'I' for Inactive)
REMARK    1  A    between atoms: C2_2  and  C4_4 
REMARK    2  A    between atoms: C10_10  and  C11_11 
REMARK    3  A    between atoms: C11_11  and  O2_13 
REMARK    4  A    between atoms: C20_22  and  C22_24 
REMARK    5  A    between atoms: C22_24  and  O3_25 
ROOT
HETATM    1  C4  UNL     1      -4.792  48.131 -25.370  1.00  0.00     0.025 C 
HETATM    2  C5  UNL     1      -3.425  48.548 -25.955  1.00  0.00     0.037 C 
HETATM    3  C6  UNL     1      -3.603  48.344 -27.422  1.00  0.00    -0.023 C 
HETATM    4  C7  UNL     1      -4.889  48.186 -27.751  1.00  0.00    -0.078 C 
HETATM    5  C8  UNL     1      -5.454  47.984 -29.114  1.00  0.00     0.036 C 
HETATM    6  C9  UNL     1      -6.506  46.866 -29.108  1.00  0.00     0.026 C 
HETATM    7  C10 UNL     1      -7.603  47.039 -27.997  1.00  0.00     0.057 C 
HETATM    8  C12 UNL     1      -6.842  47.083 -26.612  1.00  0.00     0.014 C 
HETATM    9  C13 UNL     1      -7.762  47.070 -25.378  1.00  0.00     0.007 C 
HETATM   10  C14 UNL     1      -8.850  46.000 -25.429  1.00  0.00     0.007 C 
HETATM   11  C15 UNL     1      -9.636  46.026 -26.748  1.00  0.00     0.007 C 
HETATM   12  C16 UNL     1     -10.906  45.114 -26.756  1.00  0.00    -0.018 C 
HETATM   13  C17 UNL     1     -10.621  43.626 -26.447  1.00  0.00     0.020 C 
HETATM   14  C18 UNL     1     -12.051  45.508 -25.840  1.00  0.00    -0.020 C 
HETATM   15  C19 UNL     1     -13.242  45.385 -26.456  1.00  0.00    -0.018 C 
HETATM   16  C20 UNL     1     -13.112  45.023 -27.927  1.00  0.00    -0.001 C 
HETATM   17  C21 UNL     1     -14.008  45.943 -28.775  1.00  0.00     0.022 C 
HETATM   18  C23 UNL     1     -11.625  45.412 -28.102  1.00  0.00     0.012 C 
HETATM   19  C24 UNL     1     -10.813  44.967 -29.306  1.00  0.00     0.007 C 
HETATM   20  C25 UNL     1      -9.517  45.807 -29.343  1.00  0.00     0.011 C 
HETATM   21  C26 UNL     1      -8.682  45.836 -28.008  1.00  0.00    -0.021 C 
HETATM   22  C27 UNL     1      -7.936  44.468 -27.961  1.00  0.00     0.017 C 
HETATM   23  C28 UNL     1      -5.801  48.234 -26.554  1.00  0.00     0.028 C 
ENDROOT
BRANCH   7  24
HETATM   24  C11 UNL     1      -8.306  48.378 -28.335  1.00  0.00     0.149 C 
HETATM   25  O1  UNL     1      -8.409  48.875 -29.447  1.00  0.00    -0.649 OA
BRANCH  24  26
HETATM   26  O2  UNL     1      -8.866  49.019 -27.298  1.00  0.00    -0.776 OA
HETATM   27  H14 UNL     1      -9.266  49.817 -27.703  1.00  0.00     0.167 HD
ENDBRANCH  24  26
ENDBRANCH   7  24
BRANCH   1  28
HETATM   28  C2  UNL     1      -5.146  48.911 -24.110  1.00  0.00    -0.088 C 
HETATM   29  C1  UNL     1      -5.285  50.249 -24.141  1.00  0.00     0.014 C 
HETATM   30  C3  UNL     1      -5.357  48.153 -22.827  1.00  0.00     0.043 C 
ENDBRANCH   1  28
BRANCH  16  31
HETATM   31  C22 UNL     1     -13.429  43.543 -28.223  1.00  0.00     0.177 C 
BRANCH  31  32
HETATM   32  O3  UNL     1     -14.100  42.904 -27.138  1.00  0.00    -0.400 OA
HETATM   33  H31 UNL     1     -15.013  43.236 -27.116  1.00  0.00     0.209 HD
ENDBRANCH  31  32
ENDBRANCH  16  31
TORSDOF 5
ENDMDL
MODEL 9
REMARK minimizedAffinity -7.99681473
REMARK  5 active torsions:
REMARK  status: ('A' for Active; 'I' for Inactive)
REMARK    1  A    between atoms: C2_2  and  C4_4 
REMARK    2  A    between atoms: C10_10  and  C11_11 
REMARK    3  A    between atoms: C11_11  and  O2_13 
REMARK    4  A    between atoms: C20_22  and  C22_24 
REMARK    5  A    between atoms: C22_24  and  O3_25 
ROOT
HETATM    1  C4  UNL     1      -3.390  48.937 -24.612  1.00  0.00     0.025 C 
HETATM    2  C5  UNL     1      -2.902  48.780 -26.068  1.00  0.00     0.037 C 
HETATM    3  C6  UNL     1      -4.079  48.181 -26.763  1.00  0.00    -0.023 C 
HETATM    4  C7  UNL     1      -5.191  48.268 -26.025  1.00  0.00    -0.078 C 
HETATM    5  C8  UNL     1      -6.557  47.805 -26.393  1.00  0.00     0.036 C 
HETATM    6  C9  UNL     1      -7.213  47.059 -25.222  1.00  0.00     0.026 C 
HETATM    7  C10 UNL     1      -7.166  47.849 -23.865  1.00  0.00     0.057 C 
HETATM    8  C12 UNL     1      -5.641  48.124 -23.554  1.00  0.00     0.014 C 
HETATM    9  C13 UNL     1      -5.373  48.737 -22.167  1.00  0.00     0.007 C 
HETATM   10  C14 UNL     1      -6.098  48.026 -21.027  1.00  0.00     0.007 C 
HETATM   11  C15 UNL     1      -7.596  47.842 -21.309  1.00  0.00     0.007 C 
HETATM   12  C16 UNL     1      -8.423  47.337 -20.082  1.00  0.00    -0.018 C 
HETATM   13  C17 UNL     1      -7.923  46.000 -19.487  1.00  0.00     0.020 C 
HETATM   14  C18 UNL     1      -8.562  48.280 -18.901  1.00  0.00    -0.020 C 
HETATM   15  C19 UNL     1      -9.819  48.285 -18.417  1.00  0.00    -0.018 C 
HETATM   16  C20 UNL     1     -10.780  47.461 -19.260  1.00  0.00    -0.001 C 
HETATM   17  C21 UNL     1     -12.059  48.270 -19.539  1.00  0.00     0.022 C 
HETATM   18  C23 UNL     1      -9.909  47.376 -20.536  1.00  0.00     0.012 C 
HETATM   19  C24 UNL     1     -10.204  46.382 -21.646  1.00  0.00     0.007 C 
HETATM   20  C25 UNL     1      -9.389  46.800 -22.889  1.00  0.00     0.011 C 
HETATM   21  C26 UNL     1      -7.849  47.027 -22.653  1.00  0.00    -0.021 C 
HETATM   22  C27 UNL     1      -7.230  45.598 -22.581  1.00  0.00     0.017 C 
HETATM   23  C28 UNL     1      -4.948  48.923 -24.691  1.00  0.00     0.028 C 
ENDROOT
BRANCH   7  24
HETATM   24  C11 UNL     1      -7.965  49.149 -24.133  1.00  0.00     0.149 C 
HETATM   25  O1  UNL     1      -8.919  49.265 -24.889  1.00  0.00    -0.649 OA
BRANCH  24  26
HETATM   26  O2  UNL     1      -7.569  50.228 -23.440  1.00  0.00    -0.776 OA
HETATM   27  H14 UNL     1      -8.190  50.932 -23.725  1.00  0.00     0.167 HD
ENDBRANCH  24  26
ENDBRANCH   7  24
BRANCH   1  28
HETATM   28  C2  UNL     1      -2.760  50.135 -23.914  1.00  0.00    -0.088 C 
HETATM   29  C1  UNL     1      -3.110  51.391 -24.244  1.00  0.00     0.014 C 
HETATM   30  C3  UNL     1      -1.744  49.888 -22.831  1.00  0.00     0.043 C 
ENDBRANCH   1  28
BRANCH  16  31
HETATM   31  C22 UNL     1     -11.133  46.098 -18.629  1.00  0.00     0.177 C 
BRANCH  31  32
HETATM   32  O3  UNL     1     -12.177  46.203 -17.662  1.00  0.00    -0.400 OA
HETATM   33  H31 UNL     1     -13.011  46.350 -18.140  1.00  0.00     0.209 HD
ENDBRANCH  31  32
ENDBRANCH  16  31
TORSDOF 5
ENDMDL
