MODEL 1
REMARK minimizedAffinity -8.57705975
REMARK  8 active torsions:
REMARK  status: ('A' for Active; 'I' for Inactive)
REMARK    1  A    between atoms: O1_2  and  C2_3 
REMARK    2  A    between atoms: C5_6  and  N1_7 
REMARK    3  A    between atoms: N1_7  and  C6_8 
REMARK    4  A    between atoms: C16_25  and  O4_26 
REMARK    5  A    between atoms: O4_26  and  C17_27 
REMARK    6  A    between atoms: C17_27  and  C18_28 
REMARK    7  A    between atoms: C18_28  and  C19_29 
REMARK    8  A    between atoms: C19_29  and  N4_30 
ROOT
HETATM    1  C2  UNL     1      -1.527  50.835 -21.363  1.00  0.00     0.102 A 
HETATM    2  C3  UNL     1      -1.942  51.312 -22.607  1.00  0.00     0.057 A 
HETATM    3  C4  UNL     1      -1.145  52.226 -23.344  1.00  0.00     0.038 A 
HETATM    4  C5  UNL     1      -1.468  52.759 -24.609  1.00  0.00     0.119 A 
HETATM    5  N2  UNL     1      -0.680  53.644 -25.245  1.00  0.00    -0.338 N 
ATOM      6  H2  UNL     1      -0.938  54.042 -26.147  1.00  0.00     0.168 HD
HETATM    7  C13 UNL     1       0.457  53.973 -24.632  1.00  0.00     0.182 A 
HETATM    8  N3  UNL     1       0.874  53.524 -23.442  1.00  0.00    -0.351 N 
ATOM      9  H3  UNL     1       1.761  53.826 -23.037  1.00  0.00     0.166 HD
HETATM   10  C14 UNL     1       0.074  52.661 -22.810  1.00  0.00     0.050 A 
HETATM   11  C15 UNL     1       0.473  52.182 -21.569  1.00  0.00     0.070 A 
HETATM   12  C16 UNL     1      -0.306  51.281 -20.835  1.00  0.00     0.104 A 
ENDROOT
BRANCH   4  13
HETATM   13  N1  UNL     1      -2.669  52.417 -25.265  1.00  0.00    -0.338 N 
HETATM   14  H5  UNL     1      -3.440  52.962 -24.887  1.00  0.00     0.167 HD
BRANCH  13  15
HETATM   15  C6  UNL     1      -3.098  51.098 -25.564  1.00  0.00     0.092 A 
HETATM   16  C7  UNL     1      -2.360  50.292 -26.461  1.00  0.00     0.063 A 
HETATM   17 CL1  UNL     1      -1.001  50.949 -27.309  1.00  0.00    -0.082 Cl
HETATM   18  C8  UNL     1      -2.715  48.955 -26.724  1.00  0.00     0.029 A 
HETATM   19  C9  UNL     1      -3.811  48.379 -26.084  1.00  0.00     0.041 A 
HETATM   20  C10 UNL     1      -4.514  49.163 -25.195  1.00  0.00     0.107 A 
HETATM   21  C11 UNL     1      -4.171  50.474 -24.934  1.00  0.00     0.133 A 
HETATM   22  O3  UNL     1      -5.599  48.750 -24.483  1.00  0.00    -0.323 OA
HETATM   23  O2  UNL     1      -5.015  51.035 -24.020  1.00  0.00    -0.321 OA
HETATM   24  C12 UNL     1      -5.892  49.936 -23.719  1.00  0.00     0.352 A 
ENDBRANCH  13  15
ENDBRANCH   4  13
BRANCH   1  25
HETATM   25  O1  UNL     1      -2.239  49.956 -20.591  1.00  0.00    -0.353 OA
HETATM   26  C1  UNL     1      -3.658  50.042 -20.626  1.00  0.00     0.210 C 
ENDBRANCH   1  25
BRANCH  12  27
HETATM   27  O4  UNL     1       0.043  50.772 -19.610  1.00  0.00    -0.348 OA
BRANCH  27  28
HETATM   28  C17 UNL     1      -0.553  51.349 -18.451  1.00  0.00     0.177 C 
BRANCH  28  29
HETATM   29  C18 UNL     1      -0.469  50.355 -17.293  1.00  0.00     0.057 C 
BRANCH  29  30
HETATM   30  C19 UNL     1       0.006  51.029 -15.998  1.00  0.00     0.274 C 
BRANCH  30  31
HETATM   31  N4  UNL     1       1.453  51.302 -16.007  1.00  0.00     0.088 N 
HETATM   32  C20 UNL     1       2.081  50.770 -14.782  1.00  0.00     0.272 C 
HETATM   33  C21 UNL     1       3.421  51.429 -14.425  1.00  0.00     0.030 C 
HETATM   34  C22 UNL     1       4.150  51.918 -15.667  1.00  0.00     0.003 C 
HETATM   35  C23 UNL     1       3.275  52.883 -16.469  1.00  0.00     0.030 C 
HETATM   36  C24 UNL     1       1.776  52.717 -16.192  1.00  0.00     0.272 C 
ENDBRANCH  30  31
ENDBRANCH  29  30
ENDBRANCH  28  29
ENDBRANCH  27  28
ENDBRANCH  12  27
TORSDOF 8
ENDMDL
MODEL 2
REMARK minimizedAffinity -8.53451633
REMARK  8 active torsions:
REMARK  status: ('A' for Active; 'I' for Inactive)
REMARK    1  A    between atoms: O1_2  and  C2_3 
REMARK    2  A    between atoms: C5_6  and  N1_7 
REMARK    3  A    between atoms: N1_7  and  C6_8 
REMARK    4  A    between atoms: C16_25  and  O4_26 
REMARK    5  A    between atoms: O4_26  and  C17_27 
REMARK    6  A    between atoms: C17_27  and  C18_28 
REMARK    7  A    between atoms: C18_28  and  C19_29 
REMARK    8  A    between atoms: C19_29  and  N4_30 
ROOT
HETATM    1  C2  UNL     1      -0.828  50.548 -21.811  1.00  0.00     0.102 A 
HETATM    2  C3  UNL     1      -0.563  51.516 -22.780  1.00  0.00     0.057 A 
HETATM    3  C4  UNL     1       0.278  52.624 -22.497  1.00  0.00     0.038 A 
HETATM    4  C5  UNL     1       0.617  53.648 -23.405  1.00  0.00     0.119 A 
HETATM    5  N2  UNL     1       1.400  54.687 -23.066  1.00  0.00    -0.338 N 
ATOM      6  H2  UNL     1       1.615  55.435 -23.725  1.00  0.00     0.168 HD
HETATM    7  C13 UNL     1       1.880  54.687 -21.822  1.00  0.00     0.182 A 
HETATM    8  N3  UNL     1       1.639  53.767 -20.880  1.00  0.00    -0.351 N 
ATOM      9  H3  UNL     1       2.043  53.840 -19.946  1.00  0.00     0.166 HD
HETATM   10  C14 UNL     1       0.843  52.751 -21.222  1.00  0.00     0.050 A 
HETATM   11  C15 UNL     1       0.566  51.782 -20.266  1.00  0.00     0.070 A 
HETATM   12  C16 UNL     1      -0.261  50.687 -20.535  1.00  0.00     0.104 A 
ENDROOT
BRANCH   4  13
HETATM   13  N1  UNL     1       0.114  53.656 -24.724  1.00  0.00    -0.338 N 
HETATM   14  H5  UNL     1      -0.464  54.480 -24.870  1.00  0.00     0.167 HD
BRANCH  13  15
HETATM   15  C6  UNL     1      -0.437  52.539 -25.403  1.00  0.00     0.092 A 
HETATM   16  C7  UNL     1       0.408  51.603 -26.041  1.00  0.00     0.063 A 
HETATM   17 CL1  UNL     1       2.116  51.878 -26.118  1.00  0.00    -0.082 Cl
HETATM   18  C8  UNL     1      -0.100  50.444 -26.661  1.00  0.00     0.029 A 
HETATM   19  C9  UNL     1      -1.468  50.181 -26.645  1.00  0.00     0.041 A 
HETATM   20  C10 UNL     1      -2.285  51.086 -26.003  1.00  0.00     0.107 A 
HETATM   21  C11 UNL     1      -1.792  52.224 -25.395  1.00  0.00     0.133 A 
HETATM   22  O3  UNL     1      -3.636  50.971 -25.890  1.00  0.00    -0.323 OA
HETATM   23  O2  UNL     1      -2.795  52.956 -24.828  1.00  0.00    -0.321 OA
HETATM   24  C12 UNL     1      -3.948  52.147 -25.118  1.00  0.00     0.352 A 
ENDBRANCH  13  15
ENDBRANCH   4  13
BRANCH   1  25
HETATM   25  O1  UNL     1      -1.631  49.454 -22.005  1.00  0.00    -0.353 OA
HETATM   26  C1  UNL     1      -3.000  49.682 -22.308  1.00  0.00     0.210 C 
ENDBRANCH   1  25
BRANCH  12  27
HETATM   27  O4  UNL     1      -0.563  49.700 -19.631  1.00  0.00    -0.348 OA
BRANCH  27  28
HETATM   28  C17 UNL     1      -1.366  50.045 -18.506  1.00  0.00     0.177 C 
BRANCH  28  29
HETATM   29  C18 UNL     1      -0.682  51.167 -17.724  1.00  0.00     0.057 C 
BRANCH  29  30
HETATM   30  C19 UNL     1      -0.034  50.646 -16.432  1.00  0.00     0.274 C 
BRANCH  30  31
HETATM   31  N4  UNL     1       1.353  51.114 -16.274  1.00  0.00     0.088 N 
HETATM   32  C20 UNL     1       1.833  50.837 -14.906  1.00  0.00     0.272 C 
HETATM   33  C21 UNL     1       3.010  51.716 -14.462  1.00  0.00     0.030 C 
HETATM   34  C22 UNL     1       3.868  52.138 -15.645  1.00  0.00     0.003 C 
HETATM   35  C23 UNL     1       3.027  52.861 -16.699  1.00  0.00     0.030 C 
HETATM   36  C24 UNL     1       1.533  52.524 -16.619  1.00  0.00     0.272 C 
ENDBRANCH  30  31
ENDBRANCH  29  30
ENDBRANCH  28  29
ENDBRANCH  27  28
ENDBRANCH  12  27
TORSDOF 8
ENDMDL
MODEL 3
REMARK minimizedAffinity -8.47233963
REMARK  8 active torsions:
REMARK  status: ('A' for Active; 'I' for Inactive)
REMARK    1  A    between atoms: O1_2  and  C2_3 
REMARK    2  A    between atoms: C5_6  and  N1_7 
REMARK    3  A    between atoms: N1_7  and  C6_8 
REMARK    4  A    between atoms: C16_25  and  O4_26 
REMARK    5  A    between atoms: O4_26  and  C17_27 
REMARK    6  A    between atoms: C17_27  and  C18_28 
REMARK    7  A    between atoms: C18_28  and  C19_29 
REMARK    8  A    between atoms: C19_29  and  N4_30 
ROOT
HETATM    1  C2  UNL     1      -1.480  51.721 -21.147  1.00  0.00     0.102 A 
HETATM    2  C3  UNL     1      -2.113  51.888 -22.379  1.00  0.00     0.057 A 
HETATM    3  C4  UNL     1      -3.474  51.526 -22.558  1.00  0.00     0.038 A 
HETATM    4  C5  UNL     1      -4.207  51.663 -23.754  1.00  0.00     0.119 A 
HETATM    5  N2  UNL     1      -5.490  51.276 -23.866  1.00  0.00    -0.338 N 
ATOM      6  H2  UNL     1      -6.000  51.355 -24.745  1.00  0.00     0.168 HD
HETATM    7  C13 UNL     1      -6.059  50.784 -22.766  1.00  0.00     0.182 A 
HETATM    8  N3  UNL     1      -5.469  50.619 -21.575  1.00  0.00    -0.351 N 
ATOM      9  H3  UNL     1      -5.974  50.231 -20.778  1.00  0.00     0.166 HD
HETATM   10  C14 UNL     1      -4.189  50.988 -21.482  1.00  0.00     0.050 A 
HETATM   11  C15 UNL     1      -3.545  50.823 -20.262  1.00  0.00     0.070 A 
HETATM   12  C16 UNL     1      -2.204  51.176 -20.076  1.00  0.00     0.104 A 
ENDROOT
BRANCH   4  13
HETATM   13  N1  UNL     1      -3.614  52.183 -24.924  1.00  0.00    -0.338 N 
HETATM   14  H5  UNL     1      -4.315  52.287 -25.653  1.00  0.00     0.167 HD
BRANCH  13  15
HETATM   15  C6  UNL     1      -2.381  51.756 -25.483  1.00  0.00     0.092 A 
HETATM   16  C7  UNL     1      -2.287  50.508 -26.139  1.00  0.00     0.063 A 
HETATM   17 CL1  UNL     1      -3.639  49.425 -26.151  1.00  0.00    -0.082 Cl
HETATM   18  C8  UNL     1      -1.100  50.085 -26.768  1.00  0.00     0.029 A 
HETATM   19  C9  UNL     1       0.024  50.908 -26.773  1.00  0.00     0.041 A 
HETATM   20  C10 UNL     1      -0.079  52.134 -26.151  1.00  0.00     0.107 A 
HETATM   21  C11 UNL     1      -1.240  52.552 -25.532  1.00  0.00     0.133 A 
HETATM   22  O3  UNL     1       0.920  53.054 -26.076  1.00  0.00    -0.323 OA
HETATM   23  O2  UNL     1      -1.092  53.797 -24.993  1.00  0.00    -0.321 OA
HETATM   24  C12 UNL     1       0.259  54.118 -25.365  1.00  0.00     0.352 A 
ENDBRANCH  13  15
ENDBRANCH   4  13
BRANCH   1  25
HETATM   25  O1  UNL     1      -0.171  52.042 -20.896  1.00  0.00    -0.353 OA
HETATM   26  C1  UNL     1       0.613  52.523 -21.980  1.00  0.00     0.210 C 
ENDBRANCH   1  25
BRANCH  12  27
HETATM   27  O4  UNL     1      -1.522  51.041 -18.894  1.00  0.00    -0.348 OA
BRANCH  27  28
HETATM   28  C17 UNL     1      -0.658  49.918 -18.744  1.00  0.00     0.177 C 
BRANCH  28  29
HETATM   29  C18 UNL     1      -0.507  49.593 -17.257  1.00  0.00     0.057 C 
BRANCH  29  30
HETATM   30  C19 UNL     1      -0.279  50.859 -16.419  1.00  0.00     0.274 C 
BRANCH  30  31
HETATM   31  N4  UNL     1       1.151  51.178 -16.265  1.00  0.00     0.088 N 
HETATM   32  C20 UNL     1       1.631  50.748 -14.938  1.00  0.00     0.272 C 
HETATM   33  C21 UNL     1       2.898  51.473 -14.462  1.00  0.00     0.030 C 
HETATM   34  C22 UNL     1       3.766  51.906 -15.633  1.00  0.00     0.003 C 
HETATM   35  C23 UNL     1       2.976  52.787 -16.602  1.00  0.00     0.030 C 
HETATM   36  C24 UNL     1       1.458  52.588 -16.504  1.00  0.00     0.272 C 
ENDBRANCH  30  31
ENDBRANCH  29  30
ENDBRANCH  28  29
ENDBRANCH  27  28
ENDBRANCH  12  27
TORSDOF 8
ENDMDL
MODEL 4
REMARK minimizedAffinity -8.24070263
REMARK  8 active torsions:
REMARK  status: ('A' for Active; 'I' for Inactive)
REMARK    1  A    between atoms: O1_2  and  C2_3 
REMARK    2  A    between atoms: C5_6  and  N1_7 
REMARK    3  A    between atoms: N1_7  and  C6_8 
REMARK    4  A    between atoms: C16_25  and  O4_26 
REMARK    5  A    between atoms: O4_26  and  C17_27 
REMARK    6  A    between atoms: C17_27  and  C18_28 
REMARK    7  A    between atoms: C18_28  and  C19_29 
REMARK    8  A    between atoms: C19_29  and  N4_30 
ROOT
HETATM    1  C2  UNL     1      -0.399  50.410 -18.024  1.00  0.00     0.102 A 
HETATM    2  C3  UNL     1      -0.449  50.587 -19.407  1.00  0.00     0.057 A 
HETATM    3  C4  UNL     1       0.112  51.739 -20.018  1.00  0.00     0.038 A 
HETATM    4  C5  UNL     1       0.124  52.009 -21.401  1.00  0.00     0.119 A 
HETATM    5  N2  UNL     1       0.650  53.134 -21.916  1.00  0.00    -0.338 N 
ATOM      6  H2  UNL     1       0.628  53.329 -22.917  1.00  0.00     0.168 HD
HETATM    7  C13 UNL     1       1.203  53.981 -21.048  1.00  0.00     0.182 A 
HETATM    8  N3  UNL     1       1.262  53.827 -19.720  1.00  0.00    -0.351 N 
ATOM      9  H3  UNL     1       1.702  54.525 -19.120  1.00  0.00     0.166 HD
HETATM   10  C14 UNL     1       0.718  52.715 -19.218  1.00  0.00     0.050 A 
HETATM   11  C15 UNL     1       0.756  52.528 -17.842  1.00  0.00     0.070 A 
HETATM   12  C16 UNL     1       0.206  51.396 -17.231  1.00  0.00     0.104 A 
ENDROOT
BRANCH   4  13
HETATM   13  N1  UNL     1      -0.458  51.118 -22.328  1.00  0.00    -0.338 N 
HETATM   14  H5  UNL     1       0.229  50.431 -22.630  1.00  0.00     0.167 HD
BRANCH  13  15
HETATM   15  C6  UNL     1      -1.295  51.487 -23.413  1.00  0.00     0.092 A 
HETATM   16  C7  UNL     1      -2.697  51.547 -23.245  1.00  0.00     0.063 A 
HETATM   17 CL1  UNL     1      -3.421  51.039 -21.756  1.00  0.00    -0.082 Cl
HETATM   18  C8  UNL     1      -3.552  51.980 -24.277  1.00  0.00     0.029 A 
HETATM   19  C9  UNL     1      -3.027  52.383 -25.503  1.00  0.00     0.041 A 
HETATM   20  C10 UNL     1      -1.657  52.343 -25.654  1.00  0.00     0.107 A 
HETATM   21  C11 UNL     1      -0.815  51.919 -24.646  1.00  0.00     0.133 A 
HETATM   22  O3  UNL     1      -0.988  52.711 -26.780  1.00  0.00    -0.323 OA
HETATM   23  O2  UNL     1       0.492  51.973 -25.036  1.00  0.00    -0.321 OA
HETATM   24  C12 UNL     1       0.377  52.500 -26.369  1.00  0.00     0.352 A 
ENDBRANCH  13  15
ENDBRANCH   4  13
BRANCH   1  25
HETATM   25  O1  UNL     1      -0.920  49.330 -17.360  1.00  0.00    -0.353 OA
HETATM   26  C1  UNL     1      -1.931  48.574 -18.014  1.00  0.00     0.210 C 
ENDBRANCH   1  25
BRANCH  12  27
HETATM   27  O4  UNL     1       0.221  51.158 -15.880  1.00  0.00    -0.348 OA
BRANCH  27  28
HETATM   28  C17 UNL     1       0.926  52.074 -15.047  1.00  0.00     0.177 C 
BRANCH  28  29
HETATM   29  C18 UNL     1       0.369  51.995 -13.625  1.00  0.00     0.057 C 
BRANCH  29  30
HETATM   30  C19 UNL     1      -1.124  51.633 -13.619  1.00  0.00     0.274 C 
BRANCH  30  31
HETATM   31  N4  UNL     1      -1.903  52.486 -12.707  1.00  0.00     0.088 N 
HETATM   32  C20 UNL     1      -1.080  52.881 -11.547  1.00  0.00     0.272 C 
HETATM   33  C21 UNL     1      -1.891  53.298 -10.312  1.00  0.00     0.030 C 
HETATM   34  C22 UNL     1      -3.234  53.894 -10.703  1.00  0.00     0.003 C 
HETATM   35  C23 UNL     1      -4.036  52.918 -11.566  1.00  0.00     0.030 C 
HETATM   36  C24 UNL     1      -3.161  51.876 -12.275  1.00  0.00     0.272 C 
ENDBRANCH  30  31
ENDBRANCH  29  30
ENDBRANCH  28  29
ENDBRANCH  27  28
ENDBRANCH  12  27
TORSDOF 8
ENDMDL
MODEL 5
REMARK minimizedAffinity -8.15902519
REMARK  8 active torsions:
REMARK  status: ('A' for Active; 'I' for Inactive)
REMARK    1  A    between atoms: O1_2  and  C2_3 
REMARK    2  A    between atoms: C5_6  and  N1_7 
REMARK    3  A    between atoms: N1_7  and  C6_8 
REMARK    4  A    between atoms: C16_25  and  O4_26 
REMARK    5  A    between atoms: O4_26  and  C17_27 
REMARK    6  A    between atoms: C17_27  and  C18_28 
REMARK    7  A    between atoms: C18_28  and  C19_29 
REMARK    8  A    between atoms: C19_29  and  N4_30 
ROOT
HETATM    1  C2  UNL     1      -0.423  50.351 -18.339  1.00  0.00     0.102 A 
HETATM    2  C3  UNL     1      -0.408  50.617 -19.709  1.00  0.00     0.057 A 
HETATM    3  C4  UNL     1       0.159  51.815 -20.216  1.00  0.00     0.038 A 
HETATM    4  C5  UNL     1       0.233  52.174 -21.577  1.00  0.00     0.119 A 
HETATM    5  N2  UNL     1       0.761  53.339 -21.991  1.00  0.00    -0.338 N 
ATOM      6  H2  UNL     1       0.784  53.598 -22.977  1.00  0.00     0.168 HD
HETATM    7  C13 UNL     1       1.254  54.137 -21.044  1.00  0.00     0.182 A 
HETATM    8  N3  UNL     1       1.251  53.899 -19.727  1.00  0.00    -0.351 N 
ATOM      9  H3  UNL     1       1.647  54.564 -19.062  1.00  0.00     0.166 HD
HETATM   10  C14 UNL     1       0.705  52.747 -19.326  1.00  0.00     0.050 A 
HETATM   11  C15 UNL     1       0.679  52.472 -17.964  1.00  0.00     0.070 A 
HETATM   12  C16 UNL     1       0.122  51.294 -17.455  1.00  0.00     0.104 A 
ENDROOT
BRANCH   4  13
HETATM   13  N1  UNL     1      -0.285  51.335 -22.587  1.00  0.00    -0.338 N 
HETATM   14  H5  UNL     1       0.473  50.837 -23.048  1.00  0.00     0.167 HD
BRANCH  13  15
HETATM   15  C6  UNL     1      -1.281  51.699 -23.529  1.00  0.00     0.092 A 
HETATM   16  C7  UNL     1      -0.943  51.897 -24.887  1.00  0.00     0.063 A 
HETATM   17 CL1  UNL     1       0.712  51.832 -25.393  1.00  0.00    -0.082 Cl
HETATM   18  C8  UNL     1      -1.917  52.187 -25.862  1.00  0.00     0.029 A 
HETATM   19  C9  UNL     1      -3.263  52.270 -25.509  1.00  0.00     0.041 A 
HETATM   20  C10 UNL     1      -3.589  52.054 -24.187  1.00  0.00     0.107 A 
HETATM   21  C11 UNL     1      -2.638  51.771 -23.228  1.00  0.00     0.133 A 
HETATM   22  O3  UNL     1      -4.853  52.090 -23.683  1.00  0.00    -0.323 OA
HETATM   23  O2  UNL     1      -3.209  51.598 -22.000  1.00  0.00    -0.321 OA
HETATM   24  C12 UNL     1      -4.605  51.770 -22.300  1.00  0.00     0.352 A 
ENDBRANCH  13  15
ENDBRANCH   4  13
BRANCH   1  25
HETATM   25  O1  UNL     1      -0.954  49.222 -17.773  1.00  0.00    -0.353 OA
HETATM   26  C1  UNL     1      -2.309  48.907 -18.066  1.00  0.00     0.210 C 
ENDBRANCH   1  25
BRANCH  12  27
HETATM   27  O4  UNL     1       0.076  50.969 -16.123  1.00  0.00    -0.348 OA
BRANCH  27  28
HETATM   28  C17 UNL     1       1.051  51.546 -15.259  1.00  0.00     0.177 C 
BRANCH  28  29
HETATM   29  C18 UNL     1       0.346  52.236 -14.092  1.00  0.00     0.057 C 
BRANCH  29  30
HETATM   30  C19 UNL     1      -0.952  51.513 -13.703  1.00  0.00     0.274 C 
BRANCH  30  31
HETATM   31  N4  UNL     1      -1.748  52.276 -12.728  1.00  0.00     0.088 N 
HETATM   32  C20 UNL     1      -1.422  51.847 -11.354  1.00  0.00     0.272 C 
HETATM   33  C21 UNL     1      -2.515  52.159 -10.321  1.00  0.00     0.030 C 
HETATM   34  C22 UNL     1      -3.312  53.394 -10.709  1.00  0.00     0.003 C 
HETATM   35  C23 UNL     1      -3.922  53.235 -12.103  1.00  0.00     0.030 C 
HETATM   36  C24 UNL     1      -3.188  52.206 -12.973  1.00  0.00     0.272 C 
ENDBRANCH  30  31
ENDBRANCH  29  30
ENDBRANCH  28  29
ENDBRANCH  27  28
ENDBRANCH  12  27
TORSDOF 8
ENDMDL
MODEL 6
REMARK minimizedAffinity -8.14345169
REMARK  8 active torsions:
REMARK  status: ('A' for Active; 'I' for Inactive)
REMARK    1  A    between atoms: O1_2  and  C2_3 
REMARK    2  A    between atoms: C5_6  and  N1_7 
REMARK    3  A    between atoms: N1_7  and  C6_8 
REMARK    4  A    between atoms: C16_25  and  O4_26 
REMARK    5  A    between atoms: O4_26  and  C17_27 
REMARK    6  A    between atoms: C17_27  and  C18_28 
REMARK    7  A    between atoms: C18_28  and  C19_29 
REMARK    8  A    between atoms: C19_29  and  N4_30 
ROOT
HETATM    1  C2  UNL     1      -0.355  51.181 -19.637  1.00  0.00     0.102 A 
HETATM    2  C3  UNL     1      -0.373  51.302 -21.027  1.00  0.00     0.057 A 
HETATM    3  C4  UNL     1       0.248  52.401 -21.675  1.00  0.00     0.038 A 
HETATM    4  C5  UNL     1       0.295  52.611 -23.068  1.00  0.00     0.119 A 
HETATM    5  N2  UNL     1       0.879  53.689 -23.619  1.00  0.00    -0.338 N 
ATOM      6  H2  UNL     1       0.882  53.842 -24.627  1.00  0.00     0.168 HD
HETATM    7  C13 UNL     1       1.454  54.548 -22.777  1.00  0.00     0.182 A 
HETATM    8  N3  UNL     1       1.484  54.448 -21.442  1.00  0.00    -0.351 N 
ATOM      9  H3  UNL     1       1.944  55.151 -20.864  1.00  0.00     0.166 HD
HETATM   10  C14 UNL     1       0.883  53.383 -20.905  1.00  0.00     0.050 A 
HETATM   11  C15 UNL     1       0.890  53.252 -19.522  1.00  0.00     0.070 A 
HETATM   12  C16 UNL     1       0.280  52.173 -18.875  1.00  0.00     0.104 A 
ENDROOT
BRANCH   4  13
HETATM   13  N1  UNL     1      -0.310  51.707 -23.968  1.00  0.00    -0.338 N 
HETATM   14  H5  UNL     1      -0.039  50.754 -23.739  1.00  0.00     0.167 HD
BRANCH  13  15
HETATM   15  C6  UNL     1      -0.389  51.874 -25.374  1.00  0.00     0.092 A 
HETATM   16  C7  UNL     1      -1.610  52.240 -25.984  1.00  0.00     0.063 A 
HETATM   17 CL1  UNL     1      -3.057  52.358 -25.038  1.00  0.00    -0.082 Cl
HETATM   18  C8  UNL     1      -1.708  52.486 -27.367  1.00  0.00     0.029 A 
HETATM   19  C9  UNL     1      -0.580  52.388 -28.180  1.00  0.00     0.041 A 
HETATM   20  C10 UNL     1       0.613  52.051 -27.577  1.00  0.00     0.107 A 
HETATM   21  C11 UNL     1       0.713  51.809 -26.222  1.00  0.00     0.133 A 
HETATM   22  O3  UNL     1       1.802  51.925 -28.226  1.00  0.00    -0.323 OA
HETATM   23  O2  UNL     1       1.994  51.498 -25.868  1.00  0.00    -0.321 OA
HETATM   24  C12 UNL     1       2.679  51.602 -27.129  1.00  0.00     0.352 A 
ENDBRANCH  13  15
ENDBRANCH   4  13
BRANCH   1  25
HETATM   25  O1  UNL     1      -0.934  50.153 -18.939  1.00  0.00    -0.353 OA
HETATM   26  C1  UNL     1      -2.281  49.819 -19.247  1.00  0.00     0.210 C 
ENDBRANCH   1  25
BRANCH  12  27
HETATM   27  O4  UNL     1       0.262  51.991 -17.515  1.00  0.00    -0.348 OA
BRANCH  27  28
HETATM   28  C17 UNL     1       1.480  52.177 -16.799  1.00  0.00     0.177 C 
BRANCH  28  29
HETATM   29  C18 UNL     1       1.253  51.849 -15.323  1.00  0.00     0.057 C 
BRANCH  29  30
HETATM   30  C19 UNL     1       0.198  50.748 -15.141  1.00  0.00     0.274 C 
BRANCH  30  31
HETATM   31  N4  UNL     1      -0.975  51.216 -14.383  1.00  0.00     0.088 N 
HETATM   32  C20 UNL     1      -0.564  52.195 -13.358  1.00  0.00     0.272 C 
HETATM   33  C21 UNL     1      -1.558  52.346 -12.198  1.00  0.00     0.030 C 
HETATM   34  C22 UNL     1      -2.983  52.059 -12.644  1.00  0.00     0.003 C 
HETATM   35  C23 UNL     1      -3.092  50.665 -13.265  1.00  0.00     0.030 C 
HETATM   36  C24 UNL     1      -1.753  50.129 -13.790  1.00  0.00     0.272 C 
ENDBRANCH  30  31
ENDBRANCH  29  30
ENDBRANCH  28  29
ENDBRANCH  27  28
ENDBRANCH  12  27
TORSDOF 8
ENDMDL
MODEL 7
REMARK minimizedAffinity -8.1309824
REMARK  8 active torsions:
REMARK  status: ('A' for Active; 'I' for Inactive)
REMARK    1  A    between atoms: O1_2  and  C2_3 
REMARK    2  A    between atoms: C5_6  and  N1_7 
REMARK    3  A    between atoms: N1_7  and  C6_8 
REMARK    4  A    between atoms: C16_25  and  O4_26 
REMARK    5  A    between atoms: O4_26  and  C17_27 
REMARK    6  A    between atoms: C17_27  and  C18_28 
REMARK    7  A    between atoms: C18_28  and  C19_29 
REMARK    8  A    between atoms: C19_29  and  N4_30 
ROOT
HETATM    1  C2  UNL     1      -3.278  51.240 -20.053  1.00  0.00     0.102 A 
HETATM    2  C3  UNL     1      -2.774  51.388 -21.346  1.00  0.00     0.057 A 
HETATM    3  C4  UNL     1      -1.424  51.764 -21.567  1.00  0.00     0.038 A 
HETATM    4  C5  UNL     1      -0.816  51.930 -22.829  1.00  0.00     0.119 A 
HETATM    5  N2  UNL     1       0.464  52.314 -22.971  1.00  0.00    -0.338 N 
ATOM      6  H2  UNL     1       0.884  52.457 -23.889  1.00  0.00     0.168 HD
HETATM    7  C13 UNL     1       1.156  52.500 -21.847  1.00  0.00     0.182 A 
HETATM    8  N3  UNL     1       0.692  52.361 -20.599  1.00  0.00    -0.351 N 
ATOM      9  H3  UNL     1       1.286  52.524 -19.786  1.00  0.00     0.166 HD
HETATM   10  C14 UNL     1      -0.587  51.999 -20.470  1.00  0.00     0.050 A 
HETATM   11  C15 UNL     1      -1.103  51.853 -19.189  1.00  0.00     0.070 A 
HETATM   12  C16 UNL     1      -2.432  51.482 -18.960  1.00  0.00     0.104 A 
ENDROOT
BRANCH   4  13
HETATM   13  N1  UNL     1      -1.540  51.735 -24.024  1.00  0.00    -0.338 N 
HETATM   14  H5  UNL     1      -2.002  50.830 -24.008  1.00  0.00     0.167 HD
BRANCH  13  15
HETATM   15  C6  UNL     1      -1.067  52.025 -25.330  1.00  0.00     0.092 A 
HETATM   16  C7  UNL     1      -1.212  51.078 -26.369  1.00  0.00     0.063 A 
HETATM   17 CL1  UNL     1      -1.845  49.501 -26.032  1.00  0.00    -0.082 Cl
HETATM   18  C8  UNL     1      -0.821  51.359 -27.693  1.00  0.00     0.029 A 
HETATM   19  C9  UNL     1      -0.288  52.605 -28.019  1.00  0.00     0.041 A 
HETATM   20  C10 UNL     1      -0.169  53.532 -27.006  1.00  0.00     0.107 A 
HETATM   21  C11 UNL     1      -0.550  53.261 -25.707  1.00  0.00     0.133 A 
HETATM   22  O3  UNL     1       0.321  54.793 -27.160  1.00  0.00    -0.323 OA
HETATM   23  O2  UNL     1      -0.336  54.336 -24.893  1.00  0.00    -0.321 OA
HETATM   24  C12 UNL     1       0.185  55.304 -25.820  1.00  0.00     0.352 A 
ENDBRANCH  13  15
ENDBRANCH   4  13
BRANCH   1  25
HETATM   25  O1  UNL     1      -4.568  50.884 -19.758  1.00  0.00    -0.353 OA
HETATM   26  C1  UNL     1      -5.306  50.183 -20.751  1.00  0.00     0.210 C 
ENDBRANCH   1  25
BRANCH  12  27
HETATM   27  O4  UNL     1      -2.991  51.318 -17.718  1.00  0.00    -0.348 OA
BRANCH  27  28
HETATM   28  C17 UNL     1      -2.410  50.353 -16.846  1.00  0.00     0.177 C 
BRANCH  28  29
HETATM   29  C18 UNL     1      -1.210  50.977 -16.132  1.00  0.00     0.057 C 
BRANCH  29  30
HETATM   30  C19 UNL     1      -0.022  50.007 -16.061  1.00  0.00     0.274 C 
BRANCH  30  31
HETATM   31  N4  UNL     1       1.272  50.707 -16.020  1.00  0.00     0.088 N 
HETATM   32  C20 UNL     1       1.873  50.593 -14.677  1.00  0.00     0.272 C 
HETATM   33  C21 UNL     1       2.908  51.681 -14.357  1.00  0.00     0.030 C 
HETATM   34  C22 UNL     1       3.609  52.171 -15.614  1.00  0.00     0.003 C 
HETATM   35  C23 UNL     1       2.596  52.682 -16.640  1.00  0.00     0.030 C 
HETATM   36  C24 UNL     1       1.188  52.106 -16.442  1.00  0.00     0.272 C 
ENDBRANCH  30  31
ENDBRANCH  29  30
ENDBRANCH  28  29
ENDBRANCH  27  28
ENDBRANCH  12  27
TORSDOF 8
ENDMDL
MODEL 8
REMARK minimizedAffinity -8.03339577
REMARK  8 active torsions:
REMARK  status: ('A' for Active; 'I' for Inactive)
REMARK    1  A    between atoms: O1_2  and  C2_3 
REMARK    2  A    between atoms: C5_6  and  N1_7 
REMARK    3  A    between atoms: N1_7  and  C6_8 
REMARK    4  A    between atoms: C16_25  and  O4_26 
REMARK    5  A    between atoms: O4_26  and  C17_27 
REMARK    6  A    between atoms: C17_27  and  C18_28 
REMARK    7  A    between atoms: C18_28  and  C19_29 
REMARK    8  A    between atoms: C19_29  and  N4_30 
ROOT
HETATM    1  C2  UNL     1      -4.386  49.156 -25.351  1.00  0.00     0.102 A 
HETATM    2  C3  UNL     1      -3.766  50.292 -24.829  1.00  0.00     0.057 A 
HETATM    3  C4  UNL     1      -2.989  51.146 -25.655  1.00  0.00     0.038 A 
HETATM    4  C5  UNL     1      -2.332  52.319 -25.230  1.00  0.00     0.119 A 
HETATM    5  N2  UNL     1      -1.588  53.072 -26.058  1.00  0.00    -0.338 N 
ATOM      6  H2  UNL     1      -1.096  53.904 -25.732  1.00  0.00     0.168 HD
HETATM    7  C13 UNL     1      -1.527  52.674 -27.329  1.00  0.00     0.182 A 
HETATM    8  N3  UNL     1      -2.117  51.590 -27.848  1.00  0.00    -0.351 N 
ATOM      9  H3  UNL     1      -2.021  51.350 -28.835  1.00  0.00     0.166 HD
HETATM   10  C14 UNL     1      -2.837  50.838 -27.011  1.00  0.00     0.050 A 
HETATM   11  C15 UNL     1      -3.455  49.701 -27.516  1.00  0.00     0.070 A 
HETATM   12  C16 UNL     1      -4.223  48.854 -26.711  1.00  0.00     0.104 A 
ENDROOT
BRANCH   4  13
HETATM   13  N1  UNL     1      -2.390  52.749 -23.887  1.00  0.00    -0.338 N 
HETATM   14  H5  UNL     1      -2.282  53.759 -23.840  1.00  0.00     0.167 HD
BRANCH  13  15
HETATM   15  C6  UNL     1      -1.730  52.130 -22.795  1.00  0.00     0.092 A 
HETATM   16  C7  UNL     1      -0.326  52.225 -22.662  1.00  0.00     0.063 A 
HETATM   17 CL1  UNL     1       0.620  52.981 -23.901  1.00  0.00    -0.082 Cl
HETATM   18  C8  UNL     1       0.354  51.686 -21.553  1.00  0.00     0.029 A 
HETATM   19  C9  UNL     1      -0.353  51.051 -20.534  1.00  0.00     0.041 A 
HETATM   20  C10 UNL     1      -1.724  50.980 -20.659  1.00  0.00     0.107 A 
HETATM   21  C11 UNL     1      -2.396  51.506 -21.744  1.00  0.00     0.133 A 
HETATM   22  O3  UNL     1      -2.558  50.404 -19.750  1.00  0.00    -0.323 OA
HETATM   23  O2  UNL     1      -3.742  51.312 -21.634  1.00  0.00    -0.321 OA
HETATM   24  C12 UNL     1      -3.839  50.645 -20.365  1.00  0.00     0.352 A 
ENDBRANCH  13  15
ENDBRANCH   4  13
BRANCH   1  25
HETATM   25  O1  UNL     1      -5.148  48.282 -24.620  1.00  0.00    -0.353 OA
HETATM   26  C1  UNL     1      -6.405  48.740 -24.139  1.00  0.00     0.210 C 
ENDBRANCH   1  25
BRANCH  12  27
HETATM   27  O4  UNL     1      -4.860  47.724 -27.158  1.00  0.00    -0.348 OA
BRANCH  27  28
HETATM   28  C17 UNL     1      -5.912  47.880 -28.106  1.00  0.00     0.177 C 
BRANCH  28  29
HETATM   29  C18 UNL     1      -5.313  48.003 -29.508  1.00  0.00     0.057 C 
BRANCH  29  30
HETATM   30  C19 UNL     1      -6.277  47.485 -30.586  1.00  0.00     0.274 C 
BRANCH  30  31
HETATM   31  N4  UNL     1      -5.827  47.820 -31.947  1.00  0.00     0.088 N 
HETATM   32  C20 UNL     1      -6.965  47.786 -32.885  1.00  0.00     0.272 C 
HETATM   33  C21 UNL     1      -6.564  47.591 -34.354  1.00  0.00     0.030 C 
HETATM   34  C22 UNL     1      -5.187  48.169 -34.637  1.00  0.00     0.003 C 
HETATM   35  C23 UNL     1      -4.136  47.556 -33.710  1.00  0.00     0.030 C 
HETATM   36  C24 UNL     1      -4.730  46.976 -32.420  1.00  0.00     0.272 C 
ENDBRANCH  30  31
ENDBRANCH  29  30
ENDBRANCH  28  29
ENDBRANCH  27  28
ENDBRANCH  12  27
TORSDOF 8
ENDMDL
MODEL 9
REMARK minimizedAffinity -8.02837563
REMARK  8 active torsions:
REMARK  status: ('A' for Active; 'I' for Inactive)
REMARK    1  A    between atoms: O1_2  and  C2_3 
REMARK    2  A    between atoms: C5_6  and  N1_7 
REMARK    3  A    between atoms: N1_7  and  C6_8 
REMARK    4  A    between atoms: C16_25  and  O4_26 
REMARK    5  A    between atoms: O4_26  and  C17_27 
REMARK    6  A    between atoms: C17_27  and  C18_28 
REMARK    7  A    between atoms: C18_28  and  C19_29 
REMARK    8  A    between atoms: C19_29  and  N4_30 
ROOT
HETATM    1  C2  UNL     1      -2.666  50.911 -21.526  1.00  0.00     0.102 A 
HETATM    2  C3  UNL     1      -1.982  51.361 -20.395  1.00  0.00     0.057 A 
HETATM    3  C4  UNL     1      -0.762  52.075 -20.514  1.00  0.00     0.038 A 
HETATM    4  C5  UNL     1      -0.000  52.580 -19.441  1.00  0.00     0.119 A 
HETATM    5  N2  UNL     1       1.165  53.227 -19.619  1.00  0.00    -0.338 N 
ATOM      6  H2  UNL     1       1.719  53.563 -18.833  1.00  0.00     0.168 HD
HETATM    7  C13 UNL     1       1.556  53.406 -20.881  1.00  0.00     0.182 A 
HETATM    8  N3  UNL     1       0.913  52.985 -21.977  1.00  0.00    -0.351 N 
ATOM      9  H3  UNL     1       1.280  53.160 -22.913  1.00  0.00     0.166 HD
HETATM   10  C14 UNL     1      -0.233  52.325 -21.786  1.00  0.00     0.050 A 
HETATM   11  C15 UNL     1      -0.921  51.868 -22.902  1.00  0.00     0.070 A 
HETATM   12  C16 UNL     1      -2.125  51.163 -22.795  1.00  0.00     0.104 A 
ENDROOT
BRANCH   4  13
HETATM   13  N1  UNL     1      -0.406  52.396 -18.102  1.00  0.00    -0.338 N 
HETATM   14  H5  UNL     1      -0.311  53.267 -17.586  1.00  0.00     0.167 HD
BRANCH  13  15
HETATM   15  C6  UNL     1      -0.056  51.295 -17.278  1.00  0.00     0.092 A 
HETATM   16  C7  UNL     1       1.092  51.353 -16.456  1.00  0.00     0.063 A 
HETATM   17 CL1  UNL     1       2.159  52.715 -16.543  1.00  0.00    -0.082 Cl
HETATM   18  C8  UNL     1       1.429  50.310 -15.572  1.00  0.00     0.029 A 
HETATM   19  C9  UNL     1       0.616  49.182 -15.474  1.00  0.00     0.041 A 
HETATM   20  C10 UNL     1      -0.514  49.139 -16.263  1.00  0.00     0.107 A 
HETATM   21  C11 UNL     1      -0.848  50.159 -17.131  1.00  0.00     0.133 A 
HETATM   22  O3  UNL     1      -1.413  48.118 -16.278  1.00  0.00    -0.323 OA
HETATM   23  O2  UNL     1      -2.007  49.884 -17.795  1.00  0.00    -0.321 OA
HETATM   24  C12 UNL     1      -2.372  48.612 -17.233  1.00  0.00     0.352 A 
ENDBRANCH  13  15
ENDBRANCH   4  13
BRANCH   1  25
HETATM   25  O1  UNL     1      -3.846  50.214 -21.493  1.00  0.00    -0.353 OA
HETATM   26  C1  UNL     1      -4.912  50.750 -20.722  1.00  0.00     0.210 C 
ENDBRANCH   1  25
BRANCH  12  27
HETATM   27  O4  UNL     1      -2.849  50.695 -23.862  1.00  0.00    -0.348 OA
BRANCH  27  28
HETATM   28  C17 UNL     1      -3.799  51.571 -24.462  1.00  0.00     0.177 C 
BRANCH  28  29
HETATM   29  C18 UNL     1      -3.153  52.274 -25.657  1.00  0.00     0.057 C 
BRANCH  29  30
HETATM   30  C19 UNL     1      -2.864  51.295 -26.804  1.00  0.00     0.274 C 
BRANCH  30  31
HETATM   31  N4  UNL     1      -1.500  51.444 -27.337  1.00  0.00     0.088 N 
HETATM   32  C20 UNL     1      -0.541  50.692 -26.506  1.00  0.00     0.272 C 
HETATM   33  C21 UNL     1       0.911  51.179 -26.623  1.00  0.00     0.030 C 
HETATM   34  C22 UNL     1       1.189  51.779 -27.992  1.00  0.00     0.003 C 
HETATM   35  C23 UNL     1       0.215  52.919 -28.297  1.00  0.00     0.030 C 
HETATM   36  C24 UNL     1      -1.085  52.839 -27.487  1.00  0.00     0.272 C 
ENDBRANCH  30  31
ENDBRANCH  29  30
ENDBRANCH  28  29
ENDBRANCH  27  28
ENDBRANCH  12  27
TORSDOF 8
ENDMDL
