MODEL 1
REMARK minimizedAffinity -7.47221088
REMARK CNNscore 0.54961133
REMARK CNNaffinity 6.97504616
REMARK  9 active torsions:
REMARK  status: ('A' for Active; 'I' for Inactive)
REMARK    1  A    between atoms: O1_2  and  C2_3 
REMARK    2  A    between atoms: C2_3  and  C3_4 
REMARK    3  A    between atoms: C3_4  and  C4_5 
REMARK    4  A    between atoms: C4_5  and  O2_6 
REMARK    5  A    between atoms: O2_6  and  C5_7 
REMARK    6  A    between atoms: C15_18  and  O4_19 
REMARK    7  A    between atoms: C21_25  and  O5_27 
REMARK    8  A    between atoms: C23_28  and  O6_29 
REMARK    9  A    between atoms: C29_37  and  O8_38 
ROOT
HETATM    1  C5  UNL     1      -1.458  53.472  -9.552  1.00  0.00     0.122 C 
HETATM    2  C6  UNL     1      -0.307  52.866 -10.383  1.00  0.00     0.033 C 
HETATM    3  C7  UNL     1       1.044  52.920  -9.662  1.00  0.00     0.014 C 
HETATM    4  C8  UNL     1       1.471  54.379  -9.242  1.00  0.00    -0.010 C 
HETATM    5  C9  UNL     1       1.964  55.064 -10.550  1.00  0.00     0.018 C 
HETATM    6  C10 UNL     1       0.211  55.219  -8.838  1.00  0.00     0.073 C 
HETATM    7  C11 UNL     1      -0.969  54.348  -8.391  1.00  0.00     0.045 C 
HETATM    8  C12 UNL     1       0.441  56.395  -7.896  1.00  0.00     0.161 C 
HETATM    9  O3  UNL     1      -0.482  57.177  -7.643  1.00  0.00    -0.292 OA
HETATM   10  C13 UNL     1       1.764  56.627  -7.253  1.00  0.00    -0.005 C 
HETATM   11  C14 UNL     1       2.711  55.671  -7.322  1.00  0.00    -0.013 C 
HETATM   12  C15 UNL     1       3.869  55.789  -6.372  1.00  0.00     0.095 C 
HETATM   13  C16 UNL     1       4.239  57.195  -5.906  1.00  0.00     0.026 C 
HETATM   14  C17 UNL     1       3.017  57.877  -5.312  1.00  0.00     0.013 C 
HETATM   15  C18 UNL     1       1.875  57.869  -6.364  1.00  0.00     0.043 C 
HETATM   16  C19 UNL     1       5.483  56.936  -5.018  1.00  0.00     0.016 C 
HETATM   17  C20 UNL     1       6.013  55.505  -5.432  1.00  0.00     0.034 C 
HETATM   18  C21 UNL     1       7.505  55.179  -5.096  1.00  0.00     0.087 C 
HETATM   19  C22 UNL     1       8.485  56.277  -5.562  1.00  0.00     0.049 C 
HETATM   20  C23 UNL     1       7.669  54.964  -3.522  1.00  0.00     0.181 C 
HETATM   21  C24 UNL     1       7.269  53.620  -2.818  1.00  0.00     0.158 C 
HETATM   22  O7  UNL     1       7.223  53.941  -1.366  1.00  0.00    -0.373 OA
HETATM   23  C25 UNL     1       5.821  54.160  -0.992  1.00  0.00     0.185 C 
HETATM   24  C26 UNL     1       5.013  53.946  -2.272  1.00  0.00     0.028 C 
HETATM   25  C27 UNL     1       3.573  53.560  -1.979  1.00  0.00     0.053 C 
HETATM   26  C28 UNL     1       3.461  52.260  -1.180  1.00  0.00     0.309 C 
HETATM   27  N1  UNL     1       4.624  52.020  -0.300  1.00  0.00     0.128 N 
HETATM   28  C29 UNL     1       5.311  53.217   0.157  1.00  0.00     0.384 C 
HETATM   29  C30 UNL     1       3.221  51.072  -2.155  1.00  0.00     0.233 C 
HETATM   30  O9  UNL     1       3.996  50.127  -2.305  1.00  0.00    -0.277 OA
HETATM   31  N2  UNL     1       1.991  51.194  -2.837  1.00  0.00    -0.243 NA
HETATM   32  C31 UNL     1       1.362  50.023  -3.371  1.00  0.00     0.120 A 
HETATM   33  C32 UNL     1       1.895  51.090  -4.279  1.00  0.00     0.090 A 
HETATM   34  C33 UNL     1       0.893  51.939  -5.017  1.00  0.00     0.115 C 
HETATM   35  C34 UNL     1       1.582  52.689  -6.089  1.00  0.00    -0.104 C 
HETATM   36  C35 UNL     1       2.022  53.384  -6.973  1.00  0.00    -0.090 C 
HETATM   37  C36 UNL     1       2.572  54.322  -8.052  1.00  0.00     0.062 C 
HETATM   38  C37 UNL     1       4.035  53.752  -8.447  1.00  0.00     0.012 C 
HETATM   39  C38 UNL     1       4.800  54.447  -9.606  1.00  0.00     0.007 C 
HETATM   40  C39 UNL     1       6.129  55.087  -9.207  1.00  0.00     0.001 C 
HETATM   41  C40 UNL     1       5.881  55.984  -7.998  1.00  0.00     0.013 C 
HETATM   42  C41 UNL     1       5.264  55.212  -6.791  1.00  0.00     0.002 C 
HETATM   43  C42 UNL     1       4.986  53.753  -7.205  1.00  0.00     0.020 C 
HETATM   44  C43 UNL     1       5.926  52.935  -2.964  1.00  0.00     0.020 C 
HETATM   45  C44 UNL     1       5.523  52.334  -4.280  1.00  0.00     0.013 C 
HETATM   46  H42 UNL     1       4.388  51.384   0.456  1.00  0.00     0.320 HD
ENDROOT
BRANCH   1  47
HETATM   47  O2  UNL     1      -2.245  54.304 -10.419  1.00  0.00    -0.386 OA
BRANCH  47  48
HETATM   48  C4  UNL     1      -3.617  53.929 -10.507  1.00  0.00     0.170 C 
BRANCH  48  49
HETATM   49  C3  UNL     1      -3.939  53.166 -11.794  1.00  0.00     0.052 C 
BRANCH  49  50
HETATM   50  C2  UNL     1      -3.907  51.651 -11.591  1.00  0.00     0.169 C 
BRANCH  50  51
HETATM   51  O1  UNL     1      -4.275  51.345 -10.249  1.00  0.00    -0.396 OA
HETATM   52  C1  UNL     1      -5.185  50.247 -10.182  1.00  0.00     0.201 C 
ENDBRANCH  50  51
ENDBRANCH  49  50
ENDBRANCH  48  49
ENDBRANCH  47  48
ENDBRANCH   1  47
BRANCH  12  53
HETATM   53  O4  UNL     1       3.411  55.097  -5.176  1.00  0.00    -0.384 OA
HETATM   54  H21 UNL     1       2.444  55.166  -5.118  1.00  0.00     0.211 HD
ENDBRANCH  12  53
BRANCH  18  55
HETATM   55  O5  UNL     1       7.911  53.987  -5.777  1.00  0.00    -0.387 OA
HETATM   56  H33 UNL     1       8.814  53.789  -5.466  1.00  0.00     0.210 HD
ENDBRANCH  18  55
BRANCH  20  57
HETATM   57  O6  UNL     1       9.076  55.124  -3.181  1.00  0.00    -0.390 OA
HETATM   58  H35 UNL     1       9.130  54.958  -2.216  1.00  0.00     0.210 HD
ENDBRANCH  20  57
BRANCH  28  59
HETATM   59  O8  UNL     1       4.418  53.933   0.990  1.00  0.00    -0.366 OA
HETATM   60  H44 UNL     1       4.339  53.415   1.802  1.00  0.00     0.212 HD
ENDBRANCH  28  59
TORSDOF 9
ENDMDL
MODEL 2
REMARK minimizedAffinity -7.76001453
REMARK CNNscore 0.378943622
REMARK CNNaffinity 7.35715246
REMARK  9 active torsions:
REMARK  status: ('A' for Active; 'I' for Inactive)
REMARK    1  A    between atoms: O1_2  and  C2_3 
REMARK    2  A    between atoms: C2_3  and  C3_4 
REMARK    3  A    between atoms: C3_4  and  C4_5 
REMARK    4  A    between atoms: C4_5  and  O2_6 
REMARK    5  A    between atoms: O2_6  and  C5_7 
REMARK    6  A    between atoms: C15_18  and  O4_19 
REMARK    7  A    between atoms: C21_25  and  O5_27 
REMARK    8  A    between atoms: C23_28  and  O6_29 
REMARK    9  A    between atoms: C29_37  and  O8_38 
ROOT
HETATM    1  C5  UNL     1       7.427  52.783  -5.287  1.00  0.00     0.122 C 
HETATM    2  C6  UNL     1       6.241  52.642  -4.311  1.00  0.00     0.033 C 
HETATM    3  C7  UNL     1       4.887  52.555  -5.023  1.00  0.00     0.014 C 
HETATM    4  C8  UNL     1       4.593  53.789  -5.961  1.00  0.00    -0.010 C 
HETATM    5  C9  UNL     1       4.194  54.954  -5.009  1.00  0.00     0.018 C 
HETATM    6  C10 UNL     1       5.919  54.295  -6.626  1.00  0.00     0.073 C 
HETATM    7  C11 UNL     1       7.002  53.211  -6.698  1.00  0.00     0.045 C 
HETATM    8  C12 UNL     1       5.784  55.055  -7.941  1.00  0.00     0.161 C 
HETATM    9  O3  UNL     1       6.773  55.594  -8.449  1.00  0.00    -0.292 OA
HETATM   10  C13 UNL     1       4.477  55.158  -8.646  1.00  0.00    -0.005 C 
HETATM   11  C14 UNL     1       3.445  54.391  -8.244  1.00  0.00    -0.013 C 
HETATM   12  C15 UNL     1       2.285  54.260  -9.190  1.00  0.00     0.095 C 
HETATM   13  C16 UNL     1       2.042  55.422 -10.150  1.00  0.00     0.026 C 
HETATM   14  C17 UNL     1       3.312  55.715 -10.933  1.00  0.00     0.013 C 
HETATM   15  C18 UNL     1       4.469  55.987  -9.934  1.00  0.00     0.043 C 
HETATM   16  C19 UNL     1       0.762  54.974 -10.900  1.00  0.00     0.016 C 
HETATM   17  C20 UNL     1       0.106  53.856  -9.995  1.00  0.00     0.034 C 
HETATM   18  C21 UNL     1      -1.418  53.575 -10.211  1.00  0.00     0.087 C 
HETATM   19  C22 UNL     1      -2.279  54.856 -10.202  1.00  0.00     0.049 C 
HETATM   20  C23 UNL     1      -1.633  52.809 -11.596  1.00  0.00     0.181 C 
HETATM   21  C24 UNL     1      -1.377  51.268 -11.746  1.00  0.00     0.158 C 
HETATM   22  O7  UNL     1      -1.330  51.022 -13.212  1.00  0.00    -0.373 OA
HETATM   23  C25 UNL     1       0.080  50.952 -13.617  1.00  0.00     0.185 C 
HETATM   24  C26 UNL     1       0.888  51.150 -12.334  1.00  0.00     0.028 C 
HETATM   25  C27 UNL     1       2.279  50.546 -12.440  1.00  0.00     0.053 C 
HETATM   26  C28 UNL     1       2.249  49.039 -12.698  1.00  0.00     0.309 C 
HETATM   27  N1  UNL     1       1.051  48.603 -13.447  1.00  0.00     0.128 N 
HETATM   28  C29 UNL     1       0.474  49.606 -14.326  1.00  0.00     0.384 C 
HETATM   29  C30 UNL     1       2.394  48.279 -11.348  1.00  0.00     0.233 C 
HETATM   30  O9  UNL     1       1.535  47.535 -10.873  1.00  0.00    -0.277 OA
HETATM   31  N2  UNL     1       3.643  48.525 -10.739  1.00  0.00    -0.243 NA
HETATM   32  C31 UNL     1       4.168  47.580  -9.798  1.00  0.00     0.120 A 
HETATM   33  C32 UNL     1       3.758  48.954  -9.359  1.00  0.00     0.090 A 
HETATM   34  C33 UNL     1       4.851  49.915  -8.971  1.00  0.00     0.115 C 
HETATM   35  C34 UNL     1       4.258  51.071  -8.266  1.00  0.00    -0.104 C 
HETATM   36  C35 UNL     1       3.904  52.083  -7.710  1.00  0.00    -0.090 C 
HETATM   37  C36 UNL     1       3.468  53.402  -7.064  1.00  0.00     0.062 C 
HETATM   38  C37 UNL     1       1.965  53.162  -6.511  1.00  0.00     0.012 C 
HETATM   39  C38 UNL     1       1.294  54.307  -5.706  1.00  0.00     0.007 C 
HETATM   40  C39 UNL     1       0.025  54.879  -6.336  1.00  0.00     0.001 C 
HETATM   41  C40 UNL     1       0.333  55.236  -7.786  1.00  0.00     0.013 C 
HETATM   42  C41 UNL     1       0.849  54.017  -8.611  1.00  0.00     0.002 C 
HETATM   43  C42 UNL     1       0.995  52.795  -7.682  1.00  0.00     0.020 C 
HETATM   44  C43 UNL     1      -0.104  50.560 -11.334  1.00  0.00     0.020 C 
HETATM   45  C44 UNL     1       0.266  50.453  -9.882  1.00  0.00     0.013 C 
HETATM   46  H42 UNL     1       1.211  47.713 -13.908  1.00  0.00     0.320 HD
ENDROOT
BRANCH   1  47
HETATM   47  O2  UNL     1       8.308  53.798  -4.777  1.00  0.00    -0.386 OA
BRANCH  47  48
HETATM   48  C4  UNL     1       7.855  55.132  -4.992  1.00  0.00     0.170 C 
BRANCH  48  49
HETATM   49  C3  UNL     1       8.915  56.017  -5.651  1.00  0.00     0.052 C 
BRANCH  49  50
HETATM   50  C2  UNL     1       9.722  56.813  -4.624  1.00  0.00     0.169 C 
BRANCH  50  51
HETATM   51  O1  UNL     1      10.343  57.922  -5.267  1.00  0.00    -0.396 OA
HETATM   52  C1  UNL     1      11.450  58.423  -4.518  1.00  0.00     0.201 C 
ENDBRANCH  50  51
ENDBRANCH  49  50
ENDBRANCH  48  49
ENDBRANCH  47  48
ENDBRANCH   1  47
BRANCH  12  53
HETATM   53  O4  UNL     1       2.650  53.134 -10.036  1.00  0.00    -0.384 OA
HETATM   54  H21 UNL     1       3.618  53.084 -10.100  1.00  0.00     0.211 HD
ENDBRANCH  12  53
BRANCH  18  55
HETATM   55  O5  UNL     1      -1.922  52.765  -9.145  1.00  0.00    -0.387 OA
HETATM   56  H33 UNL     1      -2.847  52.553  -9.376  1.00  0.00     0.210 HD
ENDBRANCH  18  55
BRANCH  20  57
HETATM   57  O6  UNL     1      -3.024  52.966 -11.996  1.00  0.00    -0.390 OA
HETATM   58  H35 UNL     1      -3.113  52.460 -12.833  1.00  0.00     0.210 HD
ENDBRANCH  20  57
BRANCH  28  59
HETATM   59  O8  UNL     1       1.415  49.873 -15.349  1.00  0.00    -0.366 OA
HETATM   60  H44 UNL     1       1.427  49.086 -15.910  1.00  0.00     0.212 HD
ENDBRANCH  28  59
TORSDOF 9
ENDMDL
MODEL 3
REMARK minimizedAffinity -7.72167492
REMARK CNNscore 0.35328117
REMARK CNNaffinity 7.0488925
REMARK  9 active torsions:
REMARK  status: ('A' for Active; 'I' for Inactive)
REMARK    1  A    between atoms: O1_2  and  C2_3 
REMARK    2  A    between atoms: C2_3  and  C3_4 
REMARK    3  A    between atoms: C3_4  and  C4_5 
REMARK    4  A    between atoms: C4_5  and  O2_6 
REMARK    5  A    between atoms: O2_6  and  C5_7 
REMARK    6  A    between atoms: C15_18  and  O4_19 
REMARK    7  A    between atoms: C21_25  and  O5_27 
REMARK    8  A    between atoms: C23_28  and  O6_29 
REMARK    9  A    between atoms: C29_37  and  O8_38 
ROOT
HETATM    1  C5  UNL     1       7.807  50.587  -6.480  1.00  0.00     0.122 C 
HETATM    2  C6  UNL     1       6.737  50.515  -5.370  1.00  0.00     0.033 C 
HETATM    3  C7  UNL     1       5.329  50.849  -5.874  1.00  0.00     0.014 C 
HETATM    4  C8  UNL     1       5.227  52.271  -6.549  1.00  0.00    -0.010 C 
HETATM    5  C9  UNL     1       5.219  53.293  -5.375  1.00  0.00     0.018 C 
HETATM    6  C10 UNL     1       6.551  52.604  -7.319  1.00  0.00     0.073 C 
HETATM    7  C11 UNL     1       7.337  51.351  -7.725  1.00  0.00     0.045 C 
HETATM    8  C12 UNL     1       6.450  53.609  -8.461  1.00  0.00     0.161 C 
HETATM    9  O3  UNL     1       7.473  54.016  -9.021  1.00  0.00    -0.292 OA
HETATM   10  C13 UNL     1       5.132  54.114  -8.934  1.00  0.00    -0.005 C 
HETATM   11  C14 UNL     1       4.001  53.518  -8.507  1.00  0.00    -0.013 C 
HETATM   12  C15 UNL     1       2.744  53.813  -9.275  1.00  0.00     0.095 C 
HETATM   13  C16 UNL     1       2.671  55.160  -9.991  1.00  0.00     0.026 C 
HETATM   14  C17 UNL     1       3.879  55.323 -10.902  1.00  0.00     0.013 C 
HETATM   15  C18 UNL     1       5.172  55.154 -10.058  1.00  0.00     0.043 C 
HETATM   16  C19 UNL     1       1.247  55.139 -10.600  1.00  0.00     0.016 C 
HETATM   17  C20 UNL     1       0.454  54.032  -9.795  1.00  0.00     0.034 C 
HETATM   18  C21 UNL     1      -1.107  54.121  -9.820  1.00  0.00     0.087 C 
HETATM   19  C22 UNL     1      -1.640  55.528  -9.477  1.00  0.00     0.049 C 
HETATM   20  C23 UNL     1      -1.648  53.692 -11.260  1.00  0.00     0.181 C 
HETATM   21  C24 UNL     1      -1.776  52.188 -11.689  1.00  0.00     0.158 C 
HETATM   22  O7  UNL     1      -1.952  52.219 -13.166  1.00  0.00    -0.373 OA
HETATM   23  C25 UNL     1      -0.652  51.933 -13.785  1.00  0.00     0.185 C 
HETATM   24  C26 UNL     1       0.319  51.712 -12.625  1.00  0.00     0.028 C 
HETATM   25  C27 UNL     1       1.511  50.862 -13.034  1.00  0.00     0.053 C 
HETATM   26  C28 UNL     1       1.103  49.470 -13.521  1.00  0.00     0.309 C 
HETATM   27  N1  UNL     1      -0.239  49.443 -14.139  1.00  0.00     0.128 N 
HETATM   28  C29 UNL     1      -0.663  50.692 -14.750  1.00  0.00     0.384 C 
HETATM   29  C30 UNL     1       1.218  48.456 -12.346  1.00  0.00     0.233 C 
HETATM   30  O9  UNL     1       0.269  47.833 -11.870  1.00  0.00    -0.277 OA
HETATM   31  N2  UNL     1       2.550  48.317 -11.902  1.00  0.00    -0.243 NA
HETATM   32  C31 UNL     1       2.943  47.124 -11.213  1.00  0.00     0.120 A 
HETATM   33  C32 UNL     1       2.915  48.445 -10.505  1.00  0.00     0.090 A 
HETATM   34  C33 UNL     1       4.239  49.066 -10.140  1.00  0.00     0.115 C 
HETATM   35  C34 UNL     1       4.013  50.167  -9.178  1.00  0.00    -0.104 C 
HETATM   36  C35 UNL     1       3.969  51.107  -8.422  1.00  0.00    -0.090 C 
HETATM   37  C36 UNL     1       3.926  52.342  -7.517  1.00  0.00     0.062 C 
HETATM   38  C37 UNL     1       2.481  52.322  -6.788  1.00  0.00     0.012 C 
HETATM   39  C38 UNL     1       2.189  53.409  -5.718  1.00  0.00     0.007 C 
HETATM   40  C39 UNL     1       1.025  54.342  -6.050  1.00  0.00     0.001 C 
HETATM   41  C40 UNL     1       1.242  54.893  -7.456  1.00  0.00     0.013 C 
HETATM   42  C41 UNL     1       1.365  53.770  -8.532  1.00  0.00     0.002 C 
HETATM   43  C42 UNL     1       1.326  52.392  -7.841  1.00  0.00     0.020 C 
HETATM   44  C43 UNL     1      -0.664  51.165 -11.592  1.00  0.00     0.020 C 
HETATM   45  C44 UNL     1      -0.168  50.711 -10.248  1.00  0.00     0.013 C 
HETATM   46  H42 UNL     1      -0.344  48.643 -14.755  1.00  0.00     0.320 HD
ENDROOT
BRANCH   1  47
HETATM   47  O2  UNL     1       8.951  51.280  -5.955  1.00  0.00    -0.386 OA
BRANCH  47  48
HETATM   48  C4  UNL     1      10.027  50.429  -5.569  1.00  0.00     0.170 C 
BRANCH  48  49
HETATM   49  C3  UNL     1      10.812  49.890  -6.766  1.00  0.00     0.052 C 
BRANCH  49  50
HETATM   50  C2  UNL     1      12.281  50.315  -6.731  1.00  0.00     0.169 C 
BRANCH  50  51
HETATM   51  O1  UNL     1      12.480  51.246  -5.671  1.00  0.00    -0.396 OA
HETATM   52  C1  UNL     1      13.424  52.258  -6.018  1.00  0.00     0.201 C 
ENDBRANCH  50  51
ENDBRANCH  49  50
ENDBRANCH  48  49
ENDBRANCH  47  48
ENDBRANCH   1  47
BRANCH  12  53
HETATM   53  O4  UNL     1       2.741  52.815 -10.335  1.00  0.00    -0.384 OA
HETATM   54  H21 UNL     1       3.657  52.577 -10.552  1.00  0.00     0.211 HD
ENDBRANCH  12  53
BRANCH  18  55
HETATM   55  O5  UNL     1      -1.663  53.248  -8.832  1.00  0.00    -0.387 OA
HETATM   56  H33 UNL     1      -2.631  53.282  -8.951  1.00  0.00     0.210 HD
ENDBRANCH  18  55
BRANCH  20  57
HETATM   57  O6  UNL     1      -3.000  54.208 -11.415  1.00  0.00    -0.390 OA
HETATM   58  H35 UNL     1      -3.298  53.900 -12.298  1.00  0.00     0.210 HD
ENDBRANCH  20  57
BRANCH  28  59
HETATM   59  O8  UNL     1       0.193  50.944 -15.849  1.00  0.00    -0.366 OA
HETATM   60  H44 UNL     1      -0.040  50.292 -16.523  1.00  0.00     0.212 HD
ENDBRANCH  28  59
TORSDOF 9
ENDMDL
MODEL 4
REMARK minimizedAffinity -9.39654255
REMARK CNNscore 0.340544283
REMARK CNNaffinity 7.83684778
REMARK  9 active torsions:
REMARK  status: ('A' for Active; 'I' for Inactive)
REMARK    1  A    between atoms: O1_2  and  C2_3 
REMARK    2  A    between atoms: C2_3  and  C3_4 
REMARK    3  A    between atoms: C3_4  and  C4_5 
REMARK    4  A    between atoms: C4_5  and  O2_6 
REMARK    5  A    between atoms: O2_6  and  C5_7 
REMARK    6  A    between atoms: C15_18  and  O4_19 
REMARK    7  A    between atoms: C21_25  and  O5_27 
REMARK    8  A    between atoms: C23_28  and  O6_29 
REMARK    9  A    between atoms: C29_37  and  O8_38 
ROOT
HETATM    1  C5  UNL     1      -0.929  49.650 -21.463  1.00  0.00     0.122 C 
HETATM    2  C6  UNL     1      -0.701  48.133 -21.289  1.00  0.00     0.033 C 
HETATM    3  C7  UNL     1      -1.972  47.308 -21.515  1.00  0.00     0.014 C 
HETATM    4  C8  UNL     1      -3.165  47.726 -20.571  1.00  0.00    -0.010 C 
HETATM    5  C9  UNL     1      -2.830  47.119 -19.178  1.00  0.00     0.018 C 
HETATM    6  C10 UNL     1      -3.140  49.272 -20.315  1.00  0.00     0.073 C 
HETATM    7  C11 UNL     1      -2.410  50.048 -21.418  1.00  0.00     0.045 C 
HETATM    8  C12 UNL     1      -4.463  49.929 -19.935  1.00  0.00     0.161 C 
HETATM    9  O3  UNL     1      -4.490  51.115 -19.592  1.00  0.00    -0.292 OA
HETATM   10  C13 UNL     1      -5.744  49.172 -19.977  1.00  0.00    -0.005 C 
HETATM   11  C14 UNL     1      -5.780  47.961 -20.567  1.00  0.00    -0.013 C 
HETATM   12  C15 UNL     1      -7.135  47.408 -20.906  1.00  0.00     0.095 C 
HETATM   13  C16 UNL     1      -8.306  47.868 -20.039  1.00  0.00     0.026 C 
HETATM   14  C17 UNL     1      -8.362  49.388 -20.018  1.00  0.00     0.013 C 
HETATM   15  C18 UNL     1      -6.994  49.936 -19.529  1.00  0.00     0.043 C 
HETATM   16  C19 UNL     1      -9.492  47.062 -20.625  1.00  0.00     0.016 C 
HETATM   17  C20 UNL     1      -8.842  45.868 -21.430  1.00  0.00     0.034 C 
HETATM   18  C21 UNL     1      -9.748  44.622 -21.702  1.00  0.00     0.087 C 
HETATM   19  C22 UNL     1     -10.457  44.099 -20.435  1.00  0.00     0.049 C 
HETATM   20  C23 UNL     1     -10.844  44.983 -22.806  1.00  0.00     0.181 C 
HETATM   21  C24 UNL     1     -10.507  45.011 -24.338  1.00  0.00     0.158 C 
HETATM   22  O7  UNL     1     -11.646  45.725 -24.974  1.00  0.00    -0.373 OA
HETATM   23  C25 UNL     1     -11.239  47.117 -25.204  1.00  0.00     0.185 C 
HETATM   24  C26 UNL     1      -9.801  47.217 -24.697  1.00  0.00     0.028 C 
HETATM   25  C27 UNL     1      -9.042  48.354 -25.359  1.00  0.00     0.053 C 
HETATM   26  C28 UNL     1      -8.949  48.197 -26.878  1.00  0.00     0.309 C 
HETATM   27  N1  UNL     1     -10.095  47.463 -27.454  1.00  0.00     0.128 N 
HETATM   28  C29 UNL     1     -11.337  47.570 -26.706  1.00  0.00     0.384 C 
HETATM   29  C30 UNL     1      -7.592  47.532 -27.248  1.00  0.00     0.233 C 
HETATM   30  O9  UNL     1      -7.483  46.437 -27.802  1.00  0.00    -0.277 OA
HETATM   31  N2  UNL     1      -6.495  48.345 -26.894  1.00  0.00    -0.243 NA
HETATM   32  C31 UNL     1      -5.242  48.173 -27.567  1.00  0.00     0.120 A 
HETATM   33  C32 UNL     1      -5.383  47.843 -26.111  1.00  0.00     0.090 A 
HETATM   34  C33 UNL     1      -4.702  48.754 -25.123  1.00  0.00     0.115 C 
HETATM   35  C34 UNL     1      -4.670  48.100 -23.797  1.00  0.00    -0.104 C 
HETATM   36  C35 UNL     1      -4.607  47.698 -22.660  1.00  0.00    -0.090 C 
HETATM   37  C36 UNL     1      -4.579  47.236 -21.200  1.00  0.00     0.062 C 
HETATM   38  C37 UNL     1      -4.844  45.639 -21.224  1.00  0.00     0.012 C 
HETATM   39  C38 UNL     1      -4.767  44.867 -19.879  1.00  0.00     0.007 C 
HETATM   40  C39 UNL     1      -6.067  44.186 -19.452  1.00  0.00     0.001 C 
HETATM   41  C40 UNL     1      -7.187  45.220 -19.513  1.00  0.00     0.013 C 
HETATM   42  C41 UNL     1      -7.344  45.855 -20.929  1.00  0.00     0.002 C 
HETATM   43  C42 UNL     1      -6.238  45.317 -21.858  1.00  0.00     0.020 C 
HETATM   44  C43 UNL     1      -9.357  45.778 -24.956  1.00  0.00     0.020 C 
HETATM   45  C44 UNL     1      -7.938  45.367 -24.680  1.00  0.00     0.013 C 
HETATM   46  H42 UNL     1     -10.206  47.673 -28.442  1.00  0.00     0.320 HD
ENDROOT
BRANCH   1  47
HETATM   47  O2  UNL     1      -0.268  50.327 -20.382  1.00  0.00    -0.386 OA
BRANCH  47  48
HETATM   48  C4  UNL     1      -0.651  51.690 -20.221  1.00  0.00     0.170 C 
BRANCH  48  49
HETATM   49  C3  UNL     1       0.227  52.650 -21.028  1.00  0.00     0.052 C 
BRANCH  49  50
HETATM   50  C2  UNL     1       0.879  53.715 -20.146  1.00  0.00     0.169 C 
BRANCH  50  51
HETATM   51  O1  UNL     1       1.827  54.451 -20.915  1.00  0.00    -0.396 OA
HETATM   52  C1  UNL     1       1.487  54.477 -22.300  1.00  0.00     0.201 C 
ENDBRANCH  50  51
ENDBRANCH  49  50
ENDBRANCH  48  49
ENDBRANCH  47  48
ENDBRANCH   1  47
BRANCH  12  53
HETATM   53  O4  UNL     1      -7.408  47.942 -22.232  1.00  0.00    -0.384 OA
HETATM   54  H21 UNL     1      -6.951  48.792 -22.335  1.00  0.00     0.211 HD
ENDBRANCH  12  53
BRANCH  18  55
HETATM   55  O5  UNL     1      -8.950  43.530 -22.173  1.00  0.00    -0.387 OA
HETATM   56  H33 UNL     1      -9.574  42.816 -22.405  1.00  0.00     0.210 HD
ENDBRANCH  18  55
BRANCH  20  57
HETATM   57  O6  UNL     1     -11.927  44.015 -22.711  1.00  0.00    -0.390 OA
HETATM   58  H35 UNL     1     -12.559  44.261 -23.420  1.00  0.00     0.210 HD
ENDBRANCH  20  57
BRANCH  28  59
HETATM   59  O8  UNL     1     -11.757  48.921 -26.763  1.00  0.00    -0.366 OA
HETATM   60  H44 UNL     1     -12.048  49.071 -27.672  1.00  0.00     0.212 HD
ENDBRANCH  28  59
TORSDOF 9
ENDMDL
MODEL 5
REMARK minimizedAffinity -6.54467726
REMARK CNNscore 0.328179121
REMARK CNNaffinity 7.35080481
REMARK  9 active torsions:
REMARK  status: ('A' for Active; 'I' for Inactive)
REMARK    1  A    between atoms: O1_2  and  C2_3 
REMARK    2  A    between atoms: C2_3  and  C3_4 
REMARK    3  A    between atoms: C3_4  and  C4_5 
REMARK    4  A    between atoms: C4_5  and  O2_6 
REMARK    5  A    between atoms: O2_6  and  C5_7 
REMARK    6  A    between atoms: C15_18  and  O4_19 
REMARK    7  A    between atoms: C21_25  and  O5_27 
REMARK    8  A    between atoms: C23_28  and  O6_29 
REMARK    9  A    between atoms: C29_37  and  O8_38 
ROOT
HETATM    1  C5  UNL     1       1.201  51.380 -12.930  1.00  0.00     0.122 C 
HETATM    2  C6  UNL     1       0.255  50.913 -11.804  1.00  0.00     0.033 C 
HETATM    3  C7  UNL     1       0.897  50.983 -10.415  1.00  0.00     0.014 C 
HETATM    4  C8  UNL     1       2.231  50.149 -10.299  1.00  0.00    -0.010 C 
HETATM    5  C9  UNL     1       1.786  48.661 -10.190  1.00  0.00     0.018 C 
HETATM    6  C10 UNL     1       3.023  50.199 -11.651  1.00  0.00     0.073 C 
HETATM    7  C11 UNL     1       2.674  51.425 -12.502  1.00  0.00     0.045 C 
HETATM    8  C12 UNL     1       4.527  49.965 -11.576  1.00  0.00     0.161 C 
HETATM    9  O3  UNL     1       5.190  49.859 -12.614  1.00  0.00    -0.292 OA
HETATM   10  C13 UNL     1       5.234  49.869 -10.270  1.00  0.00    -0.005 C 
HETATM   11  C14 UNL     1       4.585  50.211  -9.139  1.00  0.00    -0.013 C 
HETATM   12  C15 UNL     1       5.425  50.447  -7.916  1.00  0.00     0.095 C 
HETATM   13  C16 UNL     1       6.753  49.695  -7.835  1.00  0.00     0.026 C 
HETATM   14  C17 UNL     1       7.575  49.971  -9.084  1.00  0.00     0.013 C 
HETATM   15  C18 UNL     1       6.738  49.587 -10.334  1.00  0.00     0.043 C 
HETATM   16  C19 UNL     1       7.294  50.122  -6.447  1.00  0.00     0.016 C 
HETATM   17  C20 UNL     1       6.044  50.674  -5.652  1.00  0.00     0.034 C 
HETATM   18  C21 UNL     1       6.156  50.705  -4.092  1.00  0.00     0.087 C 
HETATM   19  C22 UNL     1       6.633  49.366  -3.491  1.00  0.00     0.049 C 
HETATM   20  C23 UNL     1       7.157  51.867  -3.646  1.00  0.00     0.181 C 
HETATM   21  C24 UNL     1       6.718  53.373  -3.596  1.00  0.00     0.158 C 
HETATM   22  O7  UNL     1       7.986  54.144  -3.500  1.00  0.00    -0.373 OA
HETATM   23  C25 UNL     1       8.320  54.638  -4.842  1.00  0.00     0.185 C 
HETATM   24  C26 UNL     1       7.197  54.149  -5.755  1.00  0.00     0.028 C 
HETATM   25  C27 UNL     1       7.055  55.014  -6.996  1.00  0.00     0.053 C 
HETATM   26  C28 UNL     1       6.732  56.472  -6.666  1.00  0.00     0.309 C 
HETATM   27  N1  UNL     1       7.276  56.904  -5.361  1.00  0.00     0.128 N 
HETATM   28  C29 UNL     1       8.472  56.201  -4.927  1.00  0.00     0.384 C 
HETATM   29  C30 UNL     1       5.194  56.695  -6.752  1.00  0.00     0.233 C 
HETATM   30  O9  UNL     1       4.485  57.024  -5.801  1.00  0.00    -0.277 OA
HETATM   31  N2  UNL     1       4.709  56.497  -8.062  1.00  0.00    -0.243 NA
HETATM   32  C31 UNL     1       3.478  57.114  -8.459  1.00  0.00     0.120 A 
HETATM   33  C32 UNL     1       3.587  55.623  -8.346  1.00  0.00     0.090 A 
HETATM   34  C33 UNL     1       3.575  54.825  -9.624  1.00  0.00     0.115 C 
HETATM   35  C34 UNL     1       3.358  53.397  -9.307  1.00  0.00    -0.104 C 
HETATM   36  C35 UNL     1       3.223  52.203  -9.187  1.00  0.00    -0.090 C 
HETATM   37  C36 UNL     1       3.121  50.681  -9.052  1.00  0.00     0.062 C 
HETATM   38  C37 UNL     1       2.534  50.395  -7.570  1.00  0.00     0.012 C 
HETATM   39  C38 UNL     1       2.221  48.925  -7.181  1.00  0.00     0.007 C 
HETATM   40  C39 UNL     1       3.032  48.384  -6.005  1.00  0.00     0.001 C 
HETATM   41  C40 UNL     1       4.508  48.655  -6.279  1.00  0.00     0.013 C 
HETATM   42  C41 UNL     1       4.812  50.168  -6.501  1.00  0.00     0.002 C 
HETATM   43  C42 UNL     1       3.493  50.966  -6.473  1.00  0.00     0.020 C 
HETATM   44  C43 UNL     1       6.058  54.119  -4.737  1.00  0.00     0.020 C 
HETATM   45  C44 UNL     1       4.667  53.756  -5.174  1.00  0.00     0.013 C 
HETATM   46  H42 UNL     1       7.371  57.914  -5.319  1.00  0.00     0.320 HD
ENDROOT
BRANCH   1  47
HETATM   47  O2  UNL     1       1.097  50.447 -14.017  1.00  0.00    -0.386 OA
BRANCH  47  48
HETATM   48  C4  UNL     1       0.261  50.882 -15.086  1.00  0.00     0.170 C 
BRANCH  48  49
HETATM   49  C3  UNL     1       1.044  51.176 -16.367  1.00  0.00     0.052 C 
BRANCH  49  50
HETATM   50  C2  UNL     1       1.617  52.594 -16.381  1.00  0.00     0.169 C 
BRANCH  50  51
HETATM   51  O1  UNL     1       2.940  52.566 -16.911  1.00  0.00    -0.396 OA
HETATM   52  C1  UNL     1       3.927  52.512 -15.882  1.00  0.00     0.201 C 
ENDBRANCH  50  51
ENDBRANCH  49  50
ENDBRANCH  48  49
ENDBRANCH  47  48
ENDBRANCH   1  47
BRANCH  12  53
HETATM   53  O4  UNL     1       5.787  51.853  -8.006  1.00  0.00    -0.384 OA
HETATM   54  H21 UNL     1       5.817  52.116  -8.941  1.00  0.00     0.211 HD
ENDBRANCH  12  53
BRANCH  18  55
HETATM   55  O5  UNL     1       4.869  50.948  -3.514  1.00  0.00    -0.387 OA
HETATM   56  H33 UNL     1       5.014  51.041  -2.553  1.00  0.00     0.210 HD
ENDBRANCH  18  55
BRANCH  20  57
HETATM   57  O6  UNL     1       7.601  51.594  -2.287  1.00  0.00    -0.390 OA
HETATM   58  H35 UNL     1       8.189  52.343  -2.050  1.00  0.00     0.210 HD
ENDBRANCH  20  57
BRANCH  28  59
HETATM   59  O8  UNL     1       9.511  56.522  -5.833  1.00  0.00    -0.366 OA
HETATM   60  H44 UNL     1       9.738  57.445  -5.660  1.00  0.00     0.212 HD
ENDBRANCH  28  59
TORSDOF 9
ENDMDL
MODEL 6
REMARK minimizedAffinity -7.66801834
REMARK CNNscore 0.327182919
REMARK CNNaffinity 6.98646212
REMARK  9 active torsions:
REMARK  status: ('A' for Active; 'I' for Inactive)
REMARK    1  A    between atoms: O1_2  and  C2_3 
REMARK    2  A    between atoms: C2_3  and  C3_4 
REMARK    3  A    between atoms: C3_4  and  C4_5 
REMARK    4  A    between atoms: C4_5  and  O2_6 
REMARK    5  A    between atoms: O2_6  and  C5_7 
REMARK    6  A    between atoms: C15_18  and  O4_19 
REMARK    7  A    between atoms: C21_25  and  O5_27 
REMARK    8  A    between atoms: C23_28  and  O6_29 
REMARK    9  A    between atoms: C29_37  and  O8_38 
ROOT
HETATM    1  C5  UNL     1       7.554  53.463  -4.421  1.00  0.00     0.122 C 
HETATM    2  C6  UNL     1       6.324  53.702  -3.520  1.00  0.00     0.033 C 
HETATM    3  C7  UNL     1       4.998  53.604  -4.280  1.00  0.00     0.014 C 
HETATM    4  C8  UNL     1       4.900  54.598  -5.501  1.00  0.00    -0.010 C 
HETATM    5  C9  UNL     1       4.620  55.998  -4.880  1.00  0.00     0.018 C 
HETATM    6  C10 UNL     1       6.304  54.769  -6.177  1.00  0.00     0.073 C 
HETATM    7  C11 UNL     1       7.239  53.582  -5.918  1.00  0.00     0.045 C 
HETATM    8  C12 UNL     1       6.316  55.197  -7.640  1.00  0.00     0.161 C 
HETATM    9  O3  UNL     1       7.384  55.478  -8.195  1.00  0.00    -0.292 OA
HETATM   10  C13 UNL     1       5.060  55.278  -8.435  1.00  0.00    -0.005 C 
HETATM   11  C14 UNL     1       3.923  54.757  -7.932  1.00  0.00    -0.013 C 
HETATM   12  C15 UNL     1       2.791  54.537  -8.895  1.00  0.00     0.095 C 
HETATM   13  C16 UNL     1       2.735  55.451 -10.117  1.00  0.00     0.026 C 
HETATM   14  C17 UNL     1       4.060  55.394 -10.861  1.00  0.00     0.013 C 
HETATM   15  C18 UNL     1       5.205  55.764  -9.880  1.00  0.00     0.043 C 
HETATM   16  C19 UNL     1       1.436  54.986 -10.823  1.00  0.00     0.016 C 
HETATM   17  C20 UNL     1       0.609  54.206  -9.725  1.00  0.00     0.034 C 
HETATM   18  C21 UNL     1      -0.929  54.060  -9.970  1.00  0.00     0.087 C 
HETATM   19  C22 UNL     1      -1.617  55.396 -10.321  1.00  0.00     0.049 C 
HETATM   20  C23 UNL     1      -1.191  53.011 -11.146  1.00  0.00     0.181 C 
HETATM   21  C24 UNL     1      -1.131  51.461 -10.909  1.00  0.00     0.158 C 
HETATM   22  O7  UNL     1      -1.062  50.863 -12.269  1.00  0.00    -0.373 OA
HETATM   23  C25 UNL     1       0.340  50.532 -12.551  1.00  0.00     0.185 C 
HETATM   24  C26 UNL     1       1.120  50.940 -11.301  1.00  0.00     0.028 C 
HETATM   25  C27 UNL     1       2.424  50.171 -11.168  1.00  0.00     0.053 C 
HETATM   26  C28 UNL     1       2.210  48.660 -11.064  1.00  0.00     0.309 C 
HETATM   27  N1  UNL     1       0.994  48.198 -11.766  1.00  0.00     0.128 N 
HETATM   28  C29 UNL     1       0.583  49.018 -12.894  1.00  0.00     0.384 C 
HETATM   29  C30 UNL     1       2.206  48.239  -9.566  1.00  0.00     0.233 C 
HETATM   30  O9  UNL     1       1.242  47.739  -8.986  1.00  0.00    -0.277 OA
HETATM   31  N2  UNL     1       3.453  48.479  -8.951  1.00  0.00    -0.243 NA
HETATM   32  C31 UNL     1       3.817  47.736  -7.781  1.00  0.00     0.120 A 
HETATM   33  C32 UNL     1       3.572  49.213  -7.707  1.00  0.00     0.090 A 
HETATM   34  C33 UNL     1       4.765  50.106  -7.486  1.00  0.00     0.115 C 
HETATM   35  C34 UNL     1       4.301  51.460  -7.115  1.00  0.00    -0.104 C 
HETATM   36  C35 UNL     1       4.061  52.611  -6.838  1.00  0.00    -0.090 C 
HETATM   37  C36 UNL     1       3.775  54.089  -6.554  1.00  0.00     0.062 C 
HETATM   38  C37 UNL     1       2.235  54.167  -6.061  1.00  0.00     0.012 C 
HETATM   39  C38 UNL     1       1.688  55.544  -5.595  1.00  0.00     0.007 C 
HETATM   40  C39 UNL     1       0.527  56.089  -6.425  1.00  0.00     0.001 C 
HETATM   41  C40 UNL     1       0.932  56.045  -7.896  1.00  0.00     0.013 C 
HETATM   42  C41 UNL     1       1.316  54.610  -8.372  1.00  0.00     0.002 C 
HETATM   43  C42 UNL     1       1.268  53.642  -7.173  1.00  0.00     0.020 C 
HETATM   44  C43 UNL     1       0.025  50.731 -10.257  1.00  0.00     0.020 C 
HETATM   45  C44 UNL     1       0.325  50.937  -8.800  1.00  0.00     0.013 C 
HETATM   46  H42 UNL     1       1.054  47.210 -11.993  1.00  0.00     0.320 HD
ENDROOT
BRANCH   1  47
HETATM   47  O2  UNL     1       8.539  54.461  -4.108  1.00  0.00    -0.386 OA
BRANCH  47  48
HETATM   48  C4  UNL     1       9.886  54.039  -4.304  1.00  0.00     0.170 C 
BRANCH  48  49
HETATM   49  C3  UNL     1      10.836  55.206  -4.584  1.00  0.00     0.052 C 
BRANCH  49  50
HETATM   50  C2  UNL     1      12.284  54.870  -4.226  1.00  0.00     0.169 C 
BRANCH  50  51
HETATM   51  O1  UNL     1      13.132  55.199  -5.324  1.00  0.00    -0.396 OA
HETATM   52  C1  UNL     1      13.542  54.039  -6.047  1.00  0.00     0.201 C 
ENDBRANCH  50  51
ENDBRANCH  49  50
ENDBRANCH  48  49
ENDBRANCH  47  48
ENDBRANCH   1  47
BRANCH  12  53
HETATM   53  O4  UNL     1       3.039  53.204  -9.425  1.00  0.00    -0.384 OA
HETATM   54  H21 UNL     1       3.994  53.027  -9.411  1.00  0.00     0.211 HD
ENDBRANCH  12  53
BRANCH  18  55
HETATM   55  O5  UNL     1      -1.573  53.597  -8.778  1.00  0.00    -0.387 OA
HETATM   56  H33 UNL     1      -2.508  53.445  -9.013  1.00  0.00     0.210 HD
ENDBRANCH  18  55
BRANCH  20  57
HETATM   57  O6  UNL     1      -2.534  53.227 -11.663  1.00  0.00    -0.390 OA
HETATM   58  H35 UNL     1      -2.657  52.548 -12.360  1.00  0.00     0.210 HD
ENDBRANCH  20  57
BRANCH  28  59
HETATM   59  O8  UNL     1       1.587  48.916 -13.887  1.00  0.00    -0.366 OA
HETATM   60  H44 UNL     1       1.519  48.021 -14.243  1.00  0.00     0.212 HD
ENDBRANCH  28  59
TORSDOF 9
ENDMDL
MODEL 7
REMARK minimizedAffinity -7.38598824
REMARK CNNscore 0.319249481
REMARK CNNaffinity 7.07720518
REMARK  9 active torsions:
REMARK  status: ('A' for Active; 'I' for Inactive)
REMARK    1  A    between atoms: O1_2  and  C2_3 
REMARK    2  A    between atoms: C2_3  and  C3_4 
REMARK    3  A    between atoms: C3_4  and  C4_5 
REMARK    4  A    between atoms: C4_5  and  O2_6 
REMARK    5  A    between atoms: O2_6  and  C5_7 
REMARK    6  A    between atoms: C15_18  and  O4_19 
REMARK    7  A    between atoms: C21_25  and  O5_27 
REMARK    8  A    between atoms: C23_28  and  O6_29 
REMARK    9  A    between atoms: C29_37  and  O8_38 
ROOT
HETATM    1  C5  UNL     1       0.723  48.869 -12.411  1.00  0.00     0.122 C 
HETATM    2  C6  UNL     1       2.230  49.175 -12.282  1.00  0.00     0.033 C 
HETATM    3  C7  UNL     1       2.536  50.232 -11.216  1.00  0.00     0.014 C 
HETATM    4  C8  UNL     1       1.787  51.599 -11.456  1.00  0.00    -0.010 C 
HETATM    5  C9  UNL     1       2.562  52.307 -12.605  1.00  0.00     0.018 C 
HETATM    6  C10 UNL     1       0.369  51.341 -12.073  1.00  0.00     0.073 C 
HETATM    7  C11 UNL     1      -0.169  49.938 -11.766  1.00  0.00     0.045 C 
HETATM    8  C12 UNL     1      -0.686  52.418 -11.849  1.00  0.00     0.161 C 
HETATM    9  O3  UNL     1      -1.780  52.342 -12.417  1.00  0.00    -0.292 OA
HETATM   10  C13 UNL     1      -0.436  53.573 -10.943  1.00  0.00    -0.005 C 
HETATM   11  C14 UNL     1       0.644  53.560 -10.136  1.00  0.00    -0.013 C 
HETATM   12  C15 UNL     1       0.659  54.547  -9.004  1.00  0.00     0.095 C 
HETATM   13  C16 UNL     1      -0.127  55.841  -9.204  1.00  0.00     0.026 C 
HETATM   14  C17 UNL     1      -1.563  55.516  -9.581  1.00  0.00     0.013 C 
HETATM   15  C18 UNL     1      -1.560  54.607 -10.841  1.00  0.00     0.043 C 
HETATM   16  C19 UNL     1       0.168  56.617  -7.896  1.00  0.00     0.016 C 
HETATM   17  C20 UNL     1       1.460  55.945  -7.282  1.00  0.00     0.034 C 
HETATM   18  C21 UNL     1       2.286  56.798  -6.263  1.00  0.00     0.087 C 
HETATM   19  C22 UNL     1       2.605  58.217  -6.779  1.00  0.00     0.049 C 
HETATM   20  C23 UNL     1       1.489  56.909  -4.883  1.00  0.00     0.181 C 
HETATM   21  C24 UNL     1       1.482  55.747  -3.829  1.00  0.00     0.158 C 
HETATM   22  O7  UNL     1       0.372  56.075  -2.895  1.00  0.00    -0.373 OA
HETATM   23  C25 UNL     1      -0.799  55.277  -3.281  1.00  0.00     0.185 C 
HETATM   24  C26 UNL     1      -0.350  54.438  -4.478  1.00  0.00     0.028 C 
HETATM   25  C27 UNL     1      -1.187  53.179  -4.636  1.00  0.00     0.053 C 
HETATM   26  C28 UNL     1      -1.107  52.260  -3.416  1.00  0.00     0.309 C 
HETATM   27  N1  UNL     1      -0.865  52.992  -2.155  1.00  0.00     0.128 N 
HETATM   28  C29 UNL     1      -1.354  54.361  -2.131  1.00  0.00     0.384 C 
HETATM   29  C30 UNL     1      -0.031  51.164  -3.663  1.00  0.00     0.233 C 
HETATM   30  O9  UNL     1       0.993  51.031  -2.992  1.00  0.00    -0.277 OA
HETATM   31  N2  UNL     1      -0.380  50.320  -4.739  1.00  0.00    -0.243 NA
HETATM   32  C31 UNL     1       0.179  49.003  -4.812  1.00  0.00     0.120 A 
HETATM   33  C32 UNL     1       0.533  50.045  -5.831  1.00  0.00     0.090 A 
HETATM   34  C33 UNL     1      -0.012  49.868  -7.224  1.00  0.00     0.115 C 
HETATM   35  C34 UNL     1       0.696  50.782  -8.146  1.00  0.00    -0.104 C 
HETATM   36  C35 UNL     1       1.167  51.499  -8.996  1.00  0.00    -0.090 C 
HETATM   37  C36 UNL     1       1.704  52.446 -10.074  1.00  0.00     0.062 C 
HETATM   38  C37 UNL     1       3.099  53.038  -9.504  1.00  0.00     0.012 C 
HETATM   39  C38 UNL     1       3.934  53.958 -10.435  1.00  0.00     0.007 C 
HETATM   40  C39 UNL     1       4.138  55.381  -9.919  1.00  0.00     0.001 C 
HETATM   41  C40 UNL     1       2.774  55.950  -9.541  1.00  0.00     0.013 C 
HETATM   42  C41 UNL     1       2.033  55.085  -8.476  1.00  0.00     0.002 C 
HETATM   43  C42 UNL     1       2.866  53.824  -8.172  1.00  0.00     0.020 C 
HETATM   44  C43 UNL     1       1.132  54.305  -4.134  1.00  0.00     0.020 C 
HETATM   45  C44 UNL     1       2.035  53.475  -5.003  1.00  0.00     0.013 C 
HETATM   46  H42 UNL     1      -1.164  52.448  -1.351  1.00  0.00     0.320 HD
ENDROOT
BRANCH   1  47
HETATM   47  O2  UNL     1       0.394  48.820 -13.809  1.00  0.00    -0.386 OA
BRANCH  47  48
HETATM   48  C4  UNL     1       1.342  49.461 -14.658  1.00  0.00     0.170 C 
BRANCH  48  49
HETATM   49  C3  UNL     1       0.686  50.175 -15.842  1.00  0.00     0.052 C 
BRANCH  49  50
HETATM   50  C2  UNL     1       0.936  51.683 -15.816  1.00  0.00     0.169 C 
BRANCH  50  51
HETATM   51  O1  UNL     1       1.799  52.039 -16.893  1.00  0.00    -0.396 OA
HETATM   52  C1  UNL     1       3.030  52.593 -16.430  1.00  0.00     0.201 C 
ENDBRANCH  50  51
ENDBRANCH  49  50
ENDBRANCH  48  49
ENDBRANCH  47  48
ENDBRANCH   1  47
BRANCH  12  53
HETATM   53  O4  UNL     1      -0.021  53.849  -7.923  1.00  0.00    -0.384 OA
HETATM   54  H21 UNL     1      -0.660  53.223  -8.301  1.00  0.00     0.211 HD
ENDBRANCH  12  53
BRANCH  18  55
HETATM   55  O5  UNL     1       3.555  56.182  -6.023  1.00  0.00    -0.387 OA
HETATM   56  H33 UNL     1       3.986  56.707  -5.323  1.00  0.00     0.210 HD
ENDBRANCH  18  55
BRANCH  20  57
HETATM   57  O6  UNL     1       2.016  58.043  -4.139  1.00  0.00    -0.390 OA
HETATM   58  H35 UNL     1       1.518  58.055  -3.294  1.00  0.00     0.210 HD
ENDBRANCH  20  57
BRANCH  28  59
HETATM   59  O8  UNL     1      -2.766  54.313  -2.210  1.00  0.00    -0.366 OA
HETATM   60  H44 UNL     1      -3.068  53.968  -1.359  1.00  0.00     0.212 HD
ENDBRANCH  28  59
TORSDOF 9
ENDMDL
MODEL 8
REMARK minimizedAffinity -6.55088139
REMARK CNNscore 0.27673012
REMARK CNNaffinity 7.07959509
REMARK  9 active torsions:
REMARK  status: ('A' for Active; 'I' for Inactive)
REMARK    1  A    between atoms: O1_2  and  C2_3 
REMARK    2  A    between atoms: C2_3  and  C3_4 
REMARK    3  A    between atoms: C3_4  and  C4_5 
REMARK    4  A    between atoms: C4_5  and  O2_6 
REMARK    5  A    between atoms: O2_6  and  C5_7 
REMARK    6  A    between atoms: C15_18  and  O4_19 
REMARK    7  A    between atoms: C21_25  and  O5_27 
REMARK    8  A    between atoms: C23_28  and  O6_29 
REMARK    9  A    between atoms: C29_37  and  O8_38 
ROOT
HETATM    1  C5  UNL     1       0.430  53.505  -6.299  1.00  0.00     0.122 C 
HETATM    2  C6  UNL     1      -1.075  53.678  -6.594  1.00  0.00     0.033 C 
HETATM    3  C7  UNL     1      -1.558  52.817  -7.765  1.00  0.00     0.014 C 
HETATM    4  C8  UNL     1      -0.771  53.086  -9.106  1.00  0.00    -0.010 C 
HETATM    5  C9  UNL     1      -1.332  54.429  -9.658  1.00  0.00     0.018 C 
HETATM    6  C10 UNL     1       0.731  53.412  -8.800  1.00  0.00     0.073 C 
HETATM    7  C11 UNL     1       1.201  52.849  -7.453  1.00  0.00     0.045 C 
HETATM    8  C12 UNL     1       1.735  53.141  -9.914  1.00  0.00     0.161 C 
HETATM    9  O3  UNL     1       2.912  53.497  -9.788  1.00  0.00    -0.292 OA
HETATM   10  C13 UNL     1       1.336  52.438 -11.164  1.00  0.00    -0.005 C 
HETATM   11  C14 UNL     1       0.133  51.836 -11.230  1.00  0.00    -0.013 C 
HETATM   12  C15 UNL     1      -0.076  50.851 -12.345  1.00  0.00     0.095 C 
HETATM   13  C16 UNL     1       0.739  51.066 -13.619  1.00  0.00     0.026 C 
HETATM   14  C17 UNL     1       2.218  51.146 -13.274  1.00  0.00     0.013 C 
HETATM   15  C18 UNL     1       2.430  52.269 -12.222  1.00  0.00     0.043 C 
HETATM   16  C19 UNL     1       0.225  49.933 -14.541  1.00  0.00     0.016 C 
HETATM   17  C20 UNL     1      -1.158  49.475 -13.926  1.00  0.00     0.034 C 
HETATM   18  C21 UNL     1      -2.145  48.726 -14.881  1.00  0.00     0.087 C 
HETATM   19  C22 UNL     1      -2.363  49.457 -16.222  1.00  0.00     0.049 C 
HETATM   20  C23 UNL     1      -1.600  47.252 -15.169  1.00  0.00     0.181 C 
HETATM   21  C24 UNL     1      -1.782  46.080 -14.142  1.00  0.00     0.158 C 
HETATM   22  O7  UNL     1      -0.850  45.015 -14.599  1.00  0.00    -0.373 OA
HETATM   23  C25 UNL     1       0.366  45.093 -13.779  1.00  0.00     0.185 C 
HETATM   24  C26 UNL     1       0.130  46.239 -12.796  1.00  0.00     0.028 C 
HETATM   25  C27 UNL     1       0.976  46.096 -11.542  1.00  0.00     0.053 C 
HETATM   26  C28 UNL     1       0.680  44.806 -10.774  1.00  0.00     0.309 C 
HETATM   27  N1  UNL     1       0.225  43.704 -11.648  1.00  0.00     0.128 N 
HETATM   28  C29 UNL     1       0.708  43.761 -13.017  1.00  0.00     0.384 C 
HETATM   29  C30 UNL     1      -0.341  45.102  -9.638  1.00  0.00     0.233 C 
HETATM   30  O9  UNL     1      -1.467  44.607  -9.569  1.00  0.00    -0.277 OA
HETATM   31  N2  UNL     1       0.186  45.991  -8.677  1.00  0.00    -0.243 NA
HETATM   32  C31 UNL     1      -0.358  46.000  -7.352  1.00  0.00     0.120 A 
HETATM   33  C32 UNL     1      -0.524  47.183  -8.258  1.00  0.00     0.090 A 
HETATM   34  C33 UNL     1       0.255  48.429  -7.925  1.00  0.00     0.115 C 
HETATM   35  C34 UNL     1      -0.278  49.563  -8.710  1.00  0.00    -0.104 C 
HETATM   36  C35 UNL     1      -0.590  50.563  -9.312  1.00  0.00    -0.090 C 
HETATM   37  C36 UNL     1      -0.927  51.824 -10.114  1.00  0.00     0.062 C 
HETATM   38  C37 UNL     1      -2.397  51.580 -10.746  1.00  0.00     0.012 C 
HETATM   39  C38 UNL     1      -3.054  52.746 -11.534  1.00  0.00     0.007 C 
HETATM   40  C39 UNL     1      -3.338  52.449 -13.005  1.00  0.00     0.001 C 
HETATM   41  C40 UNL     1      -2.058  51.913 -13.638  1.00  0.00     0.013 C 
HETATM   42  C41 UNL     1      -1.518  50.638 -12.919  1.00  0.00     0.002 C 
HETATM   43  C42 UNL     1      -2.397  50.333 -11.690  1.00  0.00     0.020 C 
HETATM   44  C43 UNL     1      -1.391  46.144 -12.680  1.00  0.00     0.020 C 
HETATM   45  C44 UNL     1      -2.132  47.049 -11.738  1.00  0.00     0.013 C 
HETATM   46  H42 UNL     1       0.377  42.801 -11.209  1.00  0.00     0.320 HD
ENDROOT
BRANCH   1  47
HETATM   47  O2  UNL     1       0.997  54.808  -6.089  1.00  0.00    -0.386 OA
BRANCH  47  48
HETATM   48  C4  UNL     1       0.197  55.883  -6.574  1.00  0.00     0.170 C 
BRANCH  48  49
HETATM   49  C3  UNL     1       1.026  57.107  -6.967  1.00  0.00     0.052 C 
BRANCH  49  50
HETATM   50  C2  UNL     1       2.241  56.733  -7.818  1.00  0.00     0.169 C 
BRANCH  50  51
HETATM   51  O1  UNL     1       3.396  57.397  -7.312  1.00  0.00    -0.396 OA
HETATM   52  C1  UNL     1       3.093  58.204  -6.175  1.00  0.00     0.201 C 
ENDBRANCH  50  51
ENDBRANCH  49  50
ENDBRANCH  48  49
ENDBRANCH  47  48
ENDBRANCH   1  47
BRANCH  12  53
HETATM   53  O4  UNL     1       0.403  49.592 -11.793  1.00  0.00    -0.384 OA
HETATM   54  H21 UNL     1       1.096  49.774 -11.137  1.00  0.00     0.211 HD
ENDBRANCH  12  53
BRANCH  18  55
HETATM   55  O5  UNL     1      -3.439  48.637 -14.277  1.00  0.00    -0.387 OA
HETATM   56  H33 UNL     1      -3.983  48.092 -14.875  1.00  0.00     0.210 HD
ENDBRANCH  18  55
BRANCH  20  57
HETATM   57  O6  UNL     1      -2.244  46.753 -16.376  1.00  0.00    -0.390 OA
HETATM   58  H35 UNL     1      -1.900  45.842 -16.497  1.00  0.00     0.210 HD
ENDBRANCH  20  57
BRANCH  28  59
HETATM   59  O8  UNL     1       2.113  43.587 -12.984  1.00  0.00    -0.366 OA
HETATM   60  H44 UNL     1       2.260  42.662 -12.749  1.00  0.00     0.212 HD
ENDBRANCH  28  59
TORSDOF 9
ENDMDL
MODEL 9
REMARK minimizedAffinity -6.6746273
REMARK CNNscore 0.255533099
REMARK CNNaffinity 6.66980028
REMARK  9 active torsions:
REMARK  status: ('A' for Active; 'I' for Inactive)
REMARK    1  A    between atoms: O1_2  and  C2_3 
REMARK    2  A    between atoms: C2_3  and  C3_4 
REMARK    3  A    between atoms: C3_4  and  C4_5 
REMARK    4  A    between atoms: C4_5  and  O2_6 
REMARK    5  A    between atoms: O2_6  and  C5_7 
REMARK    6  A    between atoms: C15_18  and  O4_19 
REMARK    7  A    between atoms: C21_25  and  O5_27 
REMARK    8  A    between atoms: C23_28  and  O6_29 
REMARK    9  A    between atoms: C29_37  and  O8_38 
ROOT
HETATM    1  C5  UNL     1       5.114  49.999 -10.236  1.00  0.00     0.122 C 
HETATM    2  C6  UNL     1       6.405  50.528  -9.576  1.00  0.00     0.033 C 
HETATM    3  C7  UNL     1       6.135  51.558  -8.475  1.00  0.00     0.014 C 
HETATM    4  C8  UNL     1       5.305  52.804  -8.973  1.00  0.00    -0.010 C 
HETATM    5  C9  UNL     1       6.311  53.686  -9.770  1.00  0.00     0.018 C 
HETATM    6  C10 UNL     1       4.262  52.364 -10.057  1.00  0.00     0.073 C 
HETATM    7  C11 UNL     1       3.888  50.880  -9.959  1.00  0.00     0.045 C 
HETATM    8  C12 UNL     1       3.035  53.251 -10.232  1.00  0.00     0.161 C 
HETATM    9  O3  UNL     1       2.241  53.038 -11.155  1.00  0.00    -0.292 OA
HETATM   10  C13 UNL     1       2.754  54.379  -9.301  1.00  0.00    -0.005 C 
HETATM   11  C14 UNL     1       3.463  54.488  -8.160  1.00  0.00    -0.013 C 
HETATM   12  C15 UNL     1       2.913  55.402  -7.101  1.00  0.00     0.095 C 
HETATM   13  C16 UNL     1       2.048  56.567  -7.576  1.00  0.00     0.026 C 
HETATM   14  C17 UNL     1       0.913  56.045  -8.442  1.00  0.00     0.013 C 
HETATM   15  C18 UNL     1       1.513  55.220  -9.613  1.00  0.00     0.043 C 
HETATM   16  C19 UNL     1       1.728  57.306  -6.252  1.00  0.00     0.016 C 
HETATM   17  C20 UNL     1       2.810  56.809  -5.212  1.00  0.00     0.034 C 
HETATM   18  C21 UNL     1       3.068  57.722  -3.968  1.00  0.00     0.087 C 
HETATM   19  C22 UNL     1       3.312  59.199  -4.340  1.00  0.00     0.049 C 
HETATM   20  C23 UNL     1       1.827  57.631  -2.967  1.00  0.00     0.181 C 
HETATM   21  C24 UNL     1       1.637  56.425  -1.981  1.00  0.00     0.158 C 
HETATM   22  O7  UNL     1       0.230  56.526  -1.510  1.00  0.00    -0.373 OA
HETATM   23  C25 UNL     1      -0.579  55.578  -2.287  1.00  0.00     0.185 C 
HETATM   24  C26 UNL     1       0.396  54.886  -3.240  1.00  0.00     0.028 C 
HETATM   25  C27 UNL     1      -0.111  53.524  -3.683  1.00  0.00     0.053 C 
HETATM   26  C28 UNL     1      -0.319  52.563  -2.512  1.00  0.00     0.309 C 
HETATM   27  N1  UNL     1      -0.664  53.252  -1.251  1.00  0.00     0.128 N 
HETATM   28  C29 UNL     1      -1.348  54.525  -1.409  1.00  0.00     0.384 C 
HETATM   29  C30 UNL     1       0.939  51.661  -2.352  1.00  0.00     0.233 C 
HETATM   30  O9  UNL     1       1.665  51.651  -1.357  1.00  0.00    -0.277 OA
HETATM   31  N2  UNL     1       1.138  50.835  -3.478  1.00  0.00    -0.243 NA
HETATM   32  C31 UNL     1       1.895  49.626  -3.340  1.00  0.00     0.120 A 
HETATM   33  C32 UNL     1       2.411  50.765  -4.168  1.00  0.00     0.090 A 
HETATM   34  C33 UNL     1       2.433  50.584  -5.664  1.00  0.00     0.115 C 
HETATM   35  C34 UNL     1       3.261  51.646  -6.273  1.00  0.00    -0.104 C 
HETATM   36  C35 UNL     1       3.879  52.473  -6.900  1.00  0.00    -0.090 C 
HETATM   37  C36 UNL     1       4.600  53.550  -7.717  1.00  0.00     0.062 C 
HETATM   38  C37 UNL     1       5.584  54.318  -6.686  1.00  0.00     0.012 C 
HETATM   39  C38 UNL     1       6.532  55.406  -7.259  1.00  0.00     0.007 C 
HETATM   40  C39 UNL     1       6.303  56.813  -6.709  1.00  0.00     0.001 C 
HETATM   41  C40 UNL     1       4.820  57.143  -6.849  1.00  0.00     0.013 C 
HETATM   42  C41 UNL     1       3.902  56.116  -6.118  1.00  0.00     0.002 C 
HETATM   43  C42 UNL     1       4.768  54.983  -5.530  1.00  0.00     0.020 C 
HETATM   44  C43 UNL     1       1.661  54.966  -2.386  1.00  0.00     0.020 C 
HETATM   45  C44 UNL     1       2.935  54.335  -2.869  1.00  0.00     0.013 C 
HETATM   46  H42 UNL     1      -1.135  52.625  -0.606  1.00  0.00     0.320 HD
ENDROOT
BRANCH   1  47
HETATM   47  O2  UNL     1       5.315  49.977 -11.659  1.00  0.00    -0.386 OA
BRANCH  47  48
HETATM   48  C4  UNL     1       4.125  49.786 -12.418  1.00  0.00     0.170 C 
BRANCH  48  49
HETATM   49  C3  UNL     1       4.296  50.164 -13.891  1.00  0.00     0.052 C 
BRANCH  49  50
HETATM   50  C2  UNL     1       3.191  51.101 -14.379  1.00  0.00     0.169 C 
BRANCH  50  51
HETATM   51  O1  UNL     1       3.777  52.221 -15.038  1.00  0.00    -0.396 OA
HETATM   52  C1  UNL     1       3.091  52.549 -16.246  1.00  0.00     0.201 C 
ENDBRANCH  50  51
ENDBRANCH  49  50
ENDBRANCH  48  49
ENDBRANCH  47  48
ENDBRANCH   1  47
BRANCH  12  53
HETATM   53  O4  UNL     1       2.018  54.548  -6.335  1.00  0.00    -0.384 OA
HETATM   54  H21 UNL     1       1.667  53.852  -6.914  1.00  0.00     0.211 HD
ENDBRANCH  12  53
BRANCH  18  55
HETATM   55  O5  UNL     1       4.252  57.297  -3.286  1.00  0.00    -0.387 OA
HETATM   56  H33 UNL     1       4.315  57.843  -2.480  1.00  0.00     0.210 HD
ENDBRANCH  18  55
BRANCH  20  57
HETATM   57  O6  UNL     1       1.862  58.790  -2.087  1.00  0.00    -0.390 OA
HETATM   58  H35 UNL     1       1.101  58.678  -1.477  1.00  0.00     0.210 HD
ENDBRANCH  20  57
BRANCH  28  59
HETATM   59  O8  UNL     1      -2.612  54.264  -1.990  1.00  0.00    -0.366 OA
HETATM   60  H44 UNL     1      -3.135  53.830  -1.303  1.00  0.00     0.212 HD
ENDBRANCH  28  59
TORSDOF 9
ENDMDL
