MODEL 1
REMARK minimizedAffinity -7.20984697
REMARK CNNscore 0.307256877
REMARK CNNaffinity 6.69976425
REMARK  7 active torsions:
REMARK  status: ('A' for Active; 'I' for Inactive)
REMARK    1  A    between atoms: C2_2  and  C3_3 
REMARK    2  A    between atoms: C5_5  and  N1_6 
REMARK    3  A    between atoms: C5_5  and  C35_45 
REMARK       I    between atoms: N1_6  and  C6_7 
REMARK    4  A    between atoms: C6_7  and  C7_9 
REMARK    5  A    between atoms: C12_16  and  C13_17 
REMARK       I    between atoms: C35_45  and  N5_47 
REMARK    6  A    between atoms: N5_47  and  S1_48 
REMARK    7  A    between atoms: S1_48  and  C36_51 
ROOT
HETATM    1  C7  UNL     1     -11.496  15.788   1.488  1.00  0.00     0.181 C 
HETATM    2  C8  UNL     1     -10.396  15.763   0.425  1.00  0.00     0.069 C 
HETATM    3  C9  UNL     1      -9.327  14.827   0.992  1.00  0.00     0.154 C 
HETATM    4  C10 UNL     1      -9.739  14.535   2.441  1.00  0.00     0.159 C 
HETATM    5  N2  UNL     1     -10.815  15.501   2.752  1.00  0.00    -0.334 N 
HETATM    6  C11 UNL     1     -10.699  16.255   3.901  1.00  0.00     0.244 C 
HETATM    7  O2  UNL     1      -9.718  15.981   4.627  1.00  0.00    -0.271 OA
HETATM    8  C12 UNL     1     -11.766  17.286   4.500  1.00  0.00     0.186 C 
HETATM    9  N3  UNL     1     -10.957  18.126   5.409  1.00  0.00    -0.323 N 
HETATM   10  C17 UNL     1     -10.554  17.777   6.656  1.00  0.00     0.361 C 
HETATM   11  O3  UNL     1     -10.948  16.830   7.314  1.00  0.00    -0.239 OA
HETATM   12  O4  UNL     1      -9.599  18.671   7.002  1.00  0.00    -0.303 OA
HETATM   13  C18 UNL     1      -8.593  18.326   7.968  1.00  0.00     0.189 C 
HETATM   14  C19 UNL     1      -7.209  18.384   7.232  1.00  0.00    -0.025 C 
HETATM   15  C20 UNL     1      -7.133  19.716   6.445  1.00  0.00     0.017 C 
HETATM   16  C21 UNL     1      -7.193  17.199   6.251  1.00  0.00     0.017 C 
HETATM   17  C22 UNL     1      -6.036  18.272   8.245  1.00  0.00     0.011 C 
HETATM   18  C23 UNL     1      -4.600  18.594   7.764  1.00  0.00     0.001 C 
HETATM   19  C24 UNL     1      -3.951  17.610   6.772  1.00  0.00     0.005 C 
HETATM   20  C25 UNL     1      -3.826  18.149   5.325  1.00  0.00     0.039 C 
HETATM   21  C26 UNL     1      -3.541  17.067   4.304  1.00  0.00    -0.050 A 
HETATM   22  C27 UNL     1      -2.356  16.322   4.396  1.00  0.00     0.007 A 
HETATM   23  C28 UNL     1      -2.081  15.258   3.522  1.00  0.00     0.001 A 
HETATM   24  C29 UNL     1      -2.998  14.903   2.530  1.00  0.00     0.009 A 
HETATM   25  C30 UNL     1      -4.162  15.645   2.417  1.00  0.00    -0.032 A 
HETATM   26  C31 UNL     1      -4.420  16.734   3.268  1.00  0.00    -0.026 A 
HETATM   27  C32 UNL     1      -5.714  17.372   2.851  1.00  0.00     0.168 C 
HETATM   28  N4  UNL     1      -6.271  16.445   1.877  1.00  0.00    -0.320 N 
HETATM   29  C33 UNL     1      -5.316  15.419   1.487  1.00  0.00     0.167 C 
HETATM   30  C34 UNL     1      -7.617  16.409   1.617  1.00  0.00     0.363 C 
HETATM   31  O5  UNL     1      -8.410  17.250   2.026  1.00  0.00    -0.238 OA
HETATM   32  O6  UNL     1      -7.971  15.305   0.900  1.00  0.00    -0.297 OA
HETATM   33  H24 UNL     1     -10.303  18.767   4.992  1.00  0.00     0.165 HD
ENDROOT
BRANCH   1  34
HETATM   34  C6  UNL     1     -12.596  14.737   1.219  1.00  0.00     0.241 C 
HETATM   35  N1  UNL     1     -12.507  14.180  -0.037  1.00  0.00    -0.341 N 
HETATM   36  H7  UNL     1     -11.932  14.709  -0.684  1.00  0.00     0.163 HD
HETATM   37  O1  UNL     1     -13.374  14.369   2.090  1.00  0.00    -0.271 OA
BRANCH  35  38
HETATM   38  C5  UNL     1     -13.309  13.112  -0.609  1.00  0.00     0.122 A 
HETATM   39  C3  UNL     1     -13.402  11.778   0.134  1.00  0.00     0.048 A 
HETATM   40  C4  UNL     1     -14.612  12.667   0.030  1.00  0.00     0.053 A 
BRANCH  39  41
HETATM   41  C2  UNL     1     -13.373  10.505  -0.593  1.00  0.00    -0.029 C 
HETATM   42  C1  UNL     1     -13.455   9.294  -0.032  1.00  0.00     0.007 C 
ENDBRANCH  39  41
BRANCH  38  43
HETATM   43  C35 UNL     1     -13.266  13.087  -2.126  1.00  0.00     0.260 C 
HETATM   44  O7  UNL     1     -14.273  13.283  -2.793  1.00  0.00    -0.270 OA
HETATM   45  N5  UNL     1     -11.982  12.903  -2.638  1.00  0.00    -0.252 N 
HETATM   46  H48 UNL     1     -11.261  12.536  -2.024  1.00  0.00     0.181 HD
BRANCH  45  47
HETATM   47  S1  UNL     1     -11.602  12.741  -4.241  1.00  0.00     0.237 S 
HETATM   48  O8  UNL     1     -10.251  12.243  -4.350  1.00  0.00    -0.205 OA
HETATM   49  O9  UNL     1     -11.971  14.017  -4.823  1.00  0.00    -0.205 OA
BRANCH  47  50
HETATM   50  C36 UNL     1     -12.756  11.531  -4.941  1.00  0.00     0.130 A 
HETATM   51  C37 UNL     1     -12.174  10.665  -6.025  1.00  0.00     0.023 A 
HETATM   52  C38 UNL     1     -12.427  10.093  -4.656  1.00  0.00     0.023 A 
ENDBRANCH  47  50
ENDBRANCH  45  47
ENDBRANCH  38  43
ENDBRANCH  35  38
ENDBRANCH   1  34
BRANCH   8  53
HETATM   53  C13 UNL     1     -12.703  18.265   3.717  1.00  0.00    -0.022 C 
HETATM   54  C14 UNL     1     -14.004  17.587   3.256  1.00  0.00     0.017 C 
HETATM   55  C15 UNL     1     -11.979  19.007   2.581  1.00  0.00     0.017 C 
HETATM   56  C16 UNL     1     -13.225  19.378   4.693  1.00  0.00     0.017 C 
ENDBRANCH   8  53
TORSDOF 7
ENDMDL
MODEL 2
REMARK minimizedAffinity -10.1103706
REMARK CNNscore 0.12062595
REMARK CNNaffinity 5.18616009
REMARK  7 active torsions:
REMARK  status: ('A' for Active; 'I' for Inactive)
REMARK    1  A    between atoms: C2_2  and  C3_3 
REMARK    2  A    between atoms: C5_5  and  N1_6 
REMARK    3  A    between atoms: C5_5  and  C35_45 
REMARK       I    between atoms: N1_6  and  C6_7 
REMARK    4  A    between atoms: C6_7  and  C7_9 
REMARK    5  A    between atoms: C12_16  and  C13_17 
REMARK       I    between atoms: C35_45  and  N5_47 
REMARK    6  A    between atoms: N5_47  and  S1_48 
REMARK    7  A    between atoms: S1_48  and  C36_51 
ROOT
HETATM    1  C7  UNL     1       1.595  10.233  15.031  1.00  0.00     0.181 C 
HETATM    2  C8  UNL     1       2.781  10.722  14.198  1.00  0.00     0.069 C 
HETATM    3  C9  UNL     1       3.976   9.916  14.710  1.00  0.00     0.154 C 
HETATM    4  C10 UNL     1       3.486   9.172  15.959  1.00  0.00     0.159 C 
HETATM    5  N2  UNL     1       2.177   9.771  16.293  1.00  0.00    -0.334 N 
HETATM    6  C11 UNL     1       1.971  10.202  17.587  1.00  0.00     0.244 C 
HETATM    7  O2  UNL     1       2.899   9.958  18.389  1.00  0.00    -0.271 OA
HETATM    8  C12 UNL     1       0.620  10.788  18.214  1.00  0.00     0.186 C 
HETATM    9  N3  UNL     1       1.087  11.508  19.418  1.00  0.00    -0.323 N 
HETATM   10  C17 UNL     1       1.419  10.934  20.601  1.00  0.00     0.361 C 
HETATM   11  O3  UNL     1       1.199   9.786  20.945  1.00  0.00    -0.239 OA
HETATM   12  O4  UNL     1       2.076  11.885  21.304  1.00  0.00    -0.303 OA
HETATM   13  C18 UNL     1       3.020  11.518  22.323  1.00  0.00     0.189 C 
HETATM   14  C19 UNL     1       4.421  12.058  21.871  1.00  0.00    -0.025 C 
HETATM   15  C20 UNL     1       4.254  13.537  21.438  1.00  0.00     0.017 C 
HETATM   16  C21 UNL     1       4.842  11.207  20.662  1.00  0.00     0.017 C 
HETATM   17  C22 UNL     1       5.462  11.933  23.018  1.00  0.00     0.011 C 
HETATM   18  C23 UNL     1       6.819  12.665  22.880  1.00  0.00     0.001 C 
HETATM   19  C24 UNL     1       7.800  12.139  21.816  1.00  0.00     0.005 C 
HETATM   20  C25 UNL     1       7.951  13.056  20.577  1.00  0.00     0.039 C 
HETATM   21  C26 UNL     1       8.610  12.368  19.399  1.00  0.00    -0.050 A 
HETATM   22  C27 UNL     1       9.925  11.892  19.519  1.00  0.00     0.007 A 
HETATM   23  C28 UNL     1      10.552  11.180  18.485  1.00  0.00     0.001 A 
HETATM   24  C29 UNL     1       9.871  10.915  17.295  1.00  0.00     0.009 A 
HETATM   25  C30 UNL     1       8.580  11.398  17.156  1.00  0.00    -0.032 A 
HETATM   26  C31 UNL     1       7.965  12.143  18.177  1.00  0.00    -0.026 A 
HETATM   27  C32 UNL     1       6.610  12.581  17.701  1.00  0.00     0.168 C 
HETATM   28  N4  UNL     1       6.415  11.849  16.459  1.00  0.00    -0.320 N 
HETATM   29  C33 UNL     1       7.632  11.188  16.014  1.00  0.00     0.167 C 
HETATM   30  C34 UNL     1       5.158  11.600  15.969  1.00  0.00     0.363 C 
HETATM   31  O5  UNL     1       4.141  12.116  16.417  1.00  0.00    -0.238 OA
HETATM   32  O6  UNL     1       5.173  10.676  14.967  1.00  0.00    -0.297 OA
HETATM   33  H24 UNL     1       1.605  12.360  19.279  1.00  0.00     0.165 HD
ENDROOT
BRANCH   1  34
HETATM   34  C6  UNL     1       0.828   9.083  14.341  1.00  0.00     0.241 C 
HETATM   35  N1  UNL     1      -0.030   9.526  13.359  1.00  0.00    -0.341 N 
HETATM   36  H7  UNL     1      -0.238  10.518  13.410  1.00  0.00     0.163 HD
HETATM   37  O1  UNL     1       1.066   7.905  14.576  1.00  0.00    -0.271 OA
BRANCH  35  38
HETATM   38  C5  UNL     1      -0.847   8.739  12.452  1.00  0.00     0.122 A 
HETATM   39  C3  UNL     1      -1.798   7.691  13.034  1.00  0.00     0.048 A 
HETATM   40  C4  UNL     1      -2.352   8.924  12.375  1.00  0.00     0.053 A 
BRANCH  39  41
HETATM   41  C2  UNL     1      -1.967   6.385  12.389  1.00  0.00    -0.029 C 
HETATM   42  C1  UNL     1      -2.754   5.400  12.835  1.00  0.00     0.007 C 
ENDBRANCH  39  41
BRANCH  38  43
HETATM   43  C35 UNL     1      -0.145   8.424  11.144  1.00  0.00     0.260 C 
HETATM   44  O7  UNL     1      -0.549   8.876  10.081  1.00  0.00    -0.270 OA
HETATM   45  N5  UNL     1       1.010   7.660  11.309  1.00  0.00    -0.252 N 
HETATM   46  H48 UNL     1       1.141   7.157  12.182  1.00  0.00     0.181 HD
BRANCH  45  47
HETATM   47  S1  UNL     1       1.956   7.073  10.084  1.00  0.00     0.237 S 
HETATM   48  O8  UNL     1       1.564   5.712   9.805  1.00  0.00    -0.205 OA
HETATM   49  O9  UNL     1       3.309   7.384  10.502  1.00  0.00    -0.205 OA
BRANCH  47  50
HETATM   50  C36 UNL     1       1.643   8.109   8.629  1.00  0.00     0.130 A 
HETATM   51  C37 UNL     1       2.875   8.483   7.850  1.00  0.00     0.023 A 
HETATM   52  C38 UNL     1       1.921   7.454   7.305  1.00  0.00     0.023 A 
ENDBRANCH  47  50
ENDBRANCH  45  47
ENDBRANCH  38  43
ENDBRANCH  35  38
ENDBRANCH   1  34
BRANCH   8  53
HETATM   53  C13 UNL     1      -0.434  11.719  17.528  1.00  0.00    -0.022 C 
HETATM   54  C14 UNL     1      -1.422  10.935  16.647  1.00  0.00     0.017 C 
HETATM   55  C15 UNL     1       0.205  12.911  16.796  1.00  0.00     0.017 C 
HETATM   56  C16 UNL     1      -1.372  12.339  18.624  1.00  0.00     0.017 C 
ENDBRANCH   8  53
TORSDOF 7
ENDMDL
MODEL 3
REMARK minimizedAffinity -7.25395107
REMARK CNNscore 0.120100655
REMARK CNNaffinity 5.2270031
REMARK  7 active torsions:
REMARK  status: ('A' for Active; 'I' for Inactive)
REMARK    1  A    between atoms: C2_2  and  C3_3 
REMARK    2  A    between atoms: C5_5  and  N1_6 
REMARK    3  A    between atoms: C5_5  and  C35_45 
REMARK       I    between atoms: N1_6  and  C6_7 
REMARK    4  A    between atoms: C6_7  and  C7_9 
REMARK    5  A    between atoms: C12_16  and  C13_17 
REMARK       I    between atoms: C35_45  and  N5_47 
REMARK    6  A    between atoms: N5_47  and  S1_48 
REMARK    7  A    between atoms: S1_48  and  C36_51 
ROOT
HETATM    1  C7  UNL     1       3.937  11.729  20.887  1.00  0.00     0.181 C 
HETATM    2  C8  UNL     1       3.248  10.415  20.511  1.00  0.00     0.069 C 
HETATM    3  C9  UNL     1       2.793  10.613  19.065  1.00  0.00     0.154 C 
HETATM    4  C10 UNL     1       3.027  12.095  18.741  1.00  0.00     0.159 C 
HETATM    5  N2  UNL     1       3.313  12.746  20.037  1.00  0.00    -0.334 N 
HETATM    6  C11 UNL     1       2.594  13.875  20.370  1.00  0.00     0.244 C 
HETATM    7  O2  UNL     1       1.816  14.297  19.486  1.00  0.00    -0.271 OA
HETATM    8  C12 UNL     1       2.785  14.806  21.658  1.00  0.00     0.186 C 
HETATM    9  N3  UNL     1       1.498  15.529  21.751  1.00  0.00    -0.323 N 
HETATM   10  C17 UNL     1       1.138  16.597  20.998  1.00  0.00     0.361 C 
HETATM   11  O3  UNL     1       1.862  17.266  20.282  1.00  0.00    -0.239 OA
HETATM   12  O4  UNL     1      -0.196  16.744  21.175  1.00  0.00    -0.303 OA
HETATM   13  C18 UNL     1      -1.000  17.384  20.171  1.00  0.00     0.189 C 
HETATM   14  C19 UNL     1      -2.024  16.317  19.651  1.00  0.00    -0.025 C 
HETATM   15  C20 UNL     1      -2.680  15.635  20.878  1.00  0.00     0.017 C 
HETATM   16  C21 UNL     1      -1.206  15.283  18.858  1.00  0.00     0.017 C 
HETATM   17  C22 UNL     1      -3.100  16.975  18.744  1.00  0.00     0.011 C 
HETATM   18  C23 UNL     1      -4.360  16.158  18.364  1.00  0.00     0.001 C 
HETATM   19  C24 UNL     1      -4.165  14.963  17.412  1.00  0.00     0.005 C 
HETATM   20  C25 UNL     1      -4.303  13.577  18.090  1.00  0.00     0.039 C 
HETATM   21  C26 UNL     1      -3.753  12.442  17.251  1.00  0.00    -0.050 A 
HETATM   22  C27 UNL     1      -4.322  12.165  15.999  1.00  0.00     0.007 A 
HETATM   23  C28 UNL     1      -3.799  11.175  15.151  1.00  0.00     0.001 A 
HETATM   24  C29 UNL     1      -2.678  10.437  15.534  1.00  0.00     0.009 A 
HETATM   25  C30 UNL     1      -2.120  10.687  16.776  1.00  0.00    -0.032 A 
HETATM   26  C31 UNL     1      -2.665  11.652  17.641  1.00  0.00    -0.026 A 
HETATM   27  C32 UNL     1      -1.889  11.636  18.927  1.00  0.00     0.168 C 
HETATM   28  N4  UNL     1      -0.748  10.778  18.643  1.00  0.00    -0.320 N 
HETATM   29  C33 UNL     1      -0.888  10.079  17.376  1.00  0.00     0.167 C 
HETATM   30  C34 UNL     1       0.415  10.879  19.365  1.00  0.00     0.363 C 
HETATM   31  O5  UNL     1       0.521  11.541  20.391  1.00  0.00    -0.238 OA
HETATM   32  O6  UNL     1       1.442  10.203  18.777  1.00  0.00    -0.297 OA
HETATM   33  H24 UNL     1       0.687  15.001  22.029  1.00  0.00     0.165 HD
ENDROOT
BRANCH   1  34
HETATM   34  C6  UNL     1       5.461  11.684  20.639  1.00  0.00     0.241 C 
HETATM   35  N1  UNL     1       6.153  12.605  21.394  1.00  0.00    -0.341 N 
HETATM   36  H7  UNL     1       5.571  13.340  21.784  1.00  0.00     0.163 HD
HETATM   37  O1  UNL     1       5.984  10.830  19.934  1.00  0.00    -0.271 OA
BRANCH  35  38
HETATM   38  C5  UNL     1       7.589  12.798  21.488  1.00  0.00     0.122 A 
HETATM   39  C3  UNL     1       8.130  13.883  22.422  1.00  0.00     0.048 A 
HETATM   40  C4  UNL     1       8.360  12.432  22.744  1.00  0.00     0.053 A 
BRANCH  39  41
HETATM   41  C2  UNL     1       9.262  14.727  22.024  1.00  0.00    -0.029 C 
HETATM   42  C1  UNL     1       9.163  15.938  21.469  1.00  0.00     0.007 C 
ENDBRANCH  39  41
BRANCH  38  43
HETATM   43  C35 UNL     1       8.306  12.562  20.172  1.00  0.00     0.260 C 
HETATM   44  O7  UNL     1       7.980  13.159  19.155  1.00  0.00    -0.270 OA
HETATM   45  N5  UNL     1       9.383  11.683  20.280  1.00  0.00    -0.252 N 
HETATM   46  H48 UNL     1       9.439  11.080  21.096  1.00  0.00     0.181 HD
BRANCH  45  47
HETATM   47  S1  UNL     1      10.316  11.146  19.023  1.00  0.00     0.237 S 
HETATM   48  O8  UNL     1       9.499  10.338  18.150  1.00  0.00    -0.205 OA
HETATM   49  O9  UNL     1      11.490  10.589  19.666  1.00  0.00    -0.205 OA
BRANCH  47  50
HETATM   50  C36 UNL     1      10.897  12.613  18.130  1.00  0.00     0.130 A 
HETATM   51  C37 UNL     1      11.869  13.468  18.896  1.00  0.00     0.023 A 
HETATM   52  C38 UNL     1      12.354  12.605  17.763  1.00  0.00     0.023 A 
ENDBRANCH  47  50
ENDBRANCH  45  47
ENDBRANCH  38  43
ENDBRANCH  35  38
ENDBRANCH   1  34
BRANCH   8  53
HETATM   53  C13 UNL     1       3.148  14.369  23.116  1.00  0.00    -0.022 C 
HETATM   54  C14 UNL     1       4.630  14.612  23.448  1.00  0.00     0.017 C 
HETATM   55  C15 UNL     1       2.687  12.939  23.445  1.00  0.00     0.017 C 
HETATM   56  C16 UNL     1       2.411  15.305  24.139  1.00  0.00     0.017 C 
ENDBRANCH   8  53
TORSDOF 7
ENDMDL
MODEL 4
REMARK minimizedAffinity -10.1545773
REMARK CNNscore 0.115566067
REMARK CNNaffinity 7.96135664
REMARK  7 active torsions:
REMARK  status: ('A' for Active; 'I' for Inactive)
REMARK    1  A    between atoms: C2_2  and  C3_3 
REMARK    2  A    between atoms: C5_5  and  N1_6 
REMARK    3  A    between atoms: C5_5  and  C35_45 
REMARK       I    between atoms: N1_6  and  C6_7 
REMARK    4  A    between atoms: C6_7  and  C7_9 
REMARK    5  A    between atoms: C12_16  and  C13_17 
REMARK       I    between atoms: C35_45  and  N5_47 
REMARK    6  A    between atoms: N5_47  and  S1_48 
REMARK    7  A    between atoms: S1_48  and  C36_51 
ROOT
HETATM    1  C7  UNL     1       0.589   9.045  13.540  1.00  0.00     0.181 C 
HETATM    2  C8  UNL     1      -0.560   9.985  13.910  1.00  0.00     0.069 C 
HETATM    3  C9  UNL     1      -1.331   9.248  15.006  1.00  0.00     0.154 C 
HETATM    4  C10 UNL     1      -0.744   7.831  15.062  1.00  0.00     0.159 C 
HETATM    5  N2  UNL     1       0.100   7.700  13.856  1.00  0.00    -0.334 N 
HETATM    6  C11 UNL     1      -0.092   6.602  13.044  1.00  0.00     0.244 C 
HETATM    7  O2  UNL     1      -0.919   5.762  13.463  1.00  0.00    -0.271 OA
HETATM    8  C12 UNL     1       0.753   6.189  11.749  1.00  0.00     0.186 C 
HETATM    9  N3  UNL     1      -0.151   5.264  11.033  1.00  0.00    -0.323 N 
HETATM   10  C17 UNL     1      -0.358   3.961  11.347  1.00  0.00     0.361 C 
HETATM   11  O3  UNL     1       0.299   3.281  12.116  1.00  0.00    -0.239 OA
HETATM   12  O4  UNL     1      -1.462   3.583  10.662  1.00  0.00    -0.303 OA
HETATM   13  C18 UNL     1      -2.278   2.498  11.133  1.00  0.00     0.189 C 
HETATM   14  C19 UNL     1      -3.692   3.092  11.456  1.00  0.00    -0.025 C 
HETATM   15  C20 UNL     1      -4.141   3.959  10.254  1.00  0.00     0.017 C 
HETATM   16  C21 UNL     1      -3.515   3.980  12.699  1.00  0.00     0.017 C 
HETATM   17  C22 UNL     1      -4.720   1.959  11.735  1.00  0.00     0.011 C 
HETATM   18  C23 UNL     1      -6.226   2.313  11.790  1.00  0.00     0.001 C 
HETATM   19  C24 UNL     1      -6.709   3.162  12.981  1.00  0.00     0.005 C 
HETATM   20  C25 UNL     1      -7.075   4.623  12.619  1.00  0.00     0.039 C 
HETATM   21  C26 UNL     1      -7.184   5.530  13.827  1.00  0.00    -0.050 A 
HETATM   22  C27 UNL     1      -8.152   5.267  14.808  1.00  0.00     0.007 A 
HETATM   23  C28 UNL     1      -8.243   6.031  15.982  1.00  0.00     0.001 A 
HETATM   24  C29 UNL     1      -7.355   7.083  16.212  1.00  0.00     0.009 A 
HETATM   25  C30 UNL     1      -6.408   7.366  15.241  1.00  0.00    -0.032 A 
HETATM   26  C31 UNL     1      -6.340   6.625  14.049  1.00  0.00    -0.026 A 
HETATM   27  C32 UNL     1      -5.269   7.216  13.177  1.00  0.00     0.168 C 
HETATM   28  N4  UNL     1      -4.595   8.173  14.041  1.00  0.00    -0.320 N 
HETATM   29  C33 UNL     1      -5.314   8.390  15.287  1.00  0.00     0.167 C 
HETATM   30  C34 UNL     1      -3.304   8.566  13.797  1.00  0.00     0.363 C 
HETATM   31  O5  UNL     1      -2.697   8.300  12.766  1.00  0.00    -0.238 OA
HETATM   32  O6  UNL     1      -2.764   9.235  14.855  1.00  0.00    -0.297 OA
HETATM   33  H24 UNL     1      -0.969   5.657  10.596  1.00  0.00     0.165 HD
ENDROOT
BRANCH   1  34
HETATM   34  C6  UNL     1       1.877   9.349  14.338  1.00  0.00     0.241 C 
HETATM   35  N1  UNL     1       1.925  10.645  14.801  1.00  0.00    -0.341 N 
HETATM   36  H7  UNL     1       1.272  11.272  14.342  1.00  0.00     0.163 HD
HETATM   37  O1  UNL     1       2.692   8.479  14.618  1.00  0.00    -0.271 OA
BRANCH  35  38
HETATM   38  C5  UNL     1       2.930  11.264  15.648  1.00  0.00     0.122 A 
HETATM   39  C3  UNL     1       2.477  12.052  16.878  1.00  0.00     0.048 A 
HETATM   40  C4  UNL     1       3.214  10.751  17.048  1.00  0.00     0.053 A 
BRANCH  39  41
HETATM   41  C2  UNL     1       3.130  13.311  17.251  1.00  0.00    -0.029 C 
HETATM   42  C1  UNL     1       2.740  14.119  18.242  1.00  0.00     0.007 C 
ENDBRANCH  39  41
BRANCH  38  43
HETATM   43  C35 UNL     1       4.127  11.775  14.868  1.00  0.00     0.260 C 
HETATM   44  O7  UNL     1       5.247  11.318  15.052  1.00  0.00    -0.270 OA
HETATM   45  N5  UNL     1       3.793  12.727  13.905  1.00  0.00    -0.252 N 
HETATM   46  H48 UNL     1       2.894  13.195  13.975  1.00  0.00     0.181 HD
BRANCH  45  47
HETATM   47  S1  UNL     1       4.868  13.545  12.949  1.00  0.00     0.237 S 
HETATM   48  O8  UNL     1       5.184  12.728  11.801  1.00  0.00    -0.205 OA
HETATM   49  O9  UNL     1       5.906  13.969  13.867  1.00  0.00    -0.205 OA
BRANCH  47  50
HETATM   50  C36 UNL     1       4.043  15.066  12.406  1.00  0.00     0.130 A 
HETATM   51  C37 UNL     1       4.159  15.349  10.932  1.00  0.00     0.023 A 
HETATM   52  C38 UNL     1       2.855  14.865  11.508  1.00  0.00     0.023 A 
ENDBRANCH  47  50
ENDBRANCH  45  47
ENDBRANCH  38  43
ENDBRANCH  35  38
ENDBRANCH   1  34
BRANCH   8  53
HETATM   53  C13 UNL     1       1.368   7.130  10.661  1.00  0.00    -0.022 C 
HETATM   54  C14 UNL     1       2.680   7.784  11.127  1.00  0.00     0.017 C 
HETATM   55  C15 UNL     1       0.356   8.147  10.107  1.00  0.00     0.017 C 
HETATM   56  C16 UNL     1       1.832   6.271   9.432  1.00  0.00     0.017 C 
ENDBRANCH   8  53
TORSDOF 7
ENDMDL
MODEL 5
REMARK minimizedAffinity -7.51530027
REMARK CNNscore 0.102887578
REMARK CNNaffinity 4.90241766
REMARK  7 active torsions:
REMARK  status: ('A' for Active; 'I' for Inactive)
REMARK    1  A    between atoms: C2_2  and  C3_3 
REMARK    2  A    between atoms: C5_5  and  N1_6 
REMARK    3  A    between atoms: C5_5  and  C35_45 
REMARK       I    between atoms: N1_6  and  C6_7 
REMARK    4  A    between atoms: C6_7  and  C7_9 
REMARK    5  A    between atoms: C12_16  and  C13_17 
REMARK       I    between atoms: C35_45  and  N5_47 
REMARK    6  A    between atoms: N5_47  and  S1_48 
REMARK    7  A    between atoms: S1_48  and  C36_51 
ROOT
HETATM    1  C7  UNL     1       4.920  12.210  17.089  1.00  0.00     0.181 C 
HETATM    2  C8  UNL     1       4.301  13.569  17.421  1.00  0.00     0.069 C 
HETATM    3  C9  UNL     1       3.219  13.261  18.457  1.00  0.00     0.154 C 
HETATM    4  C10 UNL     1       3.099  11.733  18.510  1.00  0.00     0.159 C 
HETATM    5  N2  UNL     1       3.860  11.232  17.346  1.00  0.00    -0.334 N 
HETATM    6  C11 UNL     1       3.240  10.338  16.499  1.00  0.00     0.244 C 
HETATM    7  O2  UNL     1       2.101   9.963  16.854  1.00  0.00    -0.271 OA
HETATM    8  C12 UNL     1       3.880   9.585  15.240  1.00  0.00     0.186 C 
HETATM    9  N3  UNL     1       2.698   9.167  14.456  1.00  0.00    -0.323 N 
HETATM   10  C17 UNL     1       1.908   8.099  14.727  1.00  0.00     0.361 C 
HETATM   11  O3  UNL     1       2.142   7.197  15.513  1.00  0.00    -0.239 OA
HETATM   12  O4  UNL     1       0.794   8.259  13.977  1.00  0.00    -0.303 OA
HETATM   13  C18 UNL     1      -0.449   7.661  14.379  1.00  0.00     0.189 C 
HETATM   14  C19 UNL     1      -1.460   8.831  14.642  1.00  0.00    -0.025 C 
HETATM   15  C20 UNL     1      -1.399   9.805  13.439  1.00  0.00     0.017 C 
HETATM   16  C21 UNL     1      -0.972   9.545  15.914  1.00  0.00     0.017 C 
HETATM   17  C22 UNL     1      -2.902   8.286  14.840  1.00  0.00     0.011 C 
HETATM   18  C23 UNL     1      -4.086   9.282  14.825  1.00  0.00     0.001 C 
HETATM   19  C24 UNL     1      -4.201  10.260  16.010  1.00  0.00     0.005 C 
HETATM   20  C25 UNL     1      -3.847  11.727  15.665  1.00  0.00     0.039 C 
HETATM   21  C26 UNL     1      -3.604  12.589  16.887  1.00  0.00    -0.050 A 
HETATM   22  C27 UNL     1      -4.641  12.793  17.810  1.00  0.00     0.007 A 
HETATM   23  C28 UNL     1      -4.445  13.518  18.996  1.00  0.00     0.001 A 
HETATM   24  C29 UNL     1      -3.192  14.055  19.296  1.00  0.00     0.009 A 
HETATM   25  C30 UNL     1      -2.165  13.878  18.383  1.00  0.00    -0.032 A 
HETATM   26  C31 UNL     1      -2.371  13.184  17.178  1.00  0.00    -0.026 A 
HETATM   27  C32 UNL     1      -1.101  13.225  16.378  1.00  0.00     0.168 C 
HETATM   28  N4  UNL     1      -0.118  13.777  17.299  1.00  0.00    -0.320 N 
HETATM   29  C33 UNL     1      -0.732  14.297  18.510  1.00  0.00     0.167 C 
HETATM   30  C34 UNL     1       1.223  13.542  17.132  1.00  0.00     0.363 C 
HETATM   31  O5  UNL     1       1.702  13.029  16.127  1.00  0.00    -0.238 OA
HETATM   32  O6  UNL     1       1.946  13.897  18.232  1.00  0.00    -0.297 OA
HETATM   33  H24 UNL     1       2.172   9.886  13.986  1.00  0.00     0.165 HD
ENDROOT
BRANCH   1  34
HETATM   34  C6  UNL     1       6.159  11.900  17.959  1.00  0.00     0.241 C 
HETATM   35  N1  UNL     1       6.780  13.037  18.428  1.00  0.00    -0.341 N 
HETATM   36  H7  UNL     1       6.518  13.884  17.934  1.00  0.00     0.163 HD
HETATM   37  O1  UNL     1       6.461  10.759  18.283  1.00  0.00    -0.271 OA
BRANCH  35  38
HETATM   38  C5  UNL     1       7.912  13.138  19.332  1.00  0.00     0.122 A 
HETATM   39  C3  UNL     1       9.218  12.430  18.965  1.00  0.00     0.048 A 
HETATM   40  C4  UNL     1       9.153  13.933  18.965  1.00  0.00     0.053 A 
BRANCH  39  41
HETATM   41  C2  UNL     1      10.013  11.737  19.984  1.00  0.00    -0.029 C 
HETATM   42  C1  UNL     1      11.291  11.999  20.274  1.00  0.00     0.007 C 
ENDBRANCH  39  41
BRANCH  38  43
HETATM   43  C35 UNL     1       7.502  13.176  20.792  1.00  0.00     0.260 C 
HETATM   44  O7  UNL     1       8.113  13.856  21.606  1.00  0.00    -0.270 OA
HETATM   45  N5  UNL     1       6.348  12.440  21.061  1.00  0.00    -0.252 N 
HETATM   46  H48 UNL     1       6.045  11.746  20.383  1.00  0.00     0.181 HD
BRANCH  45  47
HETATM   47  S1  UNL     1       5.686  12.204  22.559  1.00  0.00     0.237 S 
HETATM   48  O8  UNL     1       5.213  13.471  23.063  1.00  0.00    -0.205 OA
HETATM   49  O9  UNL     1       6.695  11.450  23.277  1.00  0.00    -0.205 OA
BRANCH  47  50
HETATM   50  C36 UNL     1       4.287  11.071  22.347  1.00  0.00     0.130 A 
HETATM   51  C37 UNL     1       4.201   9.982  23.382  1.00  0.00     0.023 A 
HETATM   52  C38 UNL     1       3.239  11.139  23.423  1.00  0.00     0.023 A 
ENDBRANCH  47  50
ENDBRANCH  45  47
ENDBRANCH  38  43
ENDBRANCH  35  38
ENDBRANCH   1  34
BRANCH   8  53
HETATM   53  C13 UNL     1       4.915  10.144  14.208  1.00  0.00    -0.022 C 
HETATM   54  C14 UNL     1       4.823   9.436  12.846  1.00  0.00     0.017 C 
HETATM   55  C15 UNL     1       6.348  10.192  14.762  1.00  0.00     0.017 C 
HETATM   56  C16 UNL     1       4.542  11.626  13.848  1.00  0.00     0.017 C 
ENDBRANCH   8  53
TORSDOF 7
ENDMDL
MODEL 6
REMARK minimizedAffinity -7.56058979
REMARK CNNscore 0.0995559618
REMARK CNNaffinity 5.46082878
REMARK  7 active torsions:
REMARK  status: ('A' for Active; 'I' for Inactive)
REMARK    1  A    between atoms: C2_2  and  C3_3 
REMARK    2  A    between atoms: C5_5  and  N1_6 
REMARK    3  A    between atoms: C5_5  and  C35_45 
REMARK       I    between atoms: N1_6  and  C6_7 
REMARK    4  A    between atoms: C6_7  and  C7_9 
REMARK    5  A    between atoms: C12_16  and  C13_17 
REMARK       I    between atoms: C35_45  and  N5_47 
REMARK    6  A    between atoms: N5_47  and  S1_48 
REMARK    7  A    between atoms: S1_48  and  C36_51 
ROOT
HETATM    1  C7  UNL     1      -1.675  13.347  17.392  1.00  0.00     0.181 C 
HETATM    2  C8  UNL     1      -3.092  13.365  16.815  1.00  0.00     0.069 C 
HETATM    3  C9  UNL     1      -3.723  12.056  17.289  1.00  0.00     0.154 C 
HETATM    4  C10 UNL     1      -2.588  11.236  17.918  1.00  0.00     0.159 C 
HETATM    5  N2  UNL     1      -1.339  11.929  17.537  1.00  0.00    -0.334 N 
HETATM    6  C11 UNL     1      -0.330  11.183  16.965  1.00  0.00     0.244 C 
HETATM    7  O2  UNL     1      -0.542   9.952  16.902  1.00  0.00    -0.271 OA
HETATM    8  C12 UNL     1       1.137  11.677  16.561  1.00  0.00     0.186 C 
HETATM    9  N3  UNL     1       1.588  10.655  15.592  1.00  0.00    -0.323 N 
HETATM   10  C17 UNL     1       2.059   9.424  15.906  1.00  0.00     0.361 C 
HETATM   11  O3  UNL     1       2.388   9.025  17.010  1.00  0.00    -0.239 OA
HETATM   12  O4  UNL     1       2.055   8.718  14.752  1.00  0.00    -0.303 OA
HETATM   13  C18 UNL     1       1.964   7.284  14.773  1.00  0.00     0.189 C 
HETATM   14  C19 UNL     1       0.629   6.896  14.048  1.00  0.00    -0.025 C 
HETATM   15  C20 UNL     1       0.557   7.677  12.712  1.00  0.00     0.017 C 
HETATM   16  C21 UNL     1      -0.512   7.347  14.975  1.00  0.00     0.017 C 
HETATM   17  C22 UNL     1       0.558   5.364  13.797  1.00  0.00     0.011 C 
HETATM   18  C23 UNL     1      -0.533   4.812  12.847  1.00  0.00     0.001 C 
HETATM   19  C24 UNL     1      -1.994   4.888  13.329  1.00  0.00     0.005 C 
HETATM   20  C25 UNL     1      -2.854   5.947  12.598  1.00  0.00     0.039 C 
HETATM   21  C26 UNL     1      -4.149   6.268  13.315  1.00  0.00    -0.050 A 
HETATM   22  C27 UNL     1      -5.105   5.258  13.507  1.00  0.00     0.007 A 
HETATM   23  C28 UNL     1      -6.285   5.484  14.232  1.00  0.00     0.001 A 
HETATM   24  C29 UNL     1      -6.538   6.735  14.799  1.00  0.00     0.009 A 
HETATM   25  C30 UNL     1      -5.611   7.745  14.600  1.00  0.00    -0.032 A 
HETATM   26  C31 UNL     1      -4.447   7.530  13.842  1.00  0.00    -0.026 A 
HETATM   27  C32 UNL     1      -3.689   8.823  13.749  1.00  0.00     0.168 C 
HETATM   28  N4  UNL     1      -4.374   9.704  14.683  1.00  0.00    -0.320 N 
HETATM   29  C33 UNL     1      -5.626   9.137  15.158  1.00  0.00     0.167 C 
HETATM   30  C34 UNL     1      -3.736  10.784  15.240  1.00  0.00     0.363 C 
HETATM   31  O5  UNL     1      -2.642  11.192  14.867  1.00  0.00    -0.238 OA
HETATM   32  O6  UNL     1      -4.437  11.310  16.284  1.00  0.00    -0.297 OA
HETATM   33  H24 UNL     1       1.146  10.646  14.686  1.00  0.00     0.165 HD
ENDROOT
BRANCH   1  34
HETATM   34  C6  UNL     1      -1.588  14.063  18.758  1.00  0.00     0.241 C 
HETATM   35  N1  UNL     1      -2.276  15.256  18.781  1.00  0.00    -0.341 N 
HETATM   36  H7  UNL     1      -2.501  15.621  17.861  1.00  0.00     0.163 HD
HETATM   37  O1  UNL     1      -1.064  13.544  19.735  1.00  0.00    -0.271 OA
BRANCH  35  38
HETATM   38  C5  UNL     1      -2.484  16.156  19.902  1.00  0.00     0.122 A 
HETATM   39  C3  UNL     1      -1.288  16.926  20.465  1.00  0.00     0.048 A 
HETATM   40  C4  UNL     1      -2.383  17.662  19.742  1.00  0.00     0.053 A 
BRANCH  39  41
HETATM   41  C2  UNL     1      -1.121  17.110  21.910  1.00  0.00    -0.029 C 
HETATM   42  C1  UNL     1      -1.199  18.280  22.553  1.00  0.00     0.007 C 
ENDBRANCH  39  41
BRANCH  38  43
HETATM   43  C35 UNL     1      -3.538  15.657  20.874  1.00  0.00     0.260 C 
HETATM   44  O7  UNL     1      -3.235  14.982  21.848  1.00  0.00    -0.270 OA
HETATM   45  N5  UNL     1      -4.822  16.112  20.576  1.00  0.00    -0.252 N 
HETATM   46  H48 UNL     1      -5.006  16.475  19.645  1.00  0.00     0.181 HD
BRANCH  45  47
HETATM   47  S1  UNL     1      -6.204  15.685  21.380  1.00  0.00     0.237 S 
HETATM   48  O8  UNL     1      -7.332  16.309  20.731  1.00  0.00    -0.205 OA
HETATM   49  O9  UNL     1      -5.903  15.960  22.772  1.00  0.00    -0.205 OA
BRANCH  47  50
HETATM   50  C36 UNL     1      -6.352  13.882  21.259  1.00  0.00     0.130 A 
HETATM   51  C37 UNL     1      -6.370  13.165  22.582  1.00  0.00     0.023 A 
HETATM   52  C38 UNL     1      -7.638  13.308  21.783  1.00  0.00     0.023 A 
ENDBRANCH  47  50
ENDBRANCH  45  47
ENDBRANCH  38  43
ENDBRANCH  35  38
ENDBRANCH   1  34
BRANCH   8  53
HETATM   53  C13 UNL     1       1.556  13.062  15.964  1.00  0.00    -0.022 C 
HETATM   54  C14 UNL     1       1.781  14.125  17.053  1.00  0.00     0.017 C 
HETATM   55  C15 UNL     1       0.616  13.541  14.845  1.00  0.00     0.017 C 
HETATM   56  C16 UNL     1       2.977  12.938  15.308  1.00  0.00     0.017 C 
ENDBRANCH   8  53
TORSDOF 7
ENDMDL
MODEL 7
REMARK minimizedAffinity -7.77679729
REMARK CNNscore 0.0902027264
REMARK CNNaffinity 5.33514643
REMARK  7 active torsions:
REMARK  status: ('A' for Active; 'I' for Inactive)
REMARK    1  A    between atoms: C2_2  and  C3_3 
REMARK    2  A    between atoms: C5_5  and  N1_6 
REMARK    3  A    between atoms: C5_5  and  C35_45 
REMARK       I    between atoms: N1_6  and  C6_7 
REMARK    4  A    between atoms: C6_7  and  C7_9 
REMARK    5  A    between atoms: C12_16  and  C13_17 
REMARK       I    between atoms: C35_45  and  N5_47 
REMARK    6  A    between atoms: N5_47  and  S1_48 
REMARK    7  A    between atoms: S1_48  and  C36_51 
ROOT
HETATM    1  C7  UNL     1       5.086  11.427  15.852  1.00  0.00     0.181 C 
HETATM    2  C8  UNL     1       4.600  12.806  16.301  1.00  0.00     0.069 C 
HETATM    3  C9  UNL     1       3.638  12.525  17.456  1.00  0.00     0.154 C 
HETATM    4  C10 UNL     1       3.430  11.004  17.478  1.00  0.00     0.159 C 
HETATM    5  N2  UNL     1       4.007  10.504  16.213  1.00  0.00    -0.334 N 
HETATM    6  C11 UNL     1       3.230   9.680  15.425  1.00  0.00     0.244 C 
HETATM    7  O2  UNL     1       2.124   9.360  15.911  1.00  0.00    -0.271 OA
HETATM    8  C12 UNL     1       3.659   8.939  14.073  1.00  0.00     0.186 C 
HETATM    9  N3  UNL     1       2.365   8.620  13.433  1.00  0.00    -0.323 N 
HETATM   10  C17 UNL     1       1.550   7.591  13.771  1.00  0.00     0.361 C 
HETATM   11  O3  UNL     1       1.823   6.648  14.493  1.00  0.00    -0.239 OA
HETATM   12  O4  UNL     1       0.363   7.845  13.173  1.00  0.00    -0.303 OA
HETATM   13  C18 UNL     1      -0.855   7.306  13.712  1.00  0.00     0.189 C 
HETATM   14  C19 UNL     1      -1.749   8.522  14.136  1.00  0.00    -0.025 C 
HETATM   15  C20 UNL     1      -1.779   9.536  12.964  1.00  0.00     0.017 C 
HETATM   16  C21 UNL     1      -1.063   9.158  15.356  1.00  0.00     0.017 C 
HETATM   17  C22 UNL     1      -3.187   8.055  14.498  1.00  0.00     0.011 C 
HETATM   18  C23 UNL     1      -4.299   9.120  14.664  1.00  0.00     0.001 C 
HETATM   19  C24 UNL     1      -4.204  10.057  15.882  1.00  0.00     0.005 C 
HETATM   20  C25 UNL     1      -3.804  11.513  15.539  1.00  0.00     0.039 C 
HETATM   21  C26 UNL     1      -3.356  12.313  16.745  1.00  0.00    -0.050 A 
HETATM   22  C27 UNL     1      -4.255  12.543  17.798  1.00  0.00     0.007 A 
HETATM   23  C28 UNL     1      -3.867  13.210  18.971  1.00  0.00     0.001 A 
HETATM   24  C29 UNL     1      -2.555  13.661  19.125  1.00  0.00     0.009 A 
HETATM   25  C30 UNL     1      -1.664  13.458  18.085  1.00  0.00    -0.032 A 
HETATM   26  C31 UNL     1      -2.062  12.823  16.895  1.00  0.00    -0.026 A 
HETATM   27  C32 UNL     1      -0.901  12.820  15.942  1.00  0.00     0.168 C 
HETATM   28  N4  UNL     1       0.222  13.278  16.747  1.00  0.00    -0.320 N 
HETATM   29  C33 UNL     1      -0.202  13.788  18.041  1.00  0.00     0.167 C 
HETATM   30  C34 UNL     1       1.514  12.971  16.404  1.00  0.00     0.363 C 
HETATM   31  O5  UNL     1       1.831  12.469  15.332  1.00  0.00    -0.238 OA
HETATM   32  O6  UNL     1       2.389  13.242  17.413  1.00  0.00    -0.297 OA
HETATM   33  H24 UNL     1       1.831   9.387  13.056  1.00  0.00     0.165 HD
ENDROOT
BRANCH   1  34
HETATM   34  C6  UNL     1       6.401  11.013  16.549  1.00  0.00     0.241 C 
HETATM   35  N1  UNL     1       7.162  12.093  16.940  1.00  0.00    -0.341 N 
HETATM   36  H7  UNL     1       6.901  12.965  16.491  1.00  0.00     0.163 HD
HETATM   37  O1  UNL     1       6.657   9.847  16.822  1.00  0.00    -0.271 OA
BRANCH  35  38
HETATM   38  C5  UNL     1       8.407  12.096  17.687  1.00  0.00     0.122 A 
HETATM   39  C3  UNL     1       9.617  11.357  17.111  1.00  0.00     0.048 A 
HETATM   40  C4  UNL     1       9.625  12.859  17.198  1.00  0.00     0.053 A 
BRANCH  39  41
HETATM   41  C2  UNL     1      10.506  10.575  17.976  1.00  0.00    -0.029 C 
HETATM   42  C1  UNL     1      11.661  11.010  18.489  1.00  0.00     0.007 C 
ENDBRANCH  39  41
BRANCH  38  43
HETATM   43  C35 UNL     1       8.197  12.066  19.189  1.00  0.00     0.260 C 
HETATM   44  O7  UNL     1       7.424  11.272  19.707  1.00  0.00    -0.270 OA
HETATM   45  N5  UNL     1       9.017  12.959  19.879  1.00  0.00    -0.252 N 
HETATM   46  H48 UNL     1       9.455  13.716  19.362  1.00  0.00     0.181 HD
BRANCH  45  47
HETATM   47  S1  UNL     1       8.977  13.237  21.510  1.00  0.00     0.237 S 
HETATM   48  O8  UNL     1       9.788  14.395  21.804  1.00  0.00    -0.205 OA
HETATM   49  O9  UNL     1       9.284  11.948  22.097  1.00  0.00    -0.205 OA
BRANCH  47  50
HETATM   50  C36 UNL     1       7.250  13.576  21.947  1.00  0.00     0.130 A 
HETATM   51  C37 UNL     1       6.698  12.701  23.040  1.00  0.00     0.023 A 
HETATM   52  C38 UNL     1       7.037  14.140  23.325  1.00  0.00     0.023 A 
ENDBRANCH  47  50
ENDBRANCH  45  47
ENDBRANCH  38  43
ENDBRANCH  35  38
ENDBRANCH   1  34
BRANCH   8  53
HETATM   53  C13 UNL     1       4.590   9.475  12.936  1.00  0.00    -0.022 C 
HETATM   54  C14 UNL     1       4.487  11.000  12.766  1.00  0.00     0.017 C 
HETATM   55  C15 UNL     1       4.419   8.712  11.611  1.00  0.00     0.017 C 
HETATM   56  C16 UNL     1       6.091   9.279  13.355  1.00  0.00     0.017 C 
ENDBRANCH   8  53
TORSDOF 7
ENDMDL
MODEL 8
REMARK minimizedAffinity -9.90624428
REMARK CNNscore 0.0858721435
REMARK CNNaffinity 5.00176287
REMARK  7 active torsions:
REMARK  status: ('A' for Active; 'I' for Inactive)
REMARK    1  A    between atoms: C2_2  and  C3_3 
REMARK    2  A    between atoms: C5_5  and  N1_6 
REMARK    3  A    between atoms: C5_5  and  C35_45 
REMARK       I    between atoms: N1_6  and  C6_7 
REMARK    4  A    between atoms: C6_7  and  C7_9 
REMARK    5  A    between atoms: C12_16  and  C13_17 
REMARK       I    between atoms: C35_45  and  N5_47 
REMARK    6  A    between atoms: N5_47  and  S1_48 
REMARK    7  A    between atoms: S1_48  and  C36_51 
ROOT
HETATM    1  C7  UNL     1       1.628  10.397  15.179  1.00  0.00     0.181 C 
HETATM    2  C8  UNL     1       2.826  10.842  14.339  1.00  0.00     0.069 C 
HETATM    3  C9  UNL     1       3.988   9.976  14.826  1.00  0.00     0.154 C 
HETATM    4  C10 UNL     1       3.478   9.237  16.071  1.00  0.00     0.159 C 
HETATM    5  N2  UNL     1       2.202   9.892  16.429  1.00  0.00    -0.334 N 
HETATM    6  C11 UNL     1       2.030  10.314  17.731  1.00  0.00     0.244 C 
HETATM    7  O2  UNL     1       2.955  10.017  18.518  1.00  0.00    -0.271 OA
HETATM    8  C12 UNL     1       0.715  10.953  18.381  1.00  0.00     0.186 C 
HETATM    9  N3  UNL     1       1.228  11.635  19.589  1.00  0.00    -0.323 N 
HETATM   10  C17 UNL     1       1.546  11.030  20.760  1.00  0.00     0.361 C 
HETATM   11  O3  UNL     1       1.277   9.889  21.092  1.00  0.00    -0.239 OA
HETATM   12  O4  UNL     1       2.255  11.940  21.468  1.00  0.00    -0.303 OA
HETATM   13  C18 UNL     1       3.192  11.515  22.471  1.00  0.00     0.189 C 
HETATM   14  C19 UNL     1       4.611  11.996  22.009  1.00  0.00    -0.025 C 
HETATM   15  C20 UNL     1       4.509  13.486  21.598  1.00  0.00     0.017 C 
HETATM   16  C21 UNL     1       4.979  11.143  20.784  1.00  0.00     0.017 C 
HETATM   17  C22 UNL     1       5.658  11.807  23.143  1.00  0.00     0.011 C 
HETATM   18  C23 UNL     1       7.046  12.477  22.998  1.00  0.00     0.001 C 
HETATM   19  C24 UNL     1       7.990  11.920  21.916  1.00  0.00     0.005 C 
HETATM   20  C25 UNL     1       8.170  12.846  20.687  1.00  0.00     0.039 C 
HETATM   21  C26 UNL     1       8.783  12.145  19.493  1.00  0.00    -0.050 A 
HETATM   22  C27 UNL     1      10.075  11.606  19.591  1.00  0.00     0.007 A 
HETATM   23  C28 UNL     1      10.657  10.880  18.540  1.00  0.00     0.001 A 
HETATM   24  C29 UNL     1       9.951  10.664  17.355  1.00  0.00     0.009 A 
HETATM   25  C30 UNL     1       8.683  11.208  17.238  1.00  0.00    -0.032 A 
HETATM   26  C31 UNL     1       8.115  11.967  18.276  1.00  0.00    -0.026 A 
HETATM   27  C32 UNL     1       6.776  12.474  17.822  1.00  0.00     0.168 C 
HETATM   28  N4  UNL     1       6.534  11.769  16.572  1.00  0.00    -0.320 N 
HETATM   29  C33 UNL     1       7.713  11.058  16.105  1.00  0.00     0.167 C 
HETATM   30  C34 UNL     1       5.261  11.585  16.093  1.00  0.00     0.363 C 
HETATM   31  O5  UNL     1       4.274  12.142  16.561  1.00  0.00    -0.238 OA
HETATM   32  O6  UNL     1       5.222  10.676  15.079  1.00  0.00    -0.297 OA
HETATM   33  H24 UNL     1       1.784  12.464  19.455  1.00  0.00     0.165 HD
ENDROOT
BRANCH   1  34
HETATM   34  C6  UNL     1       0.800   9.294  14.484  1.00  0.00     0.241 C 
HETATM   35  N1  UNL     1       0.824   9.394  13.110  1.00  0.00    -0.341 N 
HETATM   36  H7  UNL     1       1.136  10.296  12.767  1.00  0.00     0.163 HD
HETATM   37  O1  UNL     1       0.290   8.370  15.105  1.00  0.00    -0.271 OA
BRANCH  35  38
HETATM   38  C5  UNL     1       0.237   8.497  12.130  1.00  0.00     0.122 A 
HETATM   39  C3  UNL     1       0.845   8.433  10.728  1.00  0.00     0.048 A 
HETATM   40  C4  UNL     1       0.965   7.254  11.654  1.00  0.00     0.053 A 
BRANCH  39  41
HETATM   41  C2  UNL     1      -0.007   8.339   9.538  1.00  0.00    -0.029 C 
HETATM   42  C1  UNL     1       0.431   8.185   8.285  1.00  0.00     0.007 C 
ENDBRANCH  39  41
BRANCH  38  43
HETATM   43  C35 UNL     1      -1.270   8.378  12.265  1.00  0.00     0.260 C 
HETATM   44  O7  UNL     1      -2.020   9.211  11.774  1.00  0.00    -0.270 OA
HETATM   45  N5  UNL     1      -1.675   7.213  12.915  1.00  0.00    -0.252 N 
HETATM   46  H48 UNL     1      -0.994   6.703  13.470  1.00  0.00     0.181 HD
BRANCH  45  47
HETATM   47  S1  UNL     1      -3.237   6.820  13.301  1.00  0.00     0.237 S 
HETATM   48  O8  UNL     1      -4.102   7.899  12.888  1.00  0.00    -0.205 OA
HETATM   49  O9  UNL     1      -3.167   6.416  14.692  1.00  0.00    -0.205 OA
BRANCH  47  50
HETATM   50  C36 UNL     1      -3.650   5.318  12.374  1.00  0.00     0.130 A 
HETATM   51  C37 UNL     1      -3.458   4.037  13.141  1.00  0.00     0.023 A 
HETATM   52  C38 UNL     1      -4.845   4.561  12.882  1.00  0.00     0.023 A 
ENDBRANCH  47  50
ENDBRANCH  45  47
ENDBRANCH  38  43
ENDBRANCH  35  38
ENDBRANCH   1  34
BRANCH   8  53
HETATM   53  C13 UNL     1      -0.302  11.942  17.720  1.00  0.00    -0.022 C 
HETATM   54  C14 UNL     1       0.381  12.920  16.748  1.00  0.00     0.017 C 
HETATM   55  C15 UNL     1      -1.203  12.650  18.745  1.00  0.00     0.017 C 
HETATM   56  C16 UNL     1      -1.268  11.142  16.776  1.00  0.00     0.017 C 
ENDBRANCH   8  53
TORSDOF 7
ENDMDL
MODEL 9
REMARK minimizedAffinity -11.2573986
REMARK CNNscore 0.0818727911
REMARK CNNaffinity 7.46898222
REMARK  7 active torsions:
REMARK  status: ('A' for Active; 'I' for Inactive)
REMARK    1  A    between atoms: C2_2  and  C3_3 
REMARK    2  A    between atoms: C5_5  and  N1_6 
REMARK    3  A    between atoms: C5_5  and  C35_45 
REMARK       I    between atoms: N1_6  and  C6_7 
REMARK    4  A    between atoms: C6_7  and  C7_9 
REMARK    5  A    between atoms: C12_16  and  C13_17 
REMARK       I    between atoms: C35_45  and  N5_47 
REMARK    6  A    between atoms: N5_47  and  S1_48 
REMARK    7  A    between atoms: S1_48  and  C36_51 
ROOT
HETATM    1  C7  UNL     1       0.533   9.137  13.383  1.00  0.00     0.181 C 
HETATM    2  C8  UNL     1      -0.612  10.087  13.740  1.00  0.00     0.069 C 
HETATM    3  C9  UNL     1      -1.369   9.381  14.865  1.00  0.00     0.154 C 
HETATM    4  C10 UNL     1      -0.780   7.967  14.955  1.00  0.00     0.159 C 
HETATM    5  N2  UNL     1       0.050   7.802  13.743  1.00  0.00    -0.334 N 
HETATM    6  C11 UNL     1      -0.151   6.681  12.965  1.00  0.00     0.244 C 
HETATM    7  O2  UNL     1      -0.972   5.853  13.418  1.00  0.00    -0.271 OA
HETATM    8  C12 UNL     1       0.678   6.231  11.672  1.00  0.00     0.186 C 
HETATM    9  N3  UNL     1      -0.233   5.286  10.994  1.00  0.00    -0.323 N 
HETATM   10  C17 UNL     1      -0.435   3.992  11.347  1.00  0.00     0.361 C 
HETATM   11  O3  UNL     1       0.232   3.335  12.127  1.00  0.00    -0.239 OA
HETATM   12  O4  UNL     1      -1.546   3.594  10.687  1.00  0.00    -0.303 OA
HETATM   13  C18 UNL     1      -2.355   2.523  11.199  1.00  0.00     0.189 C 
HETATM   14  C19 UNL     1      -3.767   3.124  11.522  1.00  0.00    -0.025 C 
HETATM   15  C20 UNL     1      -4.231   3.957  10.300  1.00  0.00     0.017 C 
HETATM   16  C21 UNL     1      -3.575   4.047  12.737  1.00  0.00     0.017 C 
HETATM   17  C22 UNL     1      -4.789   1.999  11.845  1.00  0.00     0.011 C 
HETATM   18  C23 UNL     1      -6.295   2.353  11.908  1.00  0.00     0.001 C 
HETATM   19  C24 UNL     1      -6.764   3.236  13.081  1.00  0.00     0.005 C 
HETATM   20  C25 UNL     1      -7.136   4.685  12.682  1.00  0.00     0.039 C 
HETATM   21  C26 UNL     1      -7.232   5.627  13.864  1.00  0.00    -0.050 A 
HETATM   22  C27 UNL     1      -8.188   5.390  14.864  1.00  0.00     0.007 A 
HETATM   23  C28 UNL     1      -8.266   6.187  16.017  1.00  0.00     0.001 A 
HETATM   24  C29 UNL     1      -7.376   7.246  16.206  1.00  0.00     0.009 A 
HETATM   25  C30 UNL     1      -6.441   7.502  15.216  1.00  0.00    -0.032 A 
HETATM   26  C31 UNL     1      -6.387   6.727  14.044  1.00  0.00    -0.026 A 
HETATM   27  C32 UNL     1      -5.327   7.294  13.143  1.00  0.00     0.168 C 
HETATM   28  N4  UNL     1      -4.644   8.276  13.972  1.00  0.00    -0.320 N 
HETATM   29  C33 UNL     1      -5.348   8.528  15.219  1.00  0.00     0.167 C 
HETATM   30  C34 UNL     1      -3.355   8.663  13.701  1.00  0.00     0.363 C 
HETATM   31  O5  UNL     1      -2.761   8.368  12.670  1.00  0.00    -0.238 OA
HETATM   32  O6  UNL     1      -2.803   9.362  14.733  1.00  0.00    -0.297 OA
HETATM   33  H24 UNL     1      -1.057   5.665  10.555  1.00  0.00     0.165 HD
ENDROOT
BRANCH   1  34
HETATM   34  C6  UNL     1       1.830   9.465  14.156  1.00  0.00     0.241 C 
HETATM   35  N1  UNL     1       2.627  10.377  13.500  1.00  0.00    -0.341 N 
HETATM   36  H7  UNL     1       2.399  10.492  12.518  1.00  0.00     0.163 HD
HETATM   37  O1  UNL     1       2.043   9.040  15.284  1.00  0.00    -0.271 OA
BRANCH  35  38
HETATM   38  C5  UNL     1       3.869  10.979  13.952  1.00  0.00     0.122 A 
HETATM   39  C3  UNL     1       4.228  12.386  13.468  1.00  0.00     0.048 A 
HETATM   40  C4  UNL     1       3.878  12.154  14.913  1.00  0.00     0.053 A 
BRANCH  39  41
HETATM   41  C2  UNL     1       5.605  12.729  13.100  1.00  0.00    -0.029 C 
HETATM   42  C1  UNL     1       5.966  13.393  11.997  1.00  0.00     0.007 C 
ENDBRANCH  39  41
BRANCH  38  43
HETATM   43  C35 UNL     1       4.990   9.970  14.119  1.00  0.00     0.260 C 
HETATM   44  O7  UNL     1       5.474   9.735  15.218  1.00  0.00    -0.270 OA
HETATM   45  N5  UNL     1       5.325   9.316  12.934  1.00  0.00    -0.252 N 
HETATM   46  H48 UNL     1       5.030   9.726  12.052  1.00  0.00     0.181 HD
BRANCH  45  47
HETATM   47  S1  UNL     1       6.558   8.227  12.753  1.00  0.00     0.237 S 
HETATM   48  O8  UNL     1       6.429   7.206  13.766  1.00  0.00    -0.205 OA
HETATM   49  O9  UNL     1       7.749   9.050  12.676  1.00  0.00    -0.205 OA
BRANCH  47  50
HETATM   50  C36 UNL     1       6.370   7.482  11.111  1.00  0.00     0.130 A 
HETATM   51  C37 UNL     1       6.899   6.078  10.996  1.00  0.00     0.023 A 
HETATM   52  C38 UNL     1       5.414   6.324  11.038  1.00  0.00     0.023 A 
ENDBRANCH  47  50
ENDBRANCH  45  47
ENDBRANCH  38  43
ENDBRANCH  35  38
ENDBRANCH   1  34
BRANCH   8  53
HETATM   53  C13 UNL     1       1.279   7.142  10.550  1.00  0.00    -0.022 C 
HETATM   54  C14 UNL     1       0.310   8.256  10.120  1.00  0.00     0.017 C 
HETATM   55  C15 UNL     1       1.835   6.340   9.361  1.00  0.00     0.017 C 
HETATM   56  C16 UNL     1       2.493   7.951  11.130  1.00  0.00     0.017 C 
ENDBRANCH   8  53
TORSDOF 7
ENDMDL
