MODEL 1
REMARK minimizedAffinity -9.16320801
REMARK  6 active torsions:
REMARK  status: ('A' for Active; 'I' for Inactive)
REMARK    1  A    between atoms: C2_2  and  O2_4 
REMARK    2  A    between atoms: O2_4  and  C3_5 
REMARK    3  A    between atoms: C13_15  and  C14_16 
REMARK    4  A    between atoms: C14_16  and  C16_18 
REMARK    5  A    between atoms: C16_18  and  C17_19 
REMARK    6  A    between atoms: C17_19  and  C18_20 
ROOT
HETATM    1  C3  UNL     1      -0.077  53.577 -25.175  1.00  0.00     0.132 C 
HETATM    2  C4  UNL     1       0.836  52.598 -24.430  1.00  0.00     0.033 C 
HETATM    3  C5  UNL     1       0.254  52.189 -23.078  1.00  0.00     0.013 C 
HETATM    4  C6  UNL     1      -1.153  51.637 -23.254  1.00  0.00    -0.028 A 
HETATM    5  C7  UNL     1      -1.280  50.172 -23.588  1.00  0.00     0.021 A 
HETATM    6  C8  UNL     1      -1.753  50.662 -22.224  1.00  0.00    -0.027 A 
HETATM    7  C9  UNL     1      -0.912  50.177 -21.057  1.00  0.00     0.011 C 
HETATM    8  C10 UNL     1      -1.575  48.978 -20.404  1.00  0.00     0.011 C 
HETATM    9  C11 UNL     1      -2.940  49.275 -19.744  1.00  0.00    -0.032 C 
HETATM   10  C12 UNL     1      -3.752  47.960 -19.850  1.00  0.00     0.016 C 
HETATM   11  C13 UNL     1      -2.875  49.772 -18.255  1.00  0.00    -0.002 C 
HETATM   12  C22 UNL     1      -2.619  51.280 -18.354  1.00  0.00     0.006 C 
HETATM   13  C23 UNL     1      -3.265  51.749 -19.651  1.00  0.00     0.011 C 
HETATM   14  C24 UNL     1      -3.679  50.489 -20.465  1.00  0.00    -0.032 C 
HETATM   15  C25 UNL     1      -5.227  50.368 -20.344  1.00  0.00     0.016 C 
HETATM   16  C26 UNL     1      -3.286  50.622 -21.988  1.00  0.00     0.004 C 
HETATM   17  C27 UNL     1      -4.031  51.799 -22.665  1.00  0.00     0.006 C 
HETATM   18  C28 UNL     1      -3.508  52.158 -24.048  1.00  0.00     0.006 C 
HETATM   19  C29 UNL     1      -2.065  52.642 -23.942  1.00  0.00    -0.003 C 
HETATM   20  C30 UNL     1      -1.494  53.004 -25.317  1.00  0.00     0.038 C 
ENDROOT
BRANCH  11  21
HETATM   21  C14 UNL     1      -2.029  49.086 -17.134  1.00  0.00    -0.014 C 
HETATM   22  C15 UNL     1      -2.434  47.625 -16.911  1.00  0.00     0.010 C 
BRANCH  21  23
HETATM   23  C16 UNL     1      -0.489  49.224 -17.208  1.00  0.00     0.008 C 
BRANCH  23  24
HETATM   24  C17 UNL     1       0.092  50.037 -16.040  1.00  0.00     0.028 C 
BRANCH  24  25
HETATM   25  C18 UNL     1       1.019  51.114 -16.537  1.00  0.00    -0.025 C 
HETATM   26  C19 UNL     1       2.066  51.660 -15.888  1.00  0.00    -0.091 C 
HETATM   27  C20 UNL     1       2.481  51.319 -14.482  1.00  0.00     0.042 C 
HETATM   28  C21 UNL     1       2.925  52.702 -16.555  1.00  0.00     0.042 C 
ENDBRANCH  24  25
ENDBRANCH  23  24
ENDBRANCH  21  23
ENDBRANCH  11  21
BRANCH   1  29
HETATM   29  O2  UNL     1       0.505  53.798 -26.474  1.00  0.00    -0.316 OA
BRANCH  29  30
HETATM   30  C2  UNL     1      -0.280  53.496 -27.544  1.00  0.00     0.255 C 
HETATM   31  C1  UNL     1       0.160  52.197 -28.147  1.00  0.00     0.126 C 
HETATM   32  O1  UNL     1      -1.201  54.176 -27.968  1.00  0.00    -0.266 OA
ENDBRANCH  29  30
ENDBRANCH   1  29
TORSDOF 6
ENDMDL
MODEL 2
REMARK minimizedAffinity -9.14224815
REMARK  6 active torsions:
REMARK  status: ('A' for Active; 'I' for Inactive)
REMARK    1  A    between atoms: C2_2  and  O2_4 
REMARK    2  A    between atoms: O2_4  and  C3_5 
REMARK    3  A    between atoms: C13_15  and  C14_16 
REMARK    4  A    between atoms: C14_16  and  C16_18 
REMARK    5  A    between atoms: C16_18  and  C17_19 
REMARK    6  A    between atoms: C17_19  and  C18_20 
ROOT
HETATM    1  C3  UNL     1      -0.105  53.477 -25.216  1.00  0.00     0.132 C 
HETATM    2  C4  UNL     1       0.731  52.407 -24.506  1.00  0.00     0.033 C 
HETATM    3  C5  UNL     1       0.082  51.948 -23.201  1.00  0.00     0.013 C 
HETATM    4  C6  UNL     1      -1.343  51.482 -23.455  1.00  0.00    -0.028 A 
HETATM    5  C7  UNL     1      -1.533  50.050 -23.885  1.00  0.00     0.021 A 
HETATM    6  C8  UNL     1      -2.027  50.479 -22.509  1.00  0.00    -0.027 A 
HETATM    7  C9  UNL     1      -1.253  49.880 -21.348  1.00  0.00     0.011 C 
HETATM    8  C10 UNL     1      -1.999  48.680 -20.793  1.00  0.00     0.011 C 
HETATM    9  C11 UNL     1      -3.369  49.007 -20.159  1.00  0.00    -0.032 C 
HETATM   10  C12 UNL     1      -4.242  47.745 -20.374  1.00  0.00     0.016 C 
HETATM   11  C13 UNL     1      -3.331  49.408 -18.641  1.00  0.00    -0.002 C 
HETATM   12  C22 UNL     1      -2.996  50.903 -18.637  1.00  0.00     0.006 C 
HETATM   13  C23 UNL     1      -3.572  51.485 -19.921  1.00  0.00     0.011 C 
HETATM   14  C24 UNL     1      -4.020  50.300 -20.826  1.00  0.00    -0.032 C 
HETATM   15  C25 UNL     1      -5.575  50.253 -20.762  1.00  0.00     0.016 C 
HETATM   16  C26 UNL     1      -3.568  50.505 -22.324  1.00  0.00     0.004 C 
HETATM   17  C27 UNL     1      -4.229  51.759 -22.949  1.00  0.00     0.006 C 
HETATM   18  C28 UNL     1      -3.641  52.174 -24.290  1.00  0.00     0.006 C 
HETATM   19  C29 UNL     1      -2.180  52.574 -24.107  1.00  0.00    -0.003 C 
HETATM   20  C30 UNL     1      -1.543  52.989 -25.439  1.00  0.00     0.038 C 
ENDROOT
BRANCH  11  21
HETATM   21  C14 UNL     1      -2.560  48.610 -17.539  1.00  0.00    -0.014 C 
HETATM   22  C15 UNL     1      -3.015  47.150 -17.452  1.00  0.00     0.010 C 
BRANCH  21  23
HETATM   23  C16 UNL     1      -1.015  48.707 -17.530  1.00  0.00     0.008 C 
BRANCH  23  24
HETATM   24  C17 UNL     1      -0.500  50.053 -18.064  1.00  0.00     0.028 C 
BRANCH  24  25
HETATM   25  C18 UNL     1       0.417  50.716 -17.071  1.00  0.00    -0.025 C 
HETATM   26  C19 UNL     1       1.019  51.916 -17.184  1.00  0.00    -0.091 C 
HETATM   27  C20 UNL     1       0.924  52.819 -18.384  1.00  0.00     0.042 C 
HETATM   28  C21 UNL     1       1.873  52.455 -16.066  1.00  0.00     0.042 C 
ENDBRANCH  24  25
ENDBRANCH  23  24
ENDBRANCH  21  23
ENDBRANCH  11  21
BRANCH   1  29
HETATM   29  O2  UNL     1       0.532  53.746 -26.480  1.00  0.00    -0.316 OA
BRANCH  29  30
HETATM   30  C2  UNL     1      -0.195  53.458 -27.593  1.00  0.00     0.255 C 
HETATM   31  C1  UNL     1       0.264  52.159 -28.179  1.00  0.00     0.126 C 
HETATM   32  O1  UNL     1      -1.084  54.151 -28.064  1.00  0.00    -0.266 OA
ENDBRANCH  29  30
ENDBRANCH   1  29
TORSDOF 6
ENDMDL
MODEL 3
REMARK minimizedAffinity -9.01156425
REMARK  6 active torsions:
REMARK  status: ('A' for Active; 'I' for Inactive)
REMARK    1  A    between atoms: C2_2  and  O2_4 
REMARK    2  A    between atoms: O2_4  and  C3_5 
REMARK    3  A    between atoms: C13_15  and  C14_16 
REMARK    4  A    between atoms: C14_16  and  C16_18 
REMARK    5  A    between atoms: C16_18  and  C17_19 
REMARK    6  A    between atoms: C17_19  and  C18_20 
ROOT
HETATM    1  C3  UNL     1       0.700  52.366 -26.157  1.00  0.00     0.132 C 
HETATM    2  C4  UNL     1      -0.669  51.692 -26.289  1.00  0.00     0.033 C 
HETATM    3  C5  UNL     1      -0.988  50.805 -25.086  1.00  0.00     0.013 C 
HETATM    4  C6  UNL     1      -0.867  51.601 -23.796  1.00  0.00    -0.028 A 
HETATM    5  C7  UNL     1      -2.076  52.385 -23.355  1.00  0.00     0.021 A 
HETATM    6  C8  UNL     1      -1.638  51.179 -22.532  1.00  0.00    -0.027 A 
HETATM    7  C9  UNL     1      -2.596  50.003 -22.584  1.00  0.00     0.011 C 
HETATM    8  C10 UNL     1      -3.486  50.006 -21.355  1.00  0.00     0.011 C 
HETATM    9  C11 UNL     1      -2.744  49.786 -20.018  1.00  0.00    -0.032 C 
HETATM   10  C12 UNL     1      -3.566  50.551 -18.951  1.00  0.00     0.016 C 
HETATM   11  C13 UNL     1      -2.543  48.286 -19.597  1.00  0.00    -0.002 C 
HETATM   12  C22 UNL     1      -1.285  47.832 -20.346  1.00  0.00     0.006 C 
HETATM   13  C23 UNL     1      -0.404  49.064 -20.509  1.00  0.00     0.011 C 
HETATM   14  C24 UNL     1      -1.241  50.310 -20.099  1.00  0.00    -0.032 C 
HETATM   15  C25 UNL     1      -0.717  50.759 -18.703  1.00  0.00     0.016 C 
HETATM   16  C26 UNL     1      -1.064  51.497 -21.125  1.00  0.00     0.004 C 
HETATM   17  C27 UNL     1       0.401  51.994 -21.170  1.00  0.00     0.006 C 
HETATM   18  C28 UNL     1       0.705  52.944 -22.320  1.00  0.00     0.006 C 
HETATM   19  C29 UNL     1       0.517  52.218 -23.648  1.00  0.00    -0.003 C 
HETATM   20  C30 UNL     1       0.802  53.143 -24.837  1.00  0.00     0.038 C 
ENDROOT
BRANCH  11  21
HETATM   21  C14 UNL     1      -3.676  47.209 -19.607  1.00  0.00    -0.014 C 
HETATM   22  C15 UNL     1      -4.970  47.720 -18.965  1.00  0.00     0.010 C 
BRANCH  21  23
HETATM   23  C16 UNL     1      -3.973  46.490 -20.945  1.00  0.00     0.008 C 
BRANCH  23  24
HETATM   24  C17 UNL     1      -5.443  46.621 -21.378  1.00  0.00     0.028 C 
BRANCH  24  25
HETATM   25  C18 UNL     1      -5.568  47.436 -22.638  1.00  0.00    -0.025 C 
HETATM   26  C19 UNL     1      -6.523  47.343 -23.583  1.00  0.00    -0.091 C 
HETATM   27  C20 UNL     1      -7.645  46.341 -23.580  1.00  0.00     0.042 C 
HETATM   28  C21 UNL     1      -6.525  48.276 -24.766  1.00  0.00     0.042 C 
ENDBRANCH  24  25
ENDBRANCH  23  24
ENDBRANCH  21  23
ENDBRANCH  11  21
BRANCH   1  29
HETATM   29  O2  UNL     1       0.843  53.263 -27.275  1.00  0.00    -0.316 OA
BRANCH  29  30
HETATM   30  C2  UNL     1      -0.015  54.319 -27.313  1.00  0.00     0.255 C 
HETATM   31  C1  UNL     1      -1.144  54.023 -28.252  1.00  0.00     0.126 C 
HETATM   32  O1  UNL     1       0.108  55.362 -26.690  1.00  0.00    -0.266 OA
ENDBRANCH  29  30
ENDBRANCH   1  29
TORSDOF 6
ENDMDL
MODEL 4
REMARK minimizedAffinity -8.94316864
REMARK  6 active torsions:
REMARK  status: ('A' for Active; 'I' for Inactive)
REMARK    1  A    between atoms: C2_2  and  O2_4 
REMARK    2  A    between atoms: O2_4  and  C3_5 
REMARK    3  A    between atoms: C13_15  and  C14_16 
REMARK    4  A    between atoms: C14_16  and  C16_18 
REMARK    5  A    between atoms: C16_18  and  C17_19 
REMARK    6  A    between atoms: C17_19  and  C18_20 
ROOT
HETATM    1  C3  UNL     1       0.246  52.327 -26.552  1.00  0.00     0.132 C 
HETATM    2  C4  UNL     1      -1.178  51.761 -26.520  1.00  0.00     0.033 C 
HETATM    3  C5  UNL     1      -1.424  50.902 -25.280  1.00  0.00     0.013 C 
HETATM    4  C6  UNL     1      -1.093  51.686 -24.020  1.00  0.00    -0.028 A 
HETATM    5  C7  UNL     1      -2.179  52.562 -23.450  1.00  0.00     0.021 A 
HETATM    6  C8  UNL     1      -1.744  51.325 -22.672  1.00  0.00    -0.027 A 
HETATM    7  C9  UNL     1      -2.789  50.226 -22.603  1.00  0.00     0.011 C 
HETATM    8  C10 UNL     1      -3.529  50.298 -21.280  1.00  0.00     0.011 C 
HETATM    9  C11 UNL     1      -2.657  50.021 -20.035  1.00  0.00    -0.032 C 
HETATM   10  C12 UNL     1      -3.289  50.848 -18.887  1.00  0.00     0.016 C 
HETATM   11  C13 UNL     1      -2.525  48.510 -19.628  1.00  0.00    -0.002 C 
HETATM   12  C22 UNL     1      -1.401  47.960 -20.512  1.00  0.00     0.006 C 
HETATM   13  C23 UNL     1      -0.452  49.119 -20.786  1.00  0.00     0.011 C 
HETATM   14  C24 UNL     1      -1.138  50.427 -20.293  1.00  0.00    -0.032 C 
HETATM   15  C25 UNL     1      -0.423  50.833 -18.970  1.00  0.00     0.016 C 
HETATM   16  C26 UNL     1      -0.989  51.596 -21.343  1.00  0.00     0.004 C 
HETATM   17  C27 UNL     1       0.496  51.978 -21.560  1.00  0.00     0.006 C 
HETATM   18  C28 UNL     1       0.738  52.902 -22.746  1.00  0.00     0.006 C 
HETATM   19  C29 UNL     1       0.342  52.192 -24.037  1.00  0.00    -0.003 C 
HETATM   20  C30 UNL     1       0.559  53.093 -25.259  1.00  0.00     0.038 C 
ENDROOT
BRANCH  11  21
HETATM   21  C14 UNL     1      -3.732  47.525 -19.498  1.00  0.00    -0.014 C 
HETATM   22  C15 UNL     1      -4.180  47.341 -18.044  1.00  0.00     0.010 C 
BRANCH  21  23
HETATM   23  C16 UNL     1      -4.951  47.754 -20.424  1.00  0.00     0.008 C 
BRANCH  23  24
HETATM   24  C17 UNL     1      -4.726  47.219 -21.847  1.00  0.00     0.028 C 
BRANCH  24  25
HETATM   25  C18 UNL     1      -5.913  47.503 -22.728  1.00  0.00    -0.025 C 
HETATM   26  C19 UNL     1      -5.904  47.967 -23.993  1.00  0.00    -0.091 C 
HETATM   27  C20 UNL     1      -4.668  48.349 -24.762  1.00  0.00     0.042 C 
HETATM   28  C21 UNL     1      -7.191  48.150 -24.754  1.00  0.00     0.042 C 
ENDBRANCH  24  25
ENDBRANCH  23  24
ENDBRANCH  21  23
ENDBRANCH  11  21
BRANCH   1  29
HETATM   29  O2  UNL     1       0.327  53.211 -27.687  1.00  0.00    -0.316 OA
BRANCH  29  30
HETATM   30  C2  UNL     1      -0.578  54.226 -27.725  1.00  0.00     0.255 C 
HETATM   31  C1  UNL     1      -0.010  55.438 -27.052  1.00  0.00     0.126 C 
HETATM   32  O1  UNL     1      -1.693  54.170 -28.218  1.00  0.00    -0.266 OA
ENDBRANCH  29  30
ENDBRANCH   1  29
TORSDOF 6
ENDMDL
MODEL 5
REMARK minimizedAffinity -8.80786896
REMARK  6 active torsions:
REMARK  status: ('A' for Active; 'I' for Inactive)
REMARK    1  A    between atoms: C2_2  and  O2_4 
REMARK    2  A    between atoms: O2_4  and  C3_5 
REMARK    3  A    between atoms: C13_15  and  C14_16 
REMARK    4  A    between atoms: C14_16  and  C16_18 
REMARK    5  A    between atoms: C16_18  and  C17_19 
REMARK    6  A    between atoms: C17_19  and  C18_20 
ROOT
HETATM    1  C3  UNL     1      -1.342  51.035 -17.441  1.00  0.00     0.132 C 
HETATM    2  C4  UNL     1      -1.877  49.824 -18.211  1.00  0.00     0.033 C 
HETATM    3  C5  UNL     1      -2.225  50.175 -19.657  1.00  0.00     0.013 C 
HETATM    4  C6  UNL     1      -1.029  50.809 -20.350  1.00  0.00    -0.028 A 
HETATM    5  C7  UNL     1      -0.020  49.878 -20.972  1.00  0.00     0.021 A 
HETATM    6  C8  UNL     1      -0.880  50.749 -21.881  1.00  0.00    -0.027 A 
HETATM    7  C9  UNL     1      -1.891  49.981 -22.713  1.00  0.00     0.011 C 
HETATM    8  C10 UNL     1      -1.349  49.763 -24.114  1.00  0.00     0.011 C 
HETATM    9  C11 UNL     1      -1.139  51.055 -24.935  1.00  0.00    -0.032 C 
HETATM   10  C12 UNL     1       0.042  50.756 -25.892  1.00  0.00     0.016 C 
HETATM   11  C13 UNL     1      -2.393  51.556 -25.736  1.00  0.00    -0.002 C 
HETATM   12  C22 UNL     1      -3.214  52.359 -24.722  1.00  0.00     0.006 C 
HETATM   13  C23 UNL     1      -2.223  52.955 -23.730  1.00  0.00     0.011 C 
HETATM   14  C24 UNL     1      -0.835  52.298 -23.986  1.00  0.00    -0.032 C 
HETATM   15  C25 UNL     1       0.038  53.367 -24.708  1.00  0.00     0.016 C 
HETATM   16  C26 UNL     1      -0.130  51.878 -22.638  1.00  0.00     0.004 C 
HETATM   17  C27 UNL     1       0.166  53.108 -21.745  1.00  0.00     0.006 C 
HETATM   18  C28 UNL     1       0.594  52.763 -20.326  1.00  0.00     0.006 C 
HETATM   19  C29 UNL     1      -0.545  52.046 -19.607  1.00  0.00    -0.003 C 
HETATM   20  C30 UNL     1      -0.152  51.669 -18.174  1.00  0.00     0.038 C 
ENDROOT
BRANCH  11  21
HETATM   21  C14 UNL     1      -3.279  50.643 -26.646  1.00  0.00    -0.014 C 
HETATM   22  C15 UNL     1      -3.170  51.018 -28.128  1.00  0.00     0.010 C 
BRANCH  21  23
HETATM   23  C16 UNL     1      -3.165  49.111 -26.457  1.00  0.00     0.008 C 
BRANCH  23  24
HETATM   24  C17 UNL     1      -4.535  48.416 -26.396  1.00  0.00     0.028 C 
BRANCH  24  25
HETATM   25  C18 UNL     1      -5.008  48.025 -27.770  1.00  0.00    -0.025 C 
HETATM   26  C19 UNL     1      -6.214  47.533 -28.114  1.00  0.00    -0.091 C 
HETATM   27  C20 UNL     1      -7.326  47.223 -27.149  1.00  0.00     0.042 C 
HETATM   28  C21 UNL     1      -6.541  47.238 -29.555  1.00  0.00     0.042 C 
ENDBRANCH  24  25
ENDBRANCH  23  24
ENDBRANCH  21  23
ENDBRANCH  11  21
BRANCH   1  29
HETATM   29  O2  UNL     1      -0.936  50.567 -16.140  1.00  0.00    -0.316 OA
BRANCH  29  30
HETATM   30  C2  UNL     1       0.178  51.146 -15.614  1.00  0.00     0.255 C 
HETATM   31  C1  UNL     1       1.135  50.087 -15.161  1.00  0.00     0.126 C 
HETATM   32  O1  UNL     1       0.378  52.346 -15.509  1.00  0.00    -0.266 OA
ENDBRANCH  29  30
ENDBRANCH   1  29
TORSDOF 6
ENDMDL
MODEL 6
REMARK minimizedAffinity -8.78741074
REMARK  6 active torsions:
REMARK  status: ('A' for Active; 'I' for Inactive)
REMARK    1  A    between atoms: C2_2  and  O2_4 
REMARK    2  A    between atoms: O2_4  and  C3_5 
REMARK    3  A    between atoms: C13_15  and  C14_16 
REMARK    4  A    between atoms: C14_16  and  C16_18 
REMARK    5  A    between atoms: C16_18  and  C17_19 
REMARK    6  A    between atoms: C17_19  and  C18_20 
ROOT
HETATM    1  C3  UNL     1       0.309  52.727 -25.554  1.00  0.00     0.132 C 
HETATM    2  C4  UNL     1      -1.130  52.272 -25.816  1.00  0.00     0.033 C 
HETATM    3  C5  UNL     1      -1.536  51.112 -24.909  1.00  0.00     0.013 C 
HETATM    4  C6  UNL     1      -1.311  51.477 -23.450  1.00  0.00    -0.028 A 
HETATM    5  C7  UNL     1      -2.418  52.223 -22.749  1.00  0.00     0.021 A 
HETATM    6  C8  UNL     1      -2.114  50.789 -22.331  1.00  0.00    -0.027 A 
HETATM    7  C9  UNL     1      -3.200  49.789 -22.680  1.00  0.00     0.011 C 
HETATM    8  C10 UNL     1      -4.073  49.528 -21.465  1.00  0.00     0.011 C 
HETATM    9  C11 UNL     1      -3.347  48.848 -20.282  1.00  0.00    -0.032 C 
HETATM   10  C12 UNL     1      -4.065  49.351 -19.005  1.00  0.00     0.016 C 
HETATM   11  C13 UNL     1      -3.316  47.278 -20.323  1.00  0.00    -0.002 C 
HETATM   12  C22 UNL     1      -2.126  46.931 -21.225  1.00  0.00     0.006 C 
HETATM   13  C23 UNL     1      -1.111  48.055 -21.063  1.00  0.00     0.011 C 
HETATM   14  C24 UNL     1      -1.795  49.209 -20.273  1.00  0.00    -0.032 C 
HETATM   15  C25 UNL     1      -1.208  49.171 -18.831  1.00  0.00     0.016 C 
HETATM   16  C26 UNL     1      -1.493  50.617 -20.918  1.00  0.00     0.004 C 
HETATM   17  C27 UNL     1       0.020  50.947 -20.880  1.00  0.00     0.006 C 
HETATM   18  C28 UNL     1       0.419  52.153 -21.718  1.00  0.00     0.006 C 
HETATM   19  C29 UNL     1       0.136  51.871 -23.190  1.00  0.00    -0.003 C 
HETATM   20  C30 UNL     1       0.514  53.068 -24.071  1.00  0.00     0.038 C 
ENDROOT
BRANCH  11  21
HETATM   21  C14 UNL     1      -4.566  46.379 -20.596  1.00  0.00    -0.014 C 
HETATM   22  C15 UNL     1      -4.341  44.925 -20.169  1.00  0.00     0.010 C 
BRANCH  21  23
HETATM   23  C16 UNL     1      -5.941  46.891 -20.102  1.00  0.00     0.008 C 
BRANCH  23  24
HETATM   24  C17 UNL     1      -7.022  46.837 -21.194  1.00  0.00     0.028 C 
BRANCH  24  25
HETATM   25  C18 UNL     1      -6.428  47.060 -22.559  1.00  0.00    -0.025 C 
HETATM   26  C19 UNL     1      -6.642  48.101 -23.387  1.00  0.00    -0.091 C 
HETATM   27  C20 UNL     1      -7.586  49.240 -23.113  1.00  0.00     0.042 C 
HETATM   28  C21 UNL     1      -5.923  48.193 -24.707  1.00  0.00     0.042 C 
ENDBRANCH  24  25
ENDBRANCH  23  24
ENDBRANCH  21  23
ENDBRANCH  11  21
BRANCH   1  29
HETATM   29  O2  UNL     1       0.543  53.892 -26.370  1.00  0.00    -0.316 OA
BRANCH  29  30
HETATM   30  C2  UNL     1      -0.126  53.940 -27.554  1.00  0.00     0.255 C 
HETATM   31  C1  UNL     1       0.398  52.884 -28.478  1.00  0.00     0.126 C 
HETATM   32  O1  UNL     1      -1.014  54.728 -27.841  1.00  0.00    -0.266 OA
ENDBRANCH  29  30
ENDBRANCH   1  29
TORSDOF 6
ENDMDL
MODEL 7
REMARK minimizedAffinity -8.69353294
REMARK  6 active torsions:
REMARK  status: ('A' for Active; 'I' for Inactive)
REMARK    1  A    between atoms: C2_2  and  O2_4 
REMARK    2  A    between atoms: O2_4  and  C3_5 
REMARK    3  A    between atoms: C13_15  and  C14_16 
REMARK    4  A    between atoms: C14_16  and  C16_18 
REMARK    5  A    between atoms: C16_18  and  C17_19 
REMARK    6  A    between atoms: C17_19  and  C18_20 
ROOT
HETATM    1  C3  UNL     1       0.120  52.301 -18.382  1.00  0.00     0.132 C 
HETATM    2  C4  UNL     1      -0.472  50.894 -18.243  1.00  0.00     0.033 C 
HETATM    3  C5  UNL     1      -1.558  50.626 -19.283  1.00  0.00     0.013 C 
HETATM    4  C6  UNL     1      -1.024  50.884 -20.683  1.00  0.00    -0.028 A 
HETATM    5  C7  UNL     1      -0.297  49.751 -21.362  1.00  0.00     0.021 A 
HETATM    6  C8  UNL     1      -1.650  50.192 -21.908  1.00  0.00    -0.027 A 
HETATM    7  C9  UNL     1      -2.763  49.177 -21.720  1.00  0.00     0.011 C 
HETATM    8  C10 UNL     1      -2.962  48.384 -22.999  1.00  0.00     0.011 C 
HETATM    9  C11 UNL     1      -3.455  49.215 -24.205  1.00  0.00    -0.032 C 
HETATM   10  C12 UNL     1      -2.877  48.515 -25.460  1.00  0.00     0.016 C 
HETATM   11  C13 UNL     1      -5.013  49.374 -24.322  1.00  0.00    -0.002 C 
HETATM   12  C22 UNL     1      -5.359  50.548 -23.399  1.00  0.00     0.006 C 
HETATM   13  C23 UNL     1      -4.149  51.472 -23.393  1.00  0.00     0.011 C 
HETATM   14  C24 UNL     1      -2.975  50.731 -24.096  1.00  0.00    -0.032 C 
HETATM   15  C25 UNL     1      -2.815  51.381 -25.502  1.00  0.00     0.016 C 
HETATM   16  C26 UNL     1      -1.623  50.886 -23.296  1.00  0.00     0.004 C 
HETATM   17  C27 UNL     1      -1.175  52.367 -23.221  1.00  0.00     0.006 C 
HETATM   18  C28 UNL     1      -0.037  52.627 -22.245  1.00  0.00     0.006 C 
HETATM   19  C29 UNL     1      -0.493  52.303 -20.826  1.00  0.00    -0.003 C 
HETATM   20  C30 UNL     1       0.630  52.541 -19.810  1.00  0.00     0.038 C 
ENDROOT
BRANCH  11  21
HETATM   21  C14 UNL     1      -6.030  48.192 -24.208  1.00  0.00    -0.014 C 
HETATM   22  C15 UNL     1      -6.494  47.961 -22.766  1.00  0.00     0.010 C 
BRANCH  21  23
HETATM   23  C16 UNL     1      -7.234  48.183 -25.181  1.00  0.00     0.008 C 
BRANCH  23  24
HETATM   24  C17 UNL     1      -7.466  46.808 -25.827  1.00  0.00     0.028 C 
BRANCH  24  25
HETATM   25  C18 UNL     1      -7.653  46.932 -27.316  1.00  0.00    -0.025 C 
HETATM   26  C19 UNL     1      -6.765  47.391 -28.219  1.00  0.00    -0.091 C 
HETATM   27  C20 UNL     1      -5.400  47.932 -27.889  1.00  0.00     0.042 C 
HETATM   28  C21 UNL     1      -7.099  47.402 -29.688  1.00  0.00     0.042 C 
ENDBRANCH  24  25
ENDBRANCH  23  24
ENDBRANCH  21  23
ENDBRANCH  11  21
BRANCH   1  29
HETATM   29  O2  UNL     1       1.206  52.401 -17.440  1.00  0.00    -0.316 OA
BRANCH  29  30
HETATM   30  C2  UNL     1       0.930  52.028 -16.162  1.00  0.00     0.255 C 
HETATM   31  C1  UNL     1       1.043  50.540 -16.031  1.00  0.00     0.126 C 
HETATM   32  O1  UNL     1       0.622  52.779 -15.249  1.00  0.00    -0.266 OA
ENDBRANCH  29  30
ENDBRANCH   1  29
TORSDOF 6
ENDMDL
MODEL 8
REMARK minimizedAffinity -8.59714127
REMARK  6 active torsions:
REMARK  status: ('A' for Active; 'I' for Inactive)
REMARK    1  A    between atoms: C2_2  and  O2_4 
REMARK    2  A    between atoms: O2_4  and  C3_5 
REMARK    3  A    between atoms: C13_15  and  C14_16 
REMARK    4  A    between atoms: C14_16  and  C16_18 
REMARK    5  A    between atoms: C16_18  and  C17_19 
REMARK    6  A    between atoms: C17_19  and  C18_20 
ROOT
HETATM    1  C3  UNL     1       0.259  52.324 -26.490  1.00  0.00     0.132 C 
HETATM    2  C4  UNL     1      -1.172  51.775 -26.470  1.00  0.00     0.033 C 
HETATM    3  C5  UNL     1      -1.430  50.896 -25.247  1.00  0.00     0.013 C 
HETATM    4  C6  UNL     1      -1.091  51.652 -23.972  1.00  0.00    -0.028 A 
HETATM    5  C7  UNL     1      -2.167  52.531 -23.387  1.00  0.00     0.021 A 
HETATM    6  C8  UNL     1      -1.748  51.275 -22.632  1.00  0.00    -0.027 A 
HETATM    7  C9  UNL     1      -2.807  50.188 -22.585  1.00  0.00     0.011 C 
HETATM    8  C10 UNL     1      -3.548  50.245 -21.261  1.00  0.00     0.011 C 
HETATM    9  C11 UNL     1      -2.681  49.934 -20.021  1.00  0.00    -0.032 C 
HETATM   10  C12 UNL     1      -3.303  50.747 -18.858  1.00  0.00     0.016 C 
HETATM   11  C13 UNL     1      -2.569  48.414 -19.641  1.00  0.00    -0.002 C 
HETATM   12  C22 UNL     1      -1.451  47.866 -20.535  1.00  0.00     0.006 C 
HETATM   13  C23 UNL     1      -0.487  49.018 -20.786  1.00  0.00     0.011 C 
HETATM   14  C24 UNL     1      -1.156  50.324 -20.269  1.00  0.00    -0.032 C 
HETATM   15  C25 UNL     1      -0.438  50.697 -18.939  1.00  0.00     0.016 C 
HETATM   16  C26 UNL     1      -0.991  51.511 -21.297  1.00  0.00     0.004 C 
HETATM   17  C27 UNL     1       0.498  51.879 -21.506  1.00  0.00     0.006 C 
HETATM   18  C28 UNL     1       0.753  52.821 -22.674  1.00  0.00     0.006 C 
HETATM   19  C29 UNL     1       0.350  52.141 -23.979  1.00  0.00    -0.003 C 
HETATM   20  C30 UNL     1       0.580  53.061 -25.183  1.00  0.00     0.038 C 
ENDROOT
BRANCH  11  21
HETATM   21  C14 UNL     1      -3.789  47.441 -19.531  1.00  0.00    -0.014 C 
HETATM   22  C15 UNL     1      -5.063  48.156 -19.069  1.00  0.00     0.010 C 
BRANCH  21  23
HETATM   23  C16 UNL     1      -4.084  46.518 -20.738  1.00  0.00     0.008 C 
BRANCH  23  24
HETATM   24  C17 UNL     1      -4.786  47.253 -21.891  1.00  0.00     0.028 C 
BRANCH  24  25
HETATM   25  C18 UNL     1      -6.230  46.842 -21.999  1.00  0.00    -0.025 C 
HETATM   26  C19 UNL     1      -6.744  45.605 -21.857  1.00  0.00    -0.091 C 
HETATM   27  C20 UNL     1      -5.936  44.359 -21.611  1.00  0.00     0.042 C 
HETATM   28  C21 UNL     1      -8.230  45.375 -21.948  1.00  0.00     0.042 C 
ENDBRANCH  24  25
ENDBRANCH  23  24
ENDBRANCH  21  23
ENDBRANCH  11  21
BRANCH   1  29
HETATM   29  O2  UNL     1       0.353  53.227 -27.609  1.00  0.00    -0.316 OA
BRANCH  29  30
HETATM   30  C2  UNL     1      -0.572  54.224 -27.656  1.00  0.00     0.255 C 
HETATM   31  C1  UNL     1      -0.024  55.457 -27.005  1.00  0.00     0.126 C 
HETATM   32  O1  UNL     1      -1.689  54.139 -28.141  1.00  0.00    -0.266 OA
ENDBRANCH  29  30
ENDBRANCH   1  29
TORSDOF 6
ENDMDL
MODEL 9
REMARK minimizedAffinity -8.56331444
REMARK  6 active torsions:
REMARK  status: ('A' for Active; 'I' for Inactive)
REMARK    1  A    between atoms: C2_2  and  O2_4 
REMARK    2  A    between atoms: O2_4  and  C3_5 
REMARK    3  A    between atoms: C13_15  and  C14_16 
REMARK    4  A    between atoms: C14_16  and  C16_18 
REMARK    5  A    between atoms: C16_18  and  C17_19 
REMARK    6  A    between atoms: C17_19  and  C18_20 
ROOT
HETATM    1  C3  UNL     1       0.154  51.948 -25.464  1.00  0.00     0.132 C 
HETATM    2  C4  UNL     1      -1.230  51.938 -26.120  1.00  0.00     0.033 C 
HETATM    3  C5  UNL     1      -2.193  50.990 -25.408  1.00  0.00     0.013 C 
HETATM    4  C6  UNL     1      -2.267  51.325 -23.926  1.00  0.00    -0.028 A 
HETATM    5  C7  UNL     1      -3.243  52.396 -23.511  1.00  0.00     0.021 A 
HETATM    6  C8  UNL     1      -3.507  50.954 -23.093  1.00  0.00    -0.027 A 
HETATM    7  C9  UNL     1      -4.710  50.315 -23.764  1.00  0.00     0.011 C 
HETATM    8  C10 UNL     1      -5.911  50.375 -22.838  1.00  0.00     0.011 C 
HETATM    9  C11 UNL     1      -5.767  49.553 -21.538  1.00  0.00    -0.032 C 
HETATM   10  C12 UNL     1      -6.614  50.297 -20.476  1.00  0.00     0.016 C 
HETATM   11  C13 UNL     1      -6.199  48.047 -21.642  1.00  0.00    -0.002 C 
HETATM   12  C22 UNL     1      -4.974  47.323 -22.211  1.00  0.00     0.006 C 
HETATM   13  C23 UNL     1      -3.750  48.094 -21.732  1.00  0.00     0.011 C 
HETATM   14  C24 UNL     1      -4.240  49.429 -21.100  1.00  0.00    -0.032 C 
HETATM   15  C25 UNL     1      -4.100  49.269 -19.557  1.00  0.00     0.016 C 
HETATM   16  C26 UNL     1      -3.368  50.655 -21.576  1.00  0.00     0.004 C 
HETATM   17  C27 UNL     1      -1.894  50.514 -21.122  1.00  0.00     0.006 C 
HETATM   18  C28 UNL     1      -0.942  51.511 -21.767  1.00  0.00     0.006 C 
HETATM   19  C29 UNL     1      -0.893  51.273 -23.273  1.00  0.00    -0.003 C 
HETATM   20  C30 UNL     1       0.048  52.266 -23.966  1.00  0.00     0.038 C 
ENDROOT
BRANCH  11  21
HETATM   21  C14 UNL     1      -7.541  47.557 -22.278  1.00  0.00    -0.014 C 
HETATM   22  C15 UNL     1      -8.671  47.457 -21.248  1.00  0.00     0.010 C 
BRANCH  21  23
HETATM   23  C16 UNL     1      -8.030  48.270 -23.562  1.00  0.00     0.008 C 
BRANCH  23  24
HETATM   24  C17 UNL     1      -7.719  47.474 -24.840  1.00  0.00     0.028 C 
BRANCH  24  25
HETATM   25  C18 UNL     1      -6.374  47.853 -25.402  1.00  0.00    -0.025 C 
HETATM   26  C19 UNL     1      -5.980  47.807 -26.689  1.00  0.00    -0.091 C 
HETATM   27  C20 UNL     1      -6.820  47.301 -27.830  1.00  0.00     0.042 C 
HETATM   28  C21 UNL     1      -4.604  48.273 -27.088  1.00  0.00     0.042 C 
ENDBRANCH  24  25
ENDBRANCH  23  24
ENDBRANCH  21  23
ENDBRANCH  11  21
BRANCH   1  29
HETATM   29  O2  UNL     1       0.936  52.956 -26.133  1.00  0.00    -0.316 OA
BRANCH  29  30
HETATM   30  C2  UNL     1       0.284  54.104 -26.460  1.00  0.00     0.255 C 
HETATM   31  C1  UNL     1      -0.225  54.019 -27.866  1.00  0.00     0.126 C 
HETATM   32  O1  UNL     1       0.137  55.074 -25.732  1.00  0.00    -0.266 OA
ENDBRANCH  29  30
ENDBRANCH   1  29
TORSDOF 6
ENDMDL
