MODEL 1
REMARK minimizedAffinity -10.5111589
REMARK CNNscore 0.569538951
REMARK CNNaffinity 7.21889257
REMARK  10 active torsions:
REMARK  status: ('A' for Active; 'I' for Inactive)
REMARK    1  A    between atoms: O1_2  and  C2_3 
REMARK    2  A    between atoms: C2_3  and  C3_4 
REMARK    3  A    between atoms: C2_3  and  C26_35 
REMARK    4  A    between atoms: C3_4  and  C4_5 
REMARK    5  A    between atoms: C4_5  and  C5_6 
REMARK    6  A    between atoms: C5_6  and  C7_8 
REMARK    7  A    between atoms: C13_17  and  C14_18 
REMARK    8  A    between atoms: C14_18  and  O5_19 
REMARK    9  A    between atoms: C17_24  and  O8_25 
REMARK   10  A    between atoms: C30_39  and  O10_40 
ROOT
HETATM    1  C7  UNL     1      -1.903  50.274 -21.212  1.00  0.00     0.135 C 
HETATM    2  O2  UNL     1      -2.403  49.430 -22.269  1.00  0.00    -0.348 OA
HETATM    3  C8  UNL     1      -3.191  50.032 -23.325  1.00  0.00     0.177 C 
HETATM    4  C9  UNL     1      -2.867  51.528 -23.398  1.00  0.00     0.102 C 
HETATM    5  C10 UNL     1      -1.355  51.688 -23.223  1.00  0.00     0.143 C 
HETATM    6  O3  UNL     1      -1.020  52.999 -23.704  1.00  0.00    -0.315 OA
HETATM    7  C11 UNL     1       0.076  53.025 -24.519  1.00  0.00     0.261 C 
HETATM    8  O4  UNL     1       1.058  52.304 -24.408  1.00  0.00    -0.265 OA
HETATM    9  C12 UNL     1      -0.155  53.947 -25.680  1.00  0.00     0.145 C 
HETATM   10  C13 UNL     1      -0.441  53.073 -26.905  1.00  0.00     0.164 C 
HETATM   11  O6  UNL     1      -1.740  52.445 -26.740  1.00  0.00    -0.313 OA
HETATM   12  C15 UNL     1      -1.800  51.085 -26.816  1.00  0.00     0.264 C 
HETATM   13  O7  UNL     1      -0.854  50.340 -27.035  1.00  0.00    -0.265 OA
HETATM   14  C16 UNL     1      -3.224  50.619 -26.645  1.00  0.00     0.179 C 
HETATM   15  C17 UNL     1      -3.341  49.370 -25.752  1.00  0.00     0.177 C 
HETATM   16  O9  UNL     1      -2.641  49.450 -24.523  1.00  0.00    -0.318 OA
HETATM   17  C18 UNL     1      -4.841  49.012 -25.575  1.00  0.00     0.045 C 
HETATM   18  C19 UNL     1      -5.373  47.982 -26.580  1.00  0.00     0.015 C 
HETATM   19  C20 UNL     1      -5.114  48.555 -24.145  1.00  0.00     0.024 C 
HETATM   20  C21 UNL     1      -4.714  49.648 -23.123  1.00  0.00     0.010 C 
HETATM   21  C22 UNL     1      -5.661  50.864 -23.275  1.00  0.00     0.020 C 
HETATM   22  C23 UNL     1      -5.016  49.054 -21.727  1.00  0.00     0.020 C 
HETATM   23  C24 UNL     1      -1.045  51.471 -21.740  1.00  0.00     0.041 C 
HETATM   24  C25 UNL     1       0.461  51.441 -21.493  1.00  0.00     0.015 C 
ENDROOT
BRANCH   1  25
HETATM   25  C5  UNL     1      -1.255  49.372 -20.112  1.00  0.00     0.011 C 
HETATM   26  C6  UNL     1      -0.736  48.072 -20.751  1.00  0.00     0.012 C 
BRANCH  25  27
HETATM   27  C4  UNL     1      -0.096  50.083 -19.375  1.00  0.00     0.009 C 
BRANCH  27  28
HETATM   28  C3  UNL     1      -0.374  50.615 -17.956  1.00  0.00     0.037 C 
BRANCH  28  29
HETATM   29  C2  UNL     1       0.311  51.934 -17.536  1.00  0.00     0.153 C 
BRANCH  29  30
HETATM   30  O1  UNL     1       0.765  52.626 -18.711  1.00  0.00    -0.386 OA
HETATM   31  C1  UNL     1      -0.006  53.785 -18.999  1.00  0.00     0.202 C 
ENDBRANCH  29  30
BRANCH  29  32
HETATM   32  C26 UNL     1       1.444  51.803 -16.527  1.00  0.00    -0.027 A 
HETATM   33  C27 UNL     1       2.665  52.472 -16.722  1.00  0.00     0.010 A 
HETATM   34  C28 UNL     1       3.713  52.339 -15.806  1.00  0.00     0.003 A 
HETATM   35  C29 UNL     1       3.565  51.523 -14.689  1.00  0.00     0.036 A 
HETATM   36  C30 UNL     1       2.374  50.837 -14.498  1.00  0.00     0.066 A 
HETATM   37  C31 UNL     1       1.323  50.962 -15.406  1.00  0.00     0.046 A 
BRANCH  36  38
HETATM   38  O10 UNL     1       2.265  50.043 -13.395  1.00  0.00    -0.361 OA
HETATM   39  H45 UNL     1       1.367  49.673 -13.378  1.00  0.00     0.217 HD
ENDBRANCH  36  38
ENDBRANCH  29  32
ENDBRANCH  28  29
ENDBRANCH  27  28
ENDBRANCH  25  27
ENDBRANCH   1  25
BRANCH  15  40
HETATM   40  O8  UNL     1      -2.719  48.286 -26.446  1.00  0.00    -0.364 OA
HETATM   41  H25 UNL     1      -1.772  48.522 -26.499  1.00  0.00     0.213 HD
ENDBRANCH  15  40
BRANCH  10  42
HETATM   42  C14 UNL     1      -0.501  53.906 -28.188  1.00  0.00     0.197 C 
BRANCH  42  43
HETATM   43  O5  UNL     1      -1.841  54.234 -28.524  1.00  0.00    -0.398 OA
HETATM   44  H22 UNL     1      -1.807  54.898 -29.235  1.00  0.00     0.209 HD
ENDBRANCH  42  43
ENDBRANCH  10  42
TORSDOF 10
ENDMDL
MODEL 2
REMARK minimizedAffinity -7.6824584
REMARK CNNscore 0.569447637
REMARK CNNaffinity 6.35924673
REMARK  10 active torsions:
REMARK  status: ('A' for Active; 'I' for Inactive)
REMARK    1  A    between atoms: O1_2  and  C2_3 
REMARK    2  A    between atoms: C2_3  and  C3_4 
REMARK    3  A    between atoms: C2_3  and  C26_35 
REMARK    4  A    between atoms: C3_4  and  C4_5 
REMARK    5  A    between atoms: C4_5  and  C5_6 
REMARK    6  A    between atoms: C5_6  and  C7_8 
REMARK    7  A    between atoms: C13_17  and  C14_18 
REMARK    8  A    between atoms: C14_18  and  O5_19 
REMARK    9  A    between atoms: C17_24  and  O8_25 
REMARK   10  A    between atoms: C30_39  and  O10_40 
ROOT
HETATM    1  C7  UNL     1       4.198  52.110  -9.931  1.00  0.00     0.135 C 
HETATM    2  O2  UNL     1       3.855  53.069  -8.910  1.00  0.00    -0.348 OA
HETATM    3  C8  UNL     1       3.046  54.215  -9.275  1.00  0.00     0.177 C 
HETATM    4  C9  UNL     1       2.261  53.884 -10.549  1.00  0.00     0.102 C 
HETATM    5  C10 UNL     1       1.751  52.446 -10.423  1.00  0.00     0.143 C 
HETATM    6  O3  UNL     1       0.696  52.296 -11.387  1.00  0.00    -0.315 OA
HETATM    7  C11 UNL     1      -0.417  51.677 -10.895  1.00  0.00     0.261 C 
HETATM    8  O4  UNL     1      -0.421  50.786 -10.057  1.00  0.00    -0.265 OA
HETATM    9  C12 UNL     1      -1.659  52.355 -11.395  1.00  0.00     0.145 C 
HETATM   10  C13 UNL     1      -2.213  53.199 -10.244  1.00  0.00     0.164 C 
HETATM   11  O6  UNL     1      -1.317  54.318 -10.009  1.00  0.00    -0.313 OA
HETATM   12  C15 UNL     1      -0.813  54.473  -8.752  1.00  0.00     0.264 C 
HETATM   13  O7  UNL     1      -1.065  53.761  -7.789  1.00  0.00    -0.265 OA
HETATM   14  C16 UNL     1       0.072  55.693  -8.695  1.00  0.00     0.179 C 
HETATM   15  C17 UNL     1       1.358  55.461  -7.880  1.00  0.00     0.177 C 
HETATM   16  O9  UNL     1       2.072  54.285  -8.217  1.00  0.00    -0.318 OA
HETATM   17  C18 UNL     1       2.234  56.741  -7.941  1.00  0.00     0.045 C 
HETATM   18  C19 UNL     1       2.021  57.716  -6.775  1.00  0.00     0.015 C 
HETATM   19  C20 UNL     1       3.709  56.372  -8.067  1.00  0.00     0.024 C 
HETATM   20  C21 UNL     1       3.962  55.505  -9.326  1.00  0.00     0.010 C 
HETATM   21  C22 UNL     1       3.720  56.360 -10.595  1.00  0.00     0.020 C 
HETATM   22  C23 UNL     1       5.475  55.184  -9.321  1.00  0.00     0.020 C 
HETATM   23  C24 UNL     1       2.946  51.519 -10.659  1.00  0.00     0.041 C 
HETATM   24  C25 UNL     1       2.575  50.065 -10.386  1.00  0.00     0.015 C 
ENDROOT
BRANCH   1  25
HETATM   25  C5  UNL     1       5.218  51.086  -9.336  1.00  0.00     0.011 C 
HETATM   26  C6  UNL     1       4.528  50.244  -8.249  1.00  0.00     0.012 C 
BRANCH  25  27
HETATM   27  C4  UNL     1       5.810  50.150 -10.416  1.00  0.00     0.009 C 
BRANCH  27  28
HETATM   28  C3  UNL     1       7.276  49.708 -10.251  1.00  0.00     0.037 C 
BRANCH  28  29
HETATM   29  C2  UNL     1       7.552  48.426  -9.436  1.00  0.00     0.153 C 
BRANCH  29  30
HETATM   30  O1  UNL     1       7.896  48.787  -8.089  1.00  0.00    -0.386 OA
HETATM   31  C1  UNL     1       8.545  50.050  -8.007  1.00  0.00     0.202 C 
ENDBRANCH  29  30
BRANCH  29  32
HETATM   32  C26 UNL     1       8.598  47.482 -10.016  1.00  0.00    -0.027 A 
HETATM   33  C27 UNL     1       8.891  46.258  -9.390  1.00  0.00     0.010 A 
HETATM   34  C28 UNL     1       9.863  45.398  -9.911  1.00  0.00     0.003 A 
HETATM   35  C29 UNL     1      10.570  45.754 -11.055  1.00  0.00     0.036 A 
HETATM   36  C30 UNL     1      10.309  46.971 -11.667  1.00  0.00     0.066 A 
HETATM   37  C31 UNL     1       9.342  47.837 -11.156  1.00  0.00     0.046 A 
BRANCH  36  38
HETATM   38  O10 UNL     1      11.022  47.290 -12.784  1.00  0.00    -0.361 OA
HETATM   39  H45 UNL     1      10.695  48.141 -13.119  1.00  0.00     0.217 HD
ENDBRANCH  36  38
ENDBRANCH  29  32
ENDBRANCH  28  29
ENDBRANCH  27  28
ENDBRANCH  25  27
ENDBRANCH   1  25
BRANCH  15  40
HETATM   40  O8  UNL     1       0.973  55.268  -6.518  1.00  0.00    -0.364 OA
HETATM   41  H25 UNL     1       0.465  54.433  -6.508  1.00  0.00     0.213 HD
ENDBRANCH  15  40
BRANCH  10  42
HETATM   42  C14 UNL     1      -3.586  53.783 -10.584  1.00  0.00     0.197 C 
BRANCH  42  43
HETATM   43  O5  UNL     1      -3.809  53.785 -11.987  1.00  0.00    -0.398 OA
HETATM   44  H22 UNL     1      -4.748  53.999 -12.131  1.00  0.00     0.209 HD
ENDBRANCH  42  43
ENDBRANCH  10  42
TORSDOF 10
ENDMDL
MODEL 3
REMARK minimizedAffinity -8.808918
REMARK CNNscore 0.529079437
REMARK CNNaffinity 6.62329674
REMARK  10 active torsions:
REMARK  status: ('A' for Active; 'I' for Inactive)
REMARK    1  A    between atoms: O1_2  and  C2_3 
REMARK    2  A    between atoms: C2_3  and  C3_4 
REMARK    3  A    between atoms: C2_3  and  C26_35 
REMARK    4  A    between atoms: C3_4  and  C4_5 
REMARK    5  A    between atoms: C4_5  and  C5_6 
REMARK    6  A    between atoms: C5_6  and  C7_8 
REMARK    7  A    between atoms: C13_17  and  C14_18 
REMARK    8  A    between atoms: C14_18  and  O5_19 
REMARK    9  A    between atoms: C17_24  and  O8_25 
REMARK   10  A    between atoms: C30_39  and  O10_40 
ROOT
HETATM    1  C7  UNL     1       0.488  51.306 -14.840  1.00  0.00     0.135 C 
HETATM    2  O2  UNL     1      -0.408  52.220 -14.176  1.00  0.00    -0.348 OA
HETATM    3  C8  UNL     1      -1.039  51.801 -12.940  1.00  0.00     0.177 C 
HETATM    4  C9  UNL     1      -0.200  50.687 -12.305  1.00  0.00     0.102 C 
HETATM    5  C10 UNL     1       1.275  51.068 -12.459  1.00  0.00     0.143 C 
HETATM    6  O3  UNL     1       2.009  50.266 -11.520  1.00  0.00    -0.315 OA
HETATM    7  C11 UNL     1       2.933  50.968 -10.800  1.00  0.00     0.261 C 
HETATM    8  O4  UNL     1       3.588  51.913 -11.217  1.00  0.00    -0.265 OA
HETATM    9  C12 UNL     1       2.921  50.531  -9.364  1.00  0.00     0.145 C 
HETATM   10  C13 UNL     1       2.192  51.614  -8.565  1.00  0.00     0.164 C 
HETATM   11  O6  UNL     1       0.783  51.585  -8.913  1.00  0.00    -0.313 OA
HETATM   12  C15 UNL     1       0.219  52.741  -9.368  1.00  0.00     0.264 C 
HETATM   13  O7  UNL     1       0.792  53.815  -9.490  1.00  0.00    -0.265 OA
HETATM   14  C16 UNL     1      -1.246  52.525  -9.654  1.00  0.00     0.179 C 
HETATM   15  C17 UNL     1      -1.707  53.204 -10.957  1.00  0.00     0.177 C 
HETATM   16  O9  UNL     1      -0.887  52.949 -12.083  1.00  0.00    -0.318 OA
HETATM   17  C18 UNL     1      -3.201  52.865 -11.204  1.00  0.00     0.045 C 
HETATM   18  C19 UNL     1      -4.189  53.904 -10.659  1.00  0.00     0.015 C 
HETATM   19  C20 UNL     1      -3.453  52.616 -12.688  1.00  0.00     0.024 C 
HETATM   20  C21 UNL     1      -2.561  51.466 -13.220  1.00  0.00     0.010 C 
HETATM   21  C22 UNL     1      -3.007  50.130 -12.574  1.00  0.00     0.020 C 
HETATM   22  C23 UNL     1      -2.894  51.334 -14.725  1.00  0.00     0.020 C 
HETATM   23  C24 UNL     1       1.657  50.819 -13.921  1.00  0.00     0.041 C 
HETATM   24  C25 UNL     1       3.064  51.331 -14.215  1.00  0.00     0.015 C 
ENDROOT
BRANCH   1  25
HETATM   25  C5  UNL     1       0.884  51.909 -16.227  1.00  0.00     0.011 C 
HETATM   26  C6  UNL     1       2.410  52.100 -16.289  1.00  0.00     0.012 C 
BRANCH  25  27
HETATM   27  C4  UNL     1       0.427  51.020 -17.407  1.00  0.00     0.009 C 
BRANCH  27  28
HETATM   28  C3  UNL     1      -0.750  51.523 -18.264  1.00  0.00     0.037 C 
BRANCH  28  29
HETATM   29  C2  UNL     1      -0.923  50.918 -19.674  1.00  0.00     0.153 C 
BRANCH  29  30
HETATM   30  O1  UNL     1      -0.367  49.594 -19.691  1.00  0.00    -0.386 OA
HETATM   31  C1  UNL     1      -1.277  48.622 -20.189  1.00  0.00     0.202 C 
ENDBRANCH  29  30
BRANCH  29  32
HETATM   32  C26 UNL     1      -0.361  51.744 -20.824  1.00  0.00    -0.027 A 
HETATM   33  C27 UNL     1      -0.686  51.438 -22.158  1.00  0.00     0.010 A 
HETATM   34  C28 UNL     1      -0.158  52.184 -23.216  1.00  0.00     0.003 A 
HETATM   35  C29 UNL     1       0.717  53.236 -22.962  1.00  0.00     0.036 A 
HETATM   36  C30 UNL     1       1.065  53.531 -21.652  1.00  0.00     0.066 A 
HETATM   37  C31 UNL     1       0.545  52.794 -20.589  1.00  0.00     0.046 A 
BRANCH  36  38
HETATM   38  O10 UNL     1       1.927  54.567 -21.439  1.00  0.00    -0.361 OA
HETATM   39  H45 UNL     1       2.034  54.678 -20.480  1.00  0.00     0.217 HD
ENDBRANCH  36  38
ENDBRANCH  29  32
ENDBRANCH  28  29
ENDBRANCH  27  28
ENDBRANCH  25  27
ENDBRANCH   1  25
BRANCH  15  40
HETATM   40  O8  UNL     1      -1.613  54.617 -10.760  1.00  0.00    -0.364 OA
HETATM   41  H25 UNL     1      -0.659  54.801 -10.655  1.00  0.00     0.213 HD
ENDBRANCH  15  40
BRANCH  10  42
HETATM   42  C14 UNL     1       2.291  51.364  -7.058  1.00  0.00     0.197 C 
BRANCH  42  43
HETATM   43  O5  UNL     1       1.259  50.495  -6.613  1.00  0.00    -0.398 OA
HETATM   44  H22 UNL     1       1.471  50.236  -5.699  1.00  0.00     0.209 HD
ENDBRANCH  42  43
ENDBRANCH  10  42
TORSDOF 10
ENDMDL
MODEL 4
REMARK minimizedAffinity -10.565649
REMARK CNNscore 0.525719345
REMARK CNNaffinity 6.9811511
REMARK  10 active torsions:
REMARK  status: ('A' for Active; 'I' for Inactive)
REMARK    1  A    between atoms: O1_2  and  C2_3 
REMARK    2  A    between atoms: C2_3  and  C3_4 
REMARK    3  A    between atoms: C2_3  and  C26_35 
REMARK    4  A    between atoms: C3_4  and  C4_5 
REMARK    5  A    between atoms: C4_5  and  C5_6 
REMARK    6  A    between atoms: C5_6  and  C7_8 
REMARK    7  A    between atoms: C13_17  and  C14_18 
REMARK    8  A    between atoms: C14_18  and  O5_19 
REMARK    9  A    between atoms: C17_24  and  O8_25 
REMARK   10  A    between atoms: C30_39  and  O10_40 
ROOT
HETATM    1  C7  UNL     1      -2.016  50.295 -21.091  1.00  0.00     0.135 C 
HETATM    2  O2  UNL     1      -2.479  49.446 -22.162  1.00  0.00    -0.348 OA
HETATM    3  C8  UNL     1      -3.237  50.042 -23.244  1.00  0.00     0.177 C 
HETATM    4  C9  UNL     1      -2.919  51.540 -23.308  1.00  0.00     0.102 C 
HETATM    5  C10 UNL     1      -1.413  51.708 -23.087  1.00  0.00     0.143 C 
HETATM    6  O3  UNL     1      -1.070  53.020 -23.560  1.00  0.00    -0.315 OA
HETATM    7  C11 UNL     1       0.051  53.050 -24.340  1.00  0.00     0.261 C 
HETATM    8  O4  UNL     1       1.033  52.335 -24.198  1.00  0.00    -0.265 OA
HETATM    9  C12 UNL     1      -0.149  53.969 -25.510  1.00  0.00     0.145 C 
HETATM   10  C13 UNL     1      -0.392  53.092 -26.741  1.00  0.00     0.164 C 
HETATM   11  O6  UNL     1      -1.692  52.457 -26.616  1.00  0.00    -0.313 OA
HETATM   12  C15 UNL     1      -1.743  51.097 -26.691  1.00  0.00     0.264 C 
HETATM   13  O7  UNL     1      -0.787  50.356 -26.879  1.00  0.00    -0.265 OA
HETATM   14  C16 UNL     1      -3.169  50.624 -26.564  1.00  0.00     0.179 C 
HETATM   15  C17 UNL     1      -3.307  49.376 -25.673  1.00  0.00     0.177 C 
HETATM   16  O9  UNL     1      -2.647  49.461 -24.422  1.00  0.00    -0.318 OA
HETATM   17  C18 UNL     1      -4.810  49.010 -25.541  1.00  0.00     0.045 C 
HETATM   18  C19 UNL     1      -5.306  47.976 -26.561  1.00  0.00     0.015 C 
HETATM   19  C20 UNL     1      -5.126  48.554 -24.120  1.00  0.00     0.024 C 
HETATM   20  C21 UNL     1      -4.763  49.651 -23.088  1.00  0.00     0.010 C 
HETATM   21  C22 UNL     1      -5.712  50.862 -23.271  1.00  0.00     0.020 C 
HETATM   22  C23 UNL     1      -5.106  49.057 -21.701  1.00  0.00     0.020 C 
HETATM   23  C24 UNL     1      -1.148  51.495 -21.594  1.00  0.00     0.041 C 
HETATM   24  C25 UNL     1       0.349  51.473 -21.301  1.00  0.00     0.015 C 
ENDROOT
BRANCH   1  25
HETATM   25  C5  UNL     1      -1.398  49.398 -19.970  1.00  0.00     0.011 C 
HETATM   26  C6  UNL     1      -0.712  48.177 -20.607  1.00  0.00     0.012 C 
BRANCH  25  27
HETATM   27  C4  UNL     1      -0.379  50.166 -19.097  1.00  0.00     0.009 C 
BRANCH  27  28
HETATM   28  C3  UNL     1      -0.922  50.939 -17.880  1.00  0.00     0.037 C 
BRANCH  28  29
HETATM   29  C2  UNL     1      -0.383  50.554 -16.485  1.00  0.00     0.153 C 
BRANCH  29  30
HETATM   30  O1  UNL     1      -1.371  50.873 -15.492  1.00  0.00    -0.386 OA
HETATM   31  C1  UNL     1      -2.700  50.772 -15.987  1.00  0.00     0.202 C 
ENDBRANCH  29  30
BRANCH  29  32
HETATM   32  C26 UNL     1       0.965  51.154 -16.105  1.00  0.00    -0.027 A 
HETATM   33  C27 UNL     1       1.567  52.140 -16.905  1.00  0.00     0.010 A 
HETATM   34  C28 UNL     1       2.812  52.680 -16.567  1.00  0.00     0.003 A 
HETATM   35  C29 UNL     1       3.484  52.231 -15.435  1.00  0.00     0.036 A 
HETATM   36  C30 UNL     1       2.912  51.239 -14.651  1.00  0.00     0.066 A 
HETATM   37  C31 UNL     1       1.671  50.694 -14.978  1.00  0.00     0.046 A 
BRANCH  36  38
HETATM   38  O10 UNL     1       3.599  50.820 -13.550  1.00  0.00    -0.361 OA
HETATM   39  H45 UNL     1       3.054  50.165 -13.085  1.00  0.00     0.217 HD
ENDBRANCH  36  38
ENDBRANCH  29  32
ENDBRANCH  28  29
ENDBRANCH  27  28
ENDBRANCH  25  27
ENDBRANCH   1  25
BRANCH  15  40
HETATM   40  O8  UNL     1      -2.659  48.294 -26.345  1.00  0.00    -0.364 OA
HETATM   41  H25 UNL     1      -1.712  48.534 -26.369  1.00  0.00     0.213 HD
ENDBRANCH  15  40
BRANCH  10  42
HETATM   42  C14 UNL     1      -0.416  53.922 -28.027  1.00  0.00     0.197 C 
BRANCH  42  43
HETATM   43  O5  UNL     1      -1.748  54.221 -28.420  1.00  0.00    -0.398 OA
HETATM   44  H22 UNL     1      -1.699  54.885 -29.129  1.00  0.00     0.209 HD
ENDBRANCH  42  43
ENDBRANCH  10  42
TORSDOF 10
ENDMDL
MODEL 5
REMARK minimizedAffinity -7.63507318
REMARK CNNscore 0.480107933
REMARK CNNaffinity 5.90261841
REMARK  10 active torsions:
REMARK  status: ('A' for Active; 'I' for Inactive)
REMARK    1  A    between atoms: O1_2  and  C2_3 
REMARK    2  A    between atoms: C2_3  and  C3_4 
REMARK    3  A    between atoms: C2_3  and  C26_35 
REMARK    4  A    between atoms: C3_4  and  C4_5 
REMARK    5  A    between atoms: C4_5  and  C5_6 
REMARK    6  A    between atoms: C5_6  and  C7_8 
REMARK    7  A    between atoms: C13_17  and  C14_18 
REMARK    8  A    between atoms: C14_18  and  O5_19 
REMARK    9  A    between atoms: C17_24  and  O8_25 
REMARK   10  A    between atoms: C30_39  and  O10_40 
ROOT
HETATM    1  C7  UNL     1     -13.354  44.767 -26.889  1.00  0.00     0.135 C 
HETATM    2  O2  UNL     1     -14.669  44.647 -27.469  1.00  0.00    -0.348 OA
HETATM    3  C8  UNL     1     -15.697  43.948 -26.724  1.00  0.00     0.177 C 
HETATM    4  C9  UNL     1     -15.328  43.960 -25.237  1.00  0.00     0.102 C 
HETATM    5  C10 UNL     1     -14.786  45.352 -24.901  1.00  0.00     0.143 C 
HETATM    6  O3  UNL     1     -14.846  45.485 -23.472  1.00  0.00    -0.315 OA
HETATM    7  C11 UNL     1     -15.362  46.677 -23.050  1.00  0.00     0.261 C 
HETATM    8  O4  UNL     1     -15.213  47.753 -23.612  1.00  0.00    -0.265 OA
HETATM    9  C12 UNL     1     -16.286  46.466 -21.886  1.00  0.00     0.145 C 
HETATM   10  C13 UNL     1     -17.718  46.586 -22.414  1.00  0.00     0.164 C 
HETATM   11  O6  UNL     1     -18.006  45.439 -23.255  1.00  0.00    -0.313 OA
HETATM   12  C15 UNL     1     -18.423  45.677 -24.532  1.00  0.00     0.264 C 
HETATM   13  O7  UNL     1     -18.599  46.781 -25.030  1.00  0.00    -0.265 OA
HETATM   14  C16 UNL     1     -18.694  44.375 -25.240  1.00  0.00     0.179 C 
HETATM   15  C17 UNL     1     -18.182  44.366 -26.692  1.00  0.00     0.177 C 
HETATM   16  O9  UNL     1     -16.845  44.807 -26.854  1.00  0.00    -0.318 OA
HETATM   17  C18 UNL     1     -18.437  42.966 -27.313  1.00  0.00     0.045 C 
HETATM   18  C19 UNL     1     -19.756  42.844 -28.088  1.00  0.00     0.015 C 
HETATM   19  C20 UNL     1     -17.261  42.548 -28.189  1.00  0.00     0.024 C 
HETATM   20  C21 UNL     1     -15.940  42.527 -27.379  1.00  0.00     0.010 C 
HETATM   21  C22 UNL     1     -16.000  41.388 -26.330  1.00  0.00     0.020 C 
HETATM   22  C23 UNL     1     -14.836  42.116 -28.380  1.00  0.00     0.020 C 
HETATM   23  C24 UNL     1     -13.369  45.436 -25.475  1.00  0.00     0.041 C 
HETATM   24  C25 UNL     1     -12.806  46.848 -25.341  1.00  0.00     0.015 C 
ENDROOT
BRANCH   1  25
HETATM   25  C5  UNL     1     -12.391  45.386 -27.953  1.00  0.00     0.011 C 
HETATM   26  C6  UNL     1     -12.990  46.697 -28.491  1.00  0.00     0.012 C 
BRANCH  25  27
HETATM   27  C4  UNL     1     -10.980  45.660 -27.380  1.00  0.00     0.009 C 
BRANCH  27  28
HETATM   28  C3  UNL     1      -9.814  45.770 -28.380  1.00  0.00     0.037 C 
BRANCH  28  29
HETATM   29  C2  UNL     1      -8.976  47.067 -28.367  1.00  0.00     0.153 C 
BRANCH  29  30
HETATM   30  O1  UNL     1      -9.809  48.171 -28.757  1.00  0.00    -0.386 OA
HETATM   31  C1  UNL     1     -10.153  48.141 -30.136  1.00  0.00     0.202 C 
ENDBRANCH  29  30
BRANCH  29  32
HETATM   32  C26 UNL     1      -7.701  47.044 -29.200  1.00  0.00    -0.027 A 
HETATM   33  C27 UNL     1      -7.399  45.947 -30.026  1.00  0.00     0.010 A 
HETATM   34  C28 UNL     1      -6.220  45.916 -30.778  1.00  0.00     0.003 A 
HETATM   35  C29 UNL     1      -5.316  46.971 -30.705  1.00  0.00     0.036 A 
HETATM   36  C30 UNL     1      -5.591  48.048 -29.873  1.00  0.00     0.066 A 
HETATM   37  C31 UNL     1      -6.762  48.089 -29.119  1.00  0.00     0.046 A 
BRANCH  36  38
HETATM   38  O10 UNL     1      -4.682  49.063 -29.824  1.00  0.00    -0.361 OA
HETATM   39  H45 UNL     1      -5.035  49.756 -29.241  1.00  0.00     0.217 HD
ENDBRANCH  36  38
ENDBRANCH  29  32
ENDBRANCH  28  29
ENDBRANCH  27  28
ENDBRANCH  25  27
ENDBRANCH   1  25
BRANCH  15  40
HETATM   40  O8  UNL     1     -18.961  45.312 -27.428  1.00  0.00    -0.364 OA
HETATM   41  H25 UNL     1     -18.741  46.183 -27.044  1.00  0.00     0.213 HD
ENDBRANCH  15  40
BRANCH  10  42
HETATM   42  C14 UNL     1     -18.740  46.580 -21.274  1.00  0.00     0.197 C 
BRANCH  42  43
HETATM   43  O5  UNL     1     -19.483  45.370 -21.258  1.00  0.00    -0.398 OA
HETATM   44  H22 UNL     1     -19.984  45.348 -20.424  1.00  0.00     0.209 HD
ENDBRANCH  42  43
ENDBRANCH  10  42
TORSDOF 10
ENDMDL
MODEL 6
REMARK minimizedAffinity -7.98686123
REMARK CNNscore 0.474741369
REMARK CNNaffinity 6.2291069
REMARK  10 active torsions:
REMARK  status: ('A' for Active; 'I' for Inactive)
REMARK    1  A    between atoms: O1_2  and  C2_3 
REMARK    2  A    between atoms: C2_3  and  C3_4 
REMARK    3  A    between atoms: C2_3  and  C26_35 
REMARK    4  A    between atoms: C3_4  and  C4_5 
REMARK    5  A    between atoms: C4_5  and  C5_6 
REMARK    6  A    between atoms: C5_6  and  C7_8 
REMARK    7  A    between atoms: C13_17  and  C14_18 
REMARK    8  A    between atoms: C14_18  and  O5_19 
REMARK    9  A    between atoms: C17_24  and  O8_25 
REMARK   10  A    between atoms: C30_39  and  O10_40 
ROOT
HETATM    1  C7  UNL     1      -8.392  47.715 -27.062  1.00  0.00     0.135 C 
HETATM    2  O2  UNL     1      -9.331  46.622 -27.026  1.00  0.00    -0.348 OA
HETATM    3  C8  UNL     1     -10.319  46.518 -28.081  1.00  0.00     0.177 C 
HETATM    4  C9  UNL     1      -9.812  47.274 -29.314  1.00  0.00     0.102 C 
HETATM    5  C10 UNL     1      -8.319  46.970 -29.467  1.00  0.00     0.143 C 
HETATM    6  O3  UNL     1      -7.962  47.319 -30.814  1.00  0.00    -0.315 OA
HETATM    7  C11 UNL     1      -7.200  46.378 -31.445  1.00  0.00     0.261 C 
HETATM    8  O4  UNL     1      -6.358  45.672 -30.908  1.00  0.00    -0.265 OA
HETATM    9  C12 UNL     1      -7.653  46.202 -32.865  1.00  0.00     0.145 C 
HETATM   10  C13 UNL     1      -8.452  44.898 -32.930  1.00  0.00     0.164 C 
HETATM   11  O6  UNL     1      -9.706  45.079 -32.222  1.00  0.00    -0.313 OA
HETATM   12  C15 UNL     1      -9.995  44.210 -31.212  1.00  0.00     0.264 C 
HETATM   13  O7  UNL     1      -9.297  43.268 -30.859  1.00  0.00    -0.265 OA
HETATM   14  C16 UNL     1     -11.339  44.539 -30.613  1.00  0.00     0.179 C 
HETATM   15  C17 UNL     1     -11.349  44.444 -29.077  1.00  0.00     0.177 C 
HETATM   16  O9  UNL     1     -10.284  45.121 -28.432  1.00  0.00    -0.318 OA
HETATM   17  C18 UNL     1     -12.746  44.871 -28.550  1.00  0.00     0.045 C 
HETATM   18  C19 UNL     1     -13.727  43.711 -28.335  1.00  0.00     0.015 C 
HETATM   19  C20 UNL     1     -12.606  45.697 -27.276  1.00  0.00     0.024 C 
HETATM   20  C21 UNL     1     -11.732  46.954 -27.517  1.00  0.00     0.010 C 
HETATM   21  C22 UNL     1     -12.481  47.923 -28.467  1.00  0.00     0.020 C 
HETATM   22  C23 UNL     1     -11.652  47.682 -26.155  1.00  0.00     0.020 C 
HETATM   23  C24 UNL     1      -7.580  47.780 -28.398  1.00  0.00     0.041 C 
HETATM   24  C25 UNL     1      -6.099  47.413 -28.358  1.00  0.00     0.015 C 
ENDROOT
BRANCH   1  25
HETATM   25  C5  UNL     1      -7.568  47.715 -25.734  1.00  0.00     0.011 C 
HETATM   26  C6  UNL     1      -7.662  46.330 -25.070  1.00  0.00     0.012 C 
BRANCH  25  27
HETATM   27  C4  UNL     1      -6.082  48.077 -25.964  1.00  0.00     0.009 C 
BRANCH  27  28
HETATM   28  C3  UNL     1      -5.182  48.218 -24.722  1.00  0.00     0.037 C 
BRANCH  28  29
HETATM   29  C2  UNL     1      -4.215  49.422 -24.667  1.00  0.00     0.153 C 
BRANCH  29  30
HETATM   30  O1  UNL     1      -3.636  49.622 -25.967  1.00  0.00    -0.386 OA
HETATM   31  C1  UNL     1      -2.783  48.555 -26.359  1.00  0.00     0.202 C 
ENDBRANCH  29  30
BRANCH  29  32
HETATM   32  C26 UNL     1      -3.126  49.351 -23.606  1.00  0.00    -0.027 A 
HETATM   33  C27 UNL     1      -2.982  48.213 -22.793  1.00  0.00     0.010 A 
HETATM   34  C28 UNL     1      -1.993  48.154 -21.806  1.00  0.00     0.003 A 
HETATM   35  C29 UNL     1      -1.143  49.236 -21.602  1.00  0.00     0.036 A 
HETATM   36  C30 UNL     1      -1.291  50.376 -22.380  1.00  0.00     0.066 A 
HETATM   37  C31 UNL     1      -2.274  50.446 -23.367  1.00  0.00     0.046 A 
BRANCH  36  38
HETATM   38  O10 UNL     1      -0.443  51.418 -22.152  1.00  0.00    -0.361 OA
HETATM   39  H45 UNL     1      -0.640  52.115 -22.800  1.00  0.00     0.217 HD
ENDBRANCH  36  38
ENDBRANCH  29  32
ENDBRANCH  28  29
ENDBRANCH  27  28
ENDBRANCH  25  27
ENDBRANCH   1  25
BRANCH  15  40
HETATM   40  O8  UNL     1     -11.159  43.070 -28.730  1.00  0.00    -0.364 OA
HETATM   41  H25 UNL     1     -10.257  42.849 -29.032  1.00  0.00     0.213 HD
ENDBRANCH  15  40
BRANCH  10  42
HETATM   42  C14 UNL     1      -8.797  44.522 -34.374  1.00  0.00     0.197 C 
BRANCH  42  43
HETATM   43  O5  UNL     1      -8.390  45.537 -35.280  1.00  0.00    -0.398 OA
HETATM   44  H22 UNL     1      -8.474  45.174 -36.178  1.00  0.00     0.209 HD
ENDBRANCH  42  43
ENDBRANCH  10  42
TORSDOF 10
ENDMDL
MODEL 7
REMARK minimizedAffinity -8.74375629
REMARK CNNscore 0.424303204
REMARK CNNaffinity 6.32070541
REMARK  10 active torsions:
REMARK  status: ('A' for Active; 'I' for Inactive)
REMARK    1  A    between atoms: O1_2  and  C2_3 
REMARK    2  A    between atoms: C2_3  and  C3_4 
REMARK    3  A    between atoms: C2_3  and  C26_35 
REMARK    4  A    between atoms: C3_4  and  C4_5 
REMARK    5  A    between atoms: C4_5  and  C5_6 
REMARK    6  A    between atoms: C5_6  and  C7_8 
REMARK    7  A    between atoms: C13_17  and  C14_18 
REMARK    8  A    between atoms: C14_18  and  O5_19 
REMARK    9  A    between atoms: C17_24  and  O8_25 
REMARK   10  A    between atoms: C30_39  and  O10_40 
ROOT
HETATM    1  C7  UNL     1      -3.975  48.930 -23.931  1.00  0.00     0.135 C 
HETATM    2  O2  UNL     1      -3.528  47.988 -22.934  1.00  0.00    -0.348 OA
HETATM    3  C8  UNL     1      -4.307  47.836 -21.722  1.00  0.00     0.177 C 
HETATM    4  C9  UNL     1      -5.742  48.302 -21.990  1.00  0.00     0.102 C 
HETATM    5  C10 UNL     1      -6.149  47.787 -23.373  1.00  0.00     0.143 C 
HETATM    6  O3  UNL     1      -7.583  47.855 -23.433  1.00  0.00    -0.315 OA
HETATM    7  C11 UNL     1      -8.169  46.731 -23.941  1.00  0.00     0.261 C 
HETATM    8  O4  UNL     1      -7.699  46.022 -24.820  1.00  0.00    -0.265 OA
HETATM    9  C12 UNL     1      -9.397  46.378 -23.155  1.00  0.00     0.145 C 
HETATM   10  C13 UNL     1      -9.037  45.196 -22.252  1.00  0.00     0.164 C 
HETATM   11  O6  UNL     1      -8.125  45.654 -21.219  1.00  0.00    -0.313 OA
HETATM   12  C15 UNL     1      -6.928  45.012 -21.100  1.00  0.00     0.264 C 
HETATM   13  O7  UNL     1      -6.558  44.061 -21.776  1.00  0.00    -0.265 OA
HETATM   14  C16 UNL     1      -6.130  45.608 -19.967  1.00  0.00     0.179 C 
HETATM   15  C17 UNL     1      -4.639  45.775 -20.310  1.00  0.00     0.177 C 
HETATM   16  O9  UNL     1      -4.380  46.408 -21.551  1.00  0.00    -0.318 OA
HETATM   17  C18 UNL     1      -3.918  46.461 -19.118  1.00  0.00     0.045 C 
HETATM   18  C19 UNL     1      -3.277  45.491 -18.117  1.00  0.00     0.015 C 
HETATM   19  C20 UNL     1      -2.887  47.465 -19.624  1.00  0.00     0.024 C 
HETATM   20  C21 UNL     1      -3.549  48.540 -20.523  1.00  0.00     0.010 C 
HETATM   21  C22 UNL     1      -4.485  49.424 -19.661  1.00  0.00     0.020 C 
HETATM   22  C23 UNL     1      -2.402  49.470 -20.984  1.00  0.00     0.020 C 
HETATM   23  C24 UNL     1      -5.441  48.663 -24.410  1.00  0.00     0.041 C 
HETATM   24  C25 UNL     1      -5.649  48.120 -25.821  1.00  0.00     0.015 C 
ENDROOT
BRANCH   1  25
HETATM   25  C5  UNL     1      -2.880  49.046 -25.040  1.00  0.00     0.011 C 
HETATM   26  C6  UNL     1      -3.415  48.457 -26.357  1.00  0.00     0.012 C 
BRANCH  25  27
HETATM   27  C4  UNL     1      -2.432  50.508 -25.273  1.00  0.00     0.009 C 
BRANCH  27  28
HETATM   28  C3  UNL     1      -0.936  50.761 -25.539  1.00  0.00     0.037 C 
BRANCH  28  29
HETATM   29  C2  UNL     1      -0.404  52.198 -25.341  1.00  0.00     0.153 C 
BRANCH  29  30
HETATM   30  O1  UNL     1       0.644  52.448 -26.291  1.00  0.00    -0.386 OA
HETATM   31  C1  UNL     1       0.268  52.125 -27.623  1.00  0.00     0.202 C 
ENDBRANCH  29  30
BRANCH  29  32
HETATM   32  C26 UNL     1       0.061  52.546 -23.933  1.00  0.00    -0.027 A 
HETATM   33  C27 UNL     1      -0.329  51.765 -22.831  1.00  0.00     0.010 A 
HETATM   34  C28 UNL     1       0.083  52.093 -21.535  1.00  0.00     0.003 A 
HETATM   35  C29 UNL     1       0.875  53.217 -21.317  1.00  0.00     0.036 A 
HETATM   36  C30 UNL     1       1.244  54.010 -22.393  1.00  0.00     0.066 A 
HETATM   37  C31 UNL     1       0.840  53.692 -23.690  1.00  0.00     0.046 A 
BRANCH  36  38
HETATM   38  O10 UNL     1       2.018  55.105 -22.143  1.00  0.00    -0.361 OA
HETATM   39  H45 UNL     1       2.229  55.525 -22.993  1.00  0.00     0.217 HD
ENDBRANCH  36  38
ENDBRANCH  29  32
ENDBRANCH  28  29
ENDBRANCH  27  28
ENDBRANCH  25  27
ENDBRANCH   1  25
BRANCH  15  40
HETATM   40  O8  UNL     1      -4.082  44.467 -20.454  1.00  0.00    -0.364 OA
HETATM   41  H25 UNL     1      -4.522  44.083 -21.237  1.00  0.00     0.213 HD
ENDBRANCH  15  40
BRANCH  10  42
HETATM   42  C14 UNL     1     -10.272  44.630 -21.546  1.00  0.00     0.197 C 
BRANCH  42  43
HETATM   43  O5  UNL     1     -11.467  45.170 -22.092  1.00  0.00    -0.398 OA
HETATM   44  H22 UNL     1     -12.209  44.653 -21.732  1.00  0.00     0.209 HD
ENDBRANCH  42  43
ENDBRANCH  10  42
TORSDOF 10
ENDMDL
MODEL 8
REMARK minimizedAffinity -8.61587334
REMARK CNNscore 0.367045522
REMARK CNNaffinity 6.9112525
REMARK  10 active torsions:
REMARK  status: ('A' for Active; 'I' for Inactive)
REMARK    1  A    between atoms: O1_2  and  C2_3 
REMARK    2  A    between atoms: C2_3  and  C3_4 
REMARK    3  A    between atoms: C2_3  and  C26_35 
REMARK    4  A    between atoms: C3_4  and  C4_5 
REMARK    5  A    between atoms: C4_5  and  C5_6 
REMARK    6  A    between atoms: C5_6  and  C7_8 
REMARK    7  A    between atoms: C13_17  and  C14_18 
REMARK    8  A    between atoms: C14_18  and  O5_19 
REMARK    9  A    between atoms: C17_24  and  O8_25 
REMARK   10  A    between atoms: C30_39  and  O10_40 
ROOT
HETATM    1  C7  UNL     1      -4.070  50.209 -22.005  1.00  0.00     0.135 C 
HETATM    2  O2  UNL     1      -3.187  51.124 -21.324  1.00  0.00    -0.348 OA
HETATM    3  C8  UNL     1      -1.759  50.881 -21.377  1.00  0.00     0.177 C 
HETATM    4  C9  UNL     1      -1.446  50.017 -22.603  1.00  0.00     0.102 C 
HETATM    5  C10 UNL     1      -2.299  50.530 -23.766  1.00  0.00     0.143 C 
HETATM    6  O3  UNL     1      -1.706  50.017 -24.970  1.00  0.00    -0.315 OA
HETATM    7  C11 UNL     1      -1.576  50.947 -25.961  1.00  0.00     0.261 C 
HETATM    8  O4  UNL     1      -2.356  51.864 -26.180  1.00  0.00    -0.265 OA
HETATM    9  C12 UNL     1      -0.251  50.799 -26.650  1.00  0.00     0.145 C 
HETATM   10  C13 UNL     1       0.654  51.924 -26.142  1.00  0.00     0.164 C 
HETATM   11  O6  UNL     1       0.992  51.664 -24.754  1.00  0.00    -0.313 OA
HETATM   12  C15 UNL     1       0.707  52.635 -23.840  1.00  0.00     0.264 C 
HETATM   13  O7  UNL     1       0.209  53.725 -24.089  1.00  0.00    -0.265 OA
HETATM   14  C16 UNL     1       1.146  52.199 -22.466  1.00  0.00     0.179 C 
HETATM   15  C17 UNL     1       0.125  52.554 -21.370  1.00  0.00     0.177 C 
HETATM   16  O9  UNL     1      -1.211  52.183 -21.659  1.00  0.00    -0.318 OA
HETATM   17  C18 UNL     1       0.627  52.002 -20.009  1.00  0.00     0.045 C 
HETATM   18  C19 UNL     1       1.432  53.005 -19.172  1.00  0.00     0.015 C 
HETATM   19  C20 UNL     1      -0.538  51.442 -19.198  1.00  0.00     0.024 C 
HETATM   20  C21 UNL     1      -1.274  50.323 -19.977  1.00  0.00     0.010 C 
HETATM   21  C22 UNL     1      -0.339  49.095 -20.116  1.00  0.00     0.020 C 
HETATM   22  C23 UNL     1      -2.434  49.864 -19.063  1.00  0.00     0.020 C 
HETATM   23  C24 UNL     1      -3.732  50.049 -23.524  1.00  0.00     0.041 C 
HETATM   24  C25 UNL     1      -4.693  50.655 -24.543  1.00  0.00     0.015 C 
ENDROOT
BRANCH   1  25
HETATM   25  C5  UNL     1      -5.547  50.574 -21.645  1.00  0.00     0.011 C 
HETATM   26  C6  UNL     1      -6.479  50.139 -22.789  1.00  0.00     0.012 C 
BRANCH  25  27
HETATM   27  C4  UNL     1      -6.010  49.917 -20.324  1.00  0.00     0.009 C 
BRANCH  27  28
HETATM   28  C3  UNL     1      -5.289  48.631 -19.876  1.00  0.00     0.037 C 
BRANCH  28  29
HETATM   29  C2  UNL     1      -6.159  47.408 -19.512  1.00  0.00     0.153 C 
BRANCH  29  30
HETATM   30  O1  UNL     1      -6.035  46.416 -20.544  1.00  0.00    -0.386 OA
HETATM   31  C1  UNL     1      -4.956  46.679 -21.433  1.00  0.00     0.202 C 
ENDBRANCH  29  30
BRANCH  29  32
HETATM   32  C26 UNL     1      -7.627  47.698 -19.229  1.00  0.00    -0.027 A 
HETATM   33  C27 UNL     1      -8.579  47.681 -20.263  1.00  0.00     0.010 A 
HETATM   34  C28 UNL     1      -9.925  47.964 -20.008  1.00  0.00     0.003 A 
HETATM   35  C29 UNL     1     -10.339  48.286 -18.719  1.00  0.00     0.036 A 
HETATM   36  C30 UNL     1      -9.405  48.332 -17.694  1.00  0.00     0.066 A 
HETATM   37  C31 UNL     1      -8.061  48.052 -17.937  1.00  0.00     0.046 A 
BRANCH  36  38
HETATM   38  O10 UNL     1      -9.845  48.654 -16.445  1.00  0.00    -0.361 OA
HETATM   39  H45 UNL     1      -9.090  48.598 -15.836  1.00  0.00     0.217 HD
ENDBRANCH  36  38
ENDBRANCH  29  32
ENDBRANCH  28  29
ENDBRANCH  27  28
ENDBRANCH  25  27
ENDBRANCH   1  25
BRANCH  15  40
HETATM   40  O8  UNL     1       0.084  53.980 -21.268  1.00  0.00    -0.364 OA
HETATM   41  H25 UNL     1      -0.279  54.291 -22.120  1.00  0.00     0.213 HD
ENDBRANCH  15  40
BRANCH  10  42
HETATM   42  C14 UNL     1       1.969  51.983 -26.924  1.00  0.00     0.197 C 
BRANCH  42  43
HETATM   43  O5  UNL     1       2.950  51.136 -26.343  1.00  0.00    -0.398 OA
HETATM   44  H22 UNL     1       3.693  51.080 -26.969  1.00  0.00     0.209 HD
ENDBRANCH  42  43
ENDBRANCH  10  42
TORSDOF 10
ENDMDL
MODEL 9
REMARK minimizedAffinity -8.69303799
REMARK CNNscore 0.334556222
REMARK CNNaffinity 6.79604912
REMARK  10 active torsions:
REMARK  status: ('A' for Active; 'I' for Inactive)
REMARK    1  A    between atoms: O1_2  and  C2_3 
REMARK    2  A    between atoms: C2_3  and  C3_4 
REMARK    3  A    between atoms: C2_3  and  C26_35 
REMARK    4  A    between atoms: C3_4  and  C4_5 
REMARK    5  A    between atoms: C4_5  and  C5_6 
REMARK    6  A    between atoms: C5_6  and  C7_8 
REMARK    7  A    between atoms: C13_17  and  C14_18 
REMARK    8  A    between atoms: C14_18  and  O5_19 
REMARK    9  A    between atoms: C17_24  and  O8_25 
REMARK   10  A    between atoms: C30_39  and  O10_40 
ROOT
HETATM    1  C7  UNL     1      -0.938  52.350 -11.775  1.00  0.00     0.135 C 
HETATM    2  O2  UNL     1       0.118  52.793 -12.652  1.00  0.00    -0.348 OA
HETATM    3  C8  UNL     1       0.775  51.817 -13.498  1.00  0.00     0.177 C 
HETATM    4  C9  UNL     1      -0.157  50.616 -13.690  1.00  0.00     0.102 C 
HETATM    5  C10 UNL     1      -1.575  51.155 -13.899  1.00  0.00     0.143 C 
HETATM    6  O3  UNL     1      -2.340  50.089 -14.484  1.00  0.00    -0.315 OA
HETATM    7  C11 UNL     1      -3.108  50.479 -15.544  1.00  0.00     0.261 C 
HETATM    8  O4  UNL     1      -3.659  51.565 -15.660  1.00  0.00    -0.265 OA
HETATM    9  C12 UNL     1      -3.051  49.453 -16.638  1.00  0.00     0.145 C 
HETATM   10  C13 UNL     1      -2.128  50.002 -17.729  1.00  0.00     0.164 C 
HETATM   11  O6  UNL     1      -0.764  50.005 -17.232  1.00  0.00    -0.313 OA
HETATM   12  C15 UNL     1      -0.084  51.188 -17.252  1.00  0.00     0.264 C 
HETATM   13  O7  UNL     1      -0.516  52.251 -17.677  1.00  0.00    -0.265 OA
HETATM   14  C16 UNL     1       1.313  50.992 -16.722  1.00  0.00     0.179 C 
HETATM   15  C17 UNL     1       1.766  52.133 -15.793  1.00  0.00     0.177 C 
HETATM   16  O9  UNL     1       0.840  52.476 -14.777  1.00  0.00    -0.318 OA
HETATM   17  C18 UNL     1       3.180  51.808 -15.241  1.00  0.00     0.045 C 
HETATM   18  C19 UNL     1       4.335  52.407 -16.054  1.00  0.00     0.015 C 
HETATM   19  C20 UNL     1       3.288  52.219 -13.776  1.00  0.00     0.024 C 
HETATM   20  C21 UNL     1       2.214  51.507 -12.916  1.00  0.00     0.010 C 
HETATM   21  C22 UNL     1       2.523  49.989 -12.863  1.00  0.00     0.020 C 
HETATM   22  C23 UNL     1       2.417  52.025 -11.472  1.00  0.00     0.020 C 
HETATM   23  C24 UNL     1      -2.091  51.613 -12.532  1.00  0.00     0.041 C 
HETATM   24  C25 UNL     1      -3.435  52.324 -12.663  1.00  0.00     0.015 C 
ENDROOT
BRANCH   1  25
HETATM   25  C5  UNL     1      -1.349  53.536 -10.844  1.00  0.00     0.011 C 
HETATM   26  C6  UNL     1      -1.709  52.996  -9.449  1.00  0.00     0.012 C 
BRANCH  25  27
HETATM   27  C4  UNL     1      -0.230  54.597 -10.714  1.00  0.00     0.009 C 
BRANCH  27  28
HETATM   28  C3  UNL     1      -0.101  55.336  -9.369  1.00  0.00     0.037 C 
BRANCH  28  29
HETATM   29  C2  UNL     1       1.148  55.047  -8.508  1.00  0.00     0.153 C 
BRANCH  29  30
HETATM   30  O1  UNL     1       1.135  55.904  -7.355  1.00  0.00    -0.386 OA
HETATM   31  C1  UNL     1       0.098  56.875  -7.403  1.00  0.00     0.202 C 
ENDBRANCH  29  30
BRANCH  29  32
HETATM   32  C26 UNL     1       2.488  55.145  -9.226  1.00  0.00    -0.027 A 
HETATM   33  C27 UNL     1       2.650  55.989 -10.340  1.00  0.00     0.010 A 
HETATM   34  C28 UNL     1       3.874  56.067 -11.011  1.00  0.00     0.003 A 
HETATM   35  C29 UNL     1       4.951  55.291 -10.593  1.00  0.00     0.036 A 
HETATM   36  C30 UNL     1       4.796  54.436  -9.512  1.00  0.00     0.066 A 
HETATM   37  C31 UNL     1       3.581  54.350  -8.835  1.00  0.00     0.046 A 
BRANCH  36  38
HETATM   38  O10 UNL     1       5.872  53.689  -9.131  1.00  0.00    -0.361 OA
HETATM   39  H45 UNL     1       5.622  53.183  -8.340  1.00  0.00     0.217 HD
ENDBRANCH  36  38
ENDBRANCH  29  32
ENDBRANCH  28  29
ENDBRANCH  27  28
ENDBRANCH  25  27
ENDBRANCH   1  25
BRANCH  15  40
HETATM   40  O8  UNL     1       1.876  53.316 -16.589  1.00  0.00    -0.364 OA
HETATM   41  H25 UNL     1       0.966  53.518 -16.880  1.00  0.00     0.213 HD
ENDBRANCH  15  40
BRANCH  10  42
HETATM   42  C14 UNL     1      -2.151  49.121 -18.981  1.00  0.00     0.197 C 
BRANCH  42  43
HETATM   43  O5  UNL     1      -1.659  47.818 -18.700  1.00  0.00    -0.398 OA
HETATM   44  H22 UNL     1      -1.857  47.261 -19.473  1.00  0.00     0.209 HD
ENDBRANCH  42  43
ENDBRANCH  10  42
TORSDOF 10
ENDMDL
