MODEL 1
REMARK minimizedAffinity -8.26852989
REMARK  12 active torsions:
REMARK  status: ('A' for Active; 'I' for Inactive)
REMARK    1  A    between atoms: C2_2  and  C3_3 
REMARK    2  A    between atoms: C3_3  and  C5_5 
REMARK    3  A    between atoms: C3_3  and  C20_20 
REMARK    4  A    between atoms: C6_6  and  C7_7 
REMARK    5  A    between atoms: C7_7  and  C9_9 
REMARK    6  A    between atoms: C9_9  and  C10_10 
REMARK    7  A    between atoms: C10_10  and  C11_11 
REMARK    8  A    between atoms: C12_12  and  C14_14 
REMARK    9  A    between atoms: C14_14  and  C15_15 
REMARK   10  A    between atoms: C15_15  and  C16_16 
REMARK   11  A    between atoms: C20_20  and  C21_21 
REMARK   12  A    between atoms: C21_21  and  C22_22 
ROOT
HETATM    1  C3  UNL     1      -0.132  52.478 -25.640  1.00  0.00    -0.010 C 
HETATM    2  C4  UNL     1       0.226  53.939 -26.013  1.00  0.00     0.024 C 
ENDROOT
BRANCH   1   3
HETATM    3  C2  UNL     1       0.509  51.620 -26.730  1.00  0.00    -0.024 C 
HETATM    4  C1  UNL     1       0.353  51.681 -28.060  1.00  0.00     0.008 C 
ENDBRANCH   1   3
BRANCH   1   5
HETATM    5  C5  UNL     1       0.486  52.205 -24.266  1.00  0.00    -0.017 C 
HETATM    6  C6  UNL     1       0.359  52.942 -23.147  1.00  0.00    -0.025 C 
BRANCH   6   7
HETATM    7  C7  UNL     1       1.007  52.583 -21.828  1.00  0.00     0.004 C 
HETATM    8  C8  UNL     1       1.054  53.827 -20.938  1.00  0.00     0.014 C 
BRANCH   7   9
HETATM    9  C9  UNL     1       0.224  51.426 -21.175  1.00  0.00     0.012 C 
BRANCH   9  10
HETATM   10  C10 UNL     1      -0.695  51.837 -20.018  1.00  0.00     0.028 C 
BRANCH  10  11
HETATM   11  C11 UNL     1      -0.107  51.506 -18.671  1.00  0.00    -0.024 C 
HETATM   12  C12 UNL     1      -0.277  50.395 -17.925  1.00  0.00    -0.087 C 
HETATM   13  C13 UNL     1      -1.140  49.227 -18.334  1.00  0.00     0.043 C 
BRANCH  12  14
HETATM   14  C14 UNL     1       0.381  50.183 -16.564  1.00  0.00     0.037 C 
BRANCH  14  15
HETATM   15  C15 UNL     1       0.640  51.421 -15.694  1.00  0.00     0.031 C 
BRANCH  15  16
HETATM   16  C16 UNL     1       1.954  52.076 -16.037  1.00  0.00    -0.024 C 
HETATM   17  C17 UNL     1       3.154  51.852 -15.467  1.00  0.00    -0.091 C 
HETATM   18  C18 UNL     1       3.398  50.927 -14.307  1.00  0.00     0.042 C 
HETATM   19  C19 UNL     1       4.388  52.557 -15.971  1.00  0.00     0.042 C 
ENDBRANCH  15  16
ENDBRANCH  14  15
ENDBRANCH  12  14
ENDBRANCH  10  11
ENDBRANCH   9  10
ENDBRANCH   7   9
ENDBRANCH   6   7
ENDBRANCH   1   5
BRANCH   1  20
HETATM   20  C20 UNL     1      -1.693  52.401 -25.515  1.00  0.00     0.018 C 
BRANCH  20  21
HETATM   21  C21 UNL     1      -2.297  50.989 -25.567  1.00  0.00     0.011 C 
BRANCH  21  22
HETATM   22  C22 UNL     1      -3.556  50.633 -24.720  1.00  0.00     0.022 C 
HETATM   23  C23 UNL     1      -3.893  51.534 -23.535  1.00  0.00    -0.084 C 
HETATM   24  C24 UNL     1      -3.038  52.244 -22.782  1.00  0.00     0.014 C 
HETATM   25  C25 UNL     1      -5.373  51.551 -23.202  1.00  0.00     0.034 C 
HETATM   26  C26 UNL     1      -6.076  50.247 -23.595  1.00  0.00     0.009 C 
HETATM   27  C27 UNL     1      -5.147  49.035 -23.418  1.00  0.00    -0.010 C 
HETATM   28  C28 UNL     1      -5.954  47.738 -23.556  1.00  0.00     0.011 C 
HETATM   29  C29 UNL     1      -3.851  49.120 -24.341  1.00  0.00    -0.037 C 
HETATM   30  C30 UNL     1      -2.711  48.456 -23.539  1.00  0.00     0.016 C 
HETATM   31  C31 UNL     1      -4.028  48.319 -25.652  1.00  0.00     0.016 C 
ENDBRANCH  21  22
ENDBRANCH  20  21
ENDBRANCH   1  20
TORSDOF 12
ENDMDL
MODEL 2
REMARK minimizedAffinity -7.99101734
REMARK  12 active torsions:
REMARK  status: ('A' for Active; 'I' for Inactive)
REMARK    1  A    between atoms: C2_2  and  C3_3 
REMARK    2  A    between atoms: C3_3  and  C5_5 
REMARK    3  A    between atoms: C3_3  and  C20_20 
REMARK    4  A    between atoms: C6_6  and  C7_7 
REMARK    5  A    between atoms: C7_7  and  C9_9 
REMARK    6  A    between atoms: C9_9  and  C10_10 
REMARK    7  A    between atoms: C10_10  and  C11_11 
REMARK    8  A    between atoms: C12_12  and  C14_14 
REMARK    9  A    between atoms: C14_14  and  C15_15 
REMARK   10  A    between atoms: C15_15  and  C16_16 
REMARK   11  A    between atoms: C20_20  and  C21_21 
REMARK   12  A    between atoms: C21_21  and  C22_22 
ROOT
HETATM    1  C3  UNL     1       0.350  51.888 -26.410  1.00  0.00    -0.010 C 
HETATM    2  C4  UNL     1       1.852  51.517 -26.316  1.00  0.00     0.024 C 
ENDROOT
BRANCH   1   3
HETATM    3  C2  UNL     1       0.166  52.450 -27.819  1.00  0.00    -0.024 C 
HETATM    4  C1  UNL     1      -0.266  53.659 -28.201  1.00  0.00     0.008 C 
ENDBRANCH   1   3
BRANCH   1   5
HETATM    5  C5  UNL     1      -0.442  50.592 -26.207  1.00  0.00    -0.017 C 
HETATM    6  C6  UNL     1      -1.750  50.385 -26.442  1.00  0.00    -0.025 C 
BRANCH   6   7
HETATM    7  C7  UNL     1      -2.443  49.058 -26.215  1.00  0.00     0.004 C 
HETATM    8  C8  UNL     1      -3.194  49.107 -24.883  1.00  0.00     0.014 C 
BRANCH   7   9
HETATM    9  C9  UNL     1      -3.378  48.763 -27.405  1.00  0.00     0.012 C 
BRANCH   9  10
HETATM   10  C10 UNL     1      -4.772  48.253 -27.021  1.00  0.00     0.028 C 
BRANCH  10  11
HETATM   11  C11 UNL     1      -5.529  47.704 -28.202  1.00  0.00    -0.024 C 
HETATM   12  C12 UNL     1      -6.836  47.380 -28.292  1.00  0.00    -0.087 C 
HETATM   13  C13 UNL     1      -7.820  47.514 -27.156  1.00  0.00     0.043 C 
BRANCH  12  14
HETATM   14  C14 UNL     1      -7.484  46.827 -29.559  1.00  0.00     0.037 C 
BRANCH  14  15
HETATM   15  C15 UNL     1      -6.637  45.910 -30.454  1.00  0.00     0.031 C 
BRANCH  15  16
HETATM   16  C16 UNL     1      -5.865  46.696 -31.482  1.00  0.00    -0.024 C 
HETATM   17  C17 UNL     1      -4.927  46.235 -32.332  1.00  0.00    -0.091 C 
HETATM   18  C18 UNL     1      -4.419  44.820 -32.368  1.00  0.00     0.042 C 
HETATM   19  C19 UNL     1      -4.286  47.153 -33.341  1.00  0.00     0.042 C 
ENDBRANCH  15  16
ENDBRANCH  14  15
ENDBRANCH  12  14
ENDBRANCH  10  11
ENDBRANCH   9  10
ENDBRANCH   7   9
ENDBRANCH   6   7
ENDBRANCH   1   5
BRANCH   1  20
HETATM   20  C20 UNL     1       0.037  52.861 -25.222  1.00  0.00     0.018 C 
BRANCH  20  21
HETATM   21  C21 UNL     1       0.776  52.566 -23.906  1.00  0.00     0.011 C 
BRANCH  21  22
HETATM   22  C22 UNL     1       0.021  51.935 -22.697  1.00  0.00     0.022 C 
HETATM   23  C23 UNL     1      -1.496  51.807 -22.794  1.00  0.00    -0.084 C 
HETATM   24  C24 UNL     1      -2.339  52.596 -23.480  1.00  0.00     0.014 C 
HETATM   25  C25 UNL     1      -2.051  50.662 -21.969  1.00  0.00     0.034 C 
HETATM   26  C26 UNL     1      -1.178  50.342 -20.751  1.00  0.00     0.009 C 
HETATM   27  C27 UNL     1      -0.536  51.613 -20.173  1.00  0.00    -0.010 C 
HETATM   28  C28 UNL     1       0.102  51.300 -18.814  1.00  0.00     0.011 C 
HETATM   29  C29 UNL     1       0.429  52.336 -21.216  1.00  0.00    -0.037 C 
HETATM   30  C30 UNL     1       0.303  53.850 -20.935  1.00  0.00     0.016 C 
HETATM   31  C31 UNL     1       1.908  51.942 -20.998  1.00  0.00     0.016 C 
ENDBRANCH  21  22
ENDBRANCH  20  21
ENDBRANCH   1  20
TORSDOF 12
ENDMDL
MODEL 3
REMARK minimizedAffinity -7.92858219
REMARK  12 active torsions:
REMARK  status: ('A' for Active; 'I' for Inactive)
REMARK    1  A    between atoms: C2_2  and  C3_3 
REMARK    2  A    between atoms: C3_3  and  C5_5 
REMARK    3  A    between atoms: C3_3  and  C20_20 
REMARK    4  A    between atoms: C6_6  and  C7_7 
REMARK    5  A    between atoms: C7_7  and  C9_9 
REMARK    6  A    between atoms: C9_9  and  C10_10 
REMARK    7  A    between atoms: C10_10  and  C11_11 
REMARK    8  A    between atoms: C12_12  and  C14_14 
REMARK    9  A    between atoms: C14_14  and  C15_15 
REMARK   10  A    between atoms: C15_15  and  C16_16 
REMARK   11  A    between atoms: C20_20  and  C21_21 
REMARK   12  A    between atoms: C21_21  and  C22_22 
ROOT
HETATM    1  C3  UNL     1       0.265  51.985 -25.681  1.00  0.00    -0.010 C 
HETATM    2  C4  UNL     1       0.007  53.471 -26.038  1.00  0.00     0.024 C 
ENDROOT
BRANCH   1   3
HETATM    3  C2  UNL     1       1.740  51.748 -26.001  1.00  0.00    -0.024 C 
HETATM    4  C1  UNL     1       2.345  51.645 -27.192  1.00  0.00     0.008 C 
ENDBRANCH   1   3
BRANCH   1   5
HETATM    5  C5  UNL     1      -0.024  51.830 -24.185  1.00  0.00    -0.017 C 
HETATM    6  C6  UNL     1       0.598  52.441 -23.161  1.00  0.00    -0.025 C 
BRANCH   6   7
HETATM    7  C7  UNL     1       0.232  52.226 -21.708  1.00  0.00     0.004 C 
HETATM    8  C8  UNL     1       0.302  50.731 -21.390  1.00  0.00     0.014 C 
BRANCH   7   9
HETATM    9  C9  UNL     1       1.176  53.059 -20.817  1.00  0.00     0.012 C 
BRANCH   9  10
HETATM   10  C10 UNL     1       0.565  53.533 -19.492  1.00  0.00     0.028 C 
BRANCH  10  11
HETATM   11  C11 UNL     1       0.745  52.529 -18.384  1.00  0.00    -0.024 C 
HETATM   12  C12 UNL     1      -0.142  51.634 -17.902  1.00  0.00    -0.087 C 
HETATM   13  C13 UNL     1      -1.551  51.479 -18.418  1.00  0.00     0.043 C 
BRANCH  12  14
HETATM   14  C14 UNL     1       0.169  50.665 -16.764  1.00  0.00     0.037 C 
BRANCH  14  15
HETATM   15  C15 UNL     1       1.086  51.159 -15.634  1.00  0.00     0.031 C 
BRANCH  15  16
HETATM   16  C16 UNL     1       1.406  50.056 -14.658  1.00  0.00    -0.024 C 
HETATM   17  C17 UNL     1       2.562  49.861 -13.993  1.00  0.00    -0.091 C 
HETATM   18  C18 UNL     1       3.801  50.696 -14.157  1.00  0.00     0.042 C 
HETATM   19  C19 UNL     1       2.698  48.732 -13.004  1.00  0.00     0.042 C 
ENDBRANCH  15  16
ENDBRANCH  14  15
ENDBRANCH  12  14
ENDBRANCH  10  11
ENDBRANCH   9  10
ENDBRANCH   7   9
ENDBRANCH   6   7
ENDBRANCH   1   5
BRANCH   1  20
HETATM   20  C20 UNL     1      -0.772  51.128 -26.486  1.00  0.00     0.018 C 
BRANCH  20  21
HETATM   21  C21 UNL     1      -2.232  51.234 -26.016  1.00  0.00     0.011 C 
BRANCH  21  22
HETATM   22  C22 UNL     1      -2.682  50.582 -24.673  1.00  0.00     0.022 C 
HETATM   23  C23 UNL     1      -3.030  49.096 -24.684  1.00  0.00    -0.084 C 
HETATM   24  C24 UNL     1      -3.521  48.382 -25.710  1.00  0.00     0.014 C 
HETATM   25  C25 UNL     1      -2.807  48.422 -23.344  1.00  0.00     0.034 C 
HETATM   26  C26 UNL     1      -2.961  49.394 -22.169  1.00  0.00     0.009 C 
HETATM   27  C27 UNL     1      -4.039  50.452 -22.454  1.00  0.00    -0.010 C 
HETATM   28  C28 UNL     1      -4.356  51.229 -21.171  1.00  0.00     0.011 C 
HETATM   29  C29 UNL     1      -3.684  51.357 -23.717  1.00  0.00    -0.037 C 
HETATM   30  C30 UNL     1      -5.032  51.699 -24.390  1.00  0.00     0.016 C 
HETATM   31  C31 UNL     1      -3.021  52.690 -23.298  1.00  0.00     0.016 C 
ENDBRANCH  21  22
ENDBRANCH  20  21
ENDBRANCH   1  20
TORSDOF 12
ENDMDL
MODEL 4
REMARK minimizedAffinity -7.85271502
REMARK  12 active torsions:
REMARK  status: ('A' for Active; 'I' for Inactive)
REMARK    1  A    between atoms: C2_2  and  C3_3 
REMARK    2  A    between atoms: C3_3  and  C5_5 
REMARK    3  A    between atoms: C3_3  and  C20_20 
REMARK    4  A    between atoms: C6_6  and  C7_7 
REMARK    5  A    between atoms: C7_7  and  C9_9 
REMARK    6  A    between atoms: C9_9  and  C10_10 
REMARK    7  A    between atoms: C10_10  and  C11_11 
REMARK    8  A    between atoms: C12_12  and  C14_14 
REMARK    9  A    between atoms: C14_14  and  C15_15 
REMARK   10  A    between atoms: C15_15  and  C16_16 
REMARK   11  A    between atoms: C20_20  and  C21_21 
REMARK   12  A    between atoms: C21_21  and  C22_22 
ROOT
HETATM    1  C3  UNL     1      -0.149  51.897 -26.192  1.00  0.00    -0.010 C 
HETATM    2  C4  UNL     1       1.265  51.522 -25.680  1.00  0.00     0.024 C 
ENDROOT
BRANCH   1   3
HETATM    3  C2  UNL     1       0.090  52.693 -27.473  1.00  0.00    -0.024 C 
HETATM    4  C1  UNL     1      -0.457  53.852 -27.867  1.00  0.00     0.008 C 
ENDBRANCH   1   3
BRANCH   1   5
HETATM    5  C5  UNL     1      -0.886  50.582 -26.468  1.00  0.00    -0.017 C 
HETATM    6  C6  UNL     1      -2.203  50.339 -26.348  1.00  0.00    -0.025 C 
BRANCH   6   7
HETATM    7  C7  UNL     1      -2.840  49.000 -26.655  1.00  0.00     0.004 C 
HETATM    8  C8  UNL     1      -3.546  48.483 -25.400  1.00  0.00     0.014 C 
BRANCH   7   9
HETATM    9  C9  UNL     1      -3.805  49.157 -27.847  1.00  0.00     0.012 C 
BRANCH   9  10
HETATM   10  C10 UNL     1      -4.868  48.058 -27.969  1.00  0.00     0.028 C 
BRANCH  10  11
HETATM   11  C11 UNL     1      -5.723  48.219 -29.199  1.00  0.00    -0.024 C 
HETATM   12  C12 UNL     1      -6.626  47.361 -29.718  1.00  0.00    -0.087 C 
HETATM   13  C13 UNL     1      -6.949  46.013 -29.124  1.00  0.00     0.043 C 
BRANCH  12  14
HETATM   14  C14 UNL     1      -7.433  47.648 -30.982  1.00  0.00     0.037 C 
BRANCH  14  15
HETATM   15  C15 UNL     1      -7.096  46.841 -32.244  1.00  0.00     0.031 C 
BRANCH  15  16
HETATM   16  C16 UNL     1      -5.917  47.425 -32.979  1.00  0.00    -0.024 C 
HETATM   17  C17 UNL     1      -4.632  47.028 -32.913  1.00  0.00    -0.091 C 
HETATM   18  C18 UNL     1      -4.113  45.936 -32.018  1.00  0.00     0.042 C 
HETATM   19  C19 UNL     1      -3.577  47.691 -33.762  1.00  0.00     0.042 C 
ENDBRANCH  15  16
ENDBRANCH  14  15
ENDBRANCH  12  14
ENDBRANCH  10  11
ENDBRANCH   9  10
ENDBRANCH   7   9
ENDBRANCH   6   7
ENDBRANCH   1   5
BRANCH   1  20
HETATM   20  C20 UNL     1      -0.880  52.648 -25.026  1.00  0.00     0.018 C 
BRANCH  20  21
HETATM   21  C21 UNL     1      -0.033  52.916 -23.771  1.00  0.00     0.011 C 
BRANCH  21  22
HETATM   22  C22 UNL     1      -0.566  52.529 -22.358  1.00  0.00     0.022 C 
HETATM   23  C23 UNL     1       0.455  52.333 -21.241  1.00  0.00    -0.084 C 
HETATM   24  C24 UNL     1       1.726  51.919 -21.363  1.00  0.00     0.014 C 
HETATM   25  C25 UNL     1      -0.109  52.617 -19.862  1.00  0.00     0.034 C 
HETATM   26  C26 UNL     1      -1.618  52.362 -19.783  1.00  0.00     0.009 C 
HETATM   27  C27 UNL     1      -2.034  51.184 -20.679  1.00  0.00    -0.010 C 
HETATM   28  C28 UNL     1      -3.483  50.786 -20.373  1.00  0.00     0.011 C 
HETATM   29  C29 UNL     1      -1.723  51.451 -22.219  1.00  0.00    -0.037 C 
HETATM   30  C30 UNL     1      -1.357  50.078 -22.825  1.00  0.00     0.016 C 
HETATM   31  C31 UNL     1      -2.967  51.976 -22.973  1.00  0.00     0.016 C 
ENDBRANCH  21  22
ENDBRANCH  20  21
ENDBRANCH   1  20
TORSDOF 12
ENDMDL
MODEL 5
REMARK minimizedAffinity -7.83123589
REMARK  12 active torsions:
REMARK  status: ('A' for Active; 'I' for Inactive)
REMARK    1  A    between atoms: C2_2  and  C3_3 
REMARK    2  A    between atoms: C3_3  and  C5_5 
REMARK    3  A    between atoms: C3_3  and  C20_20 
REMARK    4  A    between atoms: C6_6  and  C7_7 
REMARK    5  A    between atoms: C7_7  and  C9_9 
REMARK    6  A    between atoms: C9_9  and  C10_10 
REMARK    7  A    between atoms: C10_10  and  C11_11 
REMARK    8  A    between atoms: C12_12  and  C14_14 
REMARK    9  A    between atoms: C14_14  and  C15_15 
REMARK   10  A    between atoms: C15_15  and  C16_16 
REMARK   11  A    between atoms: C20_20  and  C21_21 
REMARK   12  A    between atoms: C21_21  and  C22_22 
ROOT
HETATM    1  C3  UNL     1      -0.553  50.936 -19.987  1.00  0.00    -0.010 C 
HETATM    2  C4  UNL     1      -0.613  49.394 -20.137  1.00  0.00     0.024 C 
ENDROOT
BRANCH   1   3
HETATM    3  C2  UNL     1      -2.009  51.397 -20.028  1.00  0.00    -0.024 C 
HETATM    4  C1  UNL     1      -3.129  50.692 -19.822  1.00  0.00     0.008 C 
ENDBRANCH   1   3
BRANCH   1   5
HETATM    5  C5  UNL     1       0.097  51.227 -18.631  1.00  0.00    -0.017 C 
HETATM    6  C6  UNL     1       0.065  50.462 -17.524  1.00  0.00    -0.025 C 
BRANCH   6   7
HETATM    7  C7  UNL     1       0.750  50.835 -16.227  1.00  0.00     0.004 C 
HETATM    8  C8  UNL     1       1.377  52.223 -16.374  1.00  0.00     0.014 C 
BRANCH   7   9
HETATM    9  C9  UNL     1      -0.274  50.773 -15.076  1.00  0.00     0.012 C 
BRANCH   9  10
HETATM   10  C10 UNL     1      -0.160  51.904 -14.046  1.00  0.00     0.028 C 
BRANCH  10  11
HETATM   11  C11 UNL     1      -1.090  51.714 -12.877  1.00  0.00    -0.024 C 
HETATM   12  C12 UNL     1      -2.439  51.711 -12.862  1.00  0.00    -0.087 C 
HETATM   13  C13 UNL     1      -3.298  51.916 -14.085  1.00  0.00     0.043 C 
BRANCH  12  14
HETATM   14  C14 UNL     1      -3.269  51.506 -11.597  1.00  0.00     0.037 C 
BRANCH  14  15
HETATM   15  C15 UNL     1      -4.085  52.698 -11.075  1.00  0.00     0.031 C 
BRANCH  15  16
HETATM   16  C16 UNL     1      -3.241  53.942 -10.964  1.00  0.00    -0.024 C 
HETATM   17  C17 UNL     1      -2.248  54.182 -10.086  1.00  0.00    -0.091 C 
HETATM   18  C18 UNL     1      -1.829  53.250  -8.983  1.00  0.00     0.042 C 
HETATM   19  C19 UNL     1      -1.463  55.468 -10.147  1.00  0.00     0.042 C 
ENDBRANCH  15  16
ENDBRANCH  14  15
ENDBRANCH  12  14
ENDBRANCH  10  11
ENDBRANCH   9  10
ENDBRANCH   7   9
ENDBRANCH   6   7
ENDBRANCH   1   5
BRANCH   1  20
HETATM   20  C20 UNL     1       0.385  51.475 -21.122  1.00  0.00     0.018 C 
BRANCH  20  21
HETATM   21  C21 UNL     1      -0.296  52.341 -22.194  1.00  0.00     0.011 C 
BRANCH  21  22
HETATM   22  C22 UNL     1      -0.234  51.934 -23.698  1.00  0.00     0.022 C 
HETATM   23  C23 UNL     1       0.534  52.846 -24.651  1.00  0.00    -0.084 C 
HETATM   24  C24 UNL     1       0.713  54.172 -24.543  1.00  0.00     0.014 C 
HETATM   25  C25 UNL     1       1.099  52.111 -25.852  1.00  0.00     0.034 C 
HETATM   26  C26 UNL     1       0.268  50.879 -26.227  1.00  0.00     0.009 C 
HETATM   27  C27 UNL     1      -1.227  51.110 -25.959  1.00  0.00    -0.010 C 
HETATM   28  C28 UNL     1      -2.048  49.978 -26.591  1.00  0.00     0.011 C 
HETATM   29  C29 UNL     1      -1.536  51.383 -24.419  1.00  0.00    -0.037 C 
HETATM   30  C30 UNL     1      -2.719  52.375 -24.391  1.00  0.00     0.016 C 
HETATM   31  C31 UNL     1      -1.987  50.097 -23.688  1.00  0.00     0.016 C 
ENDBRANCH  21  22
ENDBRANCH  20  21
ENDBRANCH   1  20
TORSDOF 12
ENDMDL
MODEL 6
REMARK minimizedAffinity -7.82078791
REMARK  12 active torsions:
REMARK  status: ('A' for Active; 'I' for Inactive)
REMARK    1  A    between atoms: C2_2  and  C3_3 
REMARK    2  A    between atoms: C3_3  and  C5_5 
REMARK    3  A    between atoms: C3_3  and  C20_20 
REMARK    4  A    between atoms: C6_6  and  C7_7 
REMARK    5  A    between atoms: C7_7  and  C9_9 
REMARK    6  A    between atoms: C9_9  and  C10_10 
REMARK    7  A    between atoms: C10_10  and  C11_11 
REMARK    8  A    between atoms: C12_12  and  C14_14 
REMARK    9  A    between atoms: C14_14  and  C15_15 
REMARK   10  A    between atoms: C15_15  and  C16_16 
REMARK   11  A    between atoms: C20_20  and  C21_21 
REMARK   12  A    between atoms: C21_21  and  C22_22 
ROOT
HETATM    1  C3  UNL     1      -0.396  51.898 -24.410  1.00  0.00    -0.010 C 
HETATM    2  C4  UNL     1      -1.355  52.837 -25.184  1.00  0.00     0.024 C 
ENDROOT
BRANCH   1   3
HETATM    3  C2  UNL     1       0.779  51.660 -25.357  1.00  0.00    -0.024 C 
HETATM    4  C1  UNL     1       1.036  52.216 -26.549  1.00  0.00     0.008 C 
ENDBRANCH   1   3
BRANCH   1   5
HETATM    5  C5  UNL     1       0.037  52.647 -23.146  1.00  0.00    -0.017 C 
HETATM    6  C6  UNL     1       0.815  52.192 -22.147  1.00  0.00    -0.025 C 
BRANCH   6   7
HETATM    7  C7  UNL     1       1.194  53.017 -20.936  1.00  0.00     0.004 C 
HETATM    8  C8  UNL     1       1.531  54.440 -21.386  1.00  0.00     0.014 C 
BRANCH   7   9
HETATM    9  C9  UNL     1       0.038  52.983 -19.916  1.00  0.00     0.012 C 
BRANCH   9  10
HETATM   10  C10 UNL     1      -0.505  51.584 -19.598  1.00  0.00     0.028 C 
BRANCH  10  11
HETATM   11  C11 UNL     1       0.088  51.009 -18.338  1.00  0.00    -0.024 C 
HETATM   12  C12 UNL     1      -0.350  49.972 -17.595  1.00  0.00    -0.087 C 
HETATM   13  C13 UNL     1      -1.584  49.165 -17.915  1.00  0.00     0.043 C 
BRANCH  12  14
HETATM   14  C14 UNL     1       0.350  49.486 -16.328  1.00  0.00     0.037 C 
BRANCH  14  15
HETATM   15  C15 UNL     1       0.719  50.534 -15.268  1.00  0.00     0.031 C 
BRANCH  15  16
HETATM   16  C16 UNL     1       1.785  51.476 -15.766  1.00  0.00    -0.024 C 
HETATM   17  C17 UNL     1       3.012  51.674 -15.247  1.00  0.00    -0.091 C 
HETATM   18  C18 UNL     1       3.535  51.017 -13.999  1.00  0.00     0.042 C 
HETATM   19  C19 UNL     1       3.982  52.621 -15.906  1.00  0.00     0.042 C 
ENDBRANCH  15  16
ENDBRANCH  14  15
ENDBRANCH  12  14
ENDBRANCH  10  11
ENDBRANCH   9  10
ENDBRANCH   7   9
ENDBRANCH   6   7
ENDBRANCH   1   5
BRANCH   1  20
HETATM   20  C20 UNL     1      -1.223  50.635 -23.989  1.00  0.00     0.018 C 
BRANCH  20  21
HETATM   21  C21 UNL     1      -2.223  50.846 -22.839  1.00  0.00     0.011 C 
BRANCH  21  22
HETATM   22  C22 UNL     1      -3.197  49.704 -22.418  1.00  0.00     0.022 C 
HETATM   23  C23 UNL     1      -2.649  48.592 -21.530  1.00  0.00    -0.084 C 
HETATM   24  C24 UNL     1      -1.386  48.137 -21.479  1.00  0.00     0.014 C 
HETATM   25  C25 UNL     1      -3.710  47.945 -20.661  1.00  0.00     0.034 C 
HETATM   26  C26 UNL     1      -5.105  48.013 -21.293  1.00  0.00     0.009 C 
HETATM   27  C27 UNL     1      -5.031  47.901 -22.824  1.00  0.00    -0.010 C 
HETATM   28  C28 UNL     1      -6.439  47.700 -23.398  1.00  0.00     0.011 C 
HETATM   29  C29 UNL     1      -4.201  49.091 -23.483  1.00  0.00    -0.037 C 
HETATM   30  C30 UNL     1      -3.492  48.486 -24.715  1.00  0.00     0.016 C 
HETATM   31  C31 UNL     1      -5.125  50.224 -23.987  1.00  0.00     0.016 C 
ENDBRANCH  21  22
ENDBRANCH  20  21
ENDBRANCH   1  20
TORSDOF 12
ENDMDL
MODEL 7
REMARK minimizedAffinity -7.81418514
REMARK  12 active torsions:
REMARK  status: ('A' for Active; 'I' for Inactive)
REMARK    1  A    between atoms: C2_2  and  C3_3 
REMARK    2  A    between atoms: C3_3  and  C5_5 
REMARK    3  A    between atoms: C3_3  and  C20_20 
REMARK    4  A    between atoms: C6_6  and  C7_7 
REMARK    5  A    between atoms: C7_7  and  C9_9 
REMARK    6  A    between atoms: C9_9  and  C10_10 
REMARK    7  A    between atoms: C10_10  and  C11_11 
REMARK    8  A    between atoms: C12_12  and  C14_14 
REMARK    9  A    between atoms: C14_14  and  C15_15 
REMARK   10  A    between atoms: C15_15  and  C16_16 
REMARK   11  A    between atoms: C20_20  and  C21_21 
REMARK   12  A    between atoms: C21_21  and  C22_22 
ROOT
HETATM    1  C3  UNL     1      -1.099  51.489 -24.378  1.00  0.00    -0.010 C 
HETATM    2  C4  UNL     1      -2.114  52.584 -24.792  1.00  0.00     0.024 C 
ENDROOT
BRANCH   1   3
HETATM    3  C2  UNL     1       0.072  51.643 -25.347  1.00  0.00    -0.024 C 
HETATM    4  C1  UNL     1       0.465  50.834 -26.341  1.00  0.00     0.008 C 
ENDBRANCH   1   3
BRANCH   1   5
HETATM    5  C5  UNL     1      -0.684  51.789 -22.934  1.00  0.00    -0.017 C 
HETATM    6  C6  UNL     1       0.488  52.290 -22.504  1.00  0.00    -0.025 C 
BRANCH   6   7
HETATM    7  C7  UNL     1       0.801  52.560 -21.048  1.00  0.00     0.004 C 
HETATM    8  C8  UNL     1       1.180  54.033 -20.882  1.00  0.00     0.014 C 
BRANCH   7   9
HETATM    9  C9  UNL     1      -0.415  52.167 -20.185  1.00  0.00     0.012 C 
BRANCH   9  10
HETATM   10  C10 UNL     1      -0.190  50.966 -19.258  1.00  0.00     0.028 C 
BRANCH  10  11
HETATM   11  C11 UNL     1      -0.202  51.354 -17.802  1.00  0.00    -0.024 C 
HETATM   12  C12 UNL     1      -0.234  50.555 -16.716  1.00  0.00    -0.087 C 
HETATM   13  C13 UNL     1      -0.270  49.048 -16.775  1.00  0.00     0.043 C 
BRANCH  12  14
HETATM   14  C14 UNL     1      -0.244  51.080 -15.282  1.00  0.00     0.037 C 
BRANCH  14  15
HETATM   15  C15 UNL     1       1.090  51.108 -14.521  1.00  0.00     0.031 C 
BRANCH  15  16
HETATM   16  C16 UNL     1       2.155  51.844 -15.294  1.00  0.00    -0.024 C 
HETATM   17  C17 UNL     1       3.487  51.646 -15.246  1.00  0.00    -0.091 C 
HETATM   18  C18 UNL     1       4.179  50.668 -14.337  1.00  0.00     0.042 C 
HETATM   19  C19 UNL     1       4.414  52.437 -16.133  1.00  0.00     0.042 C 
ENDBRANCH  15  16
ENDBRANCH  14  15
ENDBRANCH  12  14
ENDBRANCH  10  11
ENDBRANCH   9  10
ENDBRANCH   7   9
ENDBRANCH   6   7
ENDBRANCH   1   5
BRANCH   1  20
HETATM   20  C20 UNL     1      -1.858  50.117 -24.409  1.00  0.00     0.018 C 
BRANCH  20  21
HETATM   21  C21 UNL     1      -2.154  49.487 -23.039  1.00  0.00     0.011 C 
BRANCH  21  22
HETATM   22  C22 UNL     1      -3.618  49.152 -22.621  1.00  0.00     0.022 C 
HETATM   23  C23 UNL     1      -4.507  48.450 -23.643  1.00  0.00    -0.084 C 
HETATM   24  C24 UNL     1      -4.438  48.538 -24.981  1.00  0.00     0.014 C 
HETATM   25  C25 UNL     1      -5.593  47.603 -23.006  1.00  0.00     0.034 C 
HETATM   26  C26 UNL     1      -6.013  48.130 -21.630  1.00  0.00     0.009 C 
HETATM   27  C27 UNL     1      -5.947  49.665 -21.574  1.00  0.00    -0.010 C 
HETATM   28  C28 UNL     1      -6.625  50.168 -20.294  1.00  0.00     0.011 C 
HETATM   29  C29 UNL     1      -4.472  50.220 -21.815  1.00  0.00    -0.037 C 
HETATM   30  C30 UNL     1      -4.638  51.562 -22.562  1.00  0.00     0.016 C 
HETATM   31  C31 UNL     1      -3.746  50.515 -20.482  1.00  0.00     0.016 C 
ENDBRANCH  21  22
ENDBRANCH  20  21
ENDBRANCH   1  20
TORSDOF 12
ENDMDL
MODEL 8
REMARK minimizedAffinity -7.81389427
REMARK  12 active torsions:
REMARK  status: ('A' for Active; 'I' for Inactive)
REMARK    1  A    between atoms: C2_2  and  C3_3 
REMARK    2  A    between atoms: C3_3  and  C5_5 
REMARK    3  A    between atoms: C3_3  and  C20_20 
REMARK    4  A    between atoms: C6_6  and  C7_7 
REMARK    5  A    between atoms: C7_7  and  C9_9 
REMARK    6  A    between atoms: C9_9  and  C10_10 
REMARK    7  A    between atoms: C10_10  and  C11_11 
REMARK    8  A    between atoms: C12_12  and  C14_14 
REMARK    9  A    between atoms: C14_14  and  C15_15 
REMARK   10  A    between atoms: C15_15  and  C16_16 
REMARK   11  A    between atoms: C20_20  and  C21_21 
REMARK   12  A    between atoms: C21_21  and  C22_22 
ROOT
HETATM    1  C3  UNL     1      -0.171  52.223 -25.280  1.00  0.00    -0.010 C 
HETATM    2  C4  UNL     1       0.092  53.670 -25.766  1.00  0.00     0.024 C 
ENDROOT
BRANCH   1   3
HETATM    3  C2  UNL     1       0.494  51.326 -26.322  1.00  0.00    -0.024 C 
HETATM    4  C1  UNL     1       1.041  51.654 -27.501  1.00  0.00     0.008 C 
ENDBRANCH   1   3
BRANCH   1   5
HETATM    5  C5  UNL     1       0.493  52.086 -23.906  1.00  0.00    -0.017 C 
HETATM    6  C6  UNL     1       0.327  52.879 -22.832  1.00  0.00    -0.025 C 
BRANCH   6   7
HETATM    7  C7  UNL     1       1.027  52.655 -21.509  1.00  0.00     0.004 C 
HETATM    8  C8  UNL     1       1.229  54.005 -20.815  1.00  0.00     0.014 C 
BRANCH   7   9
HETATM    9  C9  UNL     1       0.200  51.675 -20.654  1.00  0.00     0.012 C 
BRANCH   9  10
HETATM   10  C10 UNL     1      -0.275  52.232 -19.307  1.00  0.00     0.028 C 
BRANCH  10  11
HETATM   11  C11 UNL     1       0.198  51.402 -18.142  1.00  0.00    -0.024 C 
HETATM   12  C12 UNL     1      -0.288  50.229 -17.688  1.00  0.00    -0.087 C 
HETATM   13  C13 UNL     1      -1.461  49.506 -18.302  1.00  0.00     0.043 C 
BRANCH  12  14
HETATM   14  C14 UNL     1       0.288  49.485 -16.485  1.00  0.00     0.037 C 
BRANCH  14  15
HETATM   15  C15 UNL     1       0.640  50.306 -15.237  1.00  0.00     0.031 C 
BRANCH  15  16
HETATM   16  C16 UNL     1       1.795  49.700 -14.481  1.00  0.00    -0.024 C 
HETATM   17  C17 UNL     1       2.627  50.320 -13.621  1.00  0.00    -0.091 C 
HETATM   18  C18 UNL     1       2.594  51.788 -13.298  1.00  0.00     0.042 C 
HETATM   19  C19 UNL     1       3.704  49.548 -12.903  1.00  0.00     0.042 C 
ENDBRANCH  15  16
ENDBRANCH  14  15
ENDBRANCH  12  14
ENDBRANCH  10  11
ENDBRANCH   9  10
ENDBRANCH   7   9
ENDBRANCH   6   7
ENDBRANCH   1   5
BRANCH   1  20
HETATM   20  C20 UNL     1      -1.721  52.066 -25.107  1.00  0.00     0.018 C 
BRANCH  20  21
HETATM   21  C21 UNL     1      -2.178  50.916 -24.195  1.00  0.00     0.011 C 
BRANCH  21  22
HETATM   22  C22 UNL     1      -3.249  49.894 -24.683  1.00  0.00     0.022 C 
HETATM   23  C23 UNL     1      -3.649  48.772 -23.729  1.00  0.00    -0.084 C 
HETATM   24  C24 UNL     1      -2.891  48.200 -22.780  1.00  0.00     0.014 C 
HETATM   25  C25 UNL     1      -5.062  48.270 -23.960  1.00  0.00     0.034 C 
HETATM   26  C26 UNL     1      -5.515  48.446 -25.413  1.00  0.00     0.009 C 
HETATM   27  C27 UNL     1      -4.344  48.261 -26.391  1.00  0.00    -0.010 C 
HETATM   28  C28 UNL     1      -4.875  48.174 -27.827  1.00  0.00     0.011 C 
HETATM   29  C29 UNL     1      -3.188  49.336 -26.167  1.00  0.00    -0.037 C 
HETATM   30  C30 UNL     1      -1.863  48.612 -26.496  1.00  0.00     0.016 C 
HETATM   31  C31 UNL     1      -3.320  50.531 -27.140  1.00  0.00     0.016 C 
ENDBRANCH  21  22
ENDBRANCH  20  21
ENDBRANCH   1  20
TORSDOF 12
ENDMDL
MODEL 9
REMARK minimizedAffinity -7.80676556
REMARK  12 active torsions:
REMARK  status: ('A' for Active; 'I' for Inactive)
REMARK    1  A    between atoms: C2_2  and  C3_3 
REMARK    2  A    between atoms: C3_3  and  C5_5 
REMARK    3  A    between atoms: C3_3  and  C20_20 
REMARK    4  A    between atoms: C6_6  and  C7_7 
REMARK    5  A    between atoms: C7_7  and  C9_9 
REMARK    6  A    between atoms: C9_9  and  C10_10 
REMARK    7  A    between atoms: C10_10  and  C11_11 
REMARK    8  A    between atoms: C12_12  and  C14_14 
REMARK    9  A    between atoms: C14_14  and  C15_15 
REMARK   10  A    between atoms: C15_15  and  C16_16 
REMARK   11  A    between atoms: C20_20  and  C21_21 
REMARK   12  A    between atoms: C21_21  and  C22_22 
ROOT
HETATM    1  C3  UNL     1      -2.837  49.460 -25.495  1.00  0.00    -0.010 C 
HETATM    2  C4  UNL     1      -3.707  50.735 -25.642  1.00  0.00     0.024 C 
ENDROOT
BRANCH   1   3
HETATM    3  C2  UNL     1      -3.544  48.397 -26.334  1.00  0.00    -0.024 C 
HETATM    4  C1  UNL     1      -4.080  48.499 -27.558  1.00  0.00     0.008 C 
ENDBRANCH   1   3
BRANCH   1   5
HETATM    5  C5  UNL     1      -1.453  49.799 -26.056  1.00  0.00    -0.017 C 
HETATM    6  C6  UNL     1      -0.892  51.016 -26.179  1.00  0.00    -0.025 C 
BRANCH   6   7
HETATM    7  C7  UNL     1       0.494  51.247 -26.742  1.00  0.00     0.004 C 
HETATM    8  C8  UNL     1       0.370  51.787 -28.169  1.00  0.00     0.014 C 
BRANCH   7   9
HETATM    9  C9  UNL     1       1.264  52.210 -25.817  1.00  0.00     0.012 C 
BRANCH   9  10
HETATM   10  C10 UNL     1       0.384  53.122 -24.954  1.00  0.00     0.028 C 
BRANCH  10  11
HETATM   11  C11 UNL     1       0.865  53.205 -23.528  1.00  0.00    -0.024 C 
HETATM   12  C12 UNL     1       0.465  52.487 -22.459  1.00  0.00    -0.087 C 
HETATM   13  C13 UNL     1      -0.597  51.417 -22.509  1.00  0.00     0.043 C 
BRANCH  12  14
HETATM   14  C14 UNL     1       1.038  52.672 -21.056  1.00  0.00     0.037 C 
BRANCH  14  15
HETATM   15  C15 UNL     1       0.059  53.012 -19.922  1.00  0.00     0.031 C 
BRANCH  15  16
HETATM   16  C16 UNL     1      -0.248  51.805 -19.073  1.00  0.00    -0.024 C 
HETATM   17  C17 UNL     1       0.258  51.506 -17.861  1.00  0.00    -0.091 C 
HETATM   18  C18 UNL     1       1.300  52.315 -17.139  1.00  0.00     0.042 C 
HETATM   19  C19 UNL     1      -0.201  50.277 -17.118  1.00  0.00     0.042 C 
ENDBRANCH  15  16
ENDBRANCH  14  15
ENDBRANCH  12  14
ENDBRANCH  10  11
ENDBRANCH   9  10
ENDBRANCH   7   9
ENDBRANCH   6   7
ENDBRANCH   1   5
BRANCH   1  20
HETATM   20  C20 UNL     1      -2.701  49.166 -23.961  1.00  0.00     0.018 C 
BRANCH  20  21
HETATM   21  C21 UNL     1      -3.974  48.658 -23.264  1.00  0.00     0.011 C 
BRANCH  21  22
HETATM   22  C22 UNL     1      -4.097  48.700 -21.711  1.00  0.00     0.022 C 
HETATM   23  C23 UNL     1      -2.890  48.260 -20.889  1.00  0.00    -0.084 C 
HETATM   24  C24 UNL     1      -1.952  47.363 -21.234  1.00  0.00     0.014 C 
HETATM   25  C25 UNL     1      -2.825  48.919 -19.524  1.00  0.00     0.034 C 
HETATM   26  C26 UNL     1      -4.212  49.297 -18.992  1.00  0.00     0.009 C 
HETATM   27  C27 UNL     1      -5.276  48.277 -19.427  1.00  0.00    -0.010 C 
HETATM   28  C28 UNL     1      -6.581  48.531 -18.663  1.00  0.00     0.011 C 
HETATM   29  C29 UNL     1      -5.431  48.198 -21.012  1.00  0.00    -0.037 C 
HETATM   30  C30 UNL     1      -5.775  46.727 -21.334  1.00  0.00     0.016 C 
HETATM   31  C31 UNL     1      -6.602  49.072 -21.518  1.00  0.00     0.016 C 
ENDBRANCH  21  22
ENDBRANCH  20  21
ENDBRANCH   1  20
TORSDOF 12
ENDMDL
