MODEL 1
REMARK minimizedAffinity -9.37807178
REMARK CNNscore 0.65406692
REMARK CNNaffinity 7.53963661
REMARK  10 active torsions:
REMARK  status: ('A' for Active; 'I' for Inactive)
REMARK    1  A    between atoms: C3_3  and  O1_4 
REMARK    2  A    between atoms: N1_14  and  O2_16 
REMARK    3  A    between atoms: O2_16  and  C13_17 
REMARK    4  A    between atoms: C13_17  and  C14_18 
REMARK       I    between atoms: C14_18  and  N2_20 
REMARK    5  A    between atoms: N2_20  and  C15_21 
REMARK    6  A    between atoms: C15_21  and  C16_22 
REMARK    7  A    between atoms: C15_21  and  C19_29 
REMARK       I    between atoms: C16_22  and  N3_24 
REMARK    8  A    between atoms: N3_24  and  C17_25 
REMARK    9  A    between atoms: C17_25  and  C18_26 
REMARK   10  A    between atoms: C18_26  and  O6_28 
ROOT
HETATM    1  C1  UNL     1     -14.481   8.888  15.545  1.00  0.00     0.015 C 
HETATM    2  C2  UNL     1     -13.600   8.794  14.734  1.00  0.00    -0.078 C 
HETATM    3  C3  UNL     1     -12.506   8.697  13.741  1.00  0.00     0.128 C 
HETATM    4  C4  UNL     1     -11.558   9.898  13.895  1.00  0.00     0.052 C 
HETATM    5  C5  UNL     1     -10.409   9.426  14.799  1.00  0.00     0.010 C 
HETATM    6  C6  UNL     1     -10.678   7.942  15.117  1.00  0.00     0.002 C 
HETATM    7  C7  UNL     1      -9.430   7.068  15.360  1.00  0.00    -0.004 C 
HETATM    8  C8  UNL     1      -8.537   7.669  16.455  1.00  0.00     0.010 C 
HETATM    9  C9  UNL     1      -7.385   6.734  16.798  1.00  0.00     0.035 C 
HETATM   10  C10 UNL     1      -6.571   6.358  15.584  1.00  0.00    -0.069 C 
HETATM   11  C11 UNL     1      -5.228   6.395  15.655  1.00  0.00     0.030 C 
HETATM   12  C12 UNL     1      -4.368   5.856  14.571  1.00  0.00     0.032 C 
HETATM   13  N1  UNL     1      -3.085   5.791  14.792  1.00  0.00    -0.271 N 
ATOM     14  H1  UNL     1      -2.630   6.140  15.636  1.00  0.00     0.194 HD
HETATM   15  C22 UNL     1      -5.037   5.332  13.317  1.00  0.00     0.060 C 
HETATM   16  C23 UNL     1      -6.411   5.955  13.106  1.00  0.00     0.020 C 
HETATM   17  C24 UNL     1      -7.341   5.875  14.350  1.00  0.00    -0.016 C 
HETATM   18  C25 UNL     1      -7.742   4.401  14.592  1.00  0.00     0.020 C 
HETATM   19  C26 UNL     1      -8.598   6.798  14.081  1.00  0.00     0.002 C 
HETATM   20  C27 UNL     1      -9.509   6.273  12.952  1.00  0.00     0.007 C 
HETATM   21  C28 UNL     1     -10.706   7.188  12.689  1.00  0.00     0.014 C 
HETATM   22  C29 UNL     1     -11.570   7.465  13.951  1.00  0.00     0.003 C 
HETATM   23  C30 UNL     1     -12.349   6.181  14.308  1.00  0.00     0.020 C 
ENDROOT
BRANCH   3  24
HETATM   24  O1  UNL     1     -13.072   8.691  12.435  1.00  0.00    -0.377 OA
HETATM   25  H2  UNL     1     -13.883   9.224  12.470  1.00  0.00     0.211 HD
ENDBRANCH   3  24
BRANCH  13  26
HETATM   26  O2  UNL     1      -2.407   5.182  13.725  1.00  0.00    -0.271 OA
BRANCH  26  27
HETATM   27  C13 UNL     1      -1.006   5.274  13.963  1.00  0.00     0.303 C 
BRANCH  27  28
HETATM   28  C14 UNL     1      -0.270   5.378  12.634  1.00  0.00     0.244 C 
HETATM   29  O3  UNL     1      -0.553   4.684  11.661  1.00  0.00    -0.271 OA
HETATM   30  N2  UNL     1       0.790   6.264  12.639  1.00  0.00    -0.346 N 
HETATM   31  H16 UNL     1       0.809   6.927  13.410  1.00  0.00     0.163 HD
BRANCH  30  32
HETATM   32  C15 UNL     1       1.503   6.607  11.398  1.00  0.00     0.180 C 
BRANCH  32  33
HETATM   33  C16 UNL     1       2.824   7.366  11.693  1.00  0.00     0.241 C 
HETATM   34  O4  UNL     1       2.849   8.503  12.157  1.00  0.00    -0.271 OA
HETATM   35  N3  UNL     1       3.966   6.618  11.523  1.00  0.00    -0.349 N 
HETATM   36  H18 UNL     1       3.889   5.775  10.962  1.00  0.00     0.163 HD
BRANCH  35  37
HETATM   37  C17 UNL     1       5.283   7.215  11.640  1.00  0.00     0.232 C 
BRANCH  37  38
HETATM   38  C18 UNL     1       6.371   6.294  11.110  1.00  0.00     0.158 C 
HETATM   39  O5  UNL     1       6.196   5.251  10.500  1.00  0.00    -0.649 OA
BRANCH  38  40
HETATM   40  O6  UNL     1       7.628   6.710  11.392  1.00  0.00    -0.775 OA
HETATM   41  H21 UNL     1       8.191   6.007  11.002  1.00  0.00     0.167 HD
ENDBRANCH  38  40
ENDBRANCH  37  38
ENDBRANCH  35  37
ENDBRANCH  32  33
BRANCH  32  42
HETATM   42  C19 UNL     1       0.573   7.404  10.451  1.00  0.00     0.009 C 
HETATM   43  C20 UNL     1      -0.113   8.595  11.128  1.00  0.00     0.012 C 
HETATM   44  C21 UNL     1       1.302   7.869   9.187  1.00  0.00     0.012 C 
ENDBRANCH  32  42
ENDBRANCH  30  32
ENDBRANCH  27  28
ENDBRANCH  26  27
ENDBRANCH  13  26
TORSDOF 10
ENDMDL
MODEL 2
REMARK minimizedAffinity -9.15708351
REMARK CNNscore 0.530150414
REMARK CNNaffinity 7.48171568
REMARK  10 active torsions:
REMARK  status: ('A' for Active; 'I' for Inactive)
REMARK    1  A    between atoms: C3_3  and  O1_4 
REMARK    2  A    between atoms: N1_14  and  O2_16 
REMARK    3  A    between atoms: O2_16  and  C13_17 
REMARK    4  A    between atoms: C13_17  and  C14_18 
REMARK       I    between atoms: C14_18  and  N2_20 
REMARK    5  A    between atoms: N2_20  and  C15_21 
REMARK    6  A    between atoms: C15_21  and  C16_22 
REMARK    7  A    between atoms: C15_21  and  C19_29 
REMARK       I    between atoms: C16_22  and  N3_24 
REMARK    8  A    between atoms: N3_24  and  C17_25 
REMARK    9  A    between atoms: C17_25  and  C18_26 
REMARK   10  A    between atoms: C18_26  and  O6_28 
ROOT
HETATM    1  C1  UNL     1     -14.284   9.031  15.716  1.00  0.00     0.015 C 
HETATM    2  C2  UNL     1     -13.455   8.892  14.859  1.00  0.00    -0.078 C 
HETATM    3  C3  UNL     1     -12.423   8.739  13.806  1.00  0.00     0.128 C 
HETATM    4  C4  UNL     1     -11.427   9.909  13.882  1.00  0.00     0.052 C 
HETATM    5  C5  UNL     1     -10.245   9.413  14.728  1.00  0.00     0.010 C 
HETATM    6  C6  UNL     1     -10.545   7.946  15.091  1.00  0.00     0.002 C 
HETATM    7  C7  UNL     1      -9.316   7.033  15.279  1.00  0.00    -0.004 C 
HETATM    8  C8  UNL     1      -8.341   7.621  16.309  1.00  0.00     0.010 C 
HETATM    9  C9  UNL     1      -7.204   6.653  16.605  1.00  0.00     0.035 C 
HETATM   10  C10 UNL     1      -6.475   6.227  15.353  1.00  0.00    -0.069 C 
HETATM   11  C11 UNL     1      -5.129   6.218  15.347  1.00  0.00     0.030 C 
HETATM   12  C12 UNL     1      -4.353   5.630  14.226  1.00  0.00     0.032 C 
HETATM   13  N1  UNL     1      -3.061   5.524  14.375  1.00  0.00    -0.271 N 
ATOM     14  H1  UNL     1      -2.547   5.872  15.184  1.00  0.00     0.194 HD
HETATM   15  C22 UNL     1      -5.110   5.107  13.023  1.00  0.00     0.060 C 
HETATM   16  C23 UNL     1      -6.472   5.775  12.879  1.00  0.00     0.020 C 
HETATM   17  C24 UNL     1      -7.331   5.750  14.176  1.00  0.00    -0.016 C 
HETATM   18  C25 UNL     1      -7.766   4.295  14.469  1.00  0.00     0.020 C 
HETATM   19  C26 UNL     1      -8.569   6.711  13.961  1.00  0.00     0.002 C 
HETATM   20  C27 UNL     1      -9.561   6.198  12.896  1.00  0.00     0.007 C 
HETATM   21  C28 UNL     1     -10.740   7.149  12.683  1.00  0.00     0.014 C 
HETATM   22  C29 UNL     1     -11.519   7.479  13.987  1.00  0.00     0.003 C 
HETATM   23  C30 UNL     1     -12.319   6.230  14.414  1.00  0.00     0.020 C 
ENDROOT
BRANCH   3  24
HETATM   24  O1  UNL     1     -13.064   8.729  12.536  1.00  0.00    -0.377 OA
HETATM   25  H2  UNL     1     -13.853   9.291  12.606  1.00  0.00     0.211 HD
ENDBRANCH   3  24
BRANCH  13  26
HETATM   26  O2  UNL     1      -2.468   4.873  13.283  1.00  0.00    -0.271 OA
BRANCH  26  27
HETATM   27  C13 UNL     1      -1.061   4.807  13.501  1.00  0.00     0.303 C 
BRANCH  27  28
HETATM   28  C14 UNL     1      -0.368   5.882  12.674  1.00  0.00     0.244 C 
HETATM   29  O3  UNL     1      -0.921   6.928  12.346  1.00  0.00    -0.271 OA
HETATM   30  N2  UNL     1       0.907   5.546  12.261  1.00  0.00    -0.346 N 
HETATM   31  H16 UNL     1       1.340   4.767  12.750  1.00  0.00     0.163 HD
BRANCH  30  32
HETATM   32  C15 UNL     1       1.776   6.531  11.596  1.00  0.00     0.180 C 
BRANCH  32  33
HETATM   33  C16 UNL     1       1.939   7.814  12.452  1.00  0.00     0.241 C 
HETATM   34  O4  UNL     1       2.307   8.887  11.981  1.00  0.00    -0.271 OA
HETATM   35  N3  UNL     1       1.509   7.694  13.753  1.00  0.00    -0.349 N 
HETATM   36  H18 UNL     1       1.407   6.754  14.122  1.00  0.00     0.163 HD
BRANCH  35  37
HETATM   37  C17 UNL     1       1.705   8.763  14.714  1.00  0.00     0.232 C 
BRANCH  37  38
HETATM   38  C18 UNL     1       1.685   8.248  16.145  1.00  0.00     0.158 C 
HETATM   39  O5  UNL     1       2.349   8.678  17.074  1.00  0.00    -0.649 OA
BRANCH  38  40
HETATM   40  O6  UNL     1       0.849   7.200  16.339  1.00  0.00    -0.775 OA
HETATM   41  H21 UNL     1       0.971   6.988  17.289  1.00  0.00     0.167 HD
ENDBRANCH  38  40
ENDBRANCH  37  38
ENDBRANCH  35  37
ENDBRANCH  32  33
BRANCH  32  42
HETATM   42  C19 UNL     1       1.240   6.841  10.177  1.00  0.00     0.009 C 
HETATM   43  C20 UNL     1       0.632   8.241  10.046  1.00  0.00     0.012 C 
HETATM   44  C21 UNL     1       2.310   6.633   9.101  1.00  0.00     0.012 C 
ENDBRANCH  32  42
ENDBRANCH  30  32
ENDBRANCH  27  28
ENDBRANCH  26  27
ENDBRANCH  13  26
TORSDOF 10
ENDMDL
MODEL 3
REMARK minimizedAffinity -8.18123055
REMARK CNNscore 0.393277824
REMARK CNNaffinity 7.14267874
REMARK  10 active torsions:
REMARK  status: ('A' for Active; 'I' for Inactive)
REMARK    1  A    between atoms: C3_3  and  O1_4 
REMARK    2  A    between atoms: N1_14  and  O2_16 
REMARK    3  A    between atoms: O2_16  and  C13_17 
REMARK    4  A    between atoms: C13_17  and  C14_18 
REMARK       I    between atoms: C14_18  and  N2_20 
REMARK    5  A    between atoms: N2_20  and  C15_21 
REMARK    6  A    between atoms: C15_21  and  C16_22 
REMARK    7  A    between atoms: C15_21  and  C19_29 
REMARK       I    between atoms: C16_22  and  N3_24 
REMARK    8  A    between atoms: N3_24  and  C17_25 
REMARK    9  A    between atoms: C17_25  and  C18_26 
REMARK   10  A    between atoms: C18_26  and  O6_28 
ROOT
HETATM    1  C1  UNL     1       1.018   7.716  14.232  1.00  0.00     0.015 C 
HETATM    2  C2  UNL     1      -0.007   8.339  14.207  1.00  0.00    -0.078 C 
HETATM    3  C3  UNL     1      -1.273   9.107  14.154  1.00  0.00     0.128 C 
HETATM    4  C4  UNL     1      -1.785   9.163  12.705  1.00  0.00     0.052 C 
HETATM    5  C5  UNL     1      -2.796   8.015  12.561  1.00  0.00     0.010 C 
HETATM    6  C6  UNL     1      -2.895   7.338  13.941  1.00  0.00     0.002 C 
HETATM    7  C7  UNL     1      -4.256   6.693  14.279  1.00  0.00    -0.004 C 
HETATM    8  C8  UNL     1      -4.682   5.696  13.192  1.00  0.00     0.010 C 
HETATM    9  C9  UNL     1      -5.947   4.952  13.595  1.00  0.00     0.035 C 
HETATM   10  C10 UNL     1      -7.079   5.891  13.940  1.00  0.00    -0.069 C 
HETATM   11  C11 UNL     1      -8.308   5.649  13.448  1.00  0.00     0.030 C 
HETATM   12  C12 UNL     1      -9.498   6.412  13.898  1.00  0.00     0.032 C 
HETATM   13  N1  UNL     1     -10.668   6.008  13.486  1.00  0.00    -0.271 N 
ATOM     14  H1  UNL     1     -10.810   5.240  12.830  1.00  0.00     0.194 HD
HETATM   15  C22 UNL     1      -9.295   7.551  14.876  1.00  0.00     0.060 C 
HETATM   16  C23 UNL     1      -7.881   8.113  14.803  1.00  0.00     0.020 C 
HETATM   17  C24 UNL     1      -6.764   7.036  14.908  1.00  0.00    -0.016 C 
HETATM   18  C25 UNL     1      -6.754   6.452  16.340  1.00  0.00     0.020 C 
HETATM   19  C26 UNL     1      -5.388   7.720  14.535  1.00  0.00     0.002 C 
HETATM   20  C27 UNL     1      -4.931   8.773  15.565  1.00  0.00     0.007 C 
HETATM   21  C28 UNL     1      -3.610   9.442  15.178  1.00  0.00     0.014 C 
HETATM   22  C29 UNL     1      -2.451   8.437  14.931  1.00  0.00     0.003 C 
HETATM   23  C30 UNL     1      -2.009   7.848  16.287  1.00  0.00     0.020 C 
ENDROOT
BRANCH   3  24
HETATM   24  O1  UNL     1      -1.030  10.424  14.634  1.00  0.00    -0.377 OA
HETATM   25  H2  UNL     1      -0.114  10.651  14.404  1.00  0.00     0.211 HD
ENDBRANCH   3  24
BRANCH  13  26
HETATM   26  O2  UNL     1     -11.705   6.761  14.057  1.00  0.00    -0.271 OA
BRANCH  26  27
HETATM   27  C13 UNL     1     -12.517   7.285  13.011  1.00  0.00     0.303 C 
BRANCH  27  28
HETATM   28  C14 UNL     1     -13.948   7.439  13.506  1.00  0.00     0.244 C 
HETATM   29  O3  UNL     1     -14.476   8.533  13.684  1.00  0.00    -0.271 OA
HETATM   30  N2  UNL     1     -14.575   6.246  13.812  1.00  0.00    -0.346 N 
HETATM   31  H16 UNL     1     -14.137   5.408  13.439  1.00  0.00     0.163 HD
BRANCH  30  32
HETATM   32  C15 UNL     1     -16.008   6.202  14.147  1.00  0.00     0.180 C 
BRANCH  32  33
HETATM   33  C16 UNL     1     -16.328   5.035  15.119  1.00  0.00     0.241 C 
HETATM   34  O4  UNL     1     -16.991   5.184  16.142  1.00  0.00    -0.271 OA
HETATM   35  N3  UNL     1     -15.929   3.795  14.677  1.00  0.00    -0.349 N 
HETATM   36  H18 UNL     1     -15.231   3.768  13.941  1.00  0.00     0.163 HD
BRANCH  35  37
HETATM   37  C17 UNL     1     -16.045   2.621  15.521  1.00  0.00     0.232 C 
BRANCH  37  38
HETATM   38  C18 UNL     1     -15.035   1.550  15.141  1.00  0.00     0.158 C 
HETATM   39  O5  UNL     1     -14.212   1.041  15.885  1.00  0.00    -0.649 OA
BRANCH  38  40
HETATM   40  O6  UNL     1     -15.088   1.183  13.839  1.00  0.00    -0.775 OA
HETATM   41  H21 UNL     1     -14.374   0.514  13.764  1.00  0.00     0.167 HD
ENDBRANCH  38  40
ENDBRANCH  37  38
ENDBRANCH  35  37
ENDBRANCH  32  33
BRANCH  32  42
HETATM   42  C19 UNL     1     -16.855   6.131  12.853  1.00  0.00     0.009 C 
HETATM   43  C20 UNL     1     -17.681   4.846  12.732  1.00  0.00     0.012 C 
HETATM   44  C21 UNL     1     -17.764   7.353  12.694  1.00  0.00     0.012 C 
ENDBRANCH  32  42
ENDBRANCH  30  32
ENDBRANCH  27  28
ENDBRANCH  26  27
ENDBRANCH  13  26
TORSDOF 10
ENDMDL
MODEL 4
REMARK minimizedAffinity -9.07403088
REMARK CNNscore 0.353847235
REMARK CNNaffinity 6.53458166
REMARK  10 active torsions:
REMARK  status: ('A' for Active; 'I' for Inactive)
REMARK    1  A    between atoms: C3_3  and  O1_4 
REMARK    2  A    between atoms: N1_14  and  O2_16 
REMARK    3  A    between atoms: O2_16  and  C13_17 
REMARK    4  A    between atoms: C13_17  and  C14_18 
REMARK       I    between atoms: C14_18  and  N2_20 
REMARK    5  A    between atoms: N2_20  and  C15_21 
REMARK    6  A    between atoms: C15_21  and  C16_22 
REMARK    7  A    between atoms: C15_21  and  C19_29 
REMARK       I    between atoms: C16_22  and  N3_24 
REMARK    8  A    between atoms: N3_24  and  C17_25 
REMARK    9  A    between atoms: C17_25  and  C18_26 
REMARK   10  A    between atoms: C18_26  and  O6_28 
ROOT
HETATM    1  C1  UNL     1      -6.834   6.461  14.659  1.00  0.00     0.015 C 
HETATM    2  C2  UNL     1      -5.731   6.863  14.909  1.00  0.00    -0.078 C 
HETATM    3  C3  UNL     1      -4.365   7.341  15.228  1.00  0.00     0.128 C 
HETATM    4  C4  UNL     1      -3.563   6.211  15.896  1.00  0.00     0.052 C 
HETATM    5  C5  UNL     1      -2.766   5.529  14.773  1.00  0.00     0.010 C 
HETATM    6  C6  UNL     1      -3.076   6.302  13.477  1.00  0.00     0.002 C 
HETATM    7  C7  UNL     1      -1.952   6.325  12.420  1.00  0.00    -0.004 C 
HETATM    8  C8  UNL     1      -1.496   4.903  12.067  1.00  0.00     0.010 C 
HETATM    9  C9  UNL     1      -0.494   4.916  10.920  1.00  0.00     0.035 C 
HETATM   10  C10 UNL     1       0.691   5.808  11.205  1.00  0.00    -0.069 C 
HETATM   11  C11 UNL     1       1.932   5.359  10.943  1.00  0.00     0.030 C 
HETATM   12  C12 UNL     1       3.120   6.245  11.015  1.00  0.00     0.032 C 
HETATM   13  N1  UNL     1       4.258   5.766  10.595  1.00  0.00    -0.271 N 
ATOM     14  H1  UNL     1       4.394   4.807  10.276  1.00  0.00     0.194 HD
HETATM   15  C22 UNL     1       2.925   7.672  11.483  1.00  0.00     0.060 C 
HETATM   16  C23 UNL     1       1.680   7.819  12.348  1.00  0.00     0.020 C 
HETATM   17  C24 UNL     1       0.392   7.223  11.711  1.00  0.00    -0.016 C 
HETATM   18  C25 UNL     1      -0.017   8.083  10.493  1.00  0.00     0.020 C 
HETATM   19  C26 UNL     1      -0.733   7.192  12.823  1.00  0.00     0.002 C 
HETATM   20  C27 UNL     1      -1.198   8.597  13.260  1.00  0.00     0.007 C 
HETATM   21  C28 UNL     1      -2.269   8.550  14.351  1.00  0.00     0.014 C 
HETATM   22  C29 UNL     1      -3.513   7.699  13.969  1.00  0.00     0.003 C 
HETATM   23  C30 UNL     1      -4.323   8.461  12.900  1.00  0.00     0.020 C 
ENDROOT
BRANCH   3  24
HETATM   24  O1  UNL     1      -4.463   8.453  16.110  1.00  0.00    -0.377 OA
HETATM   25  H2  UNL     1      -5.257   8.320  16.655  1.00  0.00     0.211 HD
ENDBRANCH   3  24
BRANCH  13  26
HETATM   26  O2  UNL     1       5.272   6.735  10.635  1.00  0.00    -0.271 OA
BRANCH  26  27
HETATM   27  C13 UNL     1       6.409   6.177  11.287  1.00  0.00     0.303 C 
BRANCH  27  28
HETATM   28  C14 UNL     1       7.029   7.219  12.208  1.00  0.00     0.244 C 
HETATM   29  O3  UNL     1       7.610   8.216  11.789  1.00  0.00    -0.271 OA
HETATM   30  N2  UNL     1       6.951   6.908  13.552  1.00  0.00    -0.346 N 
HETATM   31  H16 UNL     1       6.282   6.183  13.800  1.00  0.00     0.163 HD
BRANCH  30  32
HETATM   32  C15 UNL     1       7.352   7.878  14.584  1.00  0.00     0.180 C 
BRANCH  32  33
HETATM   33  C16 UNL     1       7.070   9.336  14.133  1.00  0.00     0.241 C 
HETATM   34  O4  UNL     1       7.960  10.164  13.963  1.00  0.00    -0.271 OA
HETATM   35  N3  UNL     1       5.758   9.591  13.805  1.00  0.00    -0.349 N 
HETATM   36  H18 UNL     1       5.059   8.940  14.149  1.00  0.00     0.163 HD
BRANCH  35  37
HETATM   37  C17 UNL     1       5.309  10.932  13.482  1.00  0.00     0.232 C 
BRANCH  37  38
HETATM   38  C18 UNL     1       5.416  11.221  11.993  1.00  0.00     0.158 C 
HETATM   39  O5  UNL     1       5.455  10.390  11.100  1.00  0.00    -0.649 OA
BRANCH  38  40
HETATM   40  O6  UNL     1       5.495  12.540  11.694  1.00  0.00    -0.775 OA
HETATM   41  H21 UNL     1       5.575  12.545  10.716  1.00  0.00     0.167 HD
ENDBRANCH  38  40
ENDBRANCH  37  38
ENDBRANCH  35  37
ENDBRANCH  32  33
BRANCH  32  42
HETATM   42  C19 UNL     1       8.836   7.664  14.968  1.00  0.00     0.009 C 
HETATM   43  C20 UNL     1       9.819   8.376  14.033  1.00  0.00     0.012 C 
HETATM   44  C21 UNL     1       9.116   8.061  16.421  1.00  0.00     0.012 C 
ENDBRANCH  32  42
ENDBRANCH  30  32
ENDBRANCH  27  28
ENDBRANCH  26  27
ENDBRANCH  13  26
TORSDOF 10
ENDMDL
MODEL 5
REMARK minimizedAffinity -7.35216665
REMARK CNNscore 0.305855662
REMARK CNNaffinity 6.39004469
REMARK  10 active torsions:
REMARK  status: ('A' for Active; 'I' for Inactive)
REMARK    1  A    between atoms: C3_3  and  O1_4 
REMARK    2  A    between atoms: N1_14  and  O2_16 
REMARK    3  A    between atoms: O2_16  and  C13_17 
REMARK    4  A    between atoms: C13_17  and  C14_18 
REMARK       I    between atoms: C14_18  and  N2_20 
REMARK    5  A    between atoms: N2_20  and  C15_21 
REMARK    6  A    between atoms: C15_21  and  C16_22 
REMARK    7  A    between atoms: C15_21  and  C19_29 
REMARK       I    between atoms: C16_22  and  N3_24 
REMARK    8  A    between atoms: N3_24  and  C17_25 
REMARK    9  A    between atoms: C17_25  and  C18_26 
REMARK   10  A    between atoms: C18_26  and  O6_28 
ROOT
HETATM    1  C1  UNL     1       2.702   5.185   7.456  1.00  0.00     0.015 C 
HETATM    2  C2  UNL     1       2.613   6.256   7.991  1.00  0.00    -0.078 C 
HETATM    3  C3  UNL     1       2.484   7.581   8.642  1.00  0.00     0.128 C 
HETATM    4  C4  UNL     1       1.094   8.170   8.347  1.00  0.00     0.052 C 
HETATM    5  C5  UNL     1       0.207   7.800   9.546  1.00  0.00     0.010 C 
HETATM    6  C6  UNL     1       1.106   7.045  10.544  1.00  0.00     0.002 C 
HETATM    7  C7  UNL     1       0.729   7.190  12.034  1.00  0.00    -0.004 C 
HETATM    8  C8  UNL     1      -0.736   6.801  12.274  1.00  0.00     0.010 C 
HETATM    9  C9  UNL     1      -1.067   6.800  13.760  1.00  0.00     0.035 C 
HETATM   10  C10 UNL     1      -0.744   8.120  14.420  1.00  0.00    -0.069 C 
HETATM   11  C11 UNL     1      -1.641   8.676  15.254  1.00  0.00     0.030 C 
HETATM   12  C12 UNL     1      -1.313   9.864  16.082  1.00  0.00     0.032 C 
HETATM   13  N1  UNL     1      -2.187  10.240  16.974  1.00  0.00    -0.271 N 
ATOM     14  H1  UNL     1      -3.102   9.807  17.098  1.00  0.00     0.194 HD
HETATM   15  C22 UNL     1       0.046  10.510  15.906  1.00  0.00     0.060 C 
HETATM   16  C23 UNL     1       0.636  10.220  14.532  1.00  0.00     0.020 C 
HETATM   17  C24 UNL     1       0.643   8.712  14.150  1.00  0.00    -0.016 C 
HETATM   18  C25 UNL     1       1.657   7.965  15.048  1.00  0.00     0.020 C 
HETATM   19  C26 UNL     1       1.010   8.597  12.616  1.00  0.00     0.002 C 
HETATM   20  C27 UNL     1       2.458   9.027  12.301  1.00  0.00     0.007 C 
HETATM   21  C28 UNL     1       2.790   8.932  10.811  1.00  0.00     0.014 C 
HETATM   22  C29 UNL     1       2.533   7.525  10.202  1.00  0.00     0.003 C 
HETATM   23  C30 UNL     1       3.611   6.554  10.728  1.00  0.00     0.020 C 
ENDROOT
BRANCH   3  24
HETATM   24  O1  UNL     1       3.494   8.443   8.130  1.00  0.00    -0.377 OA
HETATM   25  H2  UNL     1       3.664   8.176   7.212  1.00  0.00     0.211 HD
ENDBRANCH   3  24
BRANCH  13  26
HETATM   26  O2  UNL     1      -1.712  11.314  17.741  1.00  0.00    -0.271 OA
BRANCH  26  27
HETATM   27  C13 UNL     1      -1.319  10.823  19.019  1.00  0.00     0.303 C 
BRANCH  27  28
HETATM   28  C14 UNL     1       0.054  11.377  19.376  1.00  0.00     0.244 C 
HETATM   29  O3  UNL     1       0.213  12.297  20.173  1.00  0.00    -0.271 OA
HETATM   30  N2  UNL     1       1.097  10.808  18.670  1.00  0.00    -0.346 N 
HETATM   31  H16 UNL     1       0.887   9.931  18.200  1.00  0.00     0.163 HD
BRANCH  30  32
HETATM   32  C15 UNL     1       2.499  11.108  19.007  1.00  0.00     0.180 C 
BRANCH  32  33
HETATM   33  C16 UNL     1       2.758  10.974  20.531  1.00  0.00     0.241 C 
HETATM   34  O4  UNL     1       2.697  11.927  21.303  1.00  0.00    -0.271 OA
HETATM   35  N3  UNL     1       2.926   9.682  20.973  1.00  0.00    -0.349 N 
HETATM   36  H18 UNL     1       3.158   8.981  20.276  1.00  0.00     0.163 HD
BRANCH  35  37
HETATM   37  C17 UNL     1       3.297   9.396  22.346  1.00  0.00     0.232 C 
BRANCH  37  38
HETATM   38  C18 UNL     1       2.302   8.462  23.017  1.00  0.00     0.158 C 
HETATM   39  O5  UNL     1       1.586   7.649  22.455  1.00  0.00    -0.649 OA
BRANCH  38  40
HETATM   40  O6  UNL     1       2.235   8.607  24.362  1.00  0.00    -0.775 OA
HETATM   41  H21 UNL     1       1.549   7.956  24.625  1.00  0.00     0.167 HD
ENDBRANCH  38  40
ENDBRANCH  37  38
ENDBRANCH  35  37
ENDBRANCH  32  33
BRANCH  32  42
HETATM   42  C19 UNL     1       2.887  12.508  18.472  1.00  0.00     0.009 C 
HETATM   43  C20 UNL     1       4.387  12.667  18.206  1.00  0.00     0.012 C 
HETATM   44  C21 UNL     1       2.091  12.884  17.218  1.00  0.00     0.012 C 
ENDBRANCH  32  42
ENDBRANCH  30  32
ENDBRANCH  27  28
ENDBRANCH  26  27
ENDBRANCH  13  26
TORSDOF 10
ENDMDL
MODEL 6
REMARK minimizedAffinity -8.03686047
REMARK CNNscore 0.270369709
REMARK CNNaffinity 5.74291992
REMARK  10 active torsions:
REMARK  status: ('A' for Active; 'I' for Inactive)
REMARK    1  A    between atoms: C3_3  and  O1_4 
REMARK    2  A    between atoms: N1_14  and  O2_16 
REMARK    3  A    between atoms: O2_16  and  C13_17 
REMARK    4  A    between atoms: C13_17  and  C14_18 
REMARK       I    between atoms: C14_18  and  N2_20 
REMARK    5  A    between atoms: N2_20  and  C15_21 
REMARK    6  A    between atoms: C15_21  and  C16_22 
REMARK    7  A    between atoms: C15_21  and  C19_29 
REMARK       I    between atoms: C16_22  and  N3_24 
REMARK    8  A    between atoms: N3_24  and  C17_25 
REMARK    9  A    between atoms: C17_25  and  C18_26 
REMARK   10  A    between atoms: C18_26  and  O6_28 
ROOT
HETATM    1  C1  UNL     1       2.021   6.787   7.270  1.00  0.00     0.015 C 
HETATM    2  C2  UNL     1       2.237   6.478   8.410  1.00  0.00    -0.078 C 
HETATM    3  C3  UNL     1       2.522   6.085   9.810  1.00  0.00     0.128 C 
HETATM    4  C4  UNL     1       3.806   5.239   9.861  1.00  0.00     0.052 C 
HETATM    5  C5  UNL     1       4.949   6.212  10.191  1.00  0.00     0.010 C 
HETATM    6  C6  UNL     1       4.307   7.601  10.378  1.00  0.00     0.002 C 
HETATM    7  C7  UNL     1       5.024   8.548  11.362  1.00  0.00    -0.004 C 
HETATM    8  C8  UNL     1       6.504   8.717  10.989  1.00  0.00     0.010 C 
HETATM    9  C9  UNL     1       7.176   9.763  11.867  1.00  0.00     0.035 C 
HETATM   10  C10 UNL     1       7.022   9.461  13.339  1.00  0.00    -0.069 C 
HETATM   11  C11 UNL     1       8.092   9.563  14.147  1.00  0.00     0.030 C 
HETATM   12  C12 UNL     1       7.973   9.470  15.624  1.00  0.00     0.032 C 
HETATM   13  N1  UNL     1       9.034   9.736  16.335  1.00  0.00    -0.271 N 
ATOM     14  H1  UNL     1       9.951   9.945  15.940  1.00  0.00     0.194 HD
HETATM   15  C22 UNL     1       6.614   9.164  16.218  1.00  0.00     0.060 C 
HETATM   16  C23 UNL     1       5.716   8.434  15.228  1.00  0.00     0.020 C 
HETATM   17  C24 UNL     1       5.612   9.124  13.837  1.00  0.00    -0.016 C 
HETATM   18  C25 UNL     1       4.836  10.454  13.985  1.00  0.00     0.020 C 
HETATM   19  C26 UNL     1       4.894   8.122  12.846  1.00  0.00     0.002 C 
HETATM   20  C27 UNL     1       3.414   7.869  13.201  1.00  0.00     0.007 C 
HETATM   21  C28 UNL     1       2.741   6.880  12.248  1.00  0.00     0.014 C 
HETATM   22  C29 UNL     1       2.841   7.289  10.751  1.00  0.00     0.003 C 
HETATM   23  C30 UNL     1       1.914   8.498  10.505  1.00  0.00     0.020 C 
ENDROOT
BRANCH   3  24
HETATM   24  O1  UNL     1       1.424   5.328  10.305  1.00  0.00    -0.377 OA
HETATM   25  H2  UNL     1       1.041   4.848   9.553  1.00  0.00     0.211 HD
ENDBRANCH   3  24
BRANCH  13  26
HETATM   26  O2  UNL     1       8.757   9.698  17.709  1.00  0.00    -0.271 OA
BRANCH  26  27
HETATM   27  C13 UNL     1       9.141  10.943  18.286  1.00  0.00     0.303 C 
BRANCH  27  28
HETATM   28  C14 UNL     1      10.648  10.962  18.500  1.00  0.00     0.244 C 
HETATM   29  O3  UNL     1      11.206  10.285  19.359  1.00  0.00    -0.271 OA
HETATM   30  N2  UNL     1      11.325  11.860  17.697  1.00  0.00    -0.346 N 
HETATM   31  H16 UNL     1      10.810  12.210  16.894  1.00  0.00     0.163 HD
BRANCH  30  32
HETATM   32  C15 UNL     1      12.796  11.890  17.658  1.00  0.00     0.180 C 
BRANCH  32  33
HETATM   33  C16 UNL     1      13.372  12.881  18.704  1.00  0.00     0.241 C 
HETATM   34  O4  UNL     1      12.663  13.619  19.383  1.00  0.00    -0.271 OA
HETATM   35  N3  UNL     1      14.728  12.775  18.910  1.00  0.00    -0.349 N 
HETATM   36  H18 UNL     1      15.269  12.300  18.194  1.00  0.00     0.163 HD
BRANCH  35  37
HETATM   37  C17 UNL     1      15.438  13.709  19.763  1.00  0.00     0.232 C 
BRANCH  37  38
HETATM   38  C18 UNL     1      16.028  13.023  20.985  1.00  0.00     0.158 C 
HETATM   39  O5  UNL     1      15.968  13.426  22.136  1.00  0.00    -0.649 OA
BRANCH  38  40
HETATM   40  O6  UNL     1      16.689  11.875  20.704  1.00  0.00    -0.775 OA
HETATM   41  H21 UNL     1      17.013  11.581  21.582  1.00  0.00     0.167 HD
ENDBRANCH  38  40
ENDBRANCH  37  38
ENDBRANCH  35  37
ENDBRANCH  32  33
BRANCH  32  42
HETATM   42  C19 UNL     1      13.285  12.207  16.224  1.00  0.00     0.009 C 
HETATM   43  C20 UNL     1      14.226  11.144  15.649  1.00  0.00     0.012 C 
HETATM   44  C21 UNL     1      12.119  12.450  15.261  1.00  0.00     0.012 C 
ENDBRANCH  32  42
ENDBRANCH  30  32
ENDBRANCH  27  28
ENDBRANCH  26  27
ENDBRANCH  13  26
TORSDOF 10
ENDMDL
MODEL 7
REMARK minimizedAffinity -7.36296988
REMARK CNNscore 0.263007879
REMARK CNNaffinity 5.86354637
REMARK  10 active torsions:
REMARK  status: ('A' for Active; 'I' for Inactive)
REMARK    1  A    between atoms: C3_3  and  O1_4 
REMARK    2  A    between atoms: N1_14  and  O2_16 
REMARK    3  A    between atoms: O2_16  and  C13_17 
REMARK    4  A    between atoms: C13_17  and  C14_18 
REMARK       I    between atoms: C14_18  and  N2_20 
REMARK    5  A    between atoms: N2_20  and  C15_21 
REMARK    6  A    between atoms: C15_21  and  C16_22 
REMARK    7  A    between atoms: C15_21  and  C19_29 
REMARK       I    between atoms: C16_22  and  N3_24 
REMARK    8  A    between atoms: N3_24  and  C17_25 
REMARK    9  A    between atoms: C17_25  and  C18_26 
REMARK   10  A    between atoms: C18_26  and  O6_28 
ROOT
HETATM    1  C1  UNL     1       2.366   6.086   6.576  1.00  0.00     0.015 C 
HETATM    2  C2  UNL     1       2.132   6.442   7.699  1.00  0.00    -0.078 C 
HETATM    3  C3  UNL     1       1.844   6.861   9.090  1.00  0.00     0.128 C 
HETATM    4  C4  UNL     1       1.886   5.636  10.020  1.00  0.00     0.052 C 
HETATM    5  C5  UNL     1       3.301   5.596  10.616  1.00  0.00     0.010 C 
HETATM    6  C6  UNL     1       4.048   6.826  10.064  1.00  0.00     0.002 C 
HETATM    7  C7  UNL     1       5.139   7.419  10.981  1.00  0.00    -0.004 C 
HETATM    8  C8  UNL     1       6.158   6.347  11.393  1.00  0.00     0.010 C 
HETATM    9  C9  UNL     1       7.313   6.960  12.173  1.00  0.00     0.035 C 
HETATM   10  C10 UNL     1       6.842   7.746  13.373  1.00  0.00    -0.069 C 
HETATM   11  C11 UNL     1       7.463   7.579  14.555  1.00  0.00     0.030 C 
HETATM   12  C12 UNL     1       7.181   8.453  15.721  1.00  0.00     0.032 C 
HETATM   13  N1  UNL     1       7.939   8.320  16.774  1.00  0.00    -0.271 N 
ATOM     14  H1  UNL     1       8.671   7.616  16.868  1.00  0.00     0.194 HD
HETATM   15  C22 UNL     1       6.099   9.504  15.586  1.00  0.00     0.060 C 
HETATM   16  C23 UNL     1       5.083   9.135  14.514  1.00  0.00     0.020 C 
HETATM   17  C24 UNL     1       5.715   8.758  13.143  1.00  0.00    -0.016 C 
HETATM   18  C25 UNL     1       6.340  10.022  12.507  1.00  0.00     0.020 C 
HETATM   19  C26 UNL     1       4.580   8.134  12.236  1.00  0.00     0.002 C 
HETATM   20  C27 UNL     1       3.493   9.152  11.831  1.00  0.00     0.007 C 
HETATM   21  C28 UNL     1       2.391   8.528  10.974  1.00  0.00     0.014 C 
HETATM   22  C29 UNL     1       2.921   7.816   9.697  1.00  0.00     0.003 C 
HETATM   23  C30 UNL     1       3.398   8.888   8.695  1.00  0.00     0.020 C 
ENDROOT
BRANCH   3  24
HETATM   24  O1  UNL     1       0.553   7.457   9.131  1.00  0.00    -0.377 OA
HETATM   25  H2  UNL     1       0.013   7.023   8.451  1.00  0.00     0.211 HD
ENDBRANCH   3  24
BRANCH  13  26
HETATM   26  O2  UNL     1       7.622   9.265  17.761  1.00  0.00    -0.271 OA
BRANCH  26  27
HETATM   27  C13 UNL     1       7.372  10.518  17.129  1.00  0.00     0.303 C 
BRANCH  27  28
HETATM   28  C14 UNL     1       7.222  11.601  18.189  1.00  0.00     0.244 C 
HETATM   29  O3  UNL     1       8.182  12.187  18.681  1.00  0.00    -0.271 OA
HETATM   30  N2  UNL     1       5.921  11.813  18.604  1.00  0.00    -0.346 N 
HETATM   31  H16 UNL     1       5.196  11.435  17.999  1.00  0.00     0.163 HD
BRANCH  30  32
HETATM   32  C15 UNL     1       5.579  12.931  19.498  1.00  0.00     0.180 C 
BRANCH  32  33
HETATM   33  C16 UNL     1       5.835  12.567  20.985  1.00  0.00     0.241 C 
HETATM   34  O4  UNL     1       5.219  11.680  21.569  1.00  0.00    -0.271 OA
HETATM   35  N3  UNL     1       6.900  13.222  21.561  1.00  0.00    -0.349 N 
HETATM   36  H18 UNL     1       7.230  14.063  21.099  1.00  0.00     0.163 HD
BRANCH  35  37
HETATM   37  C17 UNL     1       7.194  13.084  22.974  1.00  0.00     0.232 C 
BRANCH  37  38
HETATM   38  C18 UNL     1       8.659  12.756  23.217  1.00  0.00     0.158 C 
HETATM   39  O5  UNL     1       9.373  13.244  24.078  1.00  0.00    -0.649 OA
BRANCH  38  40
HETATM   40  O6  UNL     1       9.168  11.846  22.352  1.00  0.00    -0.775 OA
HETATM   41  H21 UNL     1      10.104  11.766  22.634  1.00  0.00     0.167 HD
ENDBRANCH  38  40
ENDBRANCH  37  38
ENDBRANCH  35  37
ENDBRANCH  32  33
BRANCH  32  42
HETATM   42  C19 UNL     1       4.118  13.382  19.252  1.00  0.00     0.009 C 
HETATM   43  C20 UNL     1       3.807  13.674  17.781  1.00  0.00     0.012 C 
HETATM   44  C21 UNL     1       3.106  12.379  19.812  1.00  0.00     0.012 C 
ENDBRANCH  32  42
ENDBRANCH  30  32
ENDBRANCH  27  28
ENDBRANCH  26  27
ENDBRANCH  13  26
TORSDOF 10
ENDMDL
MODEL 8
REMARK minimizedAffinity -8.35329342
REMARK CNNscore 0.253318965
REMARK CNNaffinity 6.9098649
REMARK  10 active torsions:
REMARK  status: ('A' for Active; 'I' for Inactive)
REMARK    1  A    between atoms: C3_3  and  O1_4 
REMARK    2  A    between atoms: N1_14  and  O2_16 
REMARK    3  A    between atoms: O2_16  and  C13_17 
REMARK    4  A    between atoms: C13_17  and  C14_18 
REMARK       I    between atoms: C14_18  and  N2_20 
REMARK    5  A    between atoms: N2_20  and  C15_21 
REMARK    6  A    between atoms: C15_21  and  C16_22 
REMARK    7  A    between atoms: C15_21  and  C19_29 
REMARK       I    between atoms: C16_22  and  N3_24 
REMARK    8  A    between atoms: N3_24  and  C17_25 
REMARK    9  A    between atoms: C17_25  and  C18_26 
REMARK   10  A    between atoms: C18_26  and  O6_28 
ROOT
HETATM    1  C1  UNL     1       1.661   7.694  14.010  1.00  0.00     0.015 C 
HETATM    2  C2  UNL     1       0.635   8.316  14.025  1.00  0.00    -0.078 C 
HETATM    3  C3  UNL     1      -0.633   9.084  14.021  1.00  0.00     0.128 C 
HETATM    4  C4  UNL     1      -1.153   9.220  12.580  1.00  0.00     0.052 C 
HETATM    5  C5  UNL     1      -2.162   8.080  12.377  1.00  0.00     0.010 C 
HETATM    6  C6  UNL     1      -2.253   7.326  13.718  1.00  0.00     0.002 C 
HETATM    7  C7  UNL     1      -3.611   6.662  14.027  1.00  0.00    -0.004 C 
HETATM    8  C8  UNL     1      -4.041   5.726  12.888  1.00  0.00     0.010 C 
HETATM    9  C9  UNL     1      -5.303   4.958  13.255  1.00  0.00     0.035 C 
HETATM   10  C10 UNL     1      -6.434   5.874  13.658  1.00  0.00    -0.069 C 
HETATM   11  C11 UNL     1      -7.666   5.658  13.159  1.00  0.00     0.030 C 
HETATM   12  C12 UNL     1      -8.855   6.393  13.657  1.00  0.00     0.032 C 
HETATM   13  N1  UNL     1     -10.026   6.010  13.230  1.00  0.00    -0.271 N 
ATOM     14  H1  UNL     1     -10.171   5.280  12.532  1.00  0.00     0.194 HD
HETATM   15  C22 UNL     1      -8.648   7.476  14.696  1.00  0.00     0.060 C 
HETATM   16  C23 UNL     1      -7.236   8.043  14.647  1.00  0.00     0.020 C 
HETATM   17  C24 UNL     1      -6.116   6.964  14.687  1.00  0.00    -0.016 C 
HETATM   18  C25 UNL     1      -6.099   6.300  16.084  1.00  0.00     0.020 C 
HETATM   19  C26 UNL     1      -4.743   7.670  14.345  1.00  0.00     0.002 C 
HETATM   20  C27 UNL     1      -4.282   8.665  15.430  1.00  0.00     0.007 C 
HETATM   21  C28 UNL     1      -2.965   9.357  15.075  1.00  0.00     0.014 C 
HETATM   22  C29 UNL     1      -1.805   8.369  14.766  1.00  0.00     0.003 C 
HETATM   23  C30 UNL     1      -1.355   7.706  16.085  1.00  0.00     0.020 C 
ENDROOT
BRANCH   3  24
HETATM   24  O1  UNL     1      -0.389  10.372  14.573  1.00  0.00    -0.377 OA
HETATM   25  H2  UNL     1       0.525  10.613  14.352  1.00  0.00     0.211 HD
ENDBRANCH   3  24
BRANCH  13  26
HETATM   26  O2  UNL     1     -11.061   6.728  13.847  1.00  0.00    -0.271 OA
BRANCH  26  27
HETATM   27  C13 UNL     1     -11.648   7.599  12.885  1.00  0.00     0.303 C 
BRANCH  27  28
HETATM   28  C14 UNL     1     -13.116   7.818  13.226  1.00  0.00     0.244 C 
HETATM   29  O3  UNL     1     -13.726   7.111  14.023  1.00  0.00    -0.271 OA
HETATM   30  N2  UNL     1     -13.722   8.829  12.505  1.00  0.00    -0.346 N 
HETATM   31  H16 UNL     1     -13.094   9.476  12.036  1.00  0.00     0.163 HD
BRANCH  30  32
HETATM   32  C15 UNL     1     -15.087   9.281  12.824  1.00  0.00     0.180 C 
BRANCH  32  33
HETATM   33  C16 UNL     1     -16.110   8.787  11.767  1.00  0.00     0.241 C 
HETATM   34  O4  UNL     1     -15.869   7.874  10.983  1.00  0.00    -0.271 OA
HETATM   35  N3  UNL     1     -17.357   9.359  11.865  1.00  0.00    -0.349 N 
HETATM   36  H18 UNL     1     -17.429  10.226  12.389  1.00  0.00     0.163 HD
BRANCH  35  37
HETATM   37  C17 UNL     1     -18.387   9.096  10.878  1.00  0.00     0.232 C 
BRANCH  37  38
HETATM   38  C18 UNL     1     -18.398  10.147   9.779  1.00  0.00     0.158 C 
HETATM   39  O5  UNL     1     -18.389   9.932   8.577  1.00  0.00    -0.649 OA
BRANCH  38  40
HETATM   40  O6  UNL     1     -18.395  11.421  10.238  1.00  0.00    -0.775 OA
HETATM   41  H21 UNL     1     -18.385  11.957   9.416  1.00  0.00     0.167 HD
ENDBRANCH  38  40
ENDBRANCH  37  38
ENDBRANCH  35  37
ENDBRANCH  32  33
BRANCH  32  42
HETATM   42  C19 UNL     1     -15.114  10.820  12.987  1.00  0.00     0.009 C 
HETATM   43  C20 UNL     1     -15.629  11.282  14.354  1.00  0.00     0.012 C 
HETATM   44  C21 UNL     1     -13.748  11.452  12.702  1.00  0.00     0.012 C 
ENDBRANCH  32  42
ENDBRANCH  30  32
ENDBRANCH  27  28
ENDBRANCH  26  27
ENDBRANCH  13  26
TORSDOF 10
ENDMDL
MODEL 9
REMARK minimizedAffinity -7.39392567
REMARK CNNscore 0.232409358
REMARK CNNaffinity 6.09969473
REMARK  10 active torsions:
REMARK  status: ('A' for Active; 'I' for Inactive)
REMARK    1  A    between atoms: C3_3  and  O1_4 
REMARK    2  A    between atoms: N1_14  and  O2_16 
REMARK    3  A    between atoms: O2_16  and  C13_17 
REMARK    4  A    between atoms: C13_17  and  C14_18 
REMARK       I    between atoms: C14_18  and  N2_20 
REMARK    5  A    between atoms: N2_20  and  C15_21 
REMARK    6  A    between atoms: C15_21  and  C16_22 
REMARK    7  A    between atoms: C15_21  and  C19_29 
REMARK       I    between atoms: C16_22  and  N3_24 
REMARK    8  A    between atoms: N3_24  and  C17_25 
REMARK    9  A    between atoms: C17_25  and  C18_26 
REMARK   10  A    between atoms: C18_26  and  O6_28 
ROOT
HETATM    1  C1  UNL     1       2.689   5.828   7.906  1.00  0.00     0.015 C 
HETATM    2  C2  UNL     1       2.794   6.109   9.069  1.00  0.00    -0.078 C 
HETATM    3  C3  UNL     1       2.927   6.478  10.498  1.00  0.00     0.128 C 
HETATM    4  C4  UNL     1       3.102   8.001  10.626  1.00  0.00     0.052 C 
HETATM    5  C5  UNL     1       1.702   8.574  10.892  1.00  0.00     0.010 C 
HETATM    6  C6  UNL     1       0.739   7.373  10.964  1.00  0.00     0.002 C 
HETATM    7  C7  UNL     1      -0.491   7.549  11.880  1.00  0.00    -0.004 C 
HETATM    8  C8  UNL     1      -1.281   8.813  11.509  1.00  0.00     0.010 C 
HETATM    9  C9  UNL     1      -2.571   8.908  12.311  1.00  0.00     0.035 C 
HETATM   10  C10 UNL     1      -2.327   8.841  13.800  1.00  0.00    -0.069 C 
HETATM   11  C11 UNL     1      -2.951   9.718  14.609  1.00  0.00     0.030 C 
HETATM   12  C12 UNL     1      -2.910   9.588  16.087  1.00  0.00     0.032 C 
HETATM   13  N1  UNL     1      -3.668  10.387  16.786  1.00  0.00    -0.271 N 
ATOM     14  H1  UNL     1      -4.240  11.131  16.385  1.00  0.00     0.194 HD
HETATM   15  C22 UNL     1      -2.067   8.483  16.689  1.00  0.00     0.060 C 
HETATM   16  C23 UNL     1      -0.950   8.049  15.749  1.00  0.00     0.020 C 
HETATM   17  C24 UNL     1      -1.429   7.710  14.309  1.00  0.00    -0.016 C 
HETATM   18  C25 UNL     1      -2.276   6.416  14.346  1.00  0.00     0.020 C 
HETATM   19  C26 UNL     1      -0.149   7.558  13.391  1.00  0.00     0.002 C 
HETATM   20  C27 UNL     1       0.717   6.332  13.749  1.00  0.00     0.007 C 
HETATM   21  C28 UNL     1       1.961   6.213  12.869  1.00  0.00     0.014 C 
HETATM   22  C29 UNL     1       1.649   6.185  11.346  1.00  0.00     0.003 C 
HETATM   23  C30 UNL     1       1.002   4.828  10.998  1.00  0.00     0.020 C 
ENDROOT
BRANCH   3  24
HETATM   24  O1  UNL     1       4.061   5.812  11.039  1.00  0.00    -0.377 OA
HETATM   25  H2  UNL     1       4.709   5.717  10.322  1.00  0.00     0.211 HD
ENDBRANCH   3  24
BRANCH  13  26
HETATM   26  O2  UNL     1      -3.599  10.096  18.157  1.00  0.00    -0.271 OA
BRANCH  26  27
HETATM   27  C13 UNL     1      -3.684  11.317  18.886  1.00  0.00     0.303 C 
BRANCH  27  28
HETATM   28  C14 UNL     1      -2.457  12.170  18.594  1.00  0.00     0.244 C 
HETATM   29  O3  UNL     1      -2.505  13.194  17.919  1.00  0.00    -0.271 OA
HETATM   30  N2  UNL     1      -1.275  11.653  19.089  1.00  0.00    -0.346 N 
HETATM   31  H16 UNL     1      -1.371  10.929  19.796  1.00  0.00     0.163 HD
BRANCH  30  32
HETATM   32  C15 UNL     1      -0.025  12.428  19.039  1.00  0.00     0.180 C 
BRANCH  32  33
HETATM   33  C16 UNL     1       0.859  12.003  17.836  1.00  0.00     0.241 C 
HETATM   34  O4  UNL     1       1.773  12.699  17.403  1.00  0.00    -0.271 OA
HETATM   35  N3  UNL     1       0.630  10.726  17.379  1.00  0.00    -0.349 N 
HETATM   36  H18 UNL     1      -0.249  10.290  17.642  1.00  0.00     0.163 HD
BRANCH  35  37
HETATM   37  C17 UNL     1       1.286  10.222  16.187  1.00  0.00     0.232 C 
BRANCH  37  38
HETATM   38  C18 UNL     1       2.426   9.275  16.526  1.00  0.00     0.158 C 
HETATM   39  O5  UNL     1       2.315   8.158  17.005  1.00  0.00    -0.649 OA
BRANCH  38  40
HETATM   40  O6  UNL     1       3.655   9.783  16.272  1.00  0.00    -0.775 OA
HETATM   41  H21 UNL     1       4.259   9.065  16.559  1.00  0.00     0.167 HD
ENDBRANCH  38  40
ENDBRANCH  37  38
ENDBRANCH  35  37
ENDBRANCH  32  33
BRANCH  32  42
HETATM   42  C19 UNL     1       0.730  12.309  20.386  1.00  0.00     0.009 C 
HETATM   43  C20 UNL     1       1.523  11.006  20.530  1.00  0.00     0.012 C 
HETATM   44  C21 UNL     1       1.645  13.510  20.639  1.00  0.00     0.012 C 
ENDBRANCH  32  42
ENDBRANCH  30  32
ENDBRANCH  27  28
ENDBRANCH  26  27
ENDBRANCH  13  26
TORSDOF 10
ENDMDL
