MODEL 1
REMARK minimizedAffinity -7.74875975
REMARK CNNscore 0.534466684
REMARK CNNaffinity 6.87060928
REMARK  9 active torsions:
REMARK  status: ('A' for Active; 'I' for Inactive)
REMARK    1  A    between atoms: C12_14  and  C13_15 
REMARK    2  A    between atoms: C13_15  and  C15_17 
REMARK    3  A    between atoms: C15_17  and  C16_18 
REMARK    4  A    between atoms: C16_18  and  C17_19 
REMARK    5  A    between atoms: C18_20  and  C20_22 
REMARK    6  A    between atoms: C26_29  and  C27_30 
REMARK    7  A    between atoms: C27_30  and  C28_31 
REMARK    8  A    between atoms: C28_31  and  C29_32 
REMARK    9  A    between atoms: C29_32  and  O5_34 
ROOT
HETATM    1  C1  UNL     1       2.206   8.499  10.472  1.00  0.00     0.025 C 
HETATM    2  C2  UNL     1       1.174   7.717  10.816  1.00  0.00     0.015 C 
HETATM    3  C3  UNL     1       0.186   7.291   9.801  1.00  0.00     0.289 C 
HETATM    4  O1  UNL     1       0.022   7.777   8.697  1.00  0.00    -0.260 OA
HETATM    5  O2  UNL     1      -0.514   6.251  10.322  1.00  0.00    -0.311 OA
HETATM    6  C4  UNL     1       0.069   5.854  11.571  1.00  0.00     0.142 C 
HETATM    7  C5  UNL     1      -1.015   5.330  12.497  1.00  0.00     0.039 C 
HETATM    8  C6  UNL     1      -2.061   6.414  12.796  1.00  0.00     0.006 C 
HETATM    9  C7  UNL     1      -1.395   7.606  13.521  1.00  0.00    -0.027 A 
HETATM   10  C8  UNL     1      -1.927   7.914  14.927  1.00  0.00     0.011 C 
HETATM   11  C9  UNL     1      -3.452   7.818  15.131  1.00  0.00     0.011 C 
HETATM   12  C10 UNL     1      -4.207   7.068  14.024  1.00  0.00    -0.032 C 
HETATM   13  C11 UNL     1      -4.549   8.085  12.894  1.00  0.00     0.016 C 
HETATM   14  C12 UNL     1      -5.521   6.332  14.452  1.00  0.00    -0.002 C 
HETATM   15  C21 UNL     1      -5.655   5.225  13.363  1.00  0.00     0.006 C 
HETATM   16  C22 UNL     1      -4.293   5.090  12.662  1.00  0.00     0.011 C 
HETATM   17  C23 UNL     1      -3.308   5.869  13.553  1.00  0.00    -0.032 C 
HETATM   18  C24 UNL     1      -2.886   4.888  14.694  1.00  0.00     0.016 C 
HETATM   19  C25 UNL     1      -1.006   8.820  12.698  1.00  0.00     0.022 A 
HETATM   20  C26 UNL     1       0.101   7.906  13.170  1.00  0.00    -0.021 A 
HETATM   21  C30 UNL     1       0.845   7.051  12.114  1.00  0.00     0.063 C 
ENDROOT
BRANCH  14  22
HETATM   22  C13 UNL     1      -6.845   7.134  14.643  1.00  0.00    -0.014 C 
HETATM   23  C14 UNL     1      -7.163   7.362  16.126  1.00  0.00     0.010 C 
BRANCH  22  24
HETATM   24  C15 UNL     1      -8.027   6.397  13.953  1.00  0.00     0.008 C 
BRANCH  24  25
HETATM   25  C16 UNL     1      -9.395   6.678  14.587  1.00  0.00     0.028 C 
BRANCH  25  26
HETATM   26  C17 UNL     1     -10.273   7.460  13.650  1.00  0.00    -0.017 C 
HETATM   27  C18 UNL     1     -11.617   7.428  13.575  1.00  0.00    -0.028 C 
HETATM   28  C19 UNL     1     -12.544   6.569  14.376  1.00  0.00     0.051 C 
BRANCH  27  29
HETATM   29  C20 UNL     1     -12.283   8.318  12.575  1.00  0.00     0.265 C 
HETATM   30  O3  UNL     1     -13.490   8.515  12.526  1.00  0.00    -0.302 OA
ENDBRANCH  27  29
ENDBRANCH  25  26
ENDBRANCH  24  25
ENDBRANCH  22  24
ENDBRANCH  14  22
BRANCH  20  31
HETATM   31  C27 UNL     1       0.997   8.381  14.323  1.00  0.00     0.021 C 
BRANCH  31  32
HETATM   32  C28 UNL     1       2.029   7.358  14.785  1.00  0.00     0.111 C 
BRANCH  32  33
HETATM   33  C29 UNL     1       2.794   7.845  15.986  1.00  0.00     0.139 C 
HETATM   34  O4  UNL     1       2.354   8.425  16.963  1.00  0.00    -0.650 OA
BRANCH  33  35
HETATM   35  O5  UNL     1       4.108   7.560  15.889  1.00  0.00    -0.776 OA
HETATM   36  H41 UNL     1       4.493   7.925  16.713  1.00  0.00     0.167 HD
ENDBRANCH  33  35
ENDBRANCH  32  33
ENDBRANCH  31  32
ENDBRANCH  20  31
TORSDOF 9
ENDMDL
MODEL 2
REMARK minimizedAffinity -7.62271357
REMARK CNNscore 0.332619846
REMARK CNNaffinity 6.52668428
REMARK  9 active torsions:
REMARK  status: ('A' for Active; 'I' for Inactive)
REMARK    1  A    between atoms: C12_14  and  C13_15 
REMARK    2  A    between atoms: C13_15  and  C15_17 
REMARK    3  A    between atoms: C15_17  and  C16_18 
REMARK    4  A    between atoms: C16_18  and  C17_19 
REMARK    5  A    between atoms: C18_20  and  C20_22 
REMARK    6  A    between atoms: C26_29  and  C27_30 
REMARK    7  A    between atoms: C27_30  and  C28_31 
REMARK    8  A    between atoms: C28_31  and  C29_32 
REMARK    9  A    between atoms: C29_32  and  O5_34 
ROOT
HETATM    1  C1  UNL     1      -0.419  13.212  18.251  1.00  0.00     0.025 C 
HETATM    2  C2  UNL     1      -1.188  12.177  17.887  1.00  0.00     0.015 C 
HETATM    3  C3  UNL     1      -1.293  10.981  18.752  1.00  0.00     0.289 C 
HETATM    4  O1  UNL     1      -0.549  10.677  19.665  1.00  0.00    -0.260 OA
HETATM    5  O2  UNL     1      -2.377  10.274  18.342  1.00  0.00    -0.311 OA
HETATM    6  C4  UNL     1      -3.098  11.023  17.354  1.00  0.00     0.142 C 
HETATM    7  C5  UNL     1      -3.751  10.072  16.367  1.00  0.00     0.039 C 
HETATM    8  C6  UNL     1      -2.701   9.225  15.634  1.00  0.00     0.006 C 
HETATM    9  C7  UNL     1      -1.763  10.140  14.813  1.00  0.00    -0.027 A 
HETATM   10  C8  UNL     1      -1.762   9.907  13.297  1.00  0.00     0.011 C 
HETATM   11  C9  UNL     1      -1.801   8.443  12.816  1.00  0.00     0.011 C 
HETATM   12  C10 UNL     1      -2.214   7.422  13.886  1.00  0.00    -0.032 C 
HETATM   13  C11 UNL     1      -0.937   6.999  14.673  1.00  0.00     0.016 C 
HETATM   14  C12 UNL     1      -2.939   6.132  13.376  1.00  0.00    -0.002 C 
HETATM   15  C21 UNL     1      -3.744   5.681  14.632  1.00  0.00     0.006 C 
HETATM   16  C22 UNL     1      -3.801   6.871  15.604  1.00  0.00     0.011 C 
HETATM   17  C23 UNL     1      -3.324   8.081  14.780  1.00  0.00    -0.032 C 
HETATM   18  C24 UNL     1      -4.575   8.588  13.991  1.00  0.00     0.016 C 
HETATM   19  C25 UNL     1      -0.418  10.508  15.410  1.00  0.00     0.022 A 
HETATM   20  C26 UNL     1      -1.490  11.572  15.383  1.00  0.00    -0.021 A 
HETATM   21  C30 UNL     1      -2.119  12.014  16.728  1.00  0.00     0.063 C 
ENDROOT
BRANCH  14  22
HETATM   22  C13 UNL     1      -2.117   4.963  12.751  1.00  0.00    -0.014 C 
HETATM   23  C14 UNL     1      -1.461   5.373  11.426  1.00  0.00     0.010 C 
BRANCH  22  24
HETATM   24  C15 UNL     1      -3.027   3.721  12.532  1.00  0.00     0.008 C 
BRANCH  24  25
HETATM   25  C16 UNL     1      -4.187   3.960  11.558  1.00  0.00     0.028 C 
BRANCH  25  26
HETATM   26  C17 UNL     1      -5.509   3.665  12.210  1.00  0.00    -0.017 C 
HETATM   27  C18 UNL     1      -6.258   2.555  12.068  1.00  0.00    -0.028 C 
HETATM   28  C19 UNL     1      -5.970   1.379  11.189  1.00  0.00     0.051 C 
BRANCH  27  29
HETATM   29  C20 UNL     1      -7.536   2.471  12.841  1.00  0.00     0.265 C 
HETATM   30  O3  UNL     1      -8.456   3.273  12.738  1.00  0.00    -0.302 OA
ENDBRANCH  27  29
ENDBRANCH  25  26
ENDBRANCH  24  25
ENDBRANCH  22  24
ENDBRANCH  14  22
BRANCH  20  31
HETATM   31  C27 UNL     1      -1.364  12.709  14.358  1.00  0.00     0.021 C 
BRANCH  31  32
HETATM   32  C28 UNL     1      -1.807  14.075  14.870  1.00  0.00     0.111 C 
BRANCH  32  33
HETATM   33  C29 UNL     1      -2.531  14.859  13.809  1.00  0.00     0.139 C 
HETATM   34  O4  UNL     1      -3.463  15.629  13.958  1.00  0.00    -0.650 OA
BRANCH  33  35
HETATM   35  O5  UNL     1      -2.021  14.625  12.583  1.00  0.00    -0.776 OA
HETATM   36  H41 UNL     1      -2.570  15.178  11.987  1.00  0.00     0.167 HD
ENDBRANCH  33  35
ENDBRANCH  32  33
ENDBRANCH  31  32
ENDBRANCH  20  31
TORSDOF 9
ENDMDL
MODEL 3
REMARK minimizedAffinity -6.06745529
REMARK CNNscore 0.32570979
REMARK CNNaffinity 5.87369394
REMARK  9 active torsions:
REMARK  status: ('A' for Active; 'I' for Inactive)
REMARK    1  A    between atoms: C12_14  and  C13_15 
REMARK    2  A    between atoms: C13_15  and  C15_17 
REMARK    3  A    between atoms: C15_17  and  C16_18 
REMARK    4  A    between atoms: C16_18  and  C17_19 
REMARK    5  A    between atoms: C18_20  and  C20_22 
REMARK    6  A    between atoms: C26_29  and  C27_30 
REMARK    7  A    between atoms: C27_30  and  C28_31 
REMARK    8  A    between atoms: C28_31  and  C29_32 
REMARK    9  A    between atoms: C29_32  and  O5_34 
ROOT
HETATM    1  C1  UNL     1       3.460   9.941  23.842  1.00  0.00     0.025 C 
HETATM    2  C2  UNL     1       3.184  10.630  22.727  1.00  0.00     0.015 C 
HETATM    3  C3  UNL     1       2.320  10.043  21.679  1.00  0.00     0.289 C 
HETATM    4  O1  UNL     1       2.019   8.870  21.558  1.00  0.00    -0.260 OA
HETATM    5  O2  UNL     1       1.921  11.053  20.864  1.00  0.00    -0.311 OA
HETATM    6  C4  UNL     1       2.339  12.311  21.414  1.00  0.00     0.142 C 
HETATM    7  C5  UNL     1       2.632  13.288  20.289  1.00  0.00     0.039 C 
HETATM    8  C6  UNL     1       3.765  12.774  19.389  1.00  0.00     0.006 C 
HETATM    9  C7  UNL     1       5.069  12.636  20.207  1.00  0.00    -0.027 A 
HETATM   10  C8  UNL     1       6.246  13.501  19.739  1.00  0.00     0.011 C 
HETATM   11  C9  UNL     1       6.461  13.621  18.217  1.00  0.00     0.011 C 
HETATM   12  C10 UNL     1       5.267  13.181  17.359  1.00  0.00    -0.032 C 
HETATM   13  C11 UNL     1       5.376  11.643  17.126  1.00  0.00     0.016 C 
HETATM   14  C12 UNL     1       5.107  13.888  15.971  1.00  0.00    -0.002 C 
HETATM   15  C21 UNL     1       3.584  13.725  15.685  1.00  0.00     0.006 C 
HETATM   16  C22 UNL     1       2.896  13.353  17.009  1.00  0.00     0.011 C 
HETATM   17  C23 UNL     1       3.953  13.623  18.096  1.00  0.00    -0.032 C 
HETATM   18  C24 UNL     1       3.869  15.151  18.412  1.00  0.00     0.016 C 
HETATM   19  C25 UNL     1       5.446  11.261  20.729  1.00  0.00     0.022 A 
HETATM   20  C26 UNL     1       4.922  12.272  21.723  1.00  0.00    -0.021 A 
HETATM   21  C30 UNL     1       3.520  12.035  22.340  1.00  0.00     0.063 C 
ENDROOT
BRANCH  14  22
HETATM   22  C13 UNL     1       5.985  13.449  14.759  1.00  0.00    -0.014 C 
HETATM   23  C14 UNL     1       5.403  12.220  14.049  1.00  0.00     0.010 C 
BRANCH  22  24
HETATM   24  C15 UNL     1       7.439  13.154  15.226  1.00  0.00     0.008 C 
BRANCH  24  25
HETATM   25  C16 UNL     1       8.124  12.017  14.458  1.00  0.00     0.028 C 
BRANCH  25  26
HETATM   26  C17 UNL     1       8.801  11.061  15.401  1.00  0.00    -0.017 C 
HETATM   27  C18 UNL     1       8.419   9.805  15.701  1.00  0.00    -0.028 C 
HETATM   28  C19 UNL     1       7.206   9.088  15.200  1.00  0.00     0.051 C 
BRANCH  27  29
HETATM   29  C20 UNL     1       9.268   9.026  16.655  1.00  0.00     0.265 C 
HETATM   30  O3  UNL     1       8.955   7.938  17.123  1.00  0.00    -0.302 OA
ENDBRANCH  27  29
ENDBRANCH  25  26
ENDBRANCH  24  25
ENDBRANCH  22  24
ENDBRANCH  14  22
BRANCH  20  31
HETATM   31  C27 UNL     1       5.918  12.930  22.689  1.00  0.00     0.021 C 
BRANCH  31  32
HETATM   32  C28 UNL     1       6.977  11.984  23.246  1.00  0.00     0.111 C 
BRANCH  32  33
HETATM   33  C29 UNL     1       8.369  12.486  22.970  1.00  0.00     0.139 C 
HETATM   34  O4  UNL     1       9.051  13.211  23.673  1.00  0.00    -0.650 OA
BRANCH  33  35
HETATM   35  O5  UNL     1       8.840  12.028  21.793  1.00  0.00    -0.776 OA
HETATM   36  H41 UNL     1       9.736  12.421  21.725  1.00  0.00     0.167 HD
ENDBRANCH  33  35
ENDBRANCH  32  33
ENDBRANCH  31  32
ENDBRANCH  20  31
TORSDOF 9
ENDMDL
MODEL 4
REMARK minimizedAffinity -8.49438953
REMARK CNNscore 0.318722695
REMARK CNNaffinity 7.0072484
REMARK  9 active torsions:
REMARK  status: ('A' for Active; 'I' for Inactive)
REMARK    1  A    between atoms: C12_14  and  C13_15 
REMARK    2  A    between atoms: C13_15  and  C15_17 
REMARK    3  A    between atoms: C15_17  and  C16_18 
REMARK    4  A    between atoms: C16_18  and  C17_19 
REMARK    5  A    between atoms: C18_20  and  C20_22 
REMARK    6  A    between atoms: C26_29  and  C27_30 
REMARK    7  A    between atoms: C27_30  and  C28_31 
REMARK    8  A    between atoms: C28_31  and  C29_32 
REMARK    9  A    between atoms: C29_32  and  O5_34 
ROOT
HETATM    1  C1  UNL     1     -10.503   6.758  14.361  1.00  0.00     0.025 C 
HETATM    2  C2  UNL     1      -9.261   6.985  14.809  1.00  0.00     0.015 C 
HETATM    3  C3  UNL     1      -8.825   8.358  15.144  1.00  0.00     0.289 C 
HETATM    4  O1  UNL     1      -9.370   9.395  14.813  1.00  0.00    -0.260 OA
HETATM    5  O2  UNL     1      -7.696   8.259  15.892  1.00  0.00    -0.311 OA
HETATM    6  C4  UNL     1      -7.449   6.883  16.213  1.00  0.00     0.142 C 
HETATM    7  C5  UNL     1      -5.953   6.641  16.311  1.00  0.00     0.039 C 
HETATM    8  C6  UNL     1      -5.255   6.939  14.976  1.00  0.00     0.006 C 
HETATM    9  C7  UNL     1      -5.786   5.991  13.877  1.00  0.00    -0.027 A 
HETATM   10  C8  UNL     1      -4.746   5.065  13.233  1.00  0.00     0.011 C 
HETATM   11  C9  UNL     1      -3.363   5.675  12.930  1.00  0.00     0.011 C 
HETATM   12  C10 UNL     1      -3.072   7.003  13.645  1.00  0.00    -0.032 C 
HETATM   13  C11 UNL     1      -3.635   8.161  12.768  1.00  0.00     0.016 C 
HETATM   14  C12 UNL     1      -1.570   7.304  13.970  1.00  0.00    -0.002 C 
HETATM   15  C21 UNL     1      -1.679   8.291  15.171  1.00  0.00     0.006 C 
HETATM   16  C22 UNL     1      -3.106   8.187  15.735  1.00  0.00     0.011 C 
HETATM   17  C23 UNL     1      -3.701   6.926  15.082  1.00  0.00    -0.032 C 
HETATM   18  C24 UNL     1      -3.208   5.718  15.942  1.00  0.00     0.016 C 
HETATM   19  C25 UNL     1      -6.857   6.512  12.936  1.00  0.00     0.022 A 
HETATM   20  C26 UNL     1      -7.276   5.525  14.001  1.00  0.00    -0.021 A 
HETATM   21  C30 UNL     1      -8.163   6.034  15.165  1.00  0.00     0.063 C 
ENDROOT
BRANCH  14  22
HETATM   22  C13 UNL     1      -0.615   7.833  12.856  1.00  0.00    -0.014 C 
HETATM   23  C14 UNL     1      -1.019   9.234  12.378  1.00  0.00     0.010 C 
BRANCH  22  24
HETATM   24  C15 UNL     1      -0.592   6.848  11.654  1.00  0.00     0.008 C 
BRANCH  24  25
HETATM   25  C16 UNL     1       0.369   7.255  10.530  1.00  0.00     0.028 C 
BRANCH  25  26
HETATM   26  C17 UNL     1       1.789   6.913  10.883  1.00  0.00    -0.017 C 
HETATM   27  C18 UNL     1       2.894   7.167  10.156  1.00  0.00    -0.028 C 
HETATM   28  C19 UNL     1       2.956   7.807   8.805  1.00  0.00     0.051 C 
BRANCH  27  29
HETATM   29  C20 UNL     1       4.214   6.753  10.723  1.00  0.00     0.265 C 
HETATM   30  O3  UNL     1       5.056   6.109  10.109  1.00  0.00    -0.302 OA
ENDBRANCH  27  29
ENDBRANCH  25  26
ENDBRANCH  24  25
ENDBRANCH  22  24
ENDBRANCH  14  22
BRANCH  20  31
HETATM   31  C27 UNL     1      -7.583   4.081  13.576  1.00  0.00     0.021 C 
BRANCH  31  32
HETATM   32  C28 UNL     1      -7.124   3.725  12.167  1.00  0.00     0.111 C 
BRANCH  32  33
HETATM   33  C29 UNL     1      -6.960   2.239  11.995  1.00  0.00     0.139 C 
HETATM   34  O4  UNL     1      -6.223   1.656  11.219  1.00  0.00    -0.650 OA
BRANCH  33  35
HETATM   35  O5  UNL     1      -7.753   1.549  12.839  1.00  0.00    -0.776 OA
HETATM   36  H41 UNL     1      -7.564   0.610  12.631  1.00  0.00     0.167 HD
ENDBRANCH  33  35
ENDBRANCH  32  33
ENDBRANCH  31  32
ENDBRANCH  20  31
TORSDOF 9
ENDMDL
MODEL 5
REMARK minimizedAffinity -8.44679737
REMARK CNNscore 0.287900209
REMARK CNNaffinity 6.94009256
REMARK  9 active torsions:
REMARK  status: ('A' for Active; 'I' for Inactive)
REMARK    1  A    between atoms: C12_14  and  C13_15 
REMARK    2  A    between atoms: C13_15  and  C15_17 
REMARK    3  A    between atoms: C15_17  and  C16_18 
REMARK    4  A    between atoms: C16_18  and  C17_19 
REMARK    5  A    between atoms: C18_20  and  C20_22 
REMARK    6  A    between atoms: C26_29  and  C27_30 
REMARK    7  A    between atoms: C27_30  and  C28_31 
REMARK    8  A    between atoms: C28_31  and  C29_32 
REMARK    9  A    between atoms: C29_32  and  O5_34 
ROOT
HETATM    1  C1  UNL     1       2.379   6.532  12.239  1.00  0.00     0.025 C 
HETATM    2  C2  UNL     1       1.240   7.155  12.568  1.00  0.00     0.015 C 
HETATM    3  C3  UNL     1       1.191   8.057  13.739  1.00  0.00     0.289 C 
HETATM    4  O1  UNL     1       2.005   8.120  14.642  1.00  0.00    -0.260 OA
HETATM    5  O2  UNL     1       0.066   8.809  13.631  1.00  0.00    -0.311 OA
HETATM    6  C4  UNL     1      -0.554   8.570  12.359  1.00  0.00     0.142 C 
HETATM    7  C5  UNL     1      -2.061   8.710  12.490  1.00  0.00     0.039 C 
HETATM    8  C6  UNL     1      -2.628   7.685  13.483  1.00  0.00     0.006 C 
HETATM    9  C7  UNL     1      -2.358   6.250  12.976  1.00  0.00    -0.027 A 
HETATM   10  C8  UNL     1      -3.601   5.394  12.701  1.00  0.00     0.011 C 
HETATM   11  C9  UNL     1      -4.759   5.502  13.713  1.00  0.00     0.011 C 
HETATM   12  C10 UNL     1      -4.688   6.716  14.649  1.00  0.00    -0.032 C 
HETATM   13  C11 UNL     1      -3.815   6.330  15.881  1.00  0.00     0.016 C 
HETATM   14  C12 UNL     1      -6.055   7.283  15.162  1.00  0.00    -0.002 C 
HETATM   15  C21 UNL     1      -5.700   8.762  15.496  1.00  0.00     0.006 C 
HETATM   16  C22 UNL     1      -4.366   9.092  14.807  1.00  0.00     0.011 C 
HETATM   17  C23 UNL     1      -4.128   7.930  13.825  1.00  0.00    -0.032 C 
HETATM   18  C24 UNL     1      -4.947   8.274  12.539  1.00  0.00     0.016 C 
HETATM   19  C25 UNL     1      -1.170   5.499  13.547  1.00  0.00     0.022 A 
HETATM   20  C26 UNL     1      -1.055   6.027  12.136  1.00  0.00    -0.021 A 
HETATM   21  C30 UNL     1      -0.082   7.203  11.871  1.00  0.00     0.063 C 
ENDROOT
BRANCH  14  22
HETATM   22  C13 UNL     1      -6.810   6.577  16.330  1.00  0.00    -0.014 C 
HETATM   23  C14 UNL     1      -7.116   5.110  16.007  1.00  0.00     0.010 C 
BRANCH  22  24
HETATM   24  C15 UNL     1      -8.127   7.336  16.657  1.00  0.00     0.008 C 
BRANCH  24  25
HETATM   25  C16 UNL     1      -9.327   6.902  15.805  1.00  0.00     0.028 C 
BRANCH  25  26
HETATM   26  C17 UNL     1      -8.881   6.415  14.455  1.00  0.00    -0.017 C 
HETATM   27  C18 UNL     1      -9.550   6.518  13.290  1.00  0.00    -0.028 C 
HETATM   28  C19 UNL     1     -10.913   7.099  13.082  1.00  0.00     0.051 C 
BRANCH  27  29
HETATM   29  C20 UNL     1      -8.895   5.979  12.059  1.00  0.00     0.265 C 
HETATM   30  O3  UNL     1      -8.070   5.073  12.059  1.00  0.00    -0.302 OA
ENDBRANCH  27  29
ENDBRANCH  25  26
ENDBRANCH  24  25
ENDBRANCH  22  24
ENDBRANCH  14  22
BRANCH  20  31
HETATM   31  C27 UNL     1      -1.148   5.028  10.974  1.00  0.00     0.021 C 
BRANCH  31  32
HETATM   32  C28 UNL     1      -1.913   3.749  11.298  1.00  0.00     0.111 C 
BRANCH  32  33
HETATM   33  C29 UNL     1      -1.043   2.529  11.152  1.00  0.00     0.139 C 
HETATM   34  O4  UNL     1       0.168   2.460  11.275  1.00  0.00    -0.650 OA
BRANCH  33  35
HETATM   35  O5  UNL     1      -1.769   1.432  10.856  1.00  0.00    -0.776 OA
HETATM   36  H41 UNL     1      -1.102   0.718  10.781  1.00  0.00     0.167 HD
ENDBRANCH  33  35
ENDBRANCH  32  33
ENDBRANCH  31  32
ENDBRANCH  20  31
TORSDOF 9
ENDMDL
MODEL 6
REMARK minimizedAffinity -7.61667013
REMARK CNNscore 0.284176946
REMARK CNNaffinity 6.2021122
REMARK  9 active torsions:
REMARK  status: ('A' for Active; 'I' for Inactive)
REMARK    1  A    between atoms: C12_14  and  C13_15 
REMARK    2  A    between atoms: C13_15  and  C15_17 
REMARK    3  A    between atoms: C15_17  and  C16_18 
REMARK    4  A    between atoms: C16_18  and  C17_19 
REMARK    5  A    between atoms: C18_20  and  C20_22 
REMARK    6  A    between atoms: C26_29  and  C27_30 
REMARK    7  A    between atoms: C27_30  and  C28_31 
REMARK    8  A    between atoms: C28_31  and  C29_32 
REMARK    9  A    between atoms: C29_32  and  O5_34 
ROOT
HETATM    1  C1  UNL     1       2.700   7.774   8.643  1.00  0.00     0.025 C 
HETATM    2  C2  UNL     1       2.088   7.760   9.834  1.00  0.00     0.015 C 
HETATM    3  C3  UNL     1       0.699   8.251   9.969  1.00  0.00     0.289 C 
HETATM    4  O1  UNL     1       0.090   8.937   9.169  1.00  0.00    -0.260 OA
HETATM    5  O2  UNL     1       0.217   7.799  11.155  1.00  0.00    -0.311 OA
HETATM    6  C4  UNL     1       1.159   6.890  11.744  1.00  0.00     0.142 C 
HETATM    7  C5  UNL     1       1.086   6.989  13.257  1.00  0.00     0.039 C 
HETATM    8  C6  UNL     1       1.441   8.404  13.739  1.00  0.00     0.006 C 
HETATM    9  C7  UNL     1       2.894   8.749  13.341  1.00  0.00    -0.027 A 
HETATM   10  C8  UNL     1       3.853   9.039  14.503  1.00  0.00     0.011 C 
HETATM   11  C9  UNL     1       3.299   9.877  15.672  1.00  0.00     0.011 C 
HETATM   12  C10 UNL     1       1.768   9.996  15.713  1.00  0.00    -0.032 C 
HETATM   13  C11 UNL     1       1.350  11.201  14.816  1.00  0.00     0.016 C 
HETATM   14  C12 UNL     1       1.120  10.176  17.127  1.00  0.00    -0.002 C 
HETATM   15  C21 UNL     1      -0.324   9.634  16.905  1.00  0.00     0.006 C 
HETATM   16  C22 UNL     1      -0.323   8.819  15.601  1.00  0.00     0.011 C 
HETATM   17  C23 UNL     1       1.164   8.621  15.256  1.00  0.00    -0.032 C 
HETATM   18  C24 UNL     1       1.643   7.392  16.095  1.00  0.00     0.016 C 
HETATM   19  C25 UNL     1       3.117   9.586  12.095  1.00  0.00     0.022 A 
HETATM   20  C26 UNL     1       3.439   8.112  12.019  1.00  0.00    -0.021 A 
HETATM   21  C30 UNL     1       2.530   7.206  11.151  1.00  0.00     0.063 C 
ENDROOT
BRANCH  14  22
HETATM   22  C13 UNL     1       1.127  11.571  17.824  1.00  0.00    -0.014 C 
HETATM   23  C14 UNL     1       2.554  12.069  18.088  1.00  0.00     0.010 C 
BRANCH  22  24
HETATM   24  C15 UNL     1       0.329  11.511  19.157  1.00  0.00     0.008 C 
BRANCH  24  25
HETATM   25  C16 UNL     1       1.197  11.662  20.413  1.00  0.00     0.028 C 
BRANCH  25  26
HETATM   26  C17 UNL     1       1.455  10.327  21.054  1.00  0.00    -0.017 C 
HETATM   27  C18 UNL     1       2.545   9.955  21.751  1.00  0.00    -0.028 C 
HETATM   28  C19 UNL     1       3.773  10.770  22.007  1.00  0.00     0.051 C 
BRANCH  27  29
HETATM   29  C20 UNL     1       2.570   8.573  22.323  1.00  0.00     0.265 C 
HETATM   30  O3  UNL     1       1.587   7.848  22.413  1.00  0.00    -0.302 OA
ENDBRANCH  27  29
ENDBRANCH  25  26
ENDBRANCH  24  25
ENDBRANCH  22  24
ENDBRANCH  14  22
BRANCH  20  31
HETATM   31  C27 UNL     1       4.915   7.687  12.017  1.00  0.00     0.021 C 
BRANCH  31  32
HETATM   32  C28 UNL     1       5.212   6.433  11.203  1.00  0.00     0.111 C 
BRANCH  32  33
HETATM   33  C29 UNL     1       6.691   6.172  11.102  1.00  0.00     0.139 C 
HETATM   34  O4  UNL     1       7.600   6.879  11.501  1.00  0.00    -0.650 OA
BRANCH  33  35
HETATM   35  O5  UNL     1       6.949   4.999  10.491  1.00  0.00    -0.776 OA
HETATM   36  H41 UNL     1       7.928   4.946  10.480  1.00  0.00     0.167 HD
ENDBRANCH  33  35
ENDBRANCH  32  33
ENDBRANCH  31  32
ENDBRANCH  20  31
TORSDOF 9
ENDMDL
MODEL 7
REMARK minimizedAffinity -6.63395023
REMARK CNNscore 0.276207864
REMARK CNNaffinity 5.85558176
REMARK  9 active torsions:
REMARK  status: ('A' for Active; 'I' for Inactive)
REMARK    1  A    between atoms: C12_14  and  C13_15 
REMARK    2  A    between atoms: C13_15  and  C15_17 
REMARK    3  A    between atoms: C15_17  and  C16_18 
REMARK    4  A    between atoms: C16_18  and  C17_19 
REMARK    5  A    between atoms: C18_20  and  C20_22 
REMARK    6  A    between atoms: C26_29  and  C27_30 
REMARK    7  A    between atoms: C27_30  and  C28_31 
REMARK    8  A    between atoms: C28_31  and  C29_32 
REMARK    9  A    between atoms: C29_32  and  O5_34 
ROOT
HETATM    1  C1  UNL     1       6.503  12.545  23.011  1.00  0.00     0.025 C 
HETATM    2  C2  UNL     1       5.815  12.731  21.877  1.00  0.00     0.015 C 
HETATM    3  C3  UNL     1       5.629  14.093  21.328  1.00  0.00     0.289 C 
HETATM    4  O1  UNL     1       5.799  15.143  21.918  1.00  0.00    -0.260 OA
HETATM    5  O2  UNL     1       5.230  13.963  20.037  1.00  0.00    -0.311 OA
HETATM    6  C4  UNL     1       5.300  12.584  19.645  1.00  0.00     0.142 C 
HETATM    7  C5  UNL     1       4.213  12.285  18.628  1.00  0.00     0.039 C 
HETATM    8  C6  UNL     1       2.817  12.530  19.220  1.00  0.00     0.006 C 
HETATM    9  C7  UNL     1       2.577  11.583  20.418  1.00  0.00    -0.027 A 
HETATM   10  C8  UNL     1       1.404  10.605  20.271  1.00  0.00     0.011 C 
HETATM   11  C9  UNL     1       0.115  11.153  19.627  1.00  0.00     0.011 C 
HETATM   12  C10 UNL     1       0.284  12.481  18.875  1.00  0.00    -0.032 C 
HETATM   13  C11 UNL     1       0.117  13.645  19.899  1.00  0.00     0.016 C 
HETATM   14  C12 UNL     1      -0.688  12.729  17.672  1.00  0.00    -0.002 C 
HETATM   15  C21 UNL     1       0.112  13.742  16.799  1.00  0.00     0.006 C 
HETATM   16  C22 UNL     1       1.578  13.705  17.262  1.00  0.00     0.011 C 
HETATM   17  C23 UNL     1       1.681  12.457  18.158  1.00  0.00    -0.032 C 
HETATM   18  C24 UNL     1       1.893  11.247  17.192  1.00  0.00     0.016 C 
HETATM   19  C25 UNL     1       2.791  12.128  21.818  1.00  0.00     0.022 A 
HETATM   20  C26 UNL     1       3.829  11.178  21.267  1.00  0.00    -0.021 A 
HETATM   21  C30 UNL     1       5.228  11.744  20.918  1.00  0.00     0.063 C 
ENDROOT
BRANCH  14  22
HETATM   22  C13 UNL     1      -2.153  13.199  17.928  1.00  0.00    -0.014 C 
HETATM   23  C14 UNL     1      -2.906  12.236  18.855  1.00  0.00     0.010 C 
BRANCH  22  24
HETATM   24  C15 UNL     1      -2.915  13.346  16.581  1.00  0.00     0.008 C 
BRANCH  24  25
HETATM   25  C16 UNL     1      -3.721  12.105  16.180  1.00  0.00     0.028 C 
BRANCH  25  26
HETATM   26  C17 UNL     1      -2.853  11.104  15.469  1.00  0.00    -0.017 C 
HETATM   27  C18 UNL     1      -3.242   9.947  14.899  1.00  0.00    -0.028 C 
HETATM   28  C19 UNL     1      -4.622   9.370  14.884  1.00  0.00     0.051 C 
BRANCH  27  29
HETATM   29  C20 UNL     1      -2.199   9.118  14.221  1.00  0.00     0.265 C 
HETATM   30  O3  UNL     1      -2.335   7.932  13.945  1.00  0.00    -0.302 OA
ENDBRANCH  27  29
ENDBRANCH  25  26
ENDBRANCH  24  25
ENDBRANCH  22  24
ENDBRANCH  14  22
BRANCH  20  31
HETATM   31  C27 UNL     1       3.861   9.740  21.805  1.00  0.00     0.021 C 
BRANCH  31  32
HETATM   32  C28 UNL     1       3.376   9.592  23.243  1.00  0.00     0.111 C 
BRANCH  32  33
HETATM   33  C29 UNL     1       2.260   8.589  23.352  1.00  0.00     0.139 C 
HETATM   34  O4  UNL     1       1.746   7.947  22.453  1.00  0.00    -0.650 OA
BRANCH  33  35
HETATM   35  O5  UNL     1       1.845   8.443  24.627  1.00  0.00    -0.776 OA
HETATM   36  H41 UNL     1       1.124   7.780  24.569  1.00  0.00     0.167 HD
ENDBRANCH  33  35
ENDBRANCH  32  33
ENDBRANCH  31  32
ENDBRANCH  20  31
TORSDOF 9
ENDMDL
MODEL 8
REMARK minimizedAffinity -7.01457071
REMARK CNNscore 0.235204265
REMARK CNNaffinity 6.03881216
REMARK  9 active torsions:
REMARK  status: ('A' for Active; 'I' for Inactive)
REMARK    1  A    between atoms: C12_14  and  C13_15 
REMARK    2  A    between atoms: C13_15  and  C15_17 
REMARK    3  A    between atoms: C15_17  and  C16_18 
REMARK    4  A    between atoms: C16_18  and  C17_19 
REMARK    5  A    between atoms: C18_20  and  C20_22 
REMARK    6  A    between atoms: C26_29  and  C27_30 
REMARK    7  A    between atoms: C27_30  and  C28_31 
REMARK    8  A    between atoms: C28_31  and  C29_32 
REMARK    9  A    between atoms: C29_32  and  O5_34 
ROOT
HETATM    1  C1  UNL     1       0.026  13.529  19.569  1.00  0.00     0.025 C 
HETATM    2  C2  UNL     1      -0.604  12.455  19.075  1.00  0.00     0.015 C 
HETATM    3  C3  UNL     1      -0.352  11.112  19.643  1.00  0.00     0.289 C 
HETATM    4  O1  UNL     1       0.579  10.787  20.356  1.00  0.00    -0.260 OA
HETATM    5  O2  UNL     1      -1.352  10.296  19.222  1.00  0.00    -0.311 OA
HETATM    6  C4  UNL     1      -2.350  11.067  18.537  1.00  0.00     0.142 C 
HETATM    7  C5  UNL     1      -2.989  10.224  17.448  1.00  0.00     0.039 C 
HETATM    8  C6  UNL     1      -1.949   9.780  16.408  1.00  0.00     0.006 C 
HETATM    9  C7  UNL     1      -1.338  11.017  15.711  1.00  0.00    -0.027 A 
HETATM   10  C8  UNL     1      -1.556  11.105  14.195  1.00  0.00     0.011 C 
HETATM   11  C9  UNL     1      -1.424   9.794  13.394  1.00  0.00     0.011 C 
HETATM   12  C10 UNL     1      -1.466   8.513  14.240  1.00  0.00    -0.032 C 
HETATM   13  C11 UNL     1      -0.019   8.209  14.735  1.00  0.00     0.016 C 
HETATM   14  C12 UNL     1      -2.035   7.233  13.540  1.00  0.00    -0.002 C 
HETATM   15  C21 UNL     1      -2.523   6.379  14.748  1.00  0.00     0.006 C 
HETATM   16  C22 UNL     1      -2.617   7.308  15.970  1.00  0.00     0.011 C 
HETATM   17  C23 UNL     1      -2.503   8.733  15.398  1.00  0.00    -0.032 C 
HETATM   18  C24 UNL     1      -3.939   9.122  14.917  1.00  0.00     0.016 C 
HETATM   19  C25 UNL     1       0.007  11.524  16.199  1.00  0.00     0.022 A 
HETATM   20  C26 UNL     1      -1.222  12.327  16.560  1.00  0.00    -0.021 A 
HETATM   21  C30 UNL     1      -1.678  12.345  18.041  1.00  0.00     0.063 C 
ENDROOT
BRANCH  14  22
HETATM   22  C13 UNL     1      -1.143   6.412  12.558  1.00  0.00    -0.014 C 
HETATM   23  C14 UNL     1      -0.517   5.191  13.243  1.00  0.00     0.010 C 
BRANCH  22  24
HETATM   24  C15 UNL     1      -0.028   7.315  11.959  1.00  0.00     0.008 C 
BRANCH  24  25
HETATM   25  C16 UNL     1       0.125   7.194  10.437  1.00  0.00     0.028 C 
BRANCH  25  26
HETATM   26  C17 UNL     1       1.211   6.217  10.081  1.00  0.00    -0.017 C 
HETATM   27  C18 UNL     1       2.425   6.499   9.571  1.00  0.00    -0.028 C 
HETATM   28  C19 UNL     1       2.955   7.847   9.198  1.00  0.00     0.051 C 
BRANCH  27  29
HETATM   29  C20 UNL     1       3.358   5.358   9.317  1.00  0.00     0.265 C 
HETATM   30  O3  UNL     1       3.477   4.795   8.236  1.00  0.00    -0.302 OA
ENDBRANCH  27  29
ENDBRANCH  25  26
ENDBRANCH  24  25
ENDBRANCH  22  24
ENDBRANCH  14  22
BRANCH  20  31
HETATM   31  C27 UNL     1      -1.471  13.651  15.822  1.00  0.00     0.021 C 
BRANCH  31  32
HETATM   32  C28 UNL     1      -1.615  13.515  14.310  1.00  0.00     0.111 C 
BRANCH  32  33
HETATM   33  C29 UNL     1      -1.078  14.722  13.589  1.00  0.00     0.139 C 
HETATM   34  O4  UNL     1      -0.088  15.376  13.869  1.00  0.00    -0.650 OA
BRANCH  33  35
HETATM   35  O5  UNL     1      -1.837  15.044  12.523  1.00  0.00    -0.776 OA
HETATM   36  H41 UNL     1      -1.396  15.835  12.146  1.00  0.00     0.167 HD
ENDBRANCH  33  35
ENDBRANCH  32  33
ENDBRANCH  31  32
ENDBRANCH  20  31
TORSDOF 9
ENDMDL
MODEL 9
REMARK minimizedAffinity -8.74185085
REMARK CNNscore 0.212227702
REMARK CNNaffinity 6.67334938
REMARK  9 active torsions:
REMARK  status: ('A' for Active; 'I' for Inactive)
REMARK    1  A    between atoms: C12_14  and  C13_15 
REMARK    2  A    between atoms: C13_15  and  C15_17 
REMARK    3  A    between atoms: C15_17  and  C16_18 
REMARK    4  A    between atoms: C16_18  and  C17_19 
REMARK    5  A    between atoms: C18_20  and  C20_22 
REMARK    6  A    between atoms: C26_29  and  C27_30 
REMARK    7  A    between atoms: C27_30  and  C28_31 
REMARK    8  A    between atoms: C28_31  and  C29_32 
REMARK    9  A    between atoms: C29_32  and  O5_34 
ROOT
HETATM    1  C1  UNL     1       4.334   7.800   9.889  1.00  0.00     0.025 C 
HETATM    2  C2  UNL     1       3.212   7.198  10.305  1.00  0.00     0.015 C 
HETATM    3  C3  UNL     1       2.182   6.778   9.330  1.00  0.00     0.289 C 
HETATM    4  O1  UNL     1       2.082   7.146   8.174  1.00  0.00    -0.260 OA
HETATM    5  O2  UNL     1       1.357   5.901   9.958  1.00  0.00    -0.311 OA
HETATM    6  C4  UNL     1       1.883   5.587  11.255  1.00  0.00     0.142 C 
HETATM    7  C5  UNL     1       0.740   5.315  12.218  1.00  0.00     0.039 C 
HETATM    8  C6  UNL     1      -0.164   6.547  12.368  1.00  0.00     0.006 C 
HETATM    9  C7  UNL     1       0.642   7.726  12.959  1.00  0.00    -0.027 A 
HETATM   10  C8  UNL     1       0.149   8.263  14.309  1.00  0.00     0.011 C 
HETATM   11  C9  UNL     1      -1.377   8.380  14.497  1.00  0.00     0.011 C 
HETATM   12  C10 UNL     1      -2.216   7.601  13.473  1.00  0.00    -0.032 C 
HETATM   13  C11 UNL     1      -2.427   8.510  12.225  1.00  0.00     0.016 C 
HETATM   14  C12 UNL     1      -3.612   7.089  13.962  1.00  0.00    -0.002 C 
HETATM   15  C21 UNL     1      -3.879   5.885  13.009  1.00  0.00     0.006 C 
HETATM   16  C22 UNL     1      -2.543   5.501  12.353  1.00  0.00     0.011 C 
HETATM   17  C23 UNL     1      -1.471   6.254  13.163  1.00  0.00    -0.032 C 
HETATM   18  C24 UNL     1      -1.177   5.371  14.419  1.00  0.00     0.016 C 
HETATM   19  C25 UNL     1       1.181   8.777  12.005  1.00  0.00     0.022 A 
HETATM   20  C26 UNL     1       2.164   7.796  12.600  1.00  0.00    -0.021 A 
HETATM   21  C30 UNL     1       2.800   6.736  11.666  1.00  0.00     0.063 C 
ENDROOT
BRANCH  14  22
HETATM   22  C13 UNL     1      -4.827   8.065  14.034  1.00  0.00    -0.014 C 
HETATM   23  C14 UNL     1      -5.004   8.649  15.441  1.00  0.00     0.010 C 
BRANCH  22  24
HETATM   24  C15 UNL     1      -6.129   7.339  13.592  1.00  0.00     0.008 C 
BRANCH  24  25
HETATM   25  C16 UNL     1      -6.829   6.568  14.718  1.00  0.00     0.028 C 
BRANCH  25  26
HETATM   26  C17 UNL     1      -7.044   5.130  14.335  1.00  0.00    -0.017 C 
HETATM   27  C18 UNL     1      -7.765   4.662  13.299  1.00  0.00    -0.028 C 
HETATM   28  C19 UNL     1      -8.557   5.465  12.317  1.00  0.00     0.051 C 
BRANCH  27  29
HETATM   29  C20 UNL     1      -7.818   3.181  13.097  1.00  0.00     0.265 C 
HETATM   30  O3  UNL     1      -6.940   2.531  12.542  1.00  0.00    -0.302 OA
ENDBRANCH  27  29
ENDBRANCH  25  26
ENDBRANCH  24  25
ENDBRANCH  22  24
ENDBRANCH  14  22
BRANCH  20  31
HETATM   31  C27 UNL     1       3.110   8.292  13.705  1.00  0.00     0.021 C 
BRANCH  31  32
HETATM   32  C28 UNL     1       4.586   8.009  13.448  1.00  0.00     0.111 C 
BRANCH  32  33
HETATM   33  C29 UNL     1       5.325   7.714  14.725  1.00  0.00     0.139 C 
HETATM   34  O4  UNL     1       5.310   8.358  15.760  1.00  0.00    -0.650 OA
BRANCH  33  35
HETATM   35  O5  UNL     1       6.060   6.588  14.627  1.00  0.00    -0.776 OA
HETATM   36  H41 UNL     1       6.491   6.506  15.504  1.00  0.00     0.167 HD
ENDBRANCH  33  35
ENDBRANCH  32  33
ENDBRANCH  31  32
ENDBRANCH  20  31
TORSDOF 9
ENDMDL
