MODEL 1
REMARK minimizedAffinity -6.33153296
REMARK CNNscore 0.343978673
REMARK CNNaffinity 6.47227859
REMARK  9 active torsions:
REMARK  status: ('A' for Active; 'I' for Inactive)
REMARK    1  A    between atoms: C2_2  and  O1_3 
REMARK    2  A    between atoms: O1_3  and  C3_4 
REMARK    3  A    between atoms: C14_15  and  O2_16 
REMARK    4  A    between atoms: O2_16  and  C15_17 
REMARK    5  A    between atoms: C21_24  and  O4_25 
REMARK    6  A    between atoms: O4_25  and  C22_26 
REMARK    7  A    between atoms: C24_29  and  O6_30 
REMARK    8  A    between atoms: C25_31  and  O7_32 
REMARK    9  A    between atoms: C26_33  and  O8_34 
ROOT
HETATM    1  C3  UNL     1      -5.295  19.038   8.069  1.00  0.00     0.260 C 
HETATM    2  C4  UNL     1      -4.350  18.900   9.275  1.00  0.00     0.065 C 
HETATM    3  C5  UNL     1      -2.881  18.861   8.837  1.00  0.00    -0.007 C 
HETATM    4  C6  UNL     1      -1.954  18.819  10.050  1.00  0.00     0.010 C 
HETATM    5  C7  UNL     1      -2.701  17.631   7.918  1.00  0.00     0.027 C 
HETATM    6  C8  UNL     1      -3.921  17.456   6.958  1.00  0.00     0.130 C 
HETATM    7  C9  UNL     1      -3.345  17.055   5.578  1.00  0.00     0.042 C 
HETATM    8  C10 UNL     1      -1.948  16.500   5.908  1.00  0.00    -0.029 C 
HETATM    9  C11 UNL     1      -2.191  15.069   6.518  1.00  0.00     0.016 C 
HETATM   10  C12 UNL     1      -0.912  16.295   4.752  1.00  0.00     0.006 C 
HETATM   11  C13 UNL     1      -1.254  16.887   3.383  1.00  0.00     0.039 C 
HETATM   12  C14 UNL     1      -0.396  16.193   2.306  1.00  0.00     0.138 C 
HETATM   13  C17 UNL     1       1.156  16.231   2.561  1.00  0.00     0.035 C 
HETATM   14  C18 UNL     1       2.001  15.124   1.816  1.00  0.00    -0.015 C 
HETATM   15  C19 UNL     1       1.703  13.694   2.347  1.00  0.00     0.018 C 
HETATM   16  C20 UNL     1       1.659  15.124   0.302  1.00  0.00     0.018 C 
HETATM   17  C21 UNL     1       3.540  15.424   1.982  1.00  0.00     0.133 C 
HETATM   18  C27 UNL     1       3.927  16.029   3.338  1.00  0.00     0.034 C 
HETATM   19  C28 UNL     1       2.909  15.772   4.429  1.00  0.00     0.013 C 
HETATM   20  C29 UNL     1       1.574  16.390   4.062  1.00  0.00    -0.025 A 
HETATM   21  C30 UNL     1       1.335  17.786   4.586  1.00  0.00     0.021 A 
HETATM   22  C31 UNL     1       0.525  16.643   5.169  1.00  0.00    -0.027 A 
HETATM   23  C32 UNL     1       0.815  16.347   6.637  1.00  0.00     0.011 C 
HETATM   24  C33 UNL     1      -0.150  17.062   7.612  1.00  0.00     0.011 C 
HETATM   25  C34 UNL     1      -1.463  17.554   6.965  1.00  0.00    -0.030 C 
HETATM   26  C35 UNL     1      -1.231  18.973   6.368  1.00  0.00     0.016 C 
HETATM   27  O9  UNL     1      -4.675  18.654   6.841  1.00  0.00    -0.356 OA
ENDROOT
BRANCH  17  28
HETATM   28  O4  UNL     1       3.970  16.324   0.941  1.00  0.00    -0.353 OA
BRANCH  28  29
HETATM   29  C22 UNL     1       5.011  15.820   0.095  1.00  0.00     0.291 C 
HETATM   30  O5  UNL     1       4.851  16.395  -1.215  1.00  0.00    -0.356 OA
HETATM   31  C23 UNL     1       3.864  15.720  -1.995  1.00  0.00     0.205 C 
HETATM   32  C24 UNL     1       4.332  14.301  -2.354  1.00  0.00     0.173 C 
HETATM   33  C25 UNL     1       5.373  13.800  -1.350  1.00  0.00     0.182 C 
HETATM   34  C26 UNL     1       5.015  14.269   0.056  1.00  0.00     0.204 C 
BRANCH  32  35
HETATM   35  O6  UNL     1       4.943  14.245  -3.655  1.00  0.00    -0.391 OA
HETATM   36  H39 UNL     1       4.336  14.666  -4.290  1.00  0.00     0.210 HD
ENDBRANCH  32  35
BRANCH  33  37
HETATM   37  O7  UNL     1       5.435  12.364  -1.372  1.00  0.00    -0.390 OA
HETATM   38  H41 UNL     1       5.719  12.132  -2.280  1.00  0.00     0.210 HD
ENDBRANCH  33  37
BRANCH  34  39
HETATM   39  O8  UNL     1       5.953  13.716   0.995  1.00  0.00    -0.388 OA
HETATM   40  H43 UNL     1       6.073  12.788   0.706  1.00  0.00     0.210 HD
ENDBRANCH  34  39
ENDBRANCH  28  29
ENDBRANCH  17  28
BRANCH  12  41
HETATM   41  O2  UNL     1      -0.866  14.830   2.199  1.00  0.00    -0.316 OA
BRANCH  41  42
HETATM   42  C15 UNL     1      -2.078  14.640   1.607  1.00  0.00     0.255 C 
HETATM   43  C16 UNL     1      -2.936  13.767   2.470  1.00  0.00     0.126 C 
HETATM   44  O3  UNL     1      -2.423  15.089   0.524  1.00  0.00    -0.266 OA
ENDBRANCH  41  42
ENDBRANCH  12  41
BRANCH   1  45
HETATM   45  O1  UNL     1      -6.468  18.269   8.333  1.00  0.00    -0.362 OA
BRANCH  45  46
HETATM   46  C2  UNL     1      -7.629  19.064   8.562  1.00  0.00     0.166 C 
HETATM   47  C1  UNL     1      -8.779  18.215   9.075  1.00  0.00     0.033 C 
ENDBRANCH  45  46
ENDBRANCH   1  45
TORSDOF 9
ENDMDL
MODEL 2
REMARK minimizedAffinity -6.09315491
REMARK CNNscore 0.271265388
REMARK CNNaffinity 5.83098841
REMARK  9 active torsions:
REMARK  status: ('A' for Active; 'I' for Inactive)
REMARK    1  A    between atoms: C2_2  and  O1_3 
REMARK    2  A    between atoms: O1_3  and  C3_4 
REMARK    3  A    between atoms: C14_15  and  O2_16 
REMARK    4  A    between atoms: O2_16  and  C15_17 
REMARK    5  A    between atoms: C21_24  and  O4_25 
REMARK    6  A    between atoms: O4_25  and  C22_26 
REMARK    7  A    between atoms: C24_29  and  O6_30 
REMARK    8  A    between atoms: C25_31  and  O7_32 
REMARK    9  A    between atoms: C26_33  and  O8_34 
ROOT
HETATM    1  C3  UNL     1     -13.428  11.699  12.782  1.00  0.00     0.260 C 
HETATM    2  C4  UNL     1     -12.869  11.628  14.213  1.00  0.00     0.065 C 
HETATM    3  C5  UNL     1     -12.915  10.196  14.763  1.00  0.00    -0.007 C 
HETATM    4  C6  UNL     1     -12.270  10.126  16.145  1.00  0.00     0.010 C 
HETATM    5  C7  UNL     1     -14.394   9.751  14.781  1.00  0.00     0.027 C 
HETATM    6  C8  UNL     1     -15.151  10.238  13.505  1.00  0.00     0.130 C 
HETATM    7  C9  UNL     1     -16.065   9.071  13.059  1.00  0.00     0.042 C 
HETATM    8  C10 UNL     1     -16.218   8.215  14.330  1.00  0.00    -0.029 C 
HETATM    9  C11 UNL     1     -17.222   8.999  15.254  1.00  0.00     0.016 C 
HETATM   10  C12 UNL     1     -16.797   6.765  14.212  1.00  0.00     0.006 C 
HETATM   11  C13 UNL     1     -16.955   6.179  12.808  1.00  0.00     0.039 C 
HETATM   12  C14 UNL     1     -17.949   5.002  12.863  1.00  0.00     0.138 C 
HETATM   13  C17 UNL     1     -17.596   3.877  13.904  1.00  0.00     0.035 C 
HETATM   14  C18 UNL     1     -18.802   2.966  14.366  1.00  0.00    -0.015 C 
HETATM   15  C19 UNL     1     -19.849   3.752  15.204  1.00  0.00     0.018 C 
HETATM   16  C20 UNL     1     -19.546   2.401  13.127  1.00  0.00     0.018 C 
HETATM   17  C21 UNL     1     -18.260   1.757  15.220  1.00  0.00     0.133 C 
HETATM   18  C27 UNL     1     -17.053   2.092  16.105  1.00  0.00     0.034 C 
HETATM   19  C28 UNL     1     -16.907   3.571  16.395  1.00  0.00     0.013 C 
HETATM   20  C29 UNL     1     -16.709   4.345  15.105  1.00  0.00    -0.025 A 
HETATM   21  C30 UNL     1     -15.273   4.590  14.706  1.00  0.00     0.021 A 
HETATM   22  C31 UNL     1     -16.111   5.770  15.161  1.00  0.00    -0.027 A 
HETATM   23  C32 UNL     1     -15.655   6.403  16.471  1.00  0.00     0.011 C 
HETATM   24  C33 UNL     1     -14.702   7.606  16.275  1.00  0.00     0.011 C 
HETATM   25  C34 UNL     1     -14.742   8.228  14.862  1.00  0.00    -0.030 C 
HETATM   26  C35 UNL     1     -13.742   7.462  13.946  1.00  0.00     0.016 C 
HETATM   27  O9  UNL     1     -14.252  10.578  12.458  1.00  0.00    -0.356 OA
ENDROOT
BRANCH  17  28
HETATM   28  O4  UNL     1     -17.897   0.673  14.343  1.00  0.00    -0.353 OA
BRANCH  28  29
HETATM   29  C22 UNL     1     -16.538   0.230  14.456  1.00  0.00     0.291 C 
HETATM   30  O5  UNL     1     -15.821   0.661  13.285  1.00  0.00    -0.356 OA
HETATM   31  C23 UNL     1     -16.028  -0.198  12.165  1.00  0.00     0.205 C 
HETATM   32  C24 UNL     1     -15.387  -1.574  12.409  1.00  0.00     0.173 C 
HETATM   33  C25 UNL     1     -15.244  -1.849  13.908  1.00  0.00     0.182 C 
HETATM   34  C26 UNL     1     -16.453  -1.306  14.661  1.00  0.00     0.204 C 
BRANCH  32  35
HETATM   35  O6  UNL     1     -14.072  -1.668  11.837  1.00  0.00    -0.391 OA
HETATM   36  H39 UNL     1     -14.128  -1.385  10.907  1.00  0.00     0.210 HD
ENDBRANCH  32  35
BRANCH  33  37
HETATM   37  O7  UNL     1     -15.130  -3.262  14.146  1.00  0.00    -0.390 OA
HETATM   38  H41 UNL     1     -14.311  -3.536  13.684  1.00  0.00     0.210 HD
ENDBRANCH  33  37
BRANCH  34  39
HETATM   39  O8  UNL     1     -16.341  -1.650  16.052  1.00  0.00    -0.388 OA
HETATM   40  H43 UNL     1     -16.027  -2.578  16.052  1.00  0.00     0.210 HD
ENDBRANCH  34  39
ENDBRANCH  28  29
ENDBRANCH  17  28
BRANCH  12  41
HETATM   41  O2  UNL     1     -19.256   5.560  13.133  1.00  0.00    -0.316 OA
BRANCH  41  42
HETATM   42  C15 UNL     1     -19.917   6.119  12.082  1.00  0.00     0.255 C 
HETATM   43  C16 UNL     1     -21.249   5.455  11.907  1.00  0.00     0.126 C 
HETATM   44  O3  UNL     1     -19.495   7.014  11.366  1.00  0.00    -0.266 OA
ENDBRANCH  41  42
ENDBRANCH  12  41
BRANCH   1  45
HETATM   45  O1  UNL     1     -14.134  12.933  12.642  1.00  0.00    -0.362 OA
BRANCH  45  46
HETATM   46  C2  UNL     1     -13.697  13.715  11.533  1.00  0.00     0.166 C 
HETATM   47  C1  UNL     1     -12.825  14.871  11.991  1.00  0.00     0.033 C 
ENDBRANCH  45  46
ENDBRANCH   1  45
TORSDOF 9
ENDMDL
MODEL 3
REMARK minimizedAffinity -8.39655685
REMARK CNNscore 0.239939407
REMARK CNNaffinity 6.5106101
REMARK  9 active torsions:
REMARK  status: ('A' for Active; 'I' for Inactive)
REMARK    1  A    between atoms: C2_2  and  O1_3 
REMARK    2  A    between atoms: O1_3  and  C3_4 
REMARK    3  A    between atoms: C14_15  and  O2_16 
REMARK    4  A    between atoms: O2_16  and  C15_17 
REMARK    5  A    between atoms: C21_24  and  O4_25 
REMARK    6  A    between atoms: O4_25  and  C22_26 
REMARK    7  A    between atoms: C24_29  and  O6_30 
REMARK    8  A    between atoms: C25_31  and  O7_32 
REMARK    9  A    between atoms: C26_33  and  O8_34 
ROOT
HETATM    1  C3  UNL     1      -6.471   4.512  12.535  1.00  0.00     0.260 C 
HETATM    2  C4  UNL     1      -6.840   4.969  13.957  1.00  0.00     0.065 C 
HETATM    3  C5  UNL     1      -6.015   6.189  14.387  1.00  0.00    -0.007 C 
HETATM    4  C6  UNL     1      -6.459   6.686  15.760  1.00  0.00     0.010 C 
HETATM    5  C7  UNL     1      -4.526   5.776  14.364  1.00  0.00     0.027 C 
HETATM    6  C8  UNL     1      -4.204   4.875  13.131  1.00  0.00     0.130 C 
HETATM    7  C9  UNL     1      -2.831   5.340  12.587  1.00  0.00     0.042 C 
HETATM    8  C10 UNL     1      -2.189   6.067  13.783  1.00  0.00    -0.029 C 
HETATM    9  C11 UNL     1      -1.713   4.933  14.766  1.00  0.00     0.016 C 
HETATM   10  C12 UNL     1      -0.934   6.973  13.544  1.00  0.00     0.006 C 
HETATM   11  C13 UNL     1      -0.553   7.286  12.095  1.00  0.00     0.039 C 
HETATM   12  C14 UNL     1       0.916   7.752  12.051  1.00  0.00     0.138 C 
HETATM   13  C17 UNL     1       1.263   8.960  12.996  1.00  0.00     0.035 C 
HETATM   14  C18 UNL     1       2.788   9.116  13.378  1.00  0.00    -0.015 C 
HETATM   15  C19 UNL     1       3.295   7.953  14.275  1.00  0.00     0.018 C 
HETATM   16  C20 UNL     1       3.661   9.111  12.094  1.00  0.00     0.018 C 
HETATM   17  C21 UNL     1       3.013  10.483  14.131  1.00  0.00     0.133 C 
HETATM   18  C27 UNL     1       1.855  10.905  15.043  1.00  0.00     0.034 C 
HETATM   19  C28 UNL     1       0.958   9.756  15.455  1.00  0.00     0.013 C 
HETATM   20  C29 UNL     1       0.319   9.121  14.234  1.00  0.00    -0.025 A 
HETATM   21  C30 UNL     1      -1.043   9.653  13.860  1.00  0.00     0.021 A 
HETATM   22  C31 UNL     1      -0.940   8.242  14.409  1.00  0.00    -0.027 A 
HETATM   23  C32 UNL     1      -1.602   8.042  15.768  1.00  0.00     0.011 C 
HETATM   24  C33 UNL     1      -3.056   7.522  15.675  1.00  0.00     0.011 C 
HETATM   25  C34 UNL     1      -3.419   6.880  14.318  1.00  0.00    -0.030 C 
HETATM   26  C35 UNL     1      -3.900   7.996  13.344  1.00  0.00     0.016 C 
HETATM   27  O9  UNL     1      -5.194   4.995  12.118  1.00  0.00    -0.356 OA
ENDROOT
BRANCH  17  28
HETATM   28  O4  UNL     1       3.241  11.531  13.168  1.00  0.00    -0.353 OA
BRANCH  28  29
HETATM   29  C22 UNL     1       4.379  12.361  13.432  1.00  0.00     0.291 C 
HETATM   30  O5  UNL     1       3.994  13.372  14.382  1.00  0.00    -0.356 OA
HETATM   31  C23 UNL     1       3.311  14.468  13.774  1.00  0.00     0.205 C 
HETATM   32  C24 UNL     1       4.264  15.266  12.869  1.00  0.00     0.173 C 
HETATM   33  C25 UNL     1       5.434  14.394  12.407  1.00  0.00     0.182 C 
HETATM   34  C26 UNL     1       4.954  12.974  12.129  1.00  0.00     0.204 C 
BRANCH  32  35
HETATM   35  O6  UNL     1       4.828  16.403  13.545  1.00  0.00    -0.391 OA
HETATM   36  H39 UNL     1       4.096  16.908  13.944  1.00  0.00     0.210 HD
ENDBRANCH  32  35
BRANCH  33  37
HETATM   37  O7  UNL     1       6.022  14.942  11.215  1.00  0.00    -0.390 OA
HETATM   38  H41 UNL     1       6.355  15.825  11.473  1.00  0.00     0.210 HD
ENDBRANCH  33  37
BRANCH  34  39
HETATM   39  O8  UNL     1       6.048  12.196  11.614  1.00  0.00    -0.388 OA
HETATM   40  H43 UNL     1       6.497  12.791  10.978  1.00  0.00     0.210 HD
ENDBRANCH  34  39
ENDBRANCH  28  29
ENDBRANCH  17  28
BRANCH  12  41
HETATM   41  O2  UNL     1       1.736   6.603  12.362  1.00  0.00    -0.316 OA
BRANCH  41  42
HETATM   42  C15 UNL     1       1.890   5.670  11.382  1.00  0.00     0.255 C 
HETATM   43  C16 UNL     1       2.905   6.140  10.385  1.00  0.00     0.126 C 
HETATM   44  O3  UNL     1       1.284   4.612  11.300  1.00  0.00    -0.266 OA
ENDBRANCH  41  42
ENDBRANCH  12  41
BRANCH   1  45
HETATM   45  O1  UNL     1      -6.537   3.086  12.496  1.00  0.00    -0.362 OA
BRANCH  45  46
HETATM   46  C2  UNL     1      -5.633   2.501  11.562  1.00  0.00     0.166 C 
HETATM   47  C1  UNL     1      -6.100   1.117  11.145  1.00  0.00     0.033 C 
ENDBRANCH  45  46
ENDBRANCH   1  45
TORSDOF 9
ENDMDL
MODEL 4
REMARK minimizedAffinity -8.95715332
REMARK CNNscore 0.216533974
REMARK CNNaffinity 6.37156725
REMARK  9 active torsions:
REMARK  status: ('A' for Active; 'I' for Inactive)
REMARK    1  A    between atoms: C2_2  and  O1_3 
REMARK    2  A    between atoms: O1_3  and  C3_4 
REMARK    3  A    between atoms: C14_15  and  O2_16 
REMARK    4  A    between atoms: O2_16  and  C15_17 
REMARK    5  A    between atoms: C21_24  and  O4_25 
REMARK    6  A    between atoms: O4_25  and  C22_26 
REMARK    7  A    between atoms: C24_29  and  O6_30 
REMARK    8  A    between atoms: C25_31  and  O7_32 
REMARK    9  A    between atoms: C26_33  and  O8_34 
ROOT
HETATM    1  C3  UNL     1      10.145   9.114  13.998  1.00  0.00     0.260 C 
HETATM    2  C4  UNL     1       9.667  10.012  15.151  1.00  0.00     0.065 C 
HETATM    3  C5  UNL     1       8.236   9.662  15.580  1.00  0.00    -0.007 C 
HETATM    4  C6  UNL     1       7.812  10.498  16.785  1.00  0.00     0.010 C 
HETATM    5  C7  UNL     1       7.315   9.883  14.359  1.00  0.00     0.027 C 
HETATM    6  C8  UNL     1       7.993   9.394  13.040  1.00  0.00     0.130 C 
HETATM    7  C9  UNL     1       6.894   8.684  12.213  1.00  0.00     0.042 C 
HETATM    8  C10 UNL     1       5.580   9.243  12.788  1.00  0.00    -0.029 C 
HETATM    9  C11 UNL     1       5.446  10.700  12.208  1.00  0.00     0.016 C 
HETATM   10  C12 UNL     1       4.229   8.528  12.449  1.00  0.00     0.006 C 
HETATM   11  C13 UNL     1       4.305   7.163  11.760  1.00  0.00     0.039 C 
HETATM   12  C14 UNL     1       2.948   6.861  11.093  1.00  0.00     0.138 C 
HETATM   13  C17 UNL     1       1.702   6.938  12.049  1.00  0.00     0.035 C 
HETATM   14  C18 UNL     1       0.307   7.162  11.341  1.00  0.00    -0.015 C 
HETATM   15  C19 UNL     1       0.196   8.566  10.683  1.00  0.00     0.018 C 
HETATM   16  C20 UNL     1       0.111   6.117  10.210  1.00  0.00     0.018 C 
HETATM   17  C21 UNL     1      -0.858   6.991  12.389  1.00  0.00     0.133 C 
HETATM   18  C27 UNL     1      -0.524   7.493  13.799  1.00  0.00     0.034 C 
HETATM   19  C28 UNL     1       0.615   8.490  13.834  1.00  0.00     0.013 C 
HETATM   20  C29 UNL     1       1.888   7.857  13.302  1.00  0.00    -0.025 A 
HETATM   21  C30 UNL     1       2.794   7.243  14.342  1.00  0.00     0.021 A 
HETATM   22  C31 UNL     1       3.252   8.504  13.633  1.00  0.00    -0.027 A 
HETATM   23  C32 UNL     1       3.366   9.730  14.533  1.00  0.00     0.011 C 
HETATM   24  C33 UNL     1       4.790   9.951  15.096  1.00  0.00     0.011 C 
HETATM   25  C34 UNL     1       5.904   9.211  14.323  1.00  0.00    -0.030 C 
HETATM   26  C35 UNL     1       6.047   7.772  14.900  1.00  0.00     0.016 C 
HETATM   27  O9  UNL     1       9.063   8.496  13.299  1.00  0.00    -0.356 OA
ENDROOT
BRANCH  17  28
HETATM   28  O4  UNL     1      -1.228   5.601  12.475  1.00  0.00    -0.353 OA
BRANCH  28  29
HETATM   29  C22 UNL     1      -2.275   5.307  13.409  1.00  0.00     0.291 C 
HETATM   30  O5  UNL     1      -3.529   5.709  12.827  1.00  0.00    -0.356 OA
HETATM   31  C23 UNL     1      -3.775   7.108  12.962  1.00  0.00     0.205 C 
HETATM   32  C24 UNL     1      -4.004   7.481  14.435  1.00  0.00     0.173 C 
HETATM   33  C25 UNL     1      -3.351   6.453  15.364  1.00  0.00     0.182 C 
HETATM   34  C26 UNL     1      -2.023   5.986  14.781  1.00  0.00     0.204 C 
BRANCH  32  35
HETATM   35  O6  UNL     1      -5.401   7.524  14.772  1.00  0.00    -0.391 OA
HETATM   36  H39 UNL     1      -5.850   8.087  14.117  1.00  0.00     0.210 HD
ENDBRANCH  32  35
BRANCH  33  37
HETATM   37  O7  UNL     1      -3.126   7.029  16.662  1.00  0.00    -0.390 OA
HETATM   38  H41 UNL     1      -4.016   7.257  17.001  1.00  0.00     0.210 HD
ENDBRANCH  33  37
BRANCH  34  39
HETATM   39  O8  UNL     1      -1.386   5.090  15.707  1.00  0.00    -0.388 OA
HETATM   40  H43 UNL     1      -1.520   5.505  16.584  1.00  0.00     0.210 HD
ENDBRANCH  34  39
ENDBRANCH  28  29
ENDBRANCH  17  28
BRANCH  12  41
HETATM   41  O2  UNL     1       2.805   7.778   9.985  1.00  0.00    -0.316 OA
BRANCH  41  42
HETATM   42  C15 UNL     1       2.947   7.261   8.733  1.00  0.00     0.255 C 
HETATM   43  C16 UNL     1       2.630   8.308   7.710  1.00  0.00     0.126 C 
HETATM   44  O3  UNL     1       3.264   6.111   8.466  1.00  0.00    -0.266 OA
ENDBRANCH  41  42
ENDBRANCH  12  41
BRANCH   1  45
HETATM   45  O1  UNL     1      10.956   9.903  13.127  1.00  0.00    -0.362 OA
BRANCH  45  46
HETATM   46  C2  UNL     1      11.409  11.118  13.719  1.00  0.00     0.166 C 
HETATM   47  C1  UNL     1      12.857  11.396  13.351  1.00  0.00     0.033 C 
ENDBRANCH  45  46
ENDBRANCH   1  45
TORSDOF 9
ENDMDL
MODEL 5
REMARK minimizedAffinity -6.75152922
REMARK CNNscore 0.211326927
REMARK CNNaffinity 5.77734709
REMARK  9 active torsions:
REMARK  status: ('A' for Active; 'I' for Inactive)
REMARK    1  A    between atoms: C2_2  and  O1_3 
REMARK    2  A    between atoms: O1_3  and  C3_4 
REMARK    3  A    between atoms: C14_15  and  O2_16 
REMARK    4  A    between atoms: O2_16  and  C15_17 
REMARK    5  A    between atoms: C21_24  and  O4_25 
REMARK    6  A    between atoms: O4_25  and  C22_26 
REMARK    7  A    between atoms: C24_29  and  O6_30 
REMARK    8  A    between atoms: C25_31  and  O7_32 
REMARK    9  A    between atoms: C26_33  and  O8_34 
ROOT
HETATM    1  C3  UNL     1      -7.157  -8.328  11.277  1.00  0.00     0.260 C 
HETATM    2  C4  UNL     1      -6.029  -9.354  11.073  1.00  0.00     0.065 C 
HETATM    3  C5  UNL     1      -5.682  -9.520   9.588  1.00  0.00    -0.007 C 
HETATM    4  C6  UNL     1      -4.499 -10.469   9.410  1.00  0.00     0.010 C 
HETATM    5  C7  UNL     1      -6.952 -10.022   8.865  1.00  0.00     0.027 C 
HETATM    6  C8  UNL     1      -8.233  -9.310   9.405  1.00  0.00     0.130 C 
HETATM    7  C9  UNL     1      -9.122  -9.004   8.175  1.00  0.00     0.042 C 
HETATM    8  C10 UNL     1      -8.619  -9.986   7.102  1.00  0.00    -0.029 C 
HETATM    9  C11 UNL     1      -9.201 -11.393   7.504  1.00  0.00     0.016 C 
HETATM   10  C12 UNL     1      -9.036  -9.769   5.608  1.00  0.00     0.006 C 
HETATM   11  C13 UNL     1      -9.724  -8.450   5.251  1.00  0.00     0.039 C 
HETATM   12  C14 UNL     1     -10.466  -8.617   3.910  1.00  0.00     0.138 C 
HETATM   13  C17 UNL     1      -9.581  -9.130   2.715  1.00  0.00     0.035 C 
HETATM   14  C18 UNL     1     -10.365  -9.805   1.521  1.00  0.00    -0.015 C 
HETATM   15  C19 UNL     1     -11.023 -11.152   1.931  1.00  0.00     0.018 C 
HETATM   16  C20 UNL     1     -11.509  -8.871   1.041  1.00  0.00     0.018 C 
HETATM   17  C21 UNL     1      -9.384 -10.057   0.313  1.00  0.00     0.133 C 
HETATM   18  C27 UNL     1      -7.956 -10.437   0.722  1.00  0.00     0.034 C 
HETATM   19  C28 UNL     1      -7.854 -10.987   2.130  1.00  0.00     0.013 C 
HETATM   20  C29 UNL     1      -8.316  -9.950   3.136  1.00  0.00    -0.025 A 
HETATM   21  C30 UNL     1      -7.230  -9.081   3.722  1.00  0.00     0.021 A 
HETATM   22  C31 UNL     1      -7.907 -10.099   4.620  1.00  0.00    -0.027 A 
HETATM   23  C32 UNL     1      -6.998 -11.226   5.097  1.00  0.00     0.011 C 
HETATM   24  C33 UNL     1      -6.357 -10.958   6.478  1.00  0.00     0.011 C 
HETATM   25  C34 UNL     1      -7.068  -9.870   7.312  1.00  0.00    -0.030 C 
HETATM   26  C35 UNL     1      -6.489  -8.478   6.925  1.00  0.00     0.016 C 
HETATM   27  O9  UNL     1      -7.917  -8.105  10.088  1.00  0.00    -0.356 OA
ENDROOT
BRANCH  17  28
HETATM   28  O4  UNL     1      -9.324  -8.878  -0.513  1.00  0.00    -0.353 OA
BRANCH  28  29
HETATM   29  C22 UNL     1      -9.529  -9.106  -1.913  1.00  0.00     0.291 C 
HETATM   30  O5  UNL     1      -8.388  -9.816  -2.430  1.00  0.00    -0.356 OA
HETATM   31  C23 UNL     1      -7.285  -8.955  -2.711  1.00  0.00     0.205 C 
HETATM   32  C24 UNL     1      -7.609  -8.025  -3.892  1.00  0.00     0.173 C 
HETATM   33  C25 UNL     1      -9.122  -7.849  -4.047  1.00  0.00     0.182 C 
HETATM   34  C26 UNL     1      -9.787  -7.781  -2.676  1.00  0.00     0.204 C 
BRANCH  32  35
HETATM   35  O6  UNL     1      -7.117  -8.543  -5.140  1.00  0.00    -0.391 OA
HETATM   36  H39 UNL     1      -6.176  -8.767  -5.021  1.00  0.00     0.210 HD
ENDBRANCH  32  35
BRANCH  33  37
HETATM   37  O7  UNL     1      -9.410  -6.646  -4.778  1.00  0.00    -0.390 OA
HETATM   38  H41 UNL     1      -9.005  -6.776  -5.660  1.00  0.00     0.210 HD
ENDBRANCH  33  37
BRANCH  34  39
HETATM   39  O8  UNL     1     -11.192  -7.528  -2.842  1.00  0.00    -0.388 OA
HETATM   40  H43 UNL     1     -11.240  -6.847  -3.545  1.00  0.00     0.210 HD
ENDBRANCH  34  39
ENDBRANCH  28  29
ENDBRANCH  17  28
BRANCH  12  41
HETATM   41  O2  UNL     1     -11.578  -9.511   4.148  1.00  0.00    -0.316 OA
BRANCH  41  42
HETATM   42  C15 UNL     1     -12.797  -8.939   4.353  1.00  0.00     0.255 C 
HETATM   43  C16 UNL     1     -13.872  -9.815   3.789  1.00  0.00     0.126 C 
HETATM   44  O3  UNL     1     -12.999  -7.864   4.897  1.00  0.00    -0.266 OA
ENDBRANCH  41  42
ENDBRANCH  12  41
BRANCH   1  45
HETATM   45  O1  UNL     1      -7.979  -8.780  12.354  1.00  0.00    -0.362 OA
BRANCH  45  46
HETATM   46  C2  UNL     1      -7.427  -9.887  13.064  1.00  0.00     0.166 C 
HETATM   47  C1  UNL     1      -8.465 -10.976  13.267  1.00  0.00     0.033 C 
ENDBRANCH  45  46
ENDBRANCH   1  45
TORSDOF 9
ENDMDL
MODEL 6
REMARK minimizedAffinity -7.3174572
REMARK CNNscore 0.204366311
REMARK CNNaffinity 6.91099787
REMARK  9 active torsions:
REMARK  status: ('A' for Active; 'I' for Inactive)
REMARK    1  A    between atoms: C2_2  and  O1_3 
REMARK    2  A    between atoms: O1_3  and  C3_4 
REMARK    3  A    between atoms: C14_15  and  O2_16 
REMARK    4  A    between atoms: O2_16  and  C15_17 
REMARK    5  A    between atoms: C21_24  and  O4_25 
REMARK    6  A    between atoms: O4_25  and  C22_26 
REMARK    7  A    between atoms: C24_29  and  O6_30 
REMARK    8  A    between atoms: C25_31  and  O7_32 
REMARK    9  A    between atoms: C26_33  and  O8_34 
ROOT
HETATM    1  C3  UNL     1       1.738   6.160  11.093  1.00  0.00     0.260 C 
HETATM    2  C4  UNL     1       1.529   4.639  11.187  1.00  0.00     0.065 C 
HETATM    3  C5  UNL     1       0.039   4.281  11.265  1.00  0.00    -0.007 C 
HETATM    4  C6  UNL     1      -0.155   2.766  11.263  1.00  0.00     0.010 C 
HETATM    5  C7  UNL     1      -0.534   4.944  12.538  1.00  0.00     0.027 C 
HETATM    6  C8  UNL     1       0.047   6.379  12.742  1.00  0.00     0.130 C 
HETATM    7  C9  UNL     1      -1.127   7.271  13.214  1.00  0.00     0.042 C 
HETATM    8  C10 UNL     1      -2.152   6.266  13.771  1.00  0.00    -0.029 C 
HETATM    9  C11 UNL     1      -1.588   5.812  15.169  1.00  0.00     0.016 C 
HETATM   10  C12 UNL     1      -3.620   6.740  14.042  1.00  0.00     0.006 C 
HETATM   11  C13 UNL     1      -4.028   8.115  13.509  1.00  0.00     0.039 C 
HETATM   12  C14 UNL     1      -5.286   8.593  14.263  1.00  0.00     0.138 C 
HETATM   13  C17 UNL     1      -6.502   7.596  14.233  1.00  0.00     0.035 C 
HETATM   14  C18 UNL     1      -7.569   7.780  15.384  1.00  0.00    -0.015 C 
HETATM   15  C19 UNL     1      -6.996   7.422  16.784  1.00  0.00     0.018 C 
HETATM   16  C20 UNL     1      -8.030   9.260  15.450  1.00  0.00     0.018 C 
HETATM   17  C21 UNL     1      -8.827   6.875  15.096  1.00  0.00     0.133 C 
HETATM   18  C27 UNL     1      -8.505   5.530  14.434  1.00  0.00     0.034 C 
HETATM   19  C28 UNL     1      -7.070   5.087  14.628  1.00  0.00     0.013 C 
HETATM   20  C29 UNL     1      -6.119   6.095  14.010  1.00  0.00    -0.025 A 
HETATM   21  C30 UNL     1      -5.698   5.808  12.589  1.00  0.00     0.021 A 
HETATM   22  C31 UNL     1      -4.666   5.671  13.693  1.00  0.00    -0.027 A 
HETATM   23  C32 UNL     1      -4.173   4.247  13.925  1.00  0.00     0.011 C 
HETATM   24  C33 UNL     1      -2.875   3.911  13.153  1.00  0.00     0.011 C 
HETATM   25  C34 UNL     1      -2.079   5.145  12.675  1.00  0.00    -0.030 C 
HETATM   26  C35 UNL     1      -2.626   5.593  11.288  1.00  0.00     0.016 C 
HETATM   27  O9  UNL     1       0.600   6.899  11.541  1.00  0.00    -0.356 OA
ENDROOT
BRANCH  17  28
HETATM   28  O4  UNL     1      -9.750   7.590  14.251  1.00  0.00    -0.353 OA
BRANCH  28  29
HETATM   29  C22 UNL     1     -11.056   7.786  14.808  1.00  0.00     0.291 C 
HETATM   30  O5  UNL     1     -11.886   6.674  14.423  1.00  0.00    -0.356 OA
HETATM   31  C23 UNL     1     -12.408   6.809  13.102  1.00  0.00     0.205 C 
HETATM   32  C24 UNL     1     -13.419   7.964  13.032  1.00  0.00     0.173 C 
HETATM   33  C25 UNL     1     -13.163   8.980  14.149  1.00  0.00     0.182 C 
HETATM   34  C26 UNL     1     -11.664   9.146  14.375  1.00  0.00     0.204 C 
BRANCH  32  35
HETATM   35  O6  UNL     1     -14.774   7.509  13.182  1.00  0.00    -0.391 OA
HETATM   36  H39 UNL     1     -14.917   6.780  12.551  1.00  0.00     0.210 HD
ENDBRANCH  32  35
BRANCH  33  37
HETATM   37  O7  UNL     1     -13.737  10.252  13.806  1.00  0.00    -0.390 OA
HETATM   38  H41 UNL     1     -14.699  10.088  13.728  1.00  0.00     0.210 HD
ENDBRANCH  33  37
BRANCH  34  39
HETATM   39  O8  UNL     1     -11.443  10.165  15.365  1.00  0.00    -0.388 OA
HETATM   40  H43 UNL     1     -12.077  10.875  15.134  1.00  0.00     0.210 HD
ENDBRANCH  34  39
ENDBRANCH  28  29
ENDBRANCH  17  28
BRANCH  12  41
HETATM   41  O2  UNL     1      -4.886   8.875  15.623  1.00  0.00    -0.316 OA
BRANCH  41  42
HETATM   42  C15 UNL     1      -4.237  10.052  15.844  1.00  0.00     0.255 C 
HETATM   43  C16 UNL     1      -2.756   9.826  15.846  1.00  0.00     0.126 C 
HETATM   44  O3  UNL     1      -4.768  11.136  16.036  1.00  0.00    -0.266 OA
ENDBRANCH  41  42
ENDBRANCH  12  41
BRANCH   1  45
HETATM   45  O1  UNL     1       2.912   6.493  11.834  1.00  0.00    -0.362 OA
BRANCH  45  46
HETATM   46  C2  UNL     1       3.536   7.700  11.399  1.00  0.00     0.166 C 
HETATM   47  C1  UNL     1       4.560   7.421  10.312  1.00  0.00     0.033 C 
ENDBRANCH  45  46
ENDBRANCH   1  45
TORSDOF 9
ENDMDL
MODEL 7
REMARK minimizedAffinity -6.98623657
REMARK CNNscore 0.171645567
REMARK CNNaffinity 4.79225159
REMARK  9 active torsions:
REMARK  status: ('A' for Active; 'I' for Inactive)
REMARK    1  A    between atoms: C2_2  and  O1_3 
REMARK    2  A    between atoms: O1_3  and  C3_4 
REMARK    3  A    between atoms: C14_15  and  O2_16 
REMARK    4  A    between atoms: O2_16  and  C15_17 
REMARK    5  A    between atoms: C21_24  and  O4_25 
REMARK    6  A    between atoms: O4_25  and  C22_26 
REMARK    7  A    between atoms: C24_29  and  O6_30 
REMARK    8  A    between atoms: C25_31  and  O7_32 
REMARK    9  A    between atoms: C26_33  and  O8_34 
ROOT
HETATM    1  C3  UNL     1       7.716  16.419  23.486  1.00  0.00     0.260 C 
HETATM    2  C4  UNL     1       8.314  15.057  23.874  1.00  0.00     0.065 C 
HETATM    3  C5  UNL     1       7.902  13.959  22.884  1.00  0.00    -0.007 C 
HETATM    4  C6  UNL     1       8.580  12.635  23.229  1.00  0.00     0.010 C 
HETATM    5  C7  UNL     1       6.360  13.856  22.918  1.00  0.00     0.027 C 
HETATM    6  C8  UNL     1       5.698  15.267  23.009  1.00  0.00     0.130 C 
HETATM    7  C9  UNL     1       4.469  15.242  22.067  1.00  0.00     0.042 C 
HETATM    8  C10 UNL     1       4.157  13.743  21.908  1.00  0.00    -0.029 C 
HETATM    9  C11 UNL     1       3.467  13.306  23.254  1.00  0.00     0.016 C 
HETATM   10  C12 UNL     1       3.190  13.278  20.768  1.00  0.00     0.006 C 
HETATM   11  C13 UNL     1       2.793  14.312  19.712  1.00  0.00     0.039 C 
HETATM   12  C14 UNL     1       1.514  13.834  18.996  1.00  0.00     0.138 C 
HETATM   13  C17 UNL     1       1.598  12.395  18.368  1.00  0.00     0.035 C 
HETATM   14  C18 UNL     1       0.214  11.676  18.112  1.00  0.00    -0.015 C 
HETATM   15  C19 UNL     1      -0.521  11.321  19.434  1.00  0.00     0.018 C 
HETATM   16  C20 UNL     1      -0.729  12.610  17.307  1.00  0.00     0.018 C 
HETATM   17  C21 UNL     1       0.444  10.357  17.280  1.00  0.00     0.133 C 
HETATM   18  C27 UNL     1       1.745   9.616  17.608  1.00  0.00     0.034 C 
HETATM   19  C28 UNL     1       2.316   9.966  18.966  1.00  0.00     0.013 C 
HETATM   20  C29 UNL     1       2.648  11.445  19.034  1.00  0.00    -0.025 A 
HETATM   21  C30 UNL     1       4.069  11.811  18.678  1.00  0.00     0.021 A 
HETATM   22  C31 UNL     1       3.623  11.954  20.121  1.00  0.00    -0.027 A 
HETATM   23  C32 UNL     1       4.313  11.004  21.094  1.00  0.00     0.011 C 
HETATM   24  C33 UNL     1       5.551  11.623  21.785  1.00  0.00     0.011 C 
HETATM   25  C34 UNL     1       5.606  13.166  21.735  1.00  0.00    -0.030 C 
HETATM   26  C35 UNL     1       6.296  13.603  20.410  1.00  0.00     0.016 C 
HETATM   27  O9  UNL     1       6.594  16.296  22.610  1.00  0.00    -0.356 OA
ENDROOT
BRANCH  17  28
HETATM   28  O4  UNL     1       0.438  10.669  15.872  1.00  0.00    -0.353 OA
BRANCH  28  29
HETATM   29  C22 UNL     1      -0.263   9.731  15.046  1.00  0.00     0.291 C 
HETATM   30  O5  UNL     1      -1.677   9.954  15.202  1.00  0.00    -0.356 OA
HETATM   31  C23 UNL     1      -2.204   9.341  16.378  1.00  0.00     0.205 C 
HETATM   32  C24 UNL     1      -2.162   7.809  16.257  1.00  0.00     0.173 C 
HETATM   33  C25 UNL     1      -1.090   7.371  15.257  1.00  0.00     0.182 C 
HETATM   34  C26 UNL     1       0.137   8.269  15.375  1.00  0.00     0.204 C 
BRANCH  32  35
HETATM   35  O6  UNL     1      -3.412   7.268  15.797  1.00  0.00    -0.391 OA
HETATM   36  H39 UNL     1      -4.121   7.632  16.358  1.00  0.00     0.210 HD
ENDBRANCH  32  35
BRANCH  33  37
HETATM   37  O7  UNL     1      -0.708   6.007  15.503  1.00  0.00    -0.390 OA
HETATM   38  H41 UNL     1      -1.521   5.481  15.361  1.00  0.00     0.210 HD
ENDBRANCH  33  37
BRANCH  34  39
HETATM   39  O8  UNL     1       1.164   7.788  14.491  1.00  0.00    -0.388 OA
HETATM   40  H43 UNL     1       1.146   6.814  14.598  1.00  0.00     0.210 HD
ENDBRANCH  34  39
ENDBRANCH  28  29
ENDBRANCH  17  28
BRANCH  12  41
HETATM   41  O2  UNL     1       0.434  13.915  19.954  1.00  0.00    -0.316 OA
BRANCH  41  42
HETATM   42  C15 UNL     1      -0.188  15.120  20.084  1.00  0.00     0.255 C 
HETATM   43  C16 UNL     1      -0.143  15.859  18.782  1.00  0.00     0.126 C 
HETATM   44  O3  UNL     1      -0.693  15.557  21.107  1.00  0.00    -0.266 OA
ENDBRANCH  41  42
ENDBRANCH  12  41
BRANCH   1  45
HETATM   45  O1  UNL     1       7.377  17.113  24.687  1.00  0.00    -0.362 OA
BRANCH  45  46
HETATM   46  C2  UNL     1       8.512  17.541  25.436  1.00  0.00     0.166 C 
HETATM   47  C1  UNL     1       8.691  16.695  26.685  1.00  0.00     0.033 C 
ENDBRANCH  45  46
ENDBRANCH   1  45
TORSDOF 9
ENDMDL
MODEL 8
REMARK minimizedAffinity -8.16449928
REMARK CNNscore 0.169955999
REMARK CNNaffinity 5.86386108
REMARK  9 active torsions:
REMARK  status: ('A' for Active; 'I' for Inactive)
REMARK    1  A    between atoms: C2_2  and  O1_3 
REMARK    2  A    between atoms: O1_3  and  C3_4 
REMARK    3  A    between atoms: C14_15  and  O2_16 
REMARK    4  A    between atoms: O2_16  and  C15_17 
REMARK    5  A    between atoms: C21_24  and  O4_25 
REMARK    6  A    between atoms: O4_25  and  C22_26 
REMARK    7  A    between atoms: C24_29  and  O6_30 
REMARK    8  A    between atoms: C25_31  and  O7_32 
REMARK    9  A    between atoms: C26_33  and  O8_34 
ROOT
HETATM    1  C3  UNL     1       4.739  12.123  20.689  1.00  0.00     0.260 C 
HETATM    2  C4  UNL     1       3.887  13.376  20.954  1.00  0.00     0.065 C 
HETATM    3  C5  UNL     1       2.405  13.122  20.649  1.00  0.00    -0.007 C 
HETATM    4  C6  UNL     1       1.562  14.343  21.007  1.00  0.00     0.010 C 
HETATM    5  C7  UNL     1       2.294  12.750  19.153  1.00  0.00     0.027 C 
HETATM    6  C8  UNL     1       3.466  11.817  18.711  1.00  0.00     0.130 C 
HETATM    7  C9  UNL     1       2.851  10.746  17.777  1.00  0.00     0.042 C 
HETATM    8  C10 UNL     1       1.539  11.388  17.293  1.00  0.00    -0.029 C 
HETATM    9  C11 UNL     1       1.959  12.463  16.222  1.00  0.00     0.016 C 
HETATM   10  C12 UNL     1       0.461  10.493  16.593  1.00  0.00     0.006 C 
HETATM   11  C13 UNL     1       0.661   8.977  16.641  1.00  0.00     0.039 C 
HETATM   12  C14 UNL     1      -0.187   8.322  15.533  1.00  0.00     0.138 C 
HETATM   13  C17 UNL     1      -1.717   8.688  15.557  1.00  0.00     0.035 C 
HETATM   14  C18 UNL     1      -2.491   8.492  14.193  1.00  0.00    -0.015 C 
HETATM   15  C19 UNL     1      -2.020   9.489  13.097  1.00  0.00     0.018 C 
HETATM   16  C20 UNL     1      -2.241   7.063  13.641  1.00  0.00     0.018 C 
HETATM   17  C21 UNL     1      -4.039   8.676  14.426  1.00  0.00     0.133 C 
HETATM   18  C27 UNL     1      -4.403   9.737  15.472  1.00  0.00     0.034 C 
HETATM   19  C28 UNL     1      -3.301  10.746  15.721  1.00  0.00     0.013 C 
HETATM   20  C29 UNL     1      -2.058  10.052  16.244  1.00  0.00    -0.025 A 
HETATM   21  C30 UNL     1      -1.929   9.992  17.747  1.00  0.00     0.021 A 
HETATM   22  C31 UNL     1      -0.975  10.882  16.972  1.00  0.00    -0.027 A 
HETATM   23  C32 UNL     1      -1.146  12.374  17.237  1.00  0.00     0.011 C 
HETATM   24  C33 UNL     1      -0.201  12.917  18.334  1.00  0.00     0.011 C 
HETATM   25  C34 UNL     1       1.016  12.014  18.633  1.00  0.00    -0.030 C 
HETATM   26  C35 UNL     1       0.609  10.955  19.699  1.00  0.00     0.016 C 
HETATM   27  O9  UNL     1       4.088  11.190  19.824  1.00  0.00    -0.356 OA
ENDROOT
BRANCH  17  28
HETATM   28  O4  UNL     1      -4.618   7.419  14.830  1.00  0.00    -0.353 OA
BRANCH  28  29
HETATM   29  C22 UNL     1      -5.892   7.122  14.245  1.00  0.00     0.291 C 
HETATM   30  O5  UNL     1      -6.904   7.849  14.967  1.00  0.00    -0.356 OA
HETATM   31  C23 UNL     1      -7.287   7.201  16.179  1.00  0.00     0.205 C 
HETATM   32  C24 UNL     1      -8.028   5.887  15.883  1.00  0.00     0.173 C 
HETATM   33  C25 UNL     1      -7.650   5.349  14.500  1.00  0.00     0.182 C 
HETATM   34  C26 UNL     1      -6.170   5.596  14.227  1.00  0.00     0.204 C 
BRANCH  32  35
HETATM   35  O6  UNL     1      -9.455   6.056  15.892  1.00  0.00    -0.391 OA
HETATM   36  H39 UNL     1      -9.699   6.503  16.722  1.00  0.00     0.210 HD
ENDBRANCH  32  35
BRANCH  33  37
HETATM   37  O7  UNL     1      -7.920   3.940  14.424  1.00  0.00    -0.390 OA
HETATM   38  H41 UNL     1      -8.886   3.854  14.554  1.00  0.00     0.210 HD
ENDBRANCH  33  37
BRANCH  34  39
HETATM   39  O8  UNL     1      -5.816   5.008  12.964  1.00  0.00    -0.388 OA
HETATM   40  H43 UNL     1      -6.269   4.139  12.961  1.00  0.00     0.210 HD
ENDBRANCH  34  39
ENDBRANCH  28  29
ENDBRANCH  17  28
BRANCH  12  41
HETATM   41  O2  UNL     1       0.410   8.689  14.268  1.00  0.00    -0.316 OA
BRANCH  41  42
HETATM   42  C15 UNL     1       1.239   7.777  13.689  1.00  0.00     0.255 C 
HETATM   43  C16 UNL     1       1.569   8.203  12.291  1.00  0.00     0.126 C 
HETATM   44  O3  UNL     1       1.646   6.749  14.209  1.00  0.00    -0.266 OA
ENDBRANCH  41  42
ENDBRANCH  12  41
BRANCH   1  45
HETATM   45  O1  UNL     1       5.997  12.546  20.161  1.00  0.00    -0.362 OA
BRANCH  45  46
HETATM   46  C2  UNL     1       7.108  12.170  20.973  1.00  0.00     0.166 C 
HETATM   47  C1  UNL     1       6.840  12.472  22.437  1.00  0.00     0.033 C 
ENDBRANCH  45  46
ENDBRANCH   1  45
TORSDOF 9
ENDMDL
MODEL 9
REMARK minimizedAffinity -9.19848728
REMARK CNNscore 0.166703224
REMARK CNNaffinity 6.95242643
REMARK  9 active torsions:
REMARK  status: ('A' for Active; 'I' for Inactive)
REMARK    1  A    between atoms: C2_2  and  O1_3 
REMARK    2  A    between atoms: O1_3  and  C3_4 
REMARK    3  A    between atoms: C14_15  and  O2_16 
REMARK    4  A    between atoms: O2_16  and  C15_17 
REMARK    5  A    between atoms: C21_24  and  O4_25 
REMARK    6  A    between atoms: O4_25  and  C22_26 
REMARK    7  A    between atoms: C24_29  and  O6_30 
REMARK    8  A    between atoms: C25_31  and  O7_32 
REMARK    9  A    between atoms: C26_33  and  O8_34 
ROOT
HETATM    1  C3  UNL     1      -7.971   5.472  12.803  1.00  0.00     0.260 C 
HETATM    2  C4  UNL     1      -8.241   6.232  14.113  1.00  0.00     0.065 C 
HETATM    3  C5  UNL     1      -7.170   7.299  14.375  1.00  0.00    -0.007 C 
HETATM    4  C6  UNL     1      -7.504   8.106  15.627  1.00  0.00     0.010 C 
HETATM    5  C7  UNL     1      -5.809   6.576  14.487  1.00  0.00     0.027 C 
HETATM    6  C8  UNL     1      -5.685   5.431  13.433  1.00  0.00     0.130 C 
HETATM    7  C9  UNL     1      -4.239   5.489  12.883  1.00  0.00     0.042 C 
HETATM    8  C10 UNL     1      -3.461   6.251  13.972  1.00  0.00    -0.029 C 
HETATM    9  C11 UNL     1      -3.255   5.224  15.147  1.00  0.00     0.016 C 
HETATM   10  C12 UNL     1      -2.035   6.809  13.645  1.00  0.00     0.006 C 
HETATM   11  C13 UNL     1      -1.583   6.783  12.183  1.00  0.00     0.039 C 
HETATM   12  C14 UNL     1      -0.047   6.905  12.129  1.00  0.00     0.138 C 
HETATM   13  C17 UNL     1       0.551   8.151  12.879  1.00  0.00     0.035 C 
HETATM   14  C18 UNL     1       2.070   8.035  13.299  1.00  0.00    -0.015 C 
HETATM   15  C19 UNL     1       2.300   6.959  14.396  1.00  0.00     0.018 C 
HETATM   16  C20 UNL     1       2.930   7.624  12.074  1.00  0.00     0.018 C 
HETATM   17  C21 UNL     1       2.586   9.428  13.828  1.00  0.00     0.133 C 
HETATM   18  C27 UNL     1       1.542  10.239  14.606  1.00  0.00     0.034 C 
HETATM   19  C28 UNL     1       0.411   9.398  15.160  1.00  0.00     0.013 C 
HETATM   20  C29 UNL     1      -0.343   8.720  14.031  1.00  0.00    -0.025 A 
HETATM   21  C30 UNL     1      -1.551   9.463  13.514  1.00  0.00     0.021 A 
HETATM   22  C31 UNL     1      -1.768   8.177  14.290  1.00  0.00    -0.027 A 
HETATM   23  C32 UNL     1      -2.468   8.358  15.633  1.00  0.00     0.011 C 
HETATM   24  C33 UNL     1      -4.000   8.157  15.560  1.00  0.00     0.011 C 
HETATM   25  C34 UNL     1      -4.485   7.389  14.311  1.00  0.00    -0.030 C 
HETATM   26  C35 UNL     1      -4.700   8.402  13.148  1.00  0.00     0.016 C 
HETATM   27  O9  UNL     1      -6.615   5.590  12.371  1.00  0.00    -0.356 OA
ENDROOT
BRANCH  17  28
HETATM   28  O4  UNL     1       3.047  10.224  12.718  1.00  0.00    -0.353 OA
BRANCH  28  29
HETATM   29  C22 UNL     1       4.295  10.897  12.931  1.00  0.00     0.291 C 
HETATM   30  O5  UNL     1       4.964  11.028  11.663  1.00  0.00    -0.356 OA
HETATM   31  C23 UNL     1       5.650   9.837  11.278  1.00  0.00     0.205 C 
HETATM   32  C24 UNL     1       6.843   9.571  12.211  1.00  0.00     0.173 C 
HETATM   33  C25 UNL     1       6.634  10.250  13.568  1.00  0.00     0.182 C 
HETATM   34  C26 UNL     1       5.169  10.161  13.980  1.00  0.00     0.204 C 
BRANCH  32  35
HETATM   35  O6  UNL     1       8.075  10.079  11.673  1.00  0.00    -0.391 OA
HETATM   36  H39 UNL     1       8.165   9.745  10.762  1.00  0.00     0.210 HD
ENDBRANCH  32  35
BRANCH  33  37
HETATM   37  O7  UNL     1       7.451   9.620  14.569  1.00  0.00    -0.390 OA
HETATM   38  H41 UNL     1       8.374   9.758  14.274  1.00  0.00     0.210 HD
ENDBRANCH  33  37
BRANCH  34  39
HETATM   39  O8  UNL     1       5.010  10.725  15.293  1.00  0.00    -0.388 OA
HETATM   40  H43 UNL     1       5.777  10.388  15.801  1.00  0.00     0.210 HD
ENDBRANCH  34  39
ENDBRANCH  28  29
ENDBRANCH  17  28
BRANCH  12  41
HETATM   41  O2  UNL     1       0.497   5.675  12.661  1.00  0.00    -0.316 OA
BRANCH  41  42
HETATM   42  C15 UNL     1       0.689   4.654  11.780  1.00  0.00     0.255 C 
HETATM   43  C16 UNL     1      -0.295   3.557  12.048  1.00  0.00     0.126 C 
HETATM   44  O3  UNL     1       1.546   4.612  10.910  1.00  0.00    -0.266 OA
ENDBRANCH  41  42
ENDBRANCH  12  41
BRANCH   1  45
HETATM   45  O1  UNL     1      -8.350   4.109  12.995  1.00  0.00    -0.362 OA
BRANCH  45  46
HETATM   46  C2  UNL     1      -7.280   3.279  13.443  1.00  0.00     0.166 C 
HETATM   47  C1  UNL     1      -7.108   2.074  12.535  1.00  0.00     0.033 C 
ENDBRANCH  45  46
ENDBRANCH   1  45
TORSDOF 9
ENDMDL
