MODEL 1
REMARK minimizedAffinity -9.95372868
REMARK CNNscore 0.537898481
REMARK CNNaffinity 6.6930604
REMARK  8 active torsions:
REMARK  status: ('A' for Active; 'I' for Inactive)
REMARK    1  A    between atoms: C5_5  and  C6_6 
REMARK    2  A    between atoms: C6_6  and  O1_9 
REMARK    3  A    between atoms: C14_16  and  C15_17 
REMARK    4  A    between atoms: C16_19  and  O4_20 
REMARK    5  A    between atoms: C17_21  and  C18_22 
REMARK    6  A    between atoms: C19_24  and  O6_25 
REMARK    7  A    between atoms: C21_27  and  C22_28 
REMARK    8  A    between atoms: C22_28  and  C23_29 
ROOT
HETATM    1  C1  UNL     1      -5.770  46.694 -22.265  1.00  0.00     0.043 C 
HETATM    2  C2  UNL     1      -4.708  47.128 -21.282  1.00  0.00    -0.087 C 
HETATM    3  C3  UNL     1      -4.354  46.323 -20.261  1.00  0.00    -0.024 C 
HETATM    4  C4  UNL     1      -3.328  46.385 -19.152  1.00  0.00     0.035 C 
HETATM    5  C5  UNL     1      -2.543  47.638 -18.627  1.00  0.00     0.023 C 
HETATM    6  C9  UNL     1      -1.459  48.065 -19.672  1.00  0.00     0.011 C 
HETATM    7  C10 UNL     1      -1.018  49.472 -20.110  1.00  0.00     0.039 C 
HETATM    8  C11 UNL     1      -1.739  50.423 -21.126  1.00  0.00     0.068 C 
HETATM    9  C12 UNL     1      -2.832  51.267 -20.425  1.00  0.00     0.047 C 
HETATM   10  O2  UNL     1      -0.695  51.428 -21.361  1.00  0.00    -0.338 OA
HETATM   11  C13 UNL     1      -0.598  52.104 -22.552  1.00  0.00     0.095 A 
HETATM   12  C14 UNL     1       0.473  53.026 -22.633  1.00  0.00     0.070 A 
HETATM   13  C16 UNL     1       0.714  53.716 -23.824  1.00  0.00     0.097 A 
HETATM   14  C17 UNL     1      -0.078  53.438 -24.943  1.00  0.00     0.069 A 
HETATM   15  C19 UNL     1      -1.121  52.498 -24.859  1.00  0.00     0.091 A 
HETATM   16  C20 UNL     1      -1.455  51.862 -23.651  1.00  0.00     0.015 A 
HETATM   17  C21 UNL     1      -2.671  50.956 -23.406  1.00  0.00     0.031 C 
HETATM   18  C26 UNL     1      -2.126  49.786 -22.519  1.00  0.00     0.029 C 
HETATM   19  C27 UNL     1      -2.958  48.483 -22.512  1.00  0.00     0.012 C 
HETATM   20  C28 UNL     1      -4.137  48.485 -21.555  1.00  0.00     0.034 C 
ENDROOT
BRANCH   5  21
HETATM   21  C6  UNL     1      -3.357  48.641 -17.741  1.00  0.00     0.054 C 
HETATM   22  C7  UNL     1      -2.689  48.871 -16.367  1.00  0.00     0.045 C 
HETATM   23  C8  UNL     1      -3.477  50.021 -18.402  1.00  0.00     0.045 C 
BRANCH  21  24
HETATM   24  O1  UNL     1      -4.670  48.182 -17.467  1.00  0.00    -0.390 OA
HETATM   25  H14 UNL     1      -4.597  47.427 -16.855  1.00  0.00     0.210 HD
ENDBRANCH  21  24
ENDBRANCH   5  21
BRANCH  17  26
HETATM   26  C22 UNL     1      -3.573  50.543 -24.599  1.00  0.00     0.014 C 
BRANCH  26  27
HETATM   27  C23 UNL     1      -3.334  49.097 -25.110  1.00  0.00    -0.022 C 
HETATM   28  C24 UNL     1      -4.665  48.459 -25.514  1.00  0.00     0.009 C 
HETATM   29  C25 UNL     1      -2.378  49.072 -26.309  1.00  0.00     0.009 C 
ENDBRANCH  26  27
ENDBRANCH  17  26
BRANCH  12  30
HETATM   30  C15 UNL     1       1.322  53.233 -21.426  1.00  0.00     0.275 C 
HETATM   31  O3  UNL     1       1.724  54.323 -21.039  1.00  0.00    -0.301 OA
ENDBRANCH  12  30
BRANCH  13  32
HETATM   32  O4  UNL     1       1.705  54.659 -23.875  1.00  0.00    -0.359 OA
HETATM   33  H23 UNL     1       1.797  54.997 -24.792  1.00  0.00     0.217 HD
ENDBRANCH  13  32
BRANCH  15  34
HETATM   34  O6  UNL     1      -1.773  52.190 -26.020  1.00  0.00    -0.359 OA
HETATM   35  H25 UNL     1      -1.480  51.293 -26.275  1.00  0.00     0.217 HD
ENDBRANCH  15  34
BRANCH  14  36
HETATM   36  C18 UNL     1       0.177  54.120 -26.232  1.00  0.00     0.275 C 
HETATM   37  O5  UNL     1       0.247  55.345 -26.298  1.00  0.00    -0.301 OA
ENDBRANCH  14  36
TORSDOF 8
ENDMDL
MODEL 2
REMARK minimizedAffinity -6.43509245
REMARK CNNscore 0.444866121
REMARK CNNaffinity 5.92799759
REMARK  8 active torsions:
REMARK  status: ('A' for Active; 'I' for Inactive)
REMARK    1  A    between atoms: C5_5  and  C6_6 
REMARK    2  A    between atoms: C6_6  and  O1_9 
REMARK    3  A    between atoms: C14_16  and  C15_17 
REMARK    4  A    between atoms: C16_19  and  O4_20 
REMARK    5  A    between atoms: C17_21  and  C18_22 
REMARK    6  A    between atoms: C19_24  and  O6_25 
REMARK    7  A    between atoms: C21_27  and  C22_28 
REMARK    8  A    between atoms: C22_28  and  C23_29 
ROOT
HETATM    1  C1  UNL     1       2.319  51.041 -11.627  1.00  0.00     0.043 C 
HETATM    2  C2  UNL     1       1.027  51.461 -10.964  1.00  0.00    -0.087 C 
HETATM    3  C3  UNL     1      -0.068  50.682 -11.050  1.00  0.00    -0.024 C 
HETATM    4  C4  UNL     1      -1.471  50.737 -10.488  1.00  0.00     0.035 C 
HETATM    5  C5  UNL     1      -2.218  51.970  -9.867  1.00  0.00     0.023 C 
HETATM    6  C9  UNL     1      -1.625  52.297  -8.456  1.00  0.00     0.011 C 
HETATM    7  C10 UNL     1      -1.347  53.660  -7.800  1.00  0.00     0.039 C 
HETATM    8  C11 UNL     1      -0.120  54.603  -8.048  1.00  0.00     0.068 C 
HETATM    9  C12 UNL     1      -0.362  55.531  -9.264  1.00  0.00     0.047 C 
HETATM   10  O2  UNL     1      -0.256  55.543  -6.928  1.00  0.00    -0.338 OA
HETATM   11  C13 UNL     1       0.833  56.163  -6.368  1.00  0.00     0.095 A 
HETATM   12  C14 UNL     1       0.541  57.025  -5.284  1.00  0.00     0.070 A 
HETATM   13  C16 UNL     1       1.580  57.651  -4.589  1.00  0.00     0.097 A 
HETATM   14  C17 UNL     1       2.903  57.368  -4.943  1.00  0.00     0.069 A 
HETATM   15  C19 UNL     1       3.181  56.487  -6.004  1.00  0.00     0.091 A 
HETATM   16  C20 UNL     1       2.162  55.920  -6.787  1.00  0.00     0.015 A 
HETATM   17  C21 UNL     1       2.353  55.088  -8.065  1.00  0.00     0.031 C 
HETATM   18  C26 UNL     1       1.305  53.929  -7.948  1.00  0.00     0.029 C 
HETATM   19  C27 UNL     1       1.572  52.672  -8.808  1.00  0.00     0.012 C 
HETATM   20  C28 UNL     1       1.105  52.774 -10.249  1.00  0.00     0.034 C 
ENDROOT
BRANCH   5  21
HETATM   21  C6  UNL     1      -2.730  53.049 -10.880  1.00  0.00     0.054 C 
HETATM   22  C7  UNL     1      -3.397  52.408 -12.118  1.00  0.00     0.045 C 
HETATM   23  C8  UNL     1      -3.782  53.971 -10.250  1.00  0.00     0.045 C 
BRANCH  21  24
HETATM   24  O1  UNL     1      -1.686  53.867 -11.377  1.00  0.00    -0.390 OA
HETATM   25  H14 UNL     1      -1.136  53.319 -11.967  1.00  0.00     0.210 HD
ENDBRANCH  21  24
ENDBRANCH   5  21
BRANCH  17  26
HETATM   26  C22 UNL     1       3.782  54.673  -8.503  1.00  0.00     0.014 C 
BRANCH  26  27
HETATM   27  C23 UNL     1       4.425  55.613  -9.558  1.00  0.00    -0.022 C 
HETATM   28  C24 UNL     1       5.852  55.153  -9.866  1.00  0.00     0.009 C 
HETATM   29  C25 UNL     1       3.613  55.642 -10.859  1.00  0.00     0.009 C 
ENDBRANCH  26  27
ENDBRANCH  17  26
BRANCH  12  30
HETATM   30  C15 UNL     1      -0.886  57.239  -4.913  1.00  0.00     0.275 C 
HETATM   31  O3  UNL     1      -1.370  56.957  -3.824  1.00  0.00    -0.301 OA
ENDBRANCH  12  30
BRANCH  13  32
HETATM   32  O4  UNL     1       1.289  58.540  -3.589  1.00  0.00    -0.359 OA
HETATM   33  H23 UNL     1       2.118  58.834  -3.153  1.00  0.00     0.217 HD
ENDBRANCH  13  32
BRANCH  15  34
HETATM   34  O6  UNL     1       4.493  56.164  -6.214  1.00  0.00    -0.359 OA
HETATM   35  H25 UNL     1       4.607  55.244  -5.906  1.00  0.00     0.217 HD
ENDBRANCH  15  34
BRANCH  14  36
HETATM   36  C18 UNL     1       4.027  57.982  -4.201  1.00  0.00     0.275 C 
HETATM   37  O5  UNL     1       4.163  59.202  -4.152  1.00  0.00    -0.301 OA
ENDBRANCH  14  36
TORSDOF 8
ENDMDL
MODEL 3
REMARK minimizedAffinity -8.42634296
REMARK CNNscore 0.388489306
REMARK CNNaffinity 6.53999758
REMARK  8 active torsions:
REMARK  status: ('A' for Active; 'I' for Inactive)
REMARK    1  A    between atoms: C5_5  and  C6_6 
REMARK    2  A    between atoms: C6_6  and  O1_9 
REMARK    3  A    between atoms: C14_16  and  C15_17 
REMARK    4  A    between atoms: C16_19  and  O4_20 
REMARK    5  A    between atoms: C17_21  and  C18_22 
REMARK    6  A    between atoms: C19_24  and  O6_25 
REMARK    7  A    between atoms: C21_27  and  C22_28 
REMARK    8  A    between atoms: C22_28  and  C23_29 
ROOT
HETATM    1  C1  UNL     1      -5.516  47.269 -18.628  1.00  0.00     0.043 C 
HETATM    2  C2  UNL     1      -4.246  47.868 -18.071  1.00  0.00    -0.087 C 
HETATM    3  C3  UNL     1      -3.656  47.331 -16.986  1.00  0.00    -0.024 C 
HETATM    4  C4  UNL     1      -2.391  47.606 -16.205  1.00  0.00     0.035 C 
HETATM    5  C5  UNL     1      -1.498  48.896 -16.230  1.00  0.00     0.023 C 
HETATM    6  C9  UNL     1      -0.699  48.966 -17.575  1.00  0.00     0.011 C 
HETATM    7  C10 UNL     1      -0.374  50.179 -18.461  1.00  0.00     0.039 C 
HETATM    8  C11 UNL     1      -1.317  50.884 -19.495  1.00  0.00     0.068 C 
HETATM    9  C12 UNL     1      -2.204  51.952 -18.809  1.00  0.00     0.047 C 
HETATM   10  O2  UNL     1      -0.359  51.722 -20.227  1.00  0.00    -0.338 OA
HETATM   11  C13 UNL     1      -0.552  52.061 -21.543  1.00  0.00     0.095 A 
HETATM   12  C14 UNL     1       0.470  52.857 -22.114  1.00  0.00     0.070 A 
HETATM   13  C16 UNL     1       0.416  53.199 -23.468  1.00  0.00     0.097 A 
HETATM   14  C17 UNL     1      -0.625  52.697 -24.255  1.00  0.00     0.069 A 
HETATM   15  C19 UNL     1      -1.619  51.883 -23.683  1.00  0.00     0.091 A 
HETATM   16  C20 UNL     1      -1.651  51.603 -22.306  1.00  0.00     0.015 A 
HETATM   17  C21 UNL     1      -2.774  50.875 -21.552  1.00  0.00     0.031 C 
HETATM   18  C26 UNL     1      -2.033  49.938 -20.539  1.00  0.00     0.029 C 
HETATM   19  C27 UNL     1      -2.843  48.740 -19.992  1.00  0.00     0.012 C 
HETATM   20  C28 UNL     1      -3.754  49.067 -18.822  1.00  0.00     0.034 C 
ENDROOT
BRANCH   5  21
HETATM   21  C6  UNL     1      -2.069  50.145 -15.478  1.00  0.00     0.054 C 
HETATM   22  C7  UNL     1      -2.693  49.764 -14.117  1.00  0.00     0.045 C 
HETATM   23  C8  UNL     1      -0.977  51.181 -15.179  1.00  0.00     0.045 C 
BRANCH  21  24
HETATM   24  O1  UNL     1      -3.091  50.800 -16.209  1.00  0.00    -0.390 OA
HETATM   25  H14 UNL     1      -3.875  50.220 -16.205  1.00  0.00     0.210 HD
ENDBRANCH  21  24
ENDBRANCH   5  21
BRANCH  17  26
HETATM   26  C22 UNL     1      -3.940  50.231 -22.347  1.00  0.00     0.014 C 
BRANCH  26  27
HETATM   27  C23 UNL     1      -3.777  48.708 -22.600  1.00  0.00    -0.022 C 
HETATM   28  C24 UNL     1      -5.152  48.038 -22.660  1.00  0.00     0.009 C 
HETATM   29  C25 UNL     1      -3.023  48.431 -23.907  1.00  0.00     0.009 C 
ENDBRANCH  26  27
ENDBRANCH  17  26
BRANCH  12  30
HETATM   30  C15 UNL     1       1.588  53.309 -21.238  1.00  0.00     0.275 C 
HETATM   31  O3  UNL     1       1.886  54.481 -21.043  1.00  0.00    -0.301 OA
ENDBRANCH  12  30
BRANCH  13  32
HETATM   32  O4  UNL     1       1.368  54.028 -23.997  1.00  0.00    -0.359 OA
HETATM   33  H23 UNL     1       1.235  54.113 -24.966  1.00  0.00     0.217 HD
ENDBRANCH  13  32
BRANCH  15  34
HETATM   34  O6  UNL     1      -2.536  51.332 -24.535  1.00  0.00    -0.359 OA
HETATM   35  H25 UNL     1      -2.316  50.382 -24.603  1.00  0.00     0.217 HD
ENDBRANCH  15  34
BRANCH  14  36
HETATM   36  C18 UNL     1      -0.690  53.006 -25.701  1.00  0.00     0.275 C 
HETATM   37  O5  UNL     1      -0.332  54.100 -26.132  1.00  0.00    -0.301 OA
ENDBRANCH  14  36
TORSDOF 8
ENDMDL
MODEL 4
REMARK minimizedAffinity -9.00782585
REMARK CNNscore 0.375077367
REMARK CNNaffinity 6.61434937
REMARK  8 active torsions:
REMARK  status: ('A' for Active; 'I' for Inactive)
REMARK    1  A    between atoms: C5_5  and  C6_6 
REMARK    2  A    between atoms: C6_6  and  O1_9 
REMARK    3  A    between atoms: C14_16  and  C15_17 
REMARK    4  A    between atoms: C16_19  and  O4_20 
REMARK    5  A    between atoms: C17_21  and  C18_22 
REMARK    6  A    between atoms: C19_24  and  O6_25 
REMARK    7  A    between atoms: C21_27  and  C22_28 
REMARK    8  A    between atoms: C22_28  and  C23_29 
ROOT
HETATM    1  C1  UNL     1      -2.528  52.265 -24.402  1.00  0.00     0.043 C 
HETATM    2  C2  UNL     1      -2.742  50.999 -23.605  1.00  0.00    -0.087 C 
HETATM    3  C3  UNL     1      -3.175  49.877 -24.210  1.00  0.00    -0.024 C 
HETATM    4  C4  UNL     1      -3.439  48.454 -23.772  1.00  0.00     0.035 C 
HETATM    5  C5  UNL     1      -3.614  47.907 -22.311  1.00  0.00     0.023 C 
HETATM    6  C9  UNL     1      -2.230  47.892 -21.579  1.00  0.00     0.011 C 
HETATM    7  C10 UNL     1      -1.889  48.240 -20.121  1.00  0.00     0.039 C 
HETATM    8  C11 UNL     1      -1.705  49.668 -19.501  1.00  0.00     0.068 C 
HETATM    9  C12 UNL     1      -3.062  50.264 -19.051  1.00  0.00     0.047 C 
HETATM   10  O2  UNL     1      -1.085  49.339 -18.211  1.00  0.00    -0.338 OA
HETATM   11  C13 UNL     1      -0.225  50.202 -17.580  1.00  0.00     0.095 A 
HETATM   12  C14 UNL     1       0.306  49.733 -16.355  1.00  0.00     0.070 A 
HETATM   13  C16 UNL     1       1.250  50.496 -15.663  1.00  0.00     0.097 A 
HETATM   14  C17 UNL     1       1.701  51.694 -16.227  1.00  0.00     0.069 A 
HETATM   15  C19 UNL     1       1.188  52.136 -17.459  1.00  0.00     0.091 A 
HETATM   16  C20 UNL     1       0.166  51.445 -18.131  1.00  0.00     0.015 A 
HETATM   17  C21 UNL     1      -0.583  51.922 -19.385  1.00  0.00     0.031 C 
HETATM   18  C26 UNL     1      -0.730  50.641 -20.275  1.00  0.00     0.029 C 
HETATM   19  C27 UNL     1      -0.989  50.876 -21.781  1.00  0.00     0.012 C 
HETATM   20  C28 UNL     1      -2.440  51.137 -22.145  1.00  0.00     0.034 C 
ENDROOT
BRANCH   5  21
HETATM   21  C6  UNL     1      -4.978  48.228 -21.613  1.00  0.00     0.054 C 
HETATM   22  C7  UNL     1      -5.142  49.739 -21.333  1.00  0.00     0.045 C 
HETATM   23  C8  UNL     1      -6.175  47.816 -22.480  1.00  0.00     0.045 C 
BRANCH  21  24
HETATM   24  O1  UNL     1      -5.114  47.580 -20.360  1.00  0.00    -0.390 OA
HETATM   25  H14 UNL     1      -4.494  48.006 -19.739  1.00  0.00     0.210 HD
ENDBRANCH  21  24
ENDBRANCH   5  21
BRANCH  17  26
HETATM   26  C22 UNL     1      -0.115  53.208 -20.116  1.00  0.00     0.014 C 
BRANCH  26  27
HETATM   27  C23 UNL     1       1.328  53.130 -20.684  1.00  0.00    -0.022 C 
HETATM   28  C24 UNL     1       1.415  52.023 -21.737  1.00  0.00     0.009 C 
HETATM   29  C25 UNL     1       1.760  54.460 -21.315  1.00  0.00     0.009 C 
ENDBRANCH  26  27
ENDBRANCH  17  26
BRANCH  12  30
HETATM   30  C15 UNL     1      -0.167  48.418 -15.835  1.00  0.00     0.275 C 
HETATM   31  O3  UNL     1       0.469  47.705 -15.070  1.00  0.00    -0.301 OA
ENDBRANCH  12  30
BRANCH  13  32
HETATM   32  O4  UNL     1       1.706  50.072 -14.443  1.00  0.00    -0.359 OA
HETATM   33  H23 UNL     1       2.412  50.674 -14.124  1.00  0.00     0.217 HD
ENDBRANCH  13  32
BRANCH  15  34
HETATM   34  O6  UNL     1       1.762  53.250 -18.006  1.00  0.00    -0.359 OA
HETATM   35  H25 UNL     1       2.304  52.944 -18.760  1.00  0.00     0.217 HD
ENDBRANCH  15  34
BRANCH  14  36
HETATM   36  C18 UNL     1       2.731  52.506 -15.541  1.00  0.00     0.275 C 
HETATM   37  O5  UNL     1       3.811  52.746 -16.076  1.00  0.00    -0.301 OA
ENDBRANCH  14  36
TORSDOF 8
ENDMDL
MODEL 5
REMARK minimizedAffinity -8.8018322
REMARK CNNscore 0.355197728
REMARK CNNaffinity 6.58730173
REMARK  8 active torsions:
REMARK  status: ('A' for Active; 'I' for Inactive)
REMARK    1  A    between atoms: C5_5  and  C6_6 
REMARK    2  A    between atoms: C6_6  and  O1_9 
REMARK    3  A    between atoms: C14_16  and  C15_17 
REMARK    4  A    between atoms: C16_19  and  O4_20 
REMARK    5  A    between atoms: C17_21  and  C18_22 
REMARK    6  A    between atoms: C19_24  and  O6_25 
REMARK    7  A    between atoms: C21_27  and  C22_28 
REMARK    8  A    between atoms: C22_28  and  C23_29 
ROOT
HETATM    1  C1  UNL     1      -5.548  48.383 -18.078  1.00  0.00     0.043 C 
HETATM    2  C2  UNL     1      -5.902  48.627 -19.527  1.00  0.00    -0.087 C 
HETATM    3  C3  UNL     1      -7.176  48.505 -19.948  1.00  0.00    -0.024 C 
HETATM    4  C4  UNL     1      -7.898  48.720 -21.259  1.00  0.00     0.035 C 
HETATM    5  C5  UNL     1      -7.281  48.838 -22.697  1.00  0.00     0.023 C 
HETATM    6  C9  UNL     1      -6.556  50.216 -22.855  1.00  0.00     0.011 C 
HETATM    7  C10 UNL     1      -5.236  50.554 -23.567  1.00  0.00     0.039 C 
HETATM    8  C11 UNL     1      -3.781  50.348 -23.024  1.00  0.00     0.068 C 
HETATM    9  C12 UNL     1      -3.269  48.916 -23.318  1.00  0.00     0.047 C 
HETATM   10  O2  UNL     1      -3.005  51.141 -23.986  1.00  0.00    -0.338 OA
HETATM   11  C13 UNL     1      -1.825  51.749 -23.638  1.00  0.00     0.095 A 
HETATM   12  C14 UNL     1      -1.206  52.494 -24.670  1.00  0.00     0.070 A 
HETATM   13  C16 UNL     1      -0.039  53.217 -24.407  1.00  0.00     0.097 A 
HETATM   14  C17 UNL     1       0.470  53.238 -23.104  1.00  0.00     0.069 A 
HETATM   15  C19 UNL     1      -0.171  52.517 -22.081  1.00  0.00     0.091 A 
HETATM   16  C20 UNL     1      -1.286  51.700 -22.331  1.00  0.00     0.015 A 
HETATM   17  C21 UNL     1      -1.954  50.743 -21.332  1.00  0.00     0.031 C 
HETATM   18  C26 UNL     1      -3.492  50.917 -21.579  1.00  0.00     0.029 C 
HETATM   19  C27 UNL     1      -4.426  50.477 -20.429  1.00  0.00     0.012 C 
HETATM   20  C28 UNL     1      -4.734  48.991 -20.390  1.00  0.00     0.034 C 
ENDROOT
BRANCH   5  21
HETATM   21  C6  UNL     1      -6.787  47.501 -23.347  1.00  0.00     0.054 C 
HETATM   22  C7  UNL     1      -7.855  46.388 -23.261  1.00  0.00     0.045 C 
HETATM   23  C8  UNL     1      -6.463  47.676 -24.837  1.00  0.00     0.045 C 
BRANCH  21  24
HETATM   24  O1  UNL     1      -5.630  46.984 -22.715  1.00  0.00    -0.390 OA
HETATM   25  H14 UNL     1      -5.893  46.663 -21.833  1.00  0.00     0.210 HD
ENDBRANCH  21  24
ENDBRANCH   5  21
BRANCH  17  26
HETATM   26  C22 UNL     1      -1.499  50.740 -19.849  1.00  0.00     0.014 C 
BRANCH  26  27
HETATM   27  C23 UNL     1      -0.894  49.393 -19.370  1.00  0.00    -0.022 C 
HETATM   28  C24 UNL     1      -1.639  48.899 -18.128  1.00  0.00     0.009 C 
HETATM   29  C25 UNL     1      -0.968  48.319 -20.463  1.00  0.00     0.009 C 
ENDBRANCH  26  27
ENDBRANCH  17  26
BRANCH  12  30
HETATM   30  C15 UNL     1      -1.830  52.485 -26.023  1.00  0.00     0.275 C 
HETATM   31  O3  UNL     1      -2.900  53.012 -26.298  1.00  0.00    -0.301 OA
ENDBRANCH  12  30
BRANCH  13  32
HETATM   32  O4  UNL     1       0.595  53.877 -25.426  1.00  0.00    -0.359 OA
HETATM   33  H23 UNL     1       1.351  54.393 -25.069  1.00  0.00     0.217 HD
ENDBRANCH  13  32
BRANCH  15  34
HETATM   34  O6  UNL     1       0.311  52.681 -20.812  1.00  0.00    -0.359 OA
HETATM   35  H25 UNL     1      -0.343  53.227 -20.333  1.00  0.00     0.217 HD
ENDBRANCH  15  34
BRANCH  14  36
HETATM   36  C18 UNL     1       1.680  54.027 -22.783  1.00  0.00     0.275 C 
HETATM   37  O5  UNL     1       1.705  54.785 -21.817  1.00  0.00    -0.301 OA
ENDBRANCH  14  36
TORSDOF 8
ENDMDL
MODEL 6
REMARK minimizedAffinity -9.17088413
REMARK CNNscore 0.354939044
REMARK CNNaffinity 6.42336655
REMARK  8 active torsions:
REMARK  status: ('A' for Active; 'I' for Inactive)
REMARK    1  A    between atoms: C5_5  and  C6_6 
REMARK    2  A    between atoms: C6_6  and  O1_9 
REMARK    3  A    between atoms: C14_16  and  C15_17 
REMARK    4  A    between atoms: C16_19  and  O4_20 
REMARK    5  A    between atoms: C17_21  and  C18_22 
REMARK    6  A    between atoms: C19_24  and  O6_25 
REMARK    7  A    between atoms: C21_27  and  C22_28 
REMARK    8  A    between atoms: C22_28  and  C23_29 
ROOT
HETATM    1  C1  UNL     1      -4.639  45.680 -21.373  1.00  0.00     0.043 C 
HETATM    2  C2  UNL     1      -3.828  46.548 -20.439  1.00  0.00    -0.087 C 
HETATM    3  C3  UNL     1      -3.494  46.103 -19.213  1.00  0.00    -0.024 C 
HETATM    4  C4  UNL     1      -2.671  46.641 -18.063  1.00  0.00     0.035 C 
HETATM    5  C5  UNL     1      -2.205  48.118 -17.814  1.00  0.00     0.023 C 
HETATM    6  C9  UNL     1      -1.069  48.497 -18.822  1.00  0.00     0.011 C 
HETATM    7  C10 UNL     1      -0.821  49.817 -19.570  1.00  0.00     0.039 C 
HETATM    8  C11 UNL     1      -1.539  50.326 -20.868  1.00  0.00     0.068 C 
HETATM    9  C12 UNL     1      -2.854  51.068 -20.527  1.00  0.00     0.047 C 
HETATM   10  O2  UNL     1      -0.664  51.439 -21.257  1.00  0.00    -0.338 OA
HETATM   11  C13 UNL     1      -0.510  51.815 -22.567  1.00  0.00     0.095 A 
HETATM   12  C14 UNL     1       0.382  52.892 -22.783  1.00  0.00     0.070 A 
HETATM   13  C16 UNL     1       0.673  53.309 -24.085  1.00  0.00     0.097 A 
HETATM   14  C17 UNL     1       0.117  52.613 -25.163  1.00  0.00     0.069 A 
HETATM   15  C19 UNL     1      -0.746  51.526 -24.937  1.00  0.00     0.091 A 
HETATM   16  C20 UNL     1      -1.139  51.144 -23.643  1.00  0.00     0.015 A 
HETATM   17  C21 UNL     1      -2.200  50.091 -23.289  1.00  0.00     0.031 C 
HETATM   18  C26 UNL     1      -1.596  49.307 -22.074  1.00  0.00     0.029 C 
HETATM   19  C27 UNL     1      -2.179  47.901 -21.805  1.00  0.00     0.012 C 
HETATM   20  C28 UNL     1      -3.469  47.888 -21.005  1.00  0.00     0.034 C 
ENDROOT
BRANCH   5  21
HETATM   21  C6  UNL     1      -3.304  49.113 -17.309  1.00  0.00     0.054 C 
HETATM   22  C7  UNL     1      -2.727  50.517 -17.027  1.00  0.00     0.045 C 
HETATM   23  C8  UNL     1      -4.421  49.304 -18.345  1.00  0.00     0.045 C 
BRANCH  21  24
HETATM   24  O1  UNL     1      -3.910  48.687 -16.101  1.00  0.00    -0.390 OA
HETATM   25  H14 UNL     1      -3.249  48.781 -15.390  1.00  0.00     0.210 HD
ENDBRANCH  21  24
ENDBRANCH   5  21
BRANCH  17  26
HETATM   26  C22 UNL     1      -2.829  49.226 -24.413  1.00  0.00     0.014 C 
BRANCH  26  27
HETATM   27  C23 UNL     1      -4.287  49.614 -24.777  1.00  0.00    -0.022 C 
HETATM   28  C24 UNL     1      -4.984  48.437 -25.464  1.00  0.00     0.009 C 
HETATM   29  C25 UNL     1      -5.090  50.022 -23.536  1.00  0.00     0.009 C 
ENDBRANCH  26  27
ENDBRANCH  17  26
BRANCH  12  30
HETATM   30  C15 UNL     1       0.993  53.554 -21.596  1.00  0.00     0.275 C 
HETATM   31  O3  UNL     1       1.479  54.678 -21.602  1.00  0.00    -0.301 OA
ENDBRANCH  12  30
BRANCH  13  32
HETATM   32  O4  UNL     1       1.480  54.398 -24.285  1.00  0.00    -0.359 OA
HETATM   33  H23 UNL     1       1.646  54.517 -25.245  1.00  0.00     0.217 HD
ENDBRANCH  13  32
BRANCH  15  34
HETATM   34  O6  UNL     1      -1.154  50.820 -26.034  1.00  0.00    -0.359 OA
HETATM   35  H25 UNL     1      -0.674  49.969 -26.012  1.00  0.00     0.217 HD
ENDBRANCH  15  34
BRANCH  14  36
HETATM   36  C18 UNL     1       0.437  53.004 -26.555  1.00  0.00     0.275 C 
HETATM   37  O5  UNL     1       0.277  54.159 -26.942  1.00  0.00    -0.301 OA
ENDBRANCH  14  36
TORSDOF 8
ENDMDL
MODEL 7
REMARK minimizedAffinity -6.35294247
REMARK CNNscore 0.349328995
REMARK CNNaffinity 5.24595499
REMARK  8 active torsions:
REMARK  status: ('A' for Active; 'I' for Inactive)
REMARK    1  A    between atoms: C5_5  and  C6_6 
REMARK    2  A    between atoms: C6_6  and  O1_9 
REMARK    3  A    between atoms: C14_16  and  C15_17 
REMARK    4  A    between atoms: C16_19  and  O4_20 
REMARK    5  A    between atoms: C17_21  and  C18_22 
REMARK    6  A    between atoms: C19_24  and  O6_25 
REMARK    7  A    between atoms: C21_27  and  C22_28 
REMARK    8  A    between atoms: C22_28  and  C23_29 
ROOT
HETATM    1  C1  UNL     1      -0.561  54.090  -8.884  1.00  0.00     0.043 C 
HETATM    2  C2  UNL     1       0.809  54.726  -8.931  1.00  0.00    -0.087 C 
HETATM    3  C3  UNL     1       1.510  54.754 -10.081  1.00  0.00    -0.024 C 
HETATM    4  C4  UNL     1       2.836  55.335 -10.516  1.00  0.00     0.035 C 
HETATM    5  C5  UNL     1       4.023  55.822  -9.612  1.00  0.00     0.023 C 
HETATM    6  C9  UNL     1       3.644  57.173  -8.918  1.00  0.00     0.011 C 
HETATM    7  C10 UNL     1       3.940  57.659  -7.490  1.00  0.00     0.039 C 
HETATM    8  C11 UNL     1       3.175  57.277  -6.176  1.00  0.00     0.068 C 
HETATM    9  C12 UNL     1       3.728  55.966  -5.565  1.00  0.00     0.047 C 
HETATM   10  O2  UNL     1       3.699  58.282  -5.242  1.00  0.00    -0.338 OA
HETATM   11  C13 UNL     1       2.956  58.743  -4.184  1.00  0.00     0.095 A 
HETATM   12  C14 UNL     1       3.591  59.724  -3.386  1.00  0.00     0.070 A 
HETATM   13  C16 UNL     1       2.899  60.320  -2.327  1.00  0.00     0.097 A 
HETATM   14  C17 UNL     1       1.562  59.974  -2.108  1.00  0.00     0.069 A 
HETATM   15  C19 UNL     1       0.933  59.018  -2.925  1.00  0.00     0.091 A 
HETATM   16  C20 UNL     1       1.626  58.328  -3.934  1.00  0.00     0.015 A 
HETATM   17  C21 UNL     1       1.090  57.153  -4.765  1.00  0.00     0.031 C 
HETATM   18  C26 UNL     1       1.603  57.426  -6.221  1.00  0.00     0.029 C 
HETATM   19  C27 UNL     1       0.841  56.714  -7.362  1.00  0.00     0.012 C 
HETATM   20  C28 UNL     1       1.272  55.281  -7.619  1.00  0.00     0.034 C 
ENDROOT
BRANCH   5  21
HETATM   21  C6  UNL     1       4.889  54.701  -8.946  1.00  0.00     0.054 C 
HETATM   22  C7  UNL     1       5.021  53.457  -9.853  1.00  0.00     0.045 C 
HETATM   23  C8  UNL     1       6.318  55.178  -8.656  1.00  0.00     0.045 C 
BRANCH  21  24
HETATM   24  O1  UNL     1       4.336  54.239  -7.726  1.00  0.00    -0.390 OA
HETATM   25  H14 UNL     1       3.530  53.734  -7.939  1.00  0.00     0.210 HD
ENDBRANCH  21  24
ENDBRANCH   5  21
BRANCH  17  26
HETATM   26  C22 UNL     1      -0.399  56.737  -4.635  1.00  0.00     0.014 C 
BRANCH  26  27
HETATM   27  C23 UNL     1      -0.616  55.322  -4.034  1.00  0.00    -0.022 C 
HETATM   28  C24 UNL     1      -1.127  54.368  -5.117  1.00  0.00     0.009 C 
HETATM   29  C25 UNL     1       0.678  54.757  -3.435  1.00  0.00     0.009 C 
ENDBRANCH  26  27
ENDBRANCH  17  26
BRANCH  12  30
HETATM   30  C15 UNL     1       4.997  60.097  -3.708  1.00  0.00     0.275 C 
HETATM   31  O3  UNL     1       5.424  61.244  -3.726  1.00  0.00    -0.301 OA
ENDBRANCH  12  30
BRANCH  13  32
HETATM   32  O4  UNL     1       3.543  61.215  -1.515  1.00  0.00    -0.359 OA
HETATM   33  H23 UNL     1       2.907  61.595  -0.870  1.00  0.00     0.217 HD
ENDBRANCH  13  32
BRANCH  15  34
HETATM   34  O6  UNL     1      -0.406  58.820  -2.730  1.00  0.00    -0.359 OA
HETATM   35  H25 UNL     1      -0.863  59.232  -3.490  1.00  0.00     0.217 HD
ENDBRANCH  15  34
BRANCH  14  36
HETATM   36  C18 UNL     1       0.789  60.616  -1.021  1.00  0.00     0.275 C 
HETATM   37  O5  UNL     1       0.569  61.824  -1.028  1.00  0.00    -0.301 OA
ENDBRANCH  14  36
TORSDOF 8
ENDMDL
MODEL 8
REMARK minimizedAffinity -9.02581978
REMARK CNNscore 0.292149365
REMARK CNNaffinity 6.51233912
REMARK  8 active torsions:
REMARK  status: ('A' for Active; 'I' for Inactive)
REMARK    1  A    between atoms: C5_5  and  C6_6 
REMARK    2  A    between atoms: C6_6  and  O1_9 
REMARK    3  A    between atoms: C14_16  and  C15_17 
REMARK    4  A    between atoms: C16_19  and  O4_20 
REMARK    5  A    between atoms: C17_21  and  C18_22 
REMARK    6  A    between atoms: C19_24  and  O6_25 
REMARK    7  A    between atoms: C21_27  and  C22_28 
REMARK    8  A    between atoms: C22_28  and  C23_29 
ROOT
HETATM    1  C1  UNL     1      -3.348  48.193 -26.311  1.00  0.00     0.043 C 
HETATM    2  C2  UNL     1      -2.783  49.591 -26.226  1.00  0.00    -0.087 C 
HETATM    3  C3  UNL     1      -3.093  50.511 -27.160  1.00  0.00    -0.024 C 
HETATM    4  C4  UNL     1      -2.781  51.975 -27.370  1.00  0.00     0.035 C 
HETATM    5  C5  UNL     1      -1.655  52.833 -26.691  1.00  0.00     0.023 C 
HETATM    6  C9  UNL     1      -2.025  53.111 -25.196  1.00  0.00     0.011 C 
HETATM    7  C10 UNL     1      -1.124  53.134 -23.951  1.00  0.00     0.039 C 
HETATM    8  C11 UNL     1      -0.598  51.905 -23.133  1.00  0.00     0.068 C 
HETATM    9  C12 UNL     1       0.707  51.339 -23.746  1.00  0.00     0.047 C 
HETATM   10  O2  UNL     1      -0.093  52.565 -21.922  1.00  0.00    -0.338 OA
HETATM   11  C13 UNL     1      -0.079  51.932 -20.705  1.00  0.00     0.095 A 
HETATM   12  C14 UNL     1       0.418  52.707 -19.630  1.00  0.00     0.070 A 
HETATM   13  C16 UNL     1       0.408  52.190 -18.332  1.00  0.00     0.097 A 
HETATM   14  C17 UNL     1      -0.149  50.928 -18.106  1.00  0.00     0.069 A 
HETATM   15  C19 UNL     1      -0.667  50.179 -19.178  1.00  0.00     0.091 A 
HETATM   16  C20 UNL     1      -0.582  50.624 -20.508  1.00  0.00     0.015 A 
HETATM   17  C21 UNL     1      -0.956  49.820 -21.762  1.00  0.00     0.031 C 
HETATM   18  C26 UNL     1      -1.686  50.847 -22.693  1.00  0.00     0.029 C 
HETATM   19  C27 UNL     1      -2.601  50.252 -23.788  1.00  0.00     0.012 C 
HETATM   20  C28 UNL     1      -1.881  49.817 -25.052  1.00  0.00     0.034 C 
ENDROOT
BRANCH   5  21
HETATM   21  C6  UNL     1      -0.197  52.591 -27.209  1.00  0.00     0.054 C 
HETATM   22  C7  UNL     1       0.214  51.105 -27.103  1.00  0.00     0.045 C 
HETATM   23  C8  UNL     1      -0.043  52.979 -28.686  1.00  0.00     0.045 C 
BRANCH  21  24
HETATM   24  O1  UNL     1       0.770  53.319 -26.472  1.00  0.00    -0.390 OA
HETATM   25  H14 UNL     1       0.829  52.917 -25.586  1.00  0.00     0.210 HD
ENDBRANCH  21  24
ENDBRANCH   5  21
BRANCH  17  26
HETATM   26  C22 UNL     1      -1.637  48.434 -21.610  1.00  0.00     0.014 C 
BRANCH  26  27
HETATM   27  C23 UNL     1      -3.185  48.469 -21.716  1.00  0.00    -0.022 C 
HETATM   28  C24 UNL     1      -3.731  47.046 -21.852  1.00  0.00     0.009 C 
HETATM   29  C25 UNL     1      -3.820  49.137 -20.490  1.00  0.00     0.009 C 
ENDBRANCH  26  27
ENDBRANCH  17  26
BRANCH  12  30
HETATM   30  C15 UNL     1       0.942  54.071 -19.924  1.00  0.00     0.275 C 
HETATM   31  O3  UNL     1       1.896  54.306 -20.653  1.00  0.00    -0.301 OA
ENDBRANCH  12  30
BRANCH  13  32
HETATM   32  O4  UNL     1       0.957  52.916 -17.308  1.00  0.00    -0.359 OA
HETATM   33  H23 UNL     1       0.807  52.454 -16.455  1.00  0.00     0.217 HD
ENDBRANCH  13  32
BRANCH  15  34
HETATM   34  O6  UNL     1      -1.304  49.009 -18.866  1.00  0.00    -0.359 OA
HETATM   35  H25 UNL     1      -2.259  49.169 -18.997  1.00  0.00     0.217 HD
ENDBRANCH  15  34
BRANCH  14  36
HETATM   36  C18 UNL     1      -0.212  50.368 -16.737  1.00  0.00     0.275 C 
HETATM   37  O5  UNL     1       0.394  49.341 -16.443  1.00  0.00    -0.301 OA
ENDBRANCH  14  36
TORSDOF 8
ENDMDL
MODEL 9
REMARK minimizedAffinity -7.0929203
REMARK CNNscore 0.283063591
REMARK CNNaffinity 6.02752447
REMARK  8 active torsions:
REMARK  status: ('A' for Active; 'I' for Inactive)
REMARK    1  A    between atoms: C5_5  and  C6_6 
REMARK    2  A    between atoms: C6_6  and  O1_9 
REMARK    3  A    between atoms: C14_16  and  C15_17 
REMARK    4  A    between atoms: C16_19  and  O4_20 
REMARK    5  A    between atoms: C17_21  and  C18_22 
REMARK    6  A    between atoms: C19_24  and  O6_25 
REMARK    7  A    between atoms: C21_27  and  C22_28 
REMARK    8  A    between atoms: C22_28  and  C23_29 
ROOT
HETATM    1  C1  UNL     1       0.183  56.972  -6.372  1.00  0.00     0.043 C 
HETATM    2  C2  UNL     1       1.427  56.207  -6.761  1.00  0.00    -0.087 C 
HETATM    3  C3  UNL     1       2.417  56.013  -5.869  1.00  0.00    -0.024 C 
HETATM    4  C4  UNL     1       3.736  55.275  -5.872  1.00  0.00     0.035 C 
HETATM    5  C5  UNL     1       4.553  54.757  -7.108  1.00  0.00     0.023 C 
HETATM    6  C9  UNL     1       3.839  53.513  -7.736  1.00  0.00     0.011 C 
HETATM    7  C10 UNL     1       3.660  53.127  -9.213  1.00  0.00     0.039 C 
HETATM    8  C11 UNL     1       2.603  53.692 -10.224  1.00  0.00     0.068 C 
HETATM    9  C12 UNL     1       3.108  54.993 -10.895  1.00  0.00     0.047 C 
HETATM   10  O2  UNL     1       2.720  52.727 -11.325  1.00  0.00    -0.338 OA
HETATM   11  C13 UNL     1       1.660  52.432 -12.144  1.00  0.00     0.095 A 
HETATM   12  C14 UNL     1       1.924  51.468 -13.145  1.00  0.00     0.070 A 
HETATM   13  C16 UNL     1       0.897  51.035 -13.988  1.00  0.00     0.097 A 
HETATM   14  C17 UNL     1      -0.398  51.523 -13.789  1.00  0.00     0.069 A 
HETATM   15  C19 UNL     1      -0.655  52.459 -12.772  1.00  0.00     0.091 A 
HETATM   16  C20 UNL     1       0.371  52.991 -11.973  1.00  0.00     0.015 A 
HETATM   17  C21 UNL     1       0.232  54.135 -10.957  1.00  0.00     0.031 C 
HETATM   18  C26 UNL     1       1.102  53.690  -9.732  1.00  0.00     0.029 C 
HETATM   19  C27 UNL     1       0.783  54.369  -8.380  1.00  0.00     0.012 C 
HETATM   20  C28 UNL     1       1.431  55.727  -8.180  1.00  0.00     0.034 C 
ENDROOT
BRANCH   5  21
HETATM   21  C6  UNL     1       5.318  55.845  -7.934  1.00  0.00     0.054 C 
HETATM   22  C7  UNL     1       6.229  55.217  -9.012  1.00  0.00     0.045 C 
HETATM   23  C8  UNL     1       4.355  56.783  -8.674  1.00  0.00     0.045 C 
BRANCH  21  24
HETATM   24  O1  UNL     1       6.162  56.648  -7.127  1.00  0.00    -0.390 OA
HETATM   25  H14 UNL     1       6.908  56.092  -6.836  1.00  0.00     0.210 HD
ENDBRANCH  21  24
ENDBRANCH   5  21
BRANCH  17  26
HETATM   26  C22 UNL     1      -1.174  54.700 -10.624  1.00  0.00     0.014 C 
BRANCH  26  27
HETATM   27  C23 UNL     1      -2.211  53.624 -10.205  1.00  0.00    -0.022 C 
HETATM   28  C24 UNL     1      -2.051  53.296  -8.719  1.00  0.00     0.009 C 
HETATM   29  C25 UNL     1      -3.648  54.093 -10.466  1.00  0.00     0.009 C 
ENDBRANCH  26  27
ENDBRANCH  17  26
BRANCH  12  30
HETATM   30  C15 UNL     1       3.311  50.937 -13.268  1.00  0.00     0.275 C 
HETATM   31  O3  UNL     1       3.590  49.794 -13.608  1.00  0.00    -0.301 OA
ENDBRANCH  12  30
BRANCH  13  32
HETATM   32  O4  UNL     1       1.175  50.156 -15.002  1.00  0.00    -0.359 OA
HETATM   33  H23 UNL     1       0.344  49.895 -15.453  1.00  0.00     0.217 HD
ENDBRANCH  13  32
BRANCH  15  34
HETATM   34  O6  UNL     1      -1.962  52.800 -12.558  1.00  0.00    -0.359 OA
HETATM   35  H25 UNL     1      -2.229  52.368 -11.722  1.00  0.00     0.217 HD
ENDBRANCH  15  34
BRANCH  14  36
HETATM   36  C18 UNL     1      -1.517  51.054 -14.638  1.00  0.00     0.275 C 
HETATM   37  O5  UNL     1      -2.433  50.385 -14.166  1.00  0.00    -0.301 OA
ENDBRANCH  14  36
TORSDOF 8
ENDMDL
