MODEL 1
REMARK minimizedAffinity -7.85773134
REMARK CNNscore 0.540686607
REMARK CNNaffinity 7.60880136
REMARK  19 active torsions:
REMARK  status: ('A' for Active; 'I' for Inactive)
REMARK    1  A    between atoms: C2_2  and  C3_3 
REMARK    2  A    between atoms: C3_3  and  C5_5 
REMARK    3  A    between atoms: C5_5  and  N1_6 
REMARK    4  A    between atoms: C5_5  and  C37_46 
REMARK       I    between atoms: N1_6  and  C6_7 
REMARK    5  A    between atoms: C6_7  and  C7_9 
REMARK    6  A    between atoms: C7_9  and  C8_10 
REMARK    7  A    between atoms: C8_10  and  C9_11 
REMARK    8  A    between atoms: C9_11  and  C10_12 
REMARK    9  A    between atoms: C10_12  and  C11_13 
REMARK   10  A    between atoms: C11_13  and  N2_14 
REMARK       I    between atoms: N2_14  and  C12_15 
REMARK   11  A    between atoms: C12_15  and  C13_17 
REMARK   12  A    between atoms: C13_17  and  C14_18 
REMARK   13  A    between atoms: C14_18  and  C15_19 
REMARK   14  A    between atoms: C15_19  and  O4_21 
REMARK   15  A    between atoms: O4_21  and  C16_22 
REMARK   16  A    between atoms: C16_22  and  C17_23 
REMARK   17  A    between atoms: C17_23  and  C18_25 
REMARK   18  A    between atoms: C18_25  and  O6_26 
REMARK   19  A    between atoms: C37_46  and  O9_48 
ROOT
HETATM    1  C15 UNL     1      -7.795   3.869  12.780  1.00  0.00     0.259 C 
HETATM    2  O3  UNL     1      -8.475   2.857  12.879  1.00  0.00    -0.265 OA
ENDROOT
BRANCH   1   3
HETATM    3  C14 UNL     1      -6.308   3.863  12.514  1.00  0.00     0.120 C 
BRANCH   3   4
HETATM    4  C13 UNL     1      -5.902   3.087  11.266  1.00  0.00     0.112 C 
BRANCH   4   5
HETATM    5  C12 UNL     1      -4.444   3.300  10.915  1.00  0.00     0.217 C 
HETATM    6  N2  UNL     1      -3.593   3.139  11.992  1.00  0.00    -0.361 N 
HETATM    7  H22 UNL     1      -4.007   3.205  12.912  1.00  0.00     0.162 HD
HETATM    8  O2  UNL     1      -4.061   3.580   9.783  1.00  0.00    -0.274 OA
BRANCH   6   9
HETATM    9  C11 UNL     1      -2.181   3.437  11.852  1.00  0.00     0.122 C 
BRANCH   9  10
HETATM   10  C10 UNL     1      -1.911   4.882  11.429  1.00  0.00     0.020 C 
BRANCH  10  11
HETATM   11  C9  UNL     1      -1.471   5.811  12.566  1.00  0.00     0.002 C 
BRANCH  11  12
HETATM   12  C8  UNL     1      -0.205   5.357  13.296  1.00  0.00     0.009 C 
BRANCH  12  13
HETATM   13  C7  UNL     1       1.004   5.318  12.357  1.00  0.00     0.103 C 
BRANCH  13  14
HETATM   14  C6  UNL     1       1.472   6.703  11.951  1.00  0.00     0.218 C 
HETATM   15  N1  UNL     1       1.678   6.831  10.597  1.00  0.00    -0.346 N 
HETATM   16  H11 UNL     1       1.843   5.972  10.082  1.00  0.00     0.163 HD
HETATM   17  O1  UNL     1       1.676   7.602  12.757  1.00  0.00    -0.274 OA
BRANCH  15  18
HETATM   18  C5  UNL     1       2.340   8.019  10.033  1.00  0.00     0.186 C 
BRANCH  18  19
HETATM   19  C3  UNL     1       1.742   8.360   8.642  1.00  0.00     0.014 C 
HETATM   20  C4  UNL     1       0.235   8.063   8.584  1.00  0.00     0.012 C 
BRANCH  19  21
HETATM   21  C2  UNL     1       2.489   7.589   7.522  1.00  0.00     0.002 C 
HETATM   22  C1  UNL     1       1.613   7.209   6.333  1.00  0.00     0.005 C 
ENDBRANCH  19  21
ENDBRANCH  18  19
BRANCH  18  23
HETATM   23  C37 UNL     1       3.848   7.710   9.948  1.00  0.00     0.163 C 
HETATM   24  O8  UNL     1       4.763   8.516   9.898  1.00  0.00    -0.648 OA
BRANCH  23  25
HETATM   25  O9  UNL     1       4.126   6.385   9.834  1.00  0.00    -0.775 OA
HETATM   26  H56 UNL     1       5.106   6.372   9.765  1.00  0.00     0.167 HD
ENDBRANCH  23  25
ENDBRANCH  18  23
ENDBRANCH  15  18
ENDBRANCH  13  14
ENDBRANCH  12  13
ENDBRANCH  11  12
ENDBRANCH  10  11
ENDBRANCH   9  10
ENDBRANCH   6   9
ENDBRANCH   4   5
ENDBRANCH   3   4
ENDBRANCH   1   3
BRANCH   1  27
HETATM   27  O4  UNL     1      -8.253   5.129  13.003  1.00  0.00    -0.314 OA
BRANCH  27  28
HETATM   28  C16 UNL     1      -8.429   5.470  14.369  1.00  0.00     0.260 C 
BRANCH  28  29
HETATM   29  C17 UNL     1      -8.000   6.860  14.854  1.00  0.00     0.185 C 
HETATM   30  O5  UNL     1      -8.701   7.845  14.593  1.00  0.00    -0.292 OA
BRANCH  29  31
HETATM   31  C18 UNL     1      -6.624   7.005  15.558  1.00  0.00     0.128 C 
HETATM   32  C19 UNL     1      -5.883   5.631  15.541  1.00  0.00     0.047 C 
HETATM   33  C20 UNL     1      -4.381   5.938  15.447  1.00  0.00     0.009 C 
HETATM   34  C21 UNL     1      -4.274   7.461  15.492  1.00  0.00     0.002 C 
HETATM   35  C22 UNL     1      -3.003   8.083  14.876  1.00  0.00    -0.004 C 
HETATM   36  C35 UNL     1      -5.593   7.957  14.854  1.00  0.00    -0.002 C 
HETATM   37  C23 UNL     1      -1.768   7.723  15.732  1.00  0.00     0.010 C 
HETATM   38  C32 UNL     1      -3.184   9.630  14.633  1.00  0.00     0.002 C 
HETATM   39  C24 UNL     1      -1.432   8.795  16.758  1.00  0.00     0.035 C 
HETATM   40  C25 UNL     1      -1.151  10.129  16.115  1.00  0.00    -0.068 C 
HETATM   41  C26 UNL     1      -0.330  11.003  16.728  1.00  0.00     0.053 C 
HETATM   42  C30 UNL     1      -1.839  10.438  14.788  1.00  0.00    -0.016 C 
HETATM   43  C27 UNL     1      -0.048  12.345  16.158  1.00  0.00     0.149 C 
HETATM   44  O7  UNL     1       0.806  13.054  16.689  1.00  0.00    -0.293 OA
HETATM   45  C28 UNL     1      -0.793  12.785  14.918  1.00  0.00     0.084 C 
HETATM   46  C29 UNL     1      -2.072  11.973  14.717  1.00  0.00     0.022 C 
HETATM   47  C31 UNL     1      -0.904  10.049  13.608  1.00  0.00     0.020 C 
HETATM   48  C33 UNL     1      -4.384  10.184  15.442  1.00  0.00     0.007 C 
HETATM   49  C34 UNL     1      -5.722   9.458  15.181  1.00  0.00     0.013 C 
HETATM   50  C36 UNL     1      -5.621   7.765  13.314  1.00  0.00     0.019 C 
BRANCH  31  51
HETATM   51  O6  UNL     1      -6.786   7.415  16.921  1.00  0.00    -0.381 OA
HETATM   52  H29 UNL     1      -6.667   6.651  17.521  1.00  0.00     0.211 HD
ENDBRANCH  31  51
ENDBRANCH  29  31
ENDBRANCH  28  29
ENDBRANCH  27  28
ENDBRANCH   1  27
TORSDOF 19
ENDMDL
MODEL 2
REMARK minimizedAffinity -7.85674953
REMARK CNNscore 0.475135863
REMARK CNNaffinity 7.58901739
REMARK  19 active torsions:
REMARK  status: ('A' for Active; 'I' for Inactive)
REMARK    1  A    between atoms: C2_2  and  C3_3 
REMARK    2  A    between atoms: C3_3  and  C5_5 
REMARK    3  A    between atoms: C5_5  and  N1_6 
REMARK    4  A    between atoms: C5_5  and  C37_46 
REMARK       I    between atoms: N1_6  and  C6_7 
REMARK    5  A    between atoms: C6_7  and  C7_9 
REMARK    6  A    between atoms: C7_9  and  C8_10 
REMARK    7  A    between atoms: C8_10  and  C9_11 
REMARK    8  A    between atoms: C9_11  and  C10_12 
REMARK    9  A    between atoms: C10_12  and  C11_13 
REMARK   10  A    between atoms: C11_13  and  N2_14 
REMARK       I    between atoms: N2_14  and  C12_15 
REMARK   11  A    between atoms: C12_15  and  C13_17 
REMARK   12  A    between atoms: C13_17  and  C14_18 
REMARK   13  A    between atoms: C14_18  and  C15_19 
REMARK   14  A    between atoms: C15_19  and  O4_21 
REMARK   15  A    between atoms: O4_21  and  C16_22 
REMARK   16  A    between atoms: C16_22  and  C17_23 
REMARK   17  A    between atoms: C17_23  and  C18_25 
REMARK   18  A    between atoms: C18_25  and  O6_26 
REMARK   19  A    between atoms: C37_46  and  O9_48 
ROOT
HETATM    1  C15 UNL     1      -7.539   3.513  12.997  1.00  0.00     0.259 C 
HETATM    2  O3  UNL     1      -8.596   2.904  12.904  1.00  0.00    -0.265 OA
ENDROOT
BRANCH   1   3
HETATM    3  C14 UNL     1      -6.215   2.988  12.490  1.00  0.00     0.120 C 
BRANCH   3   4
HETATM    4  C13 UNL     1      -5.301   4.063  11.910  1.00  0.00     0.112 C 
BRANCH   4   5
HETATM    5  C12 UNL     1      -3.973   4.130  12.637  1.00  0.00     0.217 C 
HETATM    6  N2  UNL     1      -3.863   5.226  13.473  1.00  0.00    -0.361 N 
HETATM    7  H22 UNL     1      -4.494   5.996  13.298  1.00  0.00     0.162 HD
HETATM    8  O2  UNL     1      -3.090   3.289  12.499  1.00  0.00    -0.274 OA
BRANCH   6   9
HETATM    9  C11 UNL     1      -2.606   5.505  14.139  1.00  0.00     0.122 C 
BRANCH   9  10
HETATM   10  C10 UNL     1      -1.883   6.726  13.569  1.00  0.00     0.020 C 
BRANCH  10  11
HETATM   11  C9  UNL     1      -0.374   6.762  13.838  1.00  0.00     0.002 C 
BRANCH  11  12
HETATM   12  C8  UNL     1       0.382   5.526  13.347  1.00  0.00     0.009 C 
BRANCH  12  13
HETATM   13  C7  UNL     1       0.138   5.271  11.857  1.00  0.00     0.103 C 
BRANCH  13  14
HETATM   14  C6  UNL     1       1.288   5.746  10.988  1.00  0.00     0.218 C 
HETATM   15  N1  UNL     1       1.917   6.864  11.483  1.00  0.00    -0.346 N 
HETATM   16  H11 UNL     1       1.380   7.438  12.126  1.00  0.00     0.163 HD
HETATM   17  O1  UNL     1       1.597   5.203   9.935  1.00  0.00    -0.274 OA
BRANCH  15  18
HETATM   18  C5  UNL     1       2.905   7.604  10.682  1.00  0.00     0.186 C 
BRANCH  18  19
HETATM   19  C3  UNL     1       2.244   8.165   9.394  1.00  0.00     0.014 C 
HETATM   20  C4  UNL     1       0.710   8.100   9.470  1.00  0.00     0.012 C 
BRANCH  19  21
HETATM   21  C2  UNL     1       2.756   7.407   8.142  1.00  0.00     0.002 C 
HETATM   22  C1  UNL     1       1.735   7.301   7.014  1.00  0.00     0.005 C 
ENDBRANCH  19  21
ENDBRANCH  18  19
BRANCH  18  23
HETATM   23  C37 UNL     1       4.056   6.631  10.356  1.00  0.00     0.163 C 
HETATM   24  O8  UNL     1       3.972   5.428  10.172  1.00  0.00    -0.648 OA
BRANCH  23  25
HETATM   25  O9  UNL     1       5.282   7.214  10.370  1.00  0.00    -0.775 OA
HETATM   26  H56 UNL     1       5.885   6.463  10.174  1.00  0.00     0.167 HD
ENDBRANCH  23  25
ENDBRANCH  18  23
ENDBRANCH  15  18
ENDBRANCH  13  14
ENDBRANCH  12  13
ENDBRANCH  11  12
ENDBRANCH  10  11
ENDBRANCH   9  10
ENDBRANCH   6   9
ENDBRANCH   4   5
ENDBRANCH   3   4
ENDBRANCH   1   3
BRANCH   1  27
HETATM   27  O4  UNL     1      -7.384   4.689  13.660  1.00  0.00    -0.314 OA
BRANCH  27  28
HETATM   28  C16 UNL     1      -8.519   5.539  13.647  1.00  0.00     0.260 C 
BRANCH  28  29
HETATM   29  C17 UNL     1      -8.415   6.937  14.269  1.00  0.00     0.185 C 
HETATM   30  O5  UNL     1      -7.305   7.467  14.406  1.00  0.00    -0.292 OA
BRANCH  29  31
HETATM   31  C18 UNL     1      -9.705   7.598  14.824  1.00  0.00     0.128 C 
HETATM   32  C19 UNL     1      -9.522   9.148  14.859  1.00  0.00     0.047 C 
HETATM   33  C20 UNL     1     -10.904   9.764  14.597  1.00  0.00     0.009 C 
HETATM   34  C21 UNL     1     -11.864   8.579  14.496  1.00  0.00     0.002 C 
HETATM   35  C22 UNL     1     -13.172   8.815  13.710  1.00  0.00    -0.004 C 
HETATM   36  C35 UNL     1     -10.993   7.427  13.944  1.00  0.00    -0.002 C 
HETATM   37  C23 UNL     1     -14.079   9.804  14.474  1.00  0.00     0.010 C 
HETATM   38  C32 UNL     1     -13.874   7.450  13.349  1.00  0.00     0.002 C 
HETATM   39  C24 UNL     1     -15.093   9.103  15.364  1.00  0.00     0.035 C 
HETATM   40  C25 UNL     1     -15.999   8.186  14.582  1.00  0.00    -0.068 C 
HETATM   41  C26 UNL     1     -17.242   7.933  15.035  1.00  0.00     0.053 C 
HETATM   42  C30 UNL     1     -15.446   7.562  13.305  1.00  0.00    -0.016 C 
HETATM   43  C27 UNL     1     -18.162   7.009  14.324  1.00  0.00     0.149 C 
HETATM   44  O7  UNL     1     -19.327   6.911  14.707  1.00  0.00    -0.293 OA
HETATM   45  C28 UNL     1     -17.648   6.243  13.126  1.00  0.00     0.084 C 
HETATM   46  C29 UNL     1     -16.121   6.174  13.120  1.00  0.00     0.022 C 
HETATM   47  C31 UNL     1     -15.833   8.439  12.080  1.00  0.00     0.020 C 
HETATM   48  C33 UNL     1     -13.319   6.291  14.215  1.00  0.00     0.007 C 
HETATM   49  C34 UNL     1     -11.785   6.119  14.148  1.00  0.00     0.013 C 
HETATM   50  C36 UNL     1     -10.664   7.595  12.437  1.00  0.00     0.019 C 
BRANCH  31  51
HETATM   51  O6  UNL     1      -9.981   7.145  16.154  1.00  0.00    -0.381 OA
HETATM   52  H29 UNL     1      -9.720   7.827  16.806  1.00  0.00     0.211 HD
ENDBRANCH  31  51
ENDBRANCH  29  31
ENDBRANCH  28  29
ENDBRANCH  27  28
ENDBRANCH   1  27
TORSDOF 19
ENDMDL
MODEL 3
REMARK minimizedAffinity -8.00791359
REMARK CNNscore 0.423751324
REMARK CNNaffinity 6.77927732
REMARK  19 active torsions:
REMARK  status: ('A' for Active; 'I' for Inactive)
REMARK    1  A    between atoms: C2_2  and  C3_3 
REMARK    2  A    between atoms: C3_3  and  C5_5 
REMARK    3  A    between atoms: C5_5  and  N1_6 
REMARK    4  A    between atoms: C5_5  and  C37_46 
REMARK       I    between atoms: N1_6  and  C6_7 
REMARK    5  A    between atoms: C6_7  and  C7_9 
REMARK    6  A    between atoms: C7_9  and  C8_10 
REMARK    7  A    between atoms: C8_10  and  C9_11 
REMARK    8  A    between atoms: C9_11  and  C10_12 
REMARK    9  A    between atoms: C10_12  and  C11_13 
REMARK   10  A    between atoms: C11_13  and  N2_14 
REMARK       I    between atoms: N2_14  and  C12_15 
REMARK   11  A    between atoms: C12_15  and  C13_17 
REMARK   12  A    between atoms: C13_17  and  C14_18 
REMARK   13  A    between atoms: C14_18  and  C15_19 
REMARK   14  A    between atoms: C15_19  and  O4_21 
REMARK   15  A    between atoms: O4_21  and  C16_22 
REMARK   16  A    between atoms: C16_22  and  C17_23 
REMARK   17  A    between atoms: C17_23  and  C18_25 
REMARK   18  A    between atoms: C18_25  and  O6_26 
REMARK   19  A    between atoms: C37_46  and  O9_48 
ROOT
HETATM    1  C15 UNL     1       1.696   7.853  10.957  1.00  0.00     0.259 C 
HETATM    2  O3  UNL     1       1.069   8.020   9.920  1.00  0.00    -0.265 OA
ENDROOT
BRANCH   1   3
HETATM    3  C14 UNL     1       2.371   6.555  11.336  1.00  0.00     0.120 C 
BRANCH   3   4
HETATM    4  C13 UNL     1       3.627   6.247  10.527  1.00  0.00     0.112 C 
BRANCH   4   5
HETATM    5  C12 UNL     1       4.852   6.926  11.104  1.00  0.00     0.217 C 
HETATM    6  N2  UNL     1       4.686   7.333  12.414  1.00  0.00    -0.361 N 
HETATM    7  H22 UNL     1       3.735   7.427  12.744  1.00  0.00     0.162 HD
HETATM    8  O2  UNL     1       5.890   7.088  10.469  1.00  0.00    -0.274 OA
BRANCH   6   9
HETATM    9  C11 UNL     1       5.718   8.115  13.067  1.00  0.00     0.122 C 
BRANCH   9  10
HETATM   10  C10 UNL     1       6.203   7.494  14.378  1.00  0.00     0.020 C 
BRANCH  10  11
HETATM   11  C9  UNL     1       7.723   7.514  14.573  1.00  0.00     0.002 C 
BRANCH  11  12
HETATM   12  C8  UNL     1       8.340   8.914  14.568  1.00  0.00     0.009 C 
BRANCH  12  13
HETATM   13  C7  UNL     1       9.486   9.028  15.578  1.00  0.00     0.103 C 
BRANCH  13  14
HETATM   14  C6  UNL     1       9.424  10.309  16.389  1.00  0.00     0.218 C 
HETATM   15  N1  UNL     1      10.629  10.651  16.957  1.00  0.00    -0.346 N 
HETATM   16  H11 UNL     1      11.299   9.898  17.081  1.00  0.00     0.163 HD
HETATM   17  O1  UNL     1       8.393  10.951  16.546  1.00  0.00    -0.274 OA
BRANCH  15  18
HETATM   18  C5  UNL     1      10.727  11.729  17.954  1.00  0.00     0.186 C 
BRANCH  18  19
HETATM   19  C3  UNL     1      11.829  12.743  17.546  1.00  0.00     0.014 C 
HETATM   20  C4  UNL     1      11.551  13.357  16.165  1.00  0.00     0.012 C 
BRANCH  19  21
HETATM   21  C2  UNL     1      13.226  12.071  17.568  1.00  0.00     0.002 C 
HETATM   22  C1  UNL     1      13.784  11.742  16.188  1.00  0.00     0.005 C 
ENDBRANCH  19  21
ENDBRANCH  18  19
BRANCH  18  23
HETATM   23  C37 UNL     1      11.030  11.071  19.315  1.00  0.00     0.163 C 
HETATM   24  O8  UNL     1      10.667  11.455  20.415  1.00  0.00    -0.648 OA
BRANCH  23  25
HETATM   25  O9  UNL     1      11.863  10.002  19.229  1.00  0.00    -0.775 OA
HETATM   26  H56 UNL     1      11.968   9.730  20.168  1.00  0.00     0.167 HD
ENDBRANCH  23  25
ENDBRANCH  18  23
ENDBRANCH  15  18
ENDBRANCH  13  14
ENDBRANCH  12  13
ENDBRANCH  11  12
ENDBRANCH  10  11
ENDBRANCH   9  10
ENDBRANCH   6   9
ENDBRANCH   4   5
ENDBRANCH   3   4
ENDBRANCH   1   3
BRANCH   1  27
HETATM   27  O4  UNL     1       1.784   8.767  11.959  1.00  0.00    -0.314 OA
BRANCH  27  28
HETATM   28  C16 UNL     1       1.137   8.397  13.166  1.00  0.00     0.260 C 
BRANCH  28  29
HETATM   29  C17 UNL     1      -0.267   8.940  13.460  1.00  0.00     0.185 C 
HETATM   30  O5  UNL     1      -0.399   9.964  14.140  1.00  0.00    -0.292 OA
BRANCH  29  31
HETATM   31  C18 UNL     1      -1.493   8.111  12.992  1.00  0.00     0.128 C 
HETATM   32  C19 UNL     1      -1.054   6.636  12.727  1.00  0.00     0.047 C 
HETATM   33  C20 UNL     1      -2.255   5.746  13.080  1.00  0.00     0.009 C 
HETATM   34  C21 UNL     1      -3.378   6.710  13.460  1.00  0.00     0.002 C 
HETATM   35  C22 UNL     1      -4.492   6.149  14.369  1.00  0.00    -0.004 C 
HETATM   36  C35 UNL     1      -2.645   7.941  14.044  1.00  0.00    -0.002 C 
HETATM   37  C23 UNL     1      -5.321   5.094  13.603  1.00  0.00     0.010 C 
HETATM   38  C32 UNL     1      -5.356   7.310  14.994  1.00  0.00     0.002 C 
HETATM   39  C24 UNL     1      -6.562   5.683  12.951  1.00  0.00     0.035 C 
HETATM   40  C25 UNL     1      -7.484   6.323  13.957  1.00  0.00    -0.068 C 
HETATM   41  C26 UNL     1      -8.806   6.384  13.705  1.00  0.00     0.053 C 
HETATM   42  C30 UNL     1      -6.861   6.900  15.225  1.00  0.00    -0.016 C 
HETATM   43  C27 UNL     1      -9.753   7.036  14.644  1.00  0.00     0.149 C 
HETATM   44  O7  UNL     1     -10.962   6.953  14.430  1.00  0.00    -0.293 OA
HETATM   45  C28 UNL     1      -9.205   7.752  15.857  1.00  0.00     0.084 C 
HETATM   46  C29 UNL     1      -7.729   8.108  15.677  1.00  0.00     0.022 C 
HETATM   47  C31 UNL     1      -6.903   5.839  16.361  1.00  0.00     0.020 C 
HETATM   48  C33 UNL     1      -5.145   8.639  14.226  1.00  0.00     0.007 C 
HETATM   49  C34 UNL     1      -3.671   9.090  14.119  1.00  0.00     0.013 C 
HETATM   50  C36 UNL     1      -2.069   7.676  15.461  1.00  0.00     0.019 C 
BRANCH  31  51
HETATM   51  O6  UNL     1      -2.039   8.644  11.779  1.00  0.00    -0.381 OA
HETATM   52  H29 UNL     1      -1.766   8.097  11.015  1.00  0.00     0.211 HD
ENDBRANCH  31  51
ENDBRANCH  29  31
ENDBRANCH  28  29
ENDBRANCH  27  28
ENDBRANCH   1  27
TORSDOF 19
ENDMDL
MODEL 4
REMARK minimizedAffinity -7.78921318
REMARK CNNscore 0.409040719
REMARK CNNaffinity 6.90287781
REMARK  19 active torsions:
REMARK  status: ('A' for Active; 'I' for Inactive)
REMARK    1  A    between atoms: C2_2  and  C3_3 
REMARK    2  A    between atoms: C3_3  and  C5_5 
REMARK    3  A    between atoms: C5_5  and  N1_6 
REMARK    4  A    between atoms: C5_5  and  C37_46 
REMARK       I    between atoms: N1_6  and  C6_7 
REMARK    5  A    between atoms: C6_7  and  C7_9 
REMARK    6  A    between atoms: C7_9  and  C8_10 
REMARK    7  A    between atoms: C8_10  and  C9_11 
REMARK    8  A    between atoms: C9_11  and  C10_12 
REMARK    9  A    between atoms: C10_12  and  C11_13 
REMARK   10  A    between atoms: C11_13  and  N2_14 
REMARK       I    between atoms: N2_14  and  C12_15 
REMARK   11  A    between atoms: C12_15  and  C13_17 
REMARK   12  A    between atoms: C13_17  and  C14_18 
REMARK   13  A    between atoms: C14_18  and  C15_19 
REMARK   14  A    between atoms: C15_19  and  O4_21 
REMARK   15  A    between atoms: O4_21  and  C16_22 
REMARK   16  A    between atoms: C16_22  and  C17_23 
REMARK   17  A    between atoms: C17_23  and  C18_25 
REMARK   18  A    between atoms: C18_25  and  O6_26 
REMARK   19  A    between atoms: C37_46  and  O9_48 
ROOT
HETATM    1  C15 UNL     1       2.585   5.844  10.104  1.00  0.00     0.259 C 
HETATM    2  O3  UNL     1       2.623   5.147   9.099  1.00  0.00    -0.265 OA
ENDROOT
BRANCH   1   3
HETATM    3  C14 UNL     1       3.812   6.322  10.845  1.00  0.00     0.120 C 
BRANCH   3   4
HETATM    4  C13 UNL     1       3.789   7.807  11.193  1.00  0.00     0.112 C 
BRANCH   4   5
HETATM    5  C12 UNL     1       4.485   8.093  12.508  1.00  0.00     0.217 C 
HETATM    6  N2  UNL     1       5.426   7.139  12.846  1.00  0.00    -0.361 N 
HETATM    7  H22 UNL     1       5.348   6.241  12.388  1.00  0.00     0.162 HD
HETATM    8  O2  UNL     1       4.239   9.078  13.196  1.00  0.00    -0.274 OA
BRANCH   6   9
HETATM    9  C11 UNL     1       6.086   7.196  14.136  1.00  0.00     0.122 C 
BRANCH   9  10
HETATM   10  C10 UNL     1       7.102   8.334  14.241  1.00  0.00     0.020 C 
BRANCH  10  11
HETATM   11  C9  UNL     1       8.483   8.016  13.657  1.00  0.00     0.002 C 
BRANCH  11  12
HETATM   12  C8  UNL     1       9.605   7.945  14.694  1.00  0.00     0.009 C 
BRANCH  12  13
HETATM   13  C7  UNL     1      10.984   8.076  14.042  1.00  0.00     0.103 C 
BRANCH  13  14
HETATM   14  C6  UNL     1      11.338   9.515  13.712  1.00  0.00     0.218 C 
HETATM   15  N1  UNL     1      12.088  10.127  14.689  1.00  0.00    -0.346 N 
HETATM   16  H11 UNL     1      12.032   9.726  15.620  1.00  0.00     0.163 HD
HETATM   17  O1  UNL     1      10.962  10.078  12.692  1.00  0.00    -0.274 OA
BRANCH  15  18
HETATM   18  C5  UNL     1      12.345  11.576  14.662  1.00  0.00     0.186 C 
BRANCH  18  19
HETATM   19  C3  UNL     1      13.855  11.861  14.877  1.00  0.00     0.014 C 
HETATM   20  C4  UNL     1      14.696  11.398  13.677  1.00  0.00     0.012 C 
BRANCH  19  21
HETATM   21  C2  UNL     1      14.358  11.189  16.181  1.00  0.00     0.002 C 
HETATM   22  C1  UNL     1      15.162  12.111  17.091  1.00  0.00     0.005 C 
ENDBRANCH  19  21
ENDBRANCH  18  19
BRANCH  18  23
HETATM   23  C37 UNL     1      11.479  12.218  15.765  1.00  0.00     0.163 C 
HETATM   24  O8  UNL     1      10.544  11.704  16.358  1.00  0.00    -0.648 OA
BRANCH  23  25
HETATM   25  O9  UNL     1      11.778  13.520  16.003  1.00  0.00    -0.775 OA
HETATM   26  H56 UNL     1      11.128  13.771  16.697  1.00  0.00     0.167 HD
ENDBRANCH  23  25
ENDBRANCH  18  23
ENDBRANCH  15  18
ENDBRANCH  13  14
ENDBRANCH  12  13
ENDBRANCH  11  12
ENDBRANCH  10  11
ENDBRANCH   9  10
ENDBRANCH   6   9
ENDBRANCH   4   5
ENDBRANCH   3   4
ENDBRANCH   1   3
BRANCH   1  27
HETATM   27  O4  UNL     1       1.445   6.193  10.757  1.00  0.00    -0.314 OA
BRANCH  27  28
HETATM   28  C16 UNL     1       1.180   5.453  11.938  1.00  0.00     0.260 C 
BRANCH  28  29
HETATM   29  C17 UNL     1      -0.059   5.795  12.773  1.00  0.00     0.185 C 
HETATM   30  O5  UNL     1       0.075   6.323  13.884  1.00  0.00    -0.292 OA
BRANCH  29  31
HETATM   31  C18 UNL     1      -1.450   5.352  12.247  1.00  0.00     0.128 C 
HETATM   32  C19 UNL     1      -1.446   3.810  11.998  1.00  0.00     0.047 C 
HETATM   33  C20 UNL     1      -2.868   3.310  12.293  1.00  0.00     0.009 C 
HETATM   34  C21 UNL     1      -3.679   4.562  12.623  1.00  0.00     0.002 C 
HETATM   35  C22 UNL     1      -4.948   4.356  13.479  1.00  0.00    -0.004 C 
HETATM   36  C35 UNL     1      -2.648   5.533  13.245  1.00  0.00    -0.002 C 
HETATM   37  C23 UNL     1      -6.011   3.579  12.673  1.00  0.00     0.010 C 
HETATM   38  C32 UNL     1      -5.465   5.724  14.068  1.00  0.00     0.002 C 
HETATM   39  C24 UNL     1      -6.998   4.495  11.966  1.00  0.00     0.035 C 
HETATM   40  C25 UNL     1      -7.739   5.385  12.932  1.00  0.00    -0.068 C 
HETATM   41  C26 UNL     1      -8.974   5.823  12.620  1.00  0.00     0.053 C 
HETATM   42  C30 UNL     1      -7.033   5.769  14.228  1.00  0.00    -0.016 C 
HETATM   43  C27 UNL     1      -9.733   6.731  13.517  1.00  0.00     0.149 C 
HETATM   44  O7  UNL     1     -10.903   6.999  13.247  1.00  0.00    -0.293 OA
HETATM   45  C28 UNL     1      -9.056   7.269  14.756  1.00  0.00     0.084 C 
HETATM   46  C29 UNL     1      -7.534   7.181  14.645  1.00  0.00     0.022 C 
HETATM   47  C31 UNL     1      -7.431   4.777  15.358  1.00  0.00     0.020 C 
HETATM   48  C33 UNL     1      -4.844   6.927  13.315  1.00  0.00     0.007 C 
HETATM   49  C34 UNL     1      -3.300   6.930  13.277  1.00  0.00     0.013 C 
HETATM   50  C36 UNL     1      -2.237   5.127  14.686  1.00  0.00     0.019 C 
BRANCH  31  51
HETATM   51  O6  UNL     1      -1.764   6.008  11.013  1.00  0.00    -0.381 OA
HETATM   52  H29 UNL     1      -1.627   5.398  10.260  1.00  0.00     0.211 HD
ENDBRANCH  31  51
ENDBRANCH  29  31
ENDBRANCH  28  29
ENDBRANCH  27  28
ENDBRANCH   1  27
TORSDOF 19
ENDMDL
MODEL 5
REMARK minimizedAffinity -7.73896599
REMARK CNNscore 0.382512897
REMARK CNNaffinity 6.81287336
REMARK  19 active torsions:
REMARK  status: ('A' for Active; 'I' for Inactive)
REMARK    1  A    between atoms: C2_2  and  C3_3 
REMARK    2  A    between atoms: C3_3  and  C5_5 
REMARK    3  A    between atoms: C5_5  and  N1_6 
REMARK    4  A    between atoms: C5_5  and  C37_46 
REMARK       I    between atoms: N1_6  and  C6_7 
REMARK    5  A    between atoms: C6_7  and  C7_9 
REMARK    6  A    between atoms: C7_9  and  C8_10 
REMARK    7  A    between atoms: C8_10  and  C9_11 
REMARK    8  A    between atoms: C9_11  and  C10_12 
REMARK    9  A    between atoms: C10_12  and  C11_13 
REMARK   10  A    between atoms: C11_13  and  N2_14 
REMARK       I    between atoms: N2_14  and  C12_15 
REMARK   11  A    between atoms: C12_15  and  C13_17 
REMARK   12  A    between atoms: C13_17  and  C14_18 
REMARK   13  A    between atoms: C14_18  and  C15_19 
REMARK   14  A    between atoms: C15_19  and  O4_21 
REMARK   15  A    between atoms: O4_21  and  C16_22 
REMARK   16  A    between atoms: C16_22  and  C17_23 
REMARK   17  A    between atoms: C17_23  and  C18_25 
REMARK   18  A    between atoms: C18_25  and  O6_26 
REMARK   19  A    between atoms: C37_46  and  O9_48 
ROOT
HETATM    1  C15 UNL     1      -8.017   4.634  12.907  1.00  0.00     0.259 C 
HETATM    2  O3  UNL     1      -8.583   3.550  12.955  1.00  0.00    -0.265 OA
ENDROOT
BRANCH   1   3
HETATM    3  C14 UNL     1      -6.521   4.811  13.027  1.00  0.00     0.120 C 
BRANCH   3   4
HETATM    4  C13 UNL     1      -5.711   3.625  12.513  1.00  0.00     0.112 C 
BRANCH   4   5
HETATM    5  C12 UNL     1      -4.228   3.800  12.765  1.00  0.00     0.217 C 
HETATM    6  N2  UNL     1      -3.934   4.892  13.560  1.00  0.00    -0.361 N 
HETATM    7  H22 UNL     1      -4.646   5.606  13.633  1.00  0.00     0.162 HD
HETATM    8  O2  UNL     1      -3.377   3.041  12.313  1.00  0.00    -0.274 OA
BRANCH   6   9
HETATM    9  C11 UNL     1      -2.554   5.274  13.786  1.00  0.00     0.122 C 
BRANCH   9  10
HETATM   10  C10 UNL     1      -2.045   6.311  12.784  1.00  0.00     0.020 C 
BRANCH  10  11
HETATM   11  C9  UNL     1      -1.063   7.334  13.364  1.00  0.00     0.002 C 
BRANCH  11  12
HETATM   12  C8  UNL     1       0.150   6.718  14.065  1.00  0.00     0.009 C 
BRANCH  12  13
HETATM   13  C7  UNL     1       1.091   6.037  13.068  1.00  0.00     0.103 C 
BRANCH  13  14
HETATM   14  C6  UNL     1       1.833   7.031  12.193  1.00  0.00     0.218 C 
HETATM   15  N1  UNL     1       2.488   6.442  11.137  1.00  0.00    -0.346 N 
HETATM   16  H11 UNL     1       2.706   5.455  11.234  1.00  0.00     0.163 HD
HETATM   17  O1  UNL     1       1.869   8.232  12.430  1.00  0.00    -0.274 OA
BRANCH  15  18
HETATM   18  C5  UNL     1       3.439   7.200  10.308  1.00  0.00     0.186 C 
BRANCH  18  19
HETATM   19  C3  UNL     1       2.926   7.292   8.846  1.00  0.00     0.014 C 
HETATM   20  C4  UNL     1       3.268   8.649   8.209  1.00  0.00     0.012 C 
BRANCH  19  21
HETATM   21  C2  UNL     1       1.397   7.037   8.786  1.00  0.00     0.002 C 
HETATM   22  C1  UNL     1       0.551   8.305   8.790  1.00  0.00     0.005 C 
ENDBRANCH  19  21
ENDBRANCH  18  19
BRANCH  18  23
HETATM   23  C37 UNL     1       4.800   6.480  10.392  1.00  0.00     0.163 C 
HETATM   24  O8  UNL     1       5.896   6.995  10.538  1.00  0.00    -0.648 OA
BRANCH  23  25
HETATM   25  O9  UNL     1       4.719   5.139  10.194  1.00  0.00    -0.775 OA
HETATM   26  H56 UNL     1       5.657   4.852  10.253  1.00  0.00     0.167 HD
ENDBRANCH  23  25
ENDBRANCH  18  23
ENDBRANCH  15  18
ENDBRANCH  13  14
ENDBRANCH  12  13
ENDBRANCH  11  12
ENDBRANCH  10  11
ENDBRANCH   9  10
ENDBRANCH   6   9
ENDBRANCH   4   5
ENDBRANCH   3   4
ENDBRANCH   1   3
BRANCH   1  27
HETATM   27  O4  UNL     1      -8.655   5.833  12.850  1.00  0.00    -0.314 OA
BRANCH  27  28
HETATM   28  C16 UNL     1      -8.965   6.407  14.110  1.00  0.00     0.260 C 
BRANCH  28  29
HETATM   29  C17 UNL     1      -9.957   7.574  14.176  1.00  0.00     0.185 C 
HETATM   30  O5  UNL     1      -9.663   8.595  14.810  1.00  0.00    -0.292 OA
BRANCH  29  31
HETATM   31  C18 UNL     1     -11.361   7.388  13.541  1.00  0.00     0.128 C 
HETATM   32  C19 UNL     1     -12.069   6.159  14.195  1.00  0.00     0.047 C 
HETATM   33  C20 UNL     1     -13.573   6.471  14.209  1.00  0.00     0.009 C 
HETATM   34  C21 UNL     1     -13.717   7.817  13.501  1.00  0.00     0.002 C 
HETATM   35  C22 UNL     1     -14.978   8.642  13.834  1.00  0.00    -0.004 C 
HETATM   36  C35 UNL     1     -12.387   8.548  13.797  1.00  0.00    -0.002 C 
HETATM   37  C23 UNL     1     -16.236   7.936  13.280  1.00  0.00     0.010 C 
HETATM   38  C32 UNL     1     -14.823  10.138  13.361  1.00  0.00     0.002 C 
HETATM   39  C24 UNL     1     -16.634   8.443  11.902  1.00  0.00     0.035 C 
HETATM   40  C25 UNL     1     -16.921   9.922  11.902  1.00  0.00    -0.068 C 
HETATM   41  C26 UNL     1     -17.784  10.433  11.002  1.00  0.00     0.053 C 
HETATM   42  C30 UNL     1     -16.191  10.788  12.924  1.00  0.00    -0.016 C 
HETATM   43  C27 UNL     1     -18.075  11.887  10.933  1.00  0.00     0.149 C 
HETATM   44  O7  UNL     1     -18.964  12.285  10.181  1.00  0.00    -0.293 OA
HETATM   45  C28 UNL     1     -17.294  12.832  11.817  1.00  0.00     0.084 C 
HETATM   46  C29 UNL     1     -15.990  12.198  12.300  1.00  0.00     0.022 C 
HETATM   47  C31 UNL     1     -17.072  10.958  14.194  1.00  0.00     0.020 C 
HETATM   48  C33 UNL     1     -13.668  10.282  12.339  1.00  0.00     0.007 C 
HETATM   49  C34 UNL     1     -12.304   9.751  12.835  1.00  0.00     0.013 C 
HETATM   50  C36 UNL     1     -12.296   9.057  15.260  1.00  0.00     0.019 C 
BRANCH  31  51
HETATM   51  O6  UNL     1     -11.260   7.153  12.131  1.00  0.00    -0.381 OA
HETATM   52  H29 UNL     1     -11.384   6.203  11.936  1.00  0.00     0.211 HD
ENDBRANCH  31  51
ENDBRANCH  29  31
ENDBRANCH  28  29
ENDBRANCH  27  28
ENDBRANCH   1  27
TORSDOF 19
ENDMDL
MODEL 6
REMARK minimizedAffinity -7.27176666
REMARK CNNscore 0.376855016
REMARK CNNaffinity 7.13181305
REMARK  19 active torsions:
REMARK  status: ('A' for Active; 'I' for Inactive)
REMARK    1  A    between atoms: C2_2  and  C3_3 
REMARK    2  A    between atoms: C3_3  and  C5_5 
REMARK    3  A    between atoms: C5_5  and  N1_6 
REMARK    4  A    between atoms: C5_5  and  C37_46 
REMARK       I    between atoms: N1_6  and  C6_7 
REMARK    5  A    between atoms: C6_7  and  C7_9 
REMARK    6  A    between atoms: C7_9  and  C8_10 
REMARK    7  A    between atoms: C8_10  and  C9_11 
REMARK    8  A    between atoms: C9_11  and  C10_12 
REMARK    9  A    between atoms: C10_12  and  C11_13 
REMARK   10  A    between atoms: C11_13  and  N2_14 
REMARK       I    between atoms: N2_14  and  C12_15 
REMARK   11  A    between atoms: C12_15  and  C13_17 
REMARK   12  A    between atoms: C13_17  and  C14_18 
REMARK   13  A    between atoms: C14_18  and  C15_19 
REMARK   14  A    between atoms: C15_19  and  O4_21 
REMARK   15  A    between atoms: O4_21  and  C16_22 
REMARK   16  A    between atoms: C16_22  and  C17_23 
REMARK   17  A    between atoms: C17_23  and  C18_25 
REMARK   18  A    between atoms: C18_25  and  O6_26 
REMARK   19  A    between atoms: C37_46  and  O9_48 
ROOT
HETATM    1  C15 UNL     1       1.628   6.003  11.234  1.00  0.00     0.259 C 
HETATM    2  O3  UNL     1       2.716   6.300  10.760  1.00  0.00    -0.265 OA
ENDROOT
BRANCH   1   3
HETATM    3  C14 UNL     1       0.929   6.804  12.309  1.00  0.00     0.120 C 
BRANCH   3   4
HETATM    4  C13 UNL     1       1.629   8.112  12.663  1.00  0.00     0.112 C 
BRANCH   4   5
HETATM    5  C12 UNL     1       2.600   7.941  13.814  1.00  0.00     0.217 C 
HETATM    6  N2  UNL     1       3.772   8.655  13.650  1.00  0.00    -0.361 N 
HETATM    7  H22 UNL     1       3.998   8.949  12.709  1.00  0.00     0.162 HD
HETATM    8  O2  UNL     1       2.362   7.242  14.794  1.00  0.00    -0.274 OA
BRANCH   6   9
HETATM    9  C11 UNL     1       4.857   8.495  14.598  1.00  0.00     0.122 C 
BRANCH   9  10
HETATM   10  C10 UNL     1       6.219   8.309  13.927  1.00  0.00     0.020 C 
BRANCH  10  11
HETATM   11  C9  UNL     1       7.399   8.183  14.896  1.00  0.00     0.002 C 
BRANCH  11  12
HETATM   12  C8  UNL     1       8.012   9.520  15.320  1.00  0.00     0.009 C 
BRANCH  12  13
HETATM   13  C7  UNL     1       9.363   9.325  16.014  1.00  0.00     0.103 C 
BRANCH  13  14
HETATM   14  C6  UNL     1      10.043  10.640  16.346  1.00  0.00     0.218 C 
HETATM   15  N1  UNL     1      11.391  10.640  16.069  1.00  0.00    -0.346 N 
HETATM   16  H11 UNL     1      11.842   9.732  16.019  1.00  0.00     0.163 HD
HETATM   17  O1  UNL     1       9.453  11.590  16.844  1.00  0.00    -0.274 OA
BRANCH  15  18
HETATM   18  C5  UNL     1      12.265  11.734  16.522  1.00  0.00     0.186 C 
BRANCH  18  19
HETATM   19  C3  UNL     1      13.349  12.036  15.453  1.00  0.00     0.014 C 
HETATM   20  C4  UNL     1      12.920  13.180  14.519  1.00  0.00     0.012 C 
BRANCH  19  21
HETATM   21  C2  UNL     1      13.677  10.762  14.631  1.00  0.00     0.002 C 
HETATM   22  C1  UNL     1      13.099  10.762  13.220  1.00  0.00     0.005 C 
ENDBRANCH  19  21
ENDBRANCH  18  19
BRANCH  18  23
HETATM   23  C37 UNL     1      12.891  11.298  17.862  1.00  0.00     0.163 C 
HETATM   24  O8  UNL     1      14.062  11.388  18.191  1.00  0.00    -0.648 OA
BRANCH  23  25
HETATM   25  O9  UNL     1      12.015  10.679  18.696  1.00  0.00    -0.775 OA
HETATM   26  H56 UNL     1      12.575  10.451  19.471  1.00  0.00     0.167 HD
ENDBRANCH  23  25
ENDBRANCH  18  23
ENDBRANCH  15  18
ENDBRANCH  13  14
ENDBRANCH  12  13
ENDBRANCH  11  12
ENDBRANCH  10  11
ENDBRANCH   9  10
ENDBRANCH   6   9
ENDBRANCH   4   5
ENDBRANCH   3   4
ENDBRANCH   1   3
BRANCH   1  27
HETATM   27  O4  UNL     1       0.948   4.862  10.946  1.00  0.00    -0.314 OA
BRANCH  27  28
HETATM   28  C16 UNL     1      -0.445   4.910  11.216  1.00  0.00     0.260 C 
BRANCH  28  29
HETATM   29  C17 UNL     1      -1.197   3.605  11.501  1.00  0.00     0.185 C 
HETATM   30  O5  UNL     1      -0.562   2.567  11.727  1.00  0.00    -0.292 OA
BRANCH  29  31
HETATM   31  C18 UNL     1      -2.743   3.600  11.373  1.00  0.00     0.128 C 
HETATM   32  C19 UNL     1      -3.260   2.126  11.363  1.00  0.00     0.047 C 
HETATM   33  C20 UNL     1      -4.638   2.136  12.042  1.00  0.00     0.009 C 
HETATM   34  C21 UNL     1      -4.927   3.603  12.355  1.00  0.00     0.002 C 
HETATM   35  C22 UNL     1      -5.931   3.881  13.495  1.00  0.00    -0.004 C 
HETATM   36  C35 UNL     1      -3.531   4.229  12.576  1.00  0.00    -0.002 C 
HETATM   37  C23 UNL     1      -7.348   3.434  13.075  1.00  0.00     0.010 C 
HETATM   38  C32 UNL     1      -5.848   5.380  13.974  1.00  0.00     0.002 C 
HETATM   39  C24 UNL     1      -8.169   4.568  12.479  1.00  0.00     0.035 C 
HETATM   40  C25 UNL     1      -8.335   5.716  13.442  1.00  0.00    -0.068 C 
HETATM   41  C26 UNL     1      -9.421   6.508  13.354  1.00  0.00     0.053 C 
HETATM   42  C30 UNL     1      -7.234   5.942  14.474  1.00  0.00    -0.016 C 
HETATM   43  C27 UNL     1      -9.616   7.674  14.252  1.00  0.00     0.149 C 
HETATM   44  O7  UNL     1     -10.682   8.286  14.216  1.00  0.00    -0.293 OA
HETATM   45  C28 UNL     1      -8.511   8.050  15.212  1.00  0.00     0.084 C 
HETATM   46  C29 UNL     1      -7.168   7.466  14.776  1.00  0.00     0.022 C 
HETATM   47  C31 UNL     1      -7.599   5.216  15.800  1.00  0.00     0.020 C 
HETATM   48  C33 UNL     1      -5.118   6.261  12.929  1.00  0.00     0.007 C 
HETATM   49  C34 UNL     1      -3.707   5.761  12.544  1.00  0.00     0.013 C 
HETATM   50  C36 UNL     1      -2.897   3.816  13.932  1.00  0.00     0.019 C 
BRANCH  31  51
HETATM   51  O6  UNL     1      -3.160   4.232  10.157  1.00  0.00    -0.381 OA
HETATM   52  H29 UNL     1      -3.410   3.559   9.493  1.00  0.00     0.211 HD
ENDBRANCH  31  51
ENDBRANCH  29  31
ENDBRANCH  28  29
ENDBRANCH  27  28
ENDBRANCH   1  27
TORSDOF 19
ENDMDL
MODEL 7
REMARK minimizedAffinity -7.95210075
REMARK CNNscore 0.372958273
REMARK CNNaffinity 7.70819092
REMARK  19 active torsions:
REMARK  status: ('A' for Active; 'I' for Inactive)
REMARK    1  A    between atoms: C2_2  and  C3_3 
REMARK    2  A    between atoms: C3_3  and  C5_5 
REMARK    3  A    between atoms: C5_5  and  N1_6 
REMARK    4  A    between atoms: C5_5  and  C37_46 
REMARK       I    between atoms: N1_6  and  C6_7 
REMARK    5  A    between atoms: C6_7  and  C7_9 
REMARK    6  A    between atoms: C7_9  and  C8_10 
REMARK    7  A    between atoms: C8_10  and  C9_11 
REMARK    8  A    between atoms: C9_11  and  C10_12 
REMARK    9  A    between atoms: C10_12  and  C11_13 
REMARK   10  A    between atoms: C11_13  and  N2_14 
REMARK       I    between atoms: N2_14  and  C12_15 
REMARK   11  A    between atoms: C12_15  and  C13_17 
REMARK   12  A    between atoms: C13_17  and  C14_18 
REMARK   13  A    between atoms: C14_18  and  C15_19 
REMARK   14  A    between atoms: C15_19  and  O4_21 
REMARK   15  A    between atoms: O4_21  and  C16_22 
REMARK   16  A    between atoms: C16_22  and  C17_23 
REMARK   17  A    between atoms: C17_23  and  C18_25 
REMARK   18  A    between atoms: C18_25  and  O6_26 
REMARK   19  A    between atoms: C37_46  and  O9_48 
ROOT
HETATM    1  C15 UNL     1     -15.972   7.281  11.969  1.00  0.00     0.259 C 
HETATM    2  O3  UNL     1     -16.131   7.961  10.964  1.00  0.00    -0.265 OA
ENDROOT
BRANCH   1   3
HETATM    3  C14 UNL     1     -17.100   6.817  12.861  1.00  0.00     0.120 C 
BRANCH   3   4
HETATM    4  C13 UNL     1     -17.691   5.467  12.467  1.00  0.00     0.112 C 
BRANCH   4   5
HETATM    5  C12 UNL     1     -17.550   4.442  13.573  1.00  0.00     0.217 C 
HETATM    6  N2  UNL     1     -16.327   4.495  14.215  1.00  0.00    -0.361 N 
HETATM    7  H22 UNL     1     -15.575   4.957  13.722  1.00  0.00     0.162 HD
HETATM    8  O2  UNL     1     -18.440   3.650  13.870  1.00  0.00    -0.274 OA
BRANCH   6   9
HETATM    9  C11 UNL     1     -15.986   3.495  15.208  1.00  0.00     0.122 C 
BRANCH   9  10
HETATM   10  C10 UNL     1     -14.965   2.473  14.706  1.00  0.00     0.020 C 
BRANCH  10  11
HETATM   11  C9  UNL     1     -15.451   1.020  14.723  1.00  0.00     0.002 C 
BRANCH  11  12
HETATM   12  C8  UNL     1     -14.844   0.165  15.837  1.00  0.00     0.009 C 
BRANCH  12  13
HETATM   13  C7  UNL     1     -15.725  -1.044  16.163  1.00  0.00     0.103 C 
BRANCH  13  14
HETATM   14  C6  UNL     1     -15.140  -2.347  15.650  1.00  0.00     0.218 C 
HETATM   15  N1  UNL     1     -13.834  -2.229  15.232  1.00  0.00    -0.346 N 
HETATM   16  H11 UNL     1     -13.523  -1.296  14.980  1.00  0.00     0.163 HD
HETATM   17  O1  UNL     1     -15.782  -3.388  15.584  1.00  0.00    -0.274 OA
BRANCH  15  18
HETATM   18  C5  UNL     1     -13.163  -3.316  14.501  1.00  0.00     0.186 C 
BRANCH  18  19
HETATM   19  C3  UNL     1     -13.785  -3.480  13.089  1.00  0.00     0.014 C 
HETATM   20  C4  UNL     1     -14.826  -2.388  12.797  1.00  0.00     0.012 C 
BRANCH  19  21
HETATM   21  C2  UNL     1     -14.418  -4.887  12.930  1.00  0.00     0.002 C 
HETATM   22  C1  UNL     1     -13.573  -5.866  12.123  1.00  0.00     0.005 C 
ENDBRANCH  19  21
ENDBRANCH  18  19
BRANCH  18  23
HETATM   23  C37 UNL     1     -13.312  -4.598  15.345  1.00  0.00     0.163 C 
HETATM   24  O8  UNL     1     -14.351  -5.096  15.749  1.00  0.00    -0.648 OA
BRANCH  23  25
HETATM   25  O9  UNL     1     -12.127  -5.145  15.718  1.00  0.00    -0.775 OA
HETATM   26  H56 UNL     1     -12.403  -5.919  16.258  1.00  0.00     0.167 HD
ENDBRANCH  23  25
ENDBRANCH  18  23
ENDBRANCH  15  18
ENDBRANCH  13  14
ENDBRANCH  12  13
ENDBRANCH  11  12
ENDBRANCH  10  11
ENDBRANCH   9  10
ENDBRANCH   6   9
ENDBRANCH   4   5
ENDBRANCH   3   4
ENDBRANCH   1   3
BRANCH   1  27
HETATM   27  O4  UNL     1     -14.762   6.940  12.485  1.00  0.00    -0.314 OA
BRANCH  27  28
HETATM   28  C16 UNL     1     -14.365   7.685  13.626  1.00  0.00     0.260 C 
BRANCH  28  29
HETATM   29  C17 UNL     1     -13.699   9.052  13.432  1.00  0.00     0.185 C 
HETATM   30  O5  UNL     1     -14.356   9.996  12.975  1.00  0.00    -0.292 OA
BRANCH  29  31
HETATM   31  C18 UNL     1     -12.176   9.178  13.702  1.00  0.00     0.128 C 
HETATM   32  C19 UNL     1     -11.948   9.878  15.080  1.00  0.00     0.047 C 
HETATM   33  C20 UNL     1     -10.662   9.282  15.671  1.00  0.00     0.009 C 
HETATM   34  C21 UNL     1     -10.131   8.323  14.607  1.00  0.00     0.002 C 
HETATM   35  C22 UNL     1      -9.202   7.192  15.099  1.00  0.00    -0.004 C 
HETATM   36  C35 UNL     1     -11.398   7.826  13.874  1.00  0.00    -0.002 C 
HETATM   37  C23 UNL     1      -7.862   7.782  15.590  1.00  0.00     0.010 C 
HETATM   38  C32 UNL     1      -9.044   6.068  14.005  1.00  0.00     0.002 C 
HETATM   39  C24 UNL     1      -6.791   7.785  14.510  1.00  0.00     0.035 C 
HETATM   40  C25 UNL     1      -6.501   6.399  13.993  1.00  0.00    -0.068 C 
HETATM   41  C26 UNL     1      -5.281   6.115  13.496  1.00  0.00     0.053 C 
HETATM   42  C30 UNL     1      -7.629   5.373  14.039  1.00  0.00    -0.016 C 
HETATM   43  C27 UNL     1      -4.952   4.778  12.941  1.00  0.00     0.149 C 
HETATM   44  O7  UNL     1      -3.791   4.532  12.618  1.00  0.00    -0.293 OA
HETATM   45  C28 UNL     1      -6.050   3.746  12.822  1.00  0.00     0.084 C 
HETATM   46  C29 UNL     1      -7.434   4.395  12.846  1.00  0.00     0.022 C 
HETATM   47  C31 UNL     1      -7.531   4.542  15.349  1.00  0.00     0.020 C 
HETATM   48  C33 UNL     1      -9.495   6.577  12.613  1.00  0.00     0.007 C 
HETATM   49  C34 UNL     1     -10.933   7.141  12.573  1.00  0.00     0.013 C 
HETATM   50  C36 UNL     1     -12.220   6.815  14.718  1.00  0.00     0.019 C 
BRANCH  31  51
HETATM   51  O6  UNL     1     -11.538   9.961  12.687  1.00  0.00    -0.381 OA
HETATM   52  H29 UNL     1     -11.359  10.865  13.017  1.00  0.00     0.211 HD
ENDBRANCH  31  51
ENDBRANCH  29  31
ENDBRANCH  28  29
ENDBRANCH  27  28
ENDBRANCH   1  27
TORSDOF 19
ENDMDL
MODEL 8
REMARK minimizedAffinity -8.4612999
REMARK CNNscore 0.366235554
REMARK CNNaffinity 6.98227882
REMARK  19 active torsions:
REMARK  status: ('A' for Active; 'I' for Inactive)
REMARK    1  A    between atoms: C2_2  and  C3_3 
REMARK    2  A    between atoms: C3_3  and  C5_5 
REMARK    3  A    between atoms: C5_5  and  N1_6 
REMARK    4  A    between atoms: C5_5  and  C37_46 
REMARK       I    between atoms: N1_6  and  C6_7 
REMARK    5  A    between atoms: C6_7  and  C7_9 
REMARK    6  A    between atoms: C7_9  and  C8_10 
REMARK    7  A    between atoms: C8_10  and  C9_11 
REMARK    8  A    between atoms: C9_11  and  C10_12 
REMARK    9  A    between atoms: C10_12  and  C11_13 
REMARK   10  A    between atoms: C11_13  and  N2_14 
REMARK       I    between atoms: N2_14  and  C12_15 
REMARK   11  A    between atoms: C12_15  and  C13_17 
REMARK   12  A    between atoms: C13_17  and  C14_18 
REMARK   13  A    between atoms: C14_18  and  C15_19 
REMARK   14  A    between atoms: C15_19  and  O4_21 
REMARK   15  A    between atoms: O4_21  and  C16_22 
REMARK   16  A    between atoms: C16_22  and  C17_23 
REMARK   17  A    between atoms: C17_23  and  C18_25 
REMARK   18  A    between atoms: C18_25  and  O6_26 
REMARK   19  A    between atoms: C37_46  and  O9_48 
ROOT
HETATM    1  C15 UNL     1       5.963   6.936  10.953  1.00  0.00     0.259 C 
HETATM    2  O3  UNL     1       6.618   5.939  10.683  1.00  0.00    -0.265 OA
ENDROOT
BRANCH   1   3
HETATM    3  C14 UNL     1       6.362   7.950  12.001  1.00  0.00     0.120 C 
BRANCH   3   4
HETATM    4  C13 UNL     1       6.573   7.359  13.390  1.00  0.00     0.112 C 
BRANCH   4   5
HETATM    5  C12 UNL     1       7.929   7.721  13.961  1.00  0.00     0.217 C 
HETATM    6  N2  UNL     1       8.027   7.495  15.321  1.00  0.00    -0.361 N 
HETATM    7  H22 UNL     1       7.159   7.419  15.833  1.00  0.00     0.162 HD
HETATM    8  O2  UNL     1       8.847   8.163  13.278  1.00  0.00    -0.274 OA
BRANCH   6   9
HETATM    9  C11 UNL     1       9.215   7.913  16.041  1.00  0.00     0.122 C 
BRANCH   9  10
HETATM   10  C10 UNL     1       9.277   9.423  16.272  1.00  0.00     0.020 C 
BRANCH  10  11
HETATM   11  C9  UNL     1       8.304   9.950  17.332  1.00  0.00     0.002 C 
BRANCH  11  12
HETATM   12  C8  UNL     1       8.879  11.055  18.222  1.00  0.00     0.009 C 
BRANCH  12  13
HETATM   13  C7  UNL     1       7.947  12.267  18.288  1.00  0.00     0.103 C 
BRANCH  13  14
HETATM   14  C6  UNL     1       7.709  12.744  19.709  1.00  0.00     0.218 C 
HETATM   15  N1  UNL     1       8.344  11.972  20.654  1.00  0.00    -0.346 N 
HETATM   16  H11 UNL     1       8.588  11.026  20.376  1.00  0.00     0.163 HD
HETATM   17  O1  UNL     1       6.995  13.700  19.983  1.00  0.00    -0.274 OA
BRANCH  15  18
HETATM   18  C5  UNL     1       8.063  12.134  22.090  1.00  0.00     0.186 C 
BRANCH  18  19
HETATM   19  C3  UNL     1       6.602  12.615  22.302  1.00  0.00     0.014 C 
HETATM   20  C4  UNL     1       6.550  13.948  23.066  1.00  0.00     0.012 C 
BRANCH  19  21
HETATM   21  C2  UNL     1       5.773  11.534  23.044  1.00  0.00     0.002 C 
HETATM   22  C1  UNL     1       4.303  11.489  22.643  1.00  0.00     0.005 C 
ENDBRANCH  19  21
ENDBRANCH  18  19
BRANCH  18  23
HETATM   23  C37 UNL     1       9.085  13.144  22.648  1.00  0.00     0.163 C 
HETATM   24  O8  UNL     1       9.145  13.576  23.788  1.00  0.00    -0.648 OA
BRANCH  23  25
HETATM   25  O9  UNL     1       9.933  13.636  21.709  1.00  0.00    -0.775 OA
HETATM   26  H56 UNL     1      10.483  14.270  22.221  1.00  0.00     0.167 HD
ENDBRANCH  23  25
ENDBRANCH  18  23
ENDBRANCH  15  18
ENDBRANCH  13  14
ENDBRANCH  12  13
ENDBRANCH  11  12
ENDBRANCH  10  11
ENDBRANCH   9  10
ENDBRANCH   6   9
ENDBRANCH   4   5
ENDBRANCH   3   4
ENDBRANCH   1   3
BRANCH   1  27
HETATM   27  O4  UNL     1       4.738   7.217  10.436  1.00  0.00    -0.314 OA
BRANCH  27  28
HETATM   28  C16 UNL     1       3.641   6.755  11.208  1.00  0.00     0.260 C 
BRANCH  28  29
HETATM   29  C17 UNL     1       2.341   7.569  11.223  1.00  0.00     0.185 C 
HETATM   30  O5  UNL     1       2.388   8.797  11.367  1.00  0.00    -0.292 OA
BRANCH  29  31
HETATM   31  C18 UNL     1       0.991   6.806  11.181  1.00  0.00     0.128 C 
HETATM   32  C19 UNL     1       1.259   5.268  11.235  1.00  0.00     0.047 C 
HETATM   33  C20 UNL     1       0.077   4.639  11.988  1.00  0.00     0.009 C 
HETATM   34  C21 UNL     1      -0.880   5.793  12.281  1.00  0.00     0.002 C 
HETATM   35  C22 UNL     1      -1.850   5.602  13.467  1.00  0.00    -0.004 C 
HETATM   36  C35 UNL     1       0.040   7.030  12.410  1.00  0.00    -0.002 C 
HETATM   37  C23 UNL     1      -2.883   4.503  13.136  1.00  0.00     0.010 C 
HETATM   38  C32 UNL     1      -2.493   6.974  13.904  1.00  0.00     0.002 C 
HETATM   39  C24 UNL     1      -4.173   5.065  12.559  1.00  0.00     0.035 C 
HETATM   40  C25 UNL     1      -4.844   6.032  13.501  1.00  0.00    -0.068 C 
HETATM   41  C26 UNL     1      -6.181   6.189  13.453  1.00  0.00     0.053 C 
HETATM   42  C30 UNL     1      -3.958   6.814  14.465  1.00  0.00    -0.016 C 
HETATM   43  C27 UNL     1      -6.888   7.155  14.331  1.00  0.00     0.149 C 
HETATM   44  O7  UNL     1      -8.118   7.169  14.338  1.00  0.00    -0.293 OA
HETATM   45  C28 UNL     1      -6.074   8.067  15.220  1.00  0.00     0.084 C 
HETATM   46  C29 UNL     1      -4.633   8.190  14.726  1.00  0.00     0.022 C 
HETATM   47  C31 UNL     1      -3.873   6.066  15.826  1.00  0.00     0.020 C 
HETATM   48  C33 UNL     1      -2.323   8.047  12.799  1.00  0.00     0.007 C 
HETATM   49  C34 UNL     1      -0.863   8.278  12.350  1.00  0.00     0.013 C 
HETATM   50  C36 UNL     1       0.843   7.043  13.738  1.00  0.00     0.019 C 
BRANCH  31  51
HETATM   51  O6  UNL     1       0.275   7.096   9.974  1.00  0.00    -0.381 OA
HETATM   52  H29 UNL     1       0.361   6.355   9.342  1.00  0.00     0.211 HD
ENDBRANCH  31  51
ENDBRANCH  29  31
ENDBRANCH  28  29
ENDBRANCH  27  28
ENDBRANCH   1  27
TORSDOF 19
ENDMDL
MODEL 9
REMARK minimizedAffinity -8.18049431
REMARK CNNscore 0.347367138
REMARK CNNaffinity 7.06887102
REMARK  19 active torsions:
REMARK  status: ('A' for Active; 'I' for Inactive)
REMARK    1  A    between atoms: C2_2  and  C3_3 
REMARK    2  A    between atoms: C3_3  and  C5_5 
REMARK    3  A    between atoms: C5_5  and  N1_6 
REMARK    4  A    between atoms: C5_5  and  C37_46 
REMARK       I    between atoms: N1_6  and  C6_7 
REMARK    5  A    between atoms: C6_7  and  C7_9 
REMARK    6  A    between atoms: C7_9  and  C8_10 
REMARK    7  A    between atoms: C8_10  and  C9_11 
REMARK    8  A    between atoms: C9_11  and  C10_12 
REMARK    9  A    between atoms: C10_12  and  C11_13 
REMARK   10  A    between atoms: C11_13  and  N2_14 
REMARK       I    between atoms: N2_14  and  C12_15 
REMARK   11  A    between atoms: C12_15  and  C13_17 
REMARK   12  A    between atoms: C13_17  and  C14_18 
REMARK   13  A    between atoms: C14_18  and  C15_19 
REMARK   14  A    between atoms: C15_19  and  O4_21 
REMARK   15  A    between atoms: O4_21  and  C16_22 
REMARK   16  A    between atoms: C16_22  and  C17_23 
REMARK   17  A    between atoms: C17_23  and  C18_25 
REMARK   18  A    between atoms: C18_25  and  O6_26 
REMARK   19  A    between atoms: C37_46  and  O9_48 
ROOT
HETATM    1  C15 UNL     1       1.938   6.500  10.592  1.00  0.00     0.259 C 
HETATM    2  O3  UNL     1       1.704   5.521   9.897  1.00  0.00    -0.265 OA
ENDROOT
BRANCH   1   3
HETATM    3  C14 UNL     1       3.262   6.752  11.277  1.00  0.00     0.120 C 
BRANCH   3   4
HETATM    4  C13 UNL     1       4.420   7.005  10.316  1.00  0.00     0.112 C 
BRANCH   4   5
HETATM    5  C12 UNL     1       5.761   6.951  11.019  1.00  0.00     0.217 C 
HETATM    6  N2  UNL     1       5.660   6.660  12.367  1.00  0.00    -0.361 N 
HETATM    7  H22 UNL     1       4.759   6.814  12.799  1.00  0.00     0.162 HD
HETATM    8  O2  UNL     1       6.828   7.141  10.444  1.00  0.00    -0.274 OA
BRANCH   6   9
HETATM    9  C11 UNL     1       6.841   6.702  13.208  1.00  0.00     0.122 C 
BRANCH   9  10
HETATM   10  C10 UNL     1       6.752   7.752  14.316  1.00  0.00     0.020 C 
BRANCH  10  11
HETATM   11  C9  UNL     1       8.105   8.241  14.845  1.00  0.00     0.002 C 
BRANCH  11  12
HETATM   12  C8  UNL     1       8.041   8.896  16.227  1.00  0.00     0.009 C 
BRANCH  12  13
HETATM   13  C7  UNL     1       9.161   9.923  16.415  1.00  0.00     0.103 C 
BRANCH  13  14
HETATM   14  C6  UNL     1       9.106  10.605  17.770  1.00  0.00     0.218 C 
HETATM   15  N1  UNL     1      10.140  11.489  17.975  1.00  0.00    -0.346 N 
HETATM   16  H11 UNL     1      10.973  11.348  17.412  1.00  0.00     0.163 HD
HETATM   17  O1  UNL     1       8.244  10.362  18.605  1.00  0.00    -0.274 OA
BRANCH  15  18
HETATM   18  C5  UNL     1      10.388  12.081  19.299  1.00  0.00     0.186 C 
BRANCH  18  19
HETATM   19  C3  UNL     1      10.248  13.626  19.234  1.00  0.00     0.014 C 
HETATM   20  C4  UNL     1       8.841  14.049  18.783  1.00  0.00     0.012 C 
BRANCH  19  21
HETATM   21  C2  UNL     1      11.322  14.233  18.295  1.00  0.00     0.002 C 
HETATM   22  C1  UNL     1      10.880  14.366  16.842  1.00  0.00     0.005 C 
ENDBRANCH  19  21
ENDBRANCH  18  19
BRANCH  18  23
HETATM   23  C37 UNL     1      11.803  11.653  19.737  1.00  0.00     0.163 C 
HETATM   24  O8  UNL     1      12.719  12.383  20.080  1.00  0.00    -0.648 OA
BRANCH  23  25
HETATM   25  O9  UNL     1      12.025  10.318  19.631  1.00  0.00    -0.775 OA
HETATM   26  H56 UNL     1      12.961  10.228  19.917  1.00  0.00     0.167 HD
ENDBRANCH  23  25
ENDBRANCH  18  23
ENDBRANCH  15  18
ENDBRANCH  13  14
ENDBRANCH  12  13
ENDBRANCH  11  12
ENDBRANCH  10  11
ENDBRANCH   9  10
ENDBRANCH   6   9
ENDBRANCH   4   5
ENDBRANCH   3   4
ENDBRANCH   1   3
BRANCH   1  27
HETATM   27  O4  UNL     1       1.017   7.438  10.937  1.00  0.00    -0.314 OA
BRANCH  27  28
HETATM   28  C16 UNL     1       0.597   7.395  12.292  1.00  0.00     0.260 C 
BRANCH  28  29
HETATM   29  C17 UNL     1       0.020   6.091  12.856  1.00  0.00     0.185 C 
HETATM   30  O5  UNL     1       0.690   5.414  13.645  1.00  0.00    -0.292 OA
BRANCH  29  31
HETATM   31  C18 UNL     1      -1.348   5.595  12.318  1.00  0.00     0.128 C 
HETATM   32  C19 UNL     1      -1.293   4.049  12.101  1.00  0.00     0.047 C 
HETATM   33  C20 UNL     1      -2.703   3.511  12.385  1.00  0.00     0.009 C 
HETATM   34  C21 UNL     1      -3.558   4.744  12.678  1.00  0.00     0.002 C 
HETATM   35  C22 UNL     1      -4.832   4.517  13.518  1.00  0.00    -0.004 C 
HETATM   36  C35 UNL     1      -2.567   5.759  13.294  1.00  0.00    -0.002 C 
HETATM   37  C23 UNL     1      -5.859   3.690  12.713  1.00  0.00     0.010 C 
HETATM   38  C32 UNL     1      -5.401   5.880  14.072  1.00  0.00     0.002 C 
HETATM   39  C24 UNL     1      -6.863   4.561  11.973  1.00  0.00     0.035 C 
HETATM   40  C25 UNL     1      -7.645   5.447  12.908  1.00  0.00    -0.068 C 
HETATM   41  C26 UNL     1      -8.888   5.841  12.569  1.00  0.00     0.053 C 
HETATM   42  C30 UNL     1      -6.972   5.879  14.207  1.00  0.00    -0.016 C 
HETATM   43  C27 UNL     1      -9.688   6.743  13.435  1.00  0.00     0.149 C 
HETATM   44  O7  UNL     1     -10.862   6.969  13.143  1.00  0.00    -0.293 OA
HETATM   45  C28 UNL     1      -9.047   7.327  14.673  1.00  0.00     0.084 C 
HETATM   46  C29 UNL     1      -7.522   7.283  14.587  1.00  0.00     0.022 C 
HETATM   47  C31 UNL     1      -7.357   4.899  15.351  1.00  0.00     0.020 C 
HETATM   48  C33 UNL     1      -4.805   7.085  13.303  1.00  0.00     0.007 C 
HETATM   49  C34 UNL     1      -3.261   7.136  13.287  1.00  0.00     0.013 C 
HETATM   50  C36 UNL     1      -2.166   5.396  14.749  1.00  0.00     0.019 C 
BRANCH  31  51
HETATM   51  O6  UNL     1      -1.663   6.215  11.066  1.00  0.00    -0.381 OA
HETATM   52  H29 UNL     1      -1.496   5.595  10.328  1.00  0.00     0.211 HD
ENDBRANCH  31  51
ENDBRANCH  29  31
ENDBRANCH  28  29
ENDBRANCH  27  28
ENDBRANCH   1  27
TORSDOF 19
ENDMDL
