MODEL 1
REMARK minimizedAffinity -6.49794626
REMARK CNNscore 0.531419098
REMARK CNNaffinity 7.36096525
REMARK  13 active torsions:
REMARK  status: ('A' for Active; 'I' for Inactive)
REMARK    1  A    between atoms: O1_2  and  C2_3 
REMARK    2  A    between atoms: C2_3  and  C3_5 
REMARK    3  A    between atoms: C19_25  and  C20_26 
REMARK    4  A    between atoms: C20_26  and  C21_27 
REMARK    5  A    between atoms: C21_27  and  C22_28 
REMARK    6  A    between atoms: C22_28  and  O7_29 
REMARK    7  A    between atoms: C24_32  and  C25_33 
REMARK    8  A    between atoms: C25_33  and  C27_35 
REMARK    9  A    between atoms: C38_46  and  O8_47 
REMARK   10  A    between atoms: C39_48  and  O9_49 
REMARK   11  A    between atoms: C40_50  and  C41_51 
REMARK   12  A    between atoms: C41_51  and  C42_52 
REMARK   13  A    between atoms: C42_52  and  O11_54 
ROOT
HETATM    1  C3  UNL     1     -13.494  16.073  19.599  1.00  0.00     0.019 C 
HETATM    2  C4  UNL     1     -13.463  14.880  20.226  1.00  0.00    -0.006 C 
HETATM    3  C5  UNL     1     -12.806  13.628  19.683  1.00  0.00     0.043 C 
HETATM    4  C6  UNL     1     -11.529  13.358  20.551  1.00  0.00    -0.001 C 
HETATM    5  C7  UNL     1     -10.538  14.545  20.597  1.00  0.00     0.032 C 
HETATM    6  C8  UNL     1      -9.903  15.000  19.323  1.00  0.00    -0.030 C 
HETATM    7  C9  UNL     1     -10.510  15.242  18.150  1.00  0.00    -0.023 C 
HETATM    8  C10 UNL     1     -11.968  15.087  17.772  1.00  0.00     0.047 C 
HETATM    9  C11 UNL     1     -12.536  13.699  18.158  1.00  0.00     0.141 C 
HETATM   10  O3  UNL     1     -13.768  13.563  17.438  1.00  0.00    -0.351 OA
HETATM   11  C12 UNL     1     -13.861  12.534  16.435  1.00  0.00     0.297 C 
HETATM   12  O4  UNL     1     -14.322  11.286  16.968  1.00  0.00    -0.347 OA
HETATM   13  C13 UNL     1     -13.768  10.052  16.497  1.00  0.00     0.191 C 
HETATM   14  C14 UNL     1     -13.115   9.345  17.709  1.00  0.00     0.203 C 
HETATM   15  O5  UNL     1     -12.274  10.274  18.386  1.00  0.00    -0.388 OA
HETATM   16  C15 UNL     1     -11.571   9.716  19.488  1.00  0.00     0.167 C 
HETATM   17  C16 UNL     1     -11.551  10.768  20.590  1.00  0.00     0.027 C 
HETATM   18  C17 UNL     1     -10.785  12.048  20.192  1.00  0.00     0.007 C 
HETATM   19  C18 UNL     1     -12.959  10.044  15.146  1.00  0.00     0.148 C 
HETATM   20  O6  UNL     1     -13.490   8.927  14.357  1.00  0.00    -0.332 OA
HETATM   21  C19 UNL     1     -12.816   7.722  14.370  1.00  0.00     0.075 C 
HETATM   22  C23 UNL     1     -11.547   7.630  14.789  1.00  0.00     0.072 A 
HETATM   23  N1  UNL     1     -10.650   6.606  14.908  1.00  0.00    -0.357 N 
HETATM   24  C24 UNL     1      -9.394   7.086  15.277  1.00  0.00     0.014 A 
HETATM   25  C33 UNL     1      -9.440   8.424  15.466  1.00  0.00     0.039 A 
HETATM   26  C34 UNL     1     -10.810   8.819  15.192  1.00  0.00     0.001 A 
HETATM   27  C35 UNL     1     -11.438  10.000  15.350  1.00  0.00    -0.027 C 
HETATM   28  C36 UNL     1     -10.761  11.260  15.821  1.00  0.00     0.041 C 
HETATM   29  C37 UNL     1     -11.402  12.543  15.301  1.00  0.00     0.050 C 
HETATM   30  C38 UNL     1     -12.940  12.547  15.166  1.00  0.00     0.136 C 
HETATM   31  C39 UNL     1     -13.339  11.310  14.341  1.00  0.00     0.199 C 
HETATM   32  C40 UNL     1     -12.932  16.254  18.189  1.00  0.00     0.044 C 
HETATM   33  H30 UNL     1     -10.785   5.712  14.456  1.00  0.00     0.166 HD
ENDROOT
BRANCH  24  34
HETATM   34  C25 UNL     1      -8.236   6.140  15.483  1.00  0.00     0.035 C 
HETATM   35  C26 UNL     1      -7.326   6.712  16.582  1.00  0.00     0.017 C 
BRANCH  34  36
HETATM   36  C27 UNL     1      -7.472   5.780  14.176  1.00  0.00    -0.005 C 
HETATM   37  C28 UNL     1      -8.445   5.675  12.979  1.00  0.00     0.005 C 
HETATM   38  C29 UNL     1      -7.919   4.768  11.872  1.00  0.00     0.000 C 
HETATM   39  C30 UNL     1      -7.732   3.328  12.365  1.00  0.00     0.000 C 
HETATM   40  C31 UNL     1      -7.364   3.245  13.845  1.00  0.00     0.000 C 
HETATM   41  C32 UNL     1      -6.614   4.499  14.298  1.00  0.00     0.005 C 
ENDBRANCH  34  36
ENDBRANCH  24  34
BRANCH  21  42
HETATM   42  C20 UNL     1     -13.610   6.555  13.857  1.00  0.00     0.069 C 
BRANCH  42  43
HETATM   43  C21 UNL     1     -15.118   6.764  14.097  1.00  0.00     0.033 C 
BRANCH  43  44
HETATM   44  C22 UNL     1     -15.878   6.886  12.781  1.00  0.00     0.164 C 
BRANCH  44  45
HETATM   45  O7  UNL     1     -15.199   7.810  11.932  1.00  0.00    -0.401 OA
HETATM   46  H29 UNL     1     -15.787   7.969  11.161  1.00  0.00     0.209 HD
ENDBRANCH  44  45
ENDBRANCH  43  44
ENDBRANCH  42  43
ENDBRANCH  21  42
BRANCH  31  47
HETATM   47  O9  UNL     1     -12.706  11.371  13.045  1.00  0.00    -0.389 OA
HETATM   48  H53 UNL     1     -12.911  12.262  12.719  1.00  0.00     0.210 HD
ENDBRANCH  31  47
BRANCH  30  49
HETATM   49  O8  UNL     1     -13.219  13.746  14.385  1.00  0.00    -0.382 OA
HETATM   50  H51 UNL     1     -14.188  13.887  14.384  1.00  0.00     0.210 HD
ENDBRANCH  30  49
BRANCH  32  51
HETATM   51  C41 UNL     1     -12.294  17.612  17.805  1.00  0.00     0.120 C 
BRANCH  51  52
HETATM   52  C42 UNL     1     -12.409  17.946  16.338  1.00  0.00     0.140 C 
HETATM   53  O10 UNL     1     -13.221  17.534  15.522  1.00  0.00    -0.650 OA
BRANCH  52  54
HETATM   54  O11 UNL     1     -11.420  18.786  15.940  1.00  0.00    -0.776 OA
HETATM   55  H57 UNL     1     -11.603  18.915  14.984  1.00  0.00     0.167 HD
ENDBRANCH  52  54
ENDBRANCH  51  52
ENDBRANCH  32  51
BRANCH   1  56
HETATM   56  C2  UNL     1     -14.203  17.137  20.371  1.00  0.00     0.289 C 
HETATM   57  O2  UNL     1     -15.418  17.170  20.539  1.00  0.00    -0.260 OA
BRANCH  56  58
HETATM   58  O1  UNL     1     -13.330  18.035  20.889  1.00  0.00    -0.323 OA
HETATM   59  C1  UNL     1     -13.893  19.330  21.109  1.00  0.00     0.213 C 
ENDBRANCH  56  58
ENDBRANCH   1  56
TORSDOF 13
ENDMDL
MODEL 2
REMARK minimizedAffinity -6.91786957
REMARK CNNscore 0.20378916
REMARK CNNaffinity 6.25915527
REMARK  13 active torsions:
REMARK  status: ('A' for Active; 'I' for Inactive)
REMARK    1  A    between atoms: O1_2  and  C2_3 
REMARK    2  A    between atoms: C2_3  and  C3_5 
REMARK    3  A    between atoms: C19_25  and  C20_26 
REMARK    4  A    between atoms: C20_26  and  C21_27 
REMARK    5  A    between atoms: C21_27  and  C22_28 
REMARK    6  A    between atoms: C22_28  and  O7_29 
REMARK    7  A    between atoms: C24_32  and  C25_33 
REMARK    8  A    between atoms: C25_33  and  C27_35 
REMARK    9  A    between atoms: C38_46  and  O8_47 
REMARK   10  A    between atoms: C39_48  and  O9_49 
REMARK   11  A    between atoms: C40_50  and  C41_51 
REMARK   12  A    between atoms: C41_51  and  C42_52 
REMARK   13  A    between atoms: C42_52  and  O11_54 
ROOT
HETATM    1  C3  UNL     1       3.230  11.876  16.163  1.00  0.00     0.019 C 
HETATM    2  C4  UNL     1       2.875  13.060  16.700  1.00  0.00    -0.006 C 
HETATM    3  C5  UNL     1       1.565  13.337  17.409  1.00  0.00     0.043 C 
HETATM    4  C6  UNL     1       1.887  13.507  18.933  1.00  0.00    -0.001 C 
HETATM    5  C7  UNL     1       2.626  12.301  19.558  1.00  0.00     0.032 C 
HETATM    6  C8  UNL     1       1.943  10.972  19.577  1.00  0.00    -0.030 C 
HETATM    7  C9  UNL     1       1.314  10.364  18.558  1.00  0.00    -0.023 C 
HETATM    8  C10 UNL     1       1.079  10.852  17.145  1.00  0.00     0.047 C 
HETATM    9  C11 UNL     1       0.476  12.277  17.102  1.00  0.00     0.141 C 
HETATM   10  O3  UNL     1      -0.018  12.456  15.769  1.00  0.00    -0.351 OA
HETATM   11  C12 UNL     1      -1.436  12.619  15.583  1.00  0.00     0.297 C 
HETATM   12  O4  UNL     1      -1.849  13.990  15.656  1.00  0.00    -0.347 OA
HETATM   13  C13 UNL     1      -3.084  14.339  16.291  1.00  0.00     0.191 C 
HETATM   14  C14 UNL     1      -2.746  15.273  17.477  1.00  0.00     0.203 C 
HETATM   15  O5  UNL     1      -1.707  14.680  18.249  1.00  0.00    -0.388 OA
HETATM   16  C15 UNL     1      -1.353  15.426  19.407  1.00  0.00     0.167 C 
HETATM   17  C16 UNL     1       0.162  15.337  19.555  1.00  0.00     0.027 C 
HETATM   18  C17 UNL     1       0.663  13.898  19.798  1.00  0.00     0.007 C 
HETATM   19  C18 UNL     1      -4.154  13.213  16.552  1.00  0.00     0.148 C 
HETATM   20  O6  UNL     1      -5.433  13.743  16.068  1.00  0.00    -0.332 OA
HETATM   21  C19 UNL     1      -6.307  14.308  16.974  1.00  0.00     0.075 C 
HETATM   22  C23 UNL     1      -6.191  14.094  18.291  1.00  0.00     0.072 A 
HETATM   23  N1  UNL     1      -6.889  14.503  19.393  1.00  0.00    -0.357 N 
HETATM   24  C24 UNL     1      -6.420  13.868  20.542  1.00  0.00     0.014 A 
HETATM   25  C33 UNL     1      -5.370  13.070  20.242  1.00  0.00     0.039 A 
HETATM   26  C34 UNL     1      -5.165  13.201  18.811  1.00  0.00     0.001 A 
HETATM   27  C35 UNL     1      -4.187  12.735  18.011  1.00  0.00    -0.027 C 
HETATM   28  C36 UNL     1      -3.056  11.858  18.483  1.00  0.00     0.041 C 
HETATM   29  C37 UNL     1      -2.502  10.926  17.410  1.00  0.00     0.050 C 
HETATM   30  C38 UNL     1      -2.444  11.480  15.970  1.00  0.00     0.136 C 
HETATM   31  C39 UNL     1      -3.843  12.018  15.620  1.00  0.00     0.199 C 
HETATM   32  C40 UNL     1       2.270  10.686  16.135  1.00  0.00     0.044 C 
HETATM   33  H30 UNL     1      -7.810  14.914  19.329  1.00  0.00     0.166 HD
ENDROOT
BRANCH  24  34
HETATM   34  C25 UNL     1      -7.026  14.167  21.891  1.00  0.00     0.035 C 
HETATM   35  C26 UNL     1      -5.925  14.712  22.814  1.00  0.00     0.017 C 
BRANCH  34  36
HETATM   36  C27 UNL     1      -7.813  12.975  22.509  1.00  0.00    -0.005 C 
HETATM   37  C28 UNL     1      -9.060  12.638  21.659  1.00  0.00     0.005 C 
HETATM   38  C29 UNL     1     -10.157  11.958  22.470  1.00  0.00     0.000 C 
HETATM   39  C30 UNL     1     -10.672  12.866  23.594  1.00  0.00     0.000 C 
HETATM   40  C31 UNL     1      -9.599  13.804  24.143  1.00  0.00     0.000 C 
HETATM   41  C32 UNL     1      -8.203  13.198  23.990  1.00  0.00     0.005 C 
ENDBRANCH  34  36
ENDBRANCH  24  34
BRANCH  21  42
HETATM   42  C20 UNL     1      -7.393  15.144  16.359  1.00  0.00     0.069 C 
BRANCH  42  43
HETATM   43  C21 UNL     1      -7.525  14.857  14.851  1.00  0.00     0.033 C 
BRANCH  43  44
HETATM   44  C22 UNL     1      -8.987  14.805  14.421  1.00  0.00     0.164 C 
BRANCH  44  45
HETATM   45  O7  UNL     1      -9.220  13.599  13.694  1.00  0.00    -0.401 OA
HETATM   46  H29 UNL     1     -10.125  13.668  13.317  1.00  0.00     0.209 HD
ENDBRANCH  44  45
ENDBRANCH  43  44
ENDBRANCH  42  43
ENDBRANCH  21  42
BRANCH  31  47
HETATM   47  O9  UNL     1      -4.809  10.949  15.725  1.00  0.00    -0.389 OA
HETATM   48  H53 UNL     1      -4.422  10.224  15.209  1.00  0.00     0.210 HD
ENDBRANCH  31  47
BRANCH  30  49
HETATM   49  O8  UNL     1      -2.172  10.304  15.153  1.00  0.00    -0.382 OA
HETATM   50  H51 UNL     1      -1.980  10.606  14.242  1.00  0.00     0.210 HD
ENDBRANCH  30  49
BRANCH  32  51
HETATM   51  C41 UNL     1       2.847   9.254  16.249  1.00  0.00     0.120 C 
BRANCH  51  52
HETATM   52  C42 UNL     1       1.943   8.186  15.684  1.00  0.00     0.140 C 
HETATM   53  O10 UNL     1       1.419   8.134  14.581  1.00  0.00    -0.650 OA
BRANCH  52  54
HETATM   54  O11 UNL     1       1.694   7.212  16.595  1.00  0.00    -0.776 OA
HETATM   55  H57 UNL     1       1.100   6.596  16.114  1.00  0.00     0.167 HD
ENDBRANCH  52  54
ENDBRANCH  51  52
ENDBRANCH  32  51
BRANCH   1  56
HETATM   56  C2  UNL     1       4.585  11.886  15.534  1.00  0.00     0.289 C 
HETATM   57  O2  UNL     1       5.635  11.805  16.163  1.00  0.00    -0.260 OA
BRANCH  56  58
HETATM   58  O1  UNL     1       4.501  11.961  14.184  1.00  0.00    -0.323 OA
HETATM   59  C1  UNL     1       4.975  10.794  13.507  1.00  0.00     0.213 C 
ENDBRANCH  56  58
ENDBRANCH   1  56
TORSDOF 13
ENDMDL
MODEL 3
REMARK minimizedAffinity -8.23006725
REMARK CNNscore 0.201209933
REMARK CNNaffinity 6.37582731
REMARK  13 active torsions:
REMARK  status: ('A' for Active; 'I' for Inactive)
REMARK    1  A    between atoms: O1_2  and  C2_3 
REMARK    2  A    between atoms: C2_3  and  C3_5 
REMARK    3  A    between atoms: C19_25  and  C20_26 
REMARK    4  A    between atoms: C20_26  and  C21_27 
REMARK    5  A    between atoms: C21_27  and  C22_28 
REMARK    6  A    between atoms: C22_28  and  O7_29 
REMARK    7  A    between atoms: C24_32  and  C25_33 
REMARK    8  A    between atoms: C25_33  and  C27_35 
REMARK    9  A    between atoms: C38_46  and  O8_47 
REMARK   10  A    between atoms: C39_48  and  O9_49 
REMARK   11  A    between atoms: C40_50  and  C41_51 
REMARK   12  A    between atoms: C41_51  and  C42_52 
REMARK   13  A    between atoms: C42_52  and  O11_54 
ROOT
HETATM    1  C3  UNL     1       0.876   7.458  10.638  1.00  0.00     0.019 C 
HETATM    2  C4  UNL     1       1.453   8.655  10.865  1.00  0.00    -0.006 C 
HETATM    3  C5  UNL     1       1.525   9.345  12.211  1.00  0.00     0.043 C 
HETATM    4  C6  UNL     1       3.018   9.293  12.683  1.00  0.00    -0.001 C 
HETATM    5  C7  UNL     1       3.608   7.864  12.745  1.00  0.00     0.032 C 
HETATM    6  C8  UNL     1       2.997   6.876  13.685  1.00  0.00    -0.030 C 
HETATM    7  C9  UNL     1       1.692   6.603  13.846  1.00  0.00    -0.023 C 
HETATM    8  C10 UNL     1       0.489   7.229  13.174  1.00  0.00     0.047 C 
HETATM    9  C11 UNL     1       0.512   8.776  13.238  1.00  0.00     0.141 C 
HETATM   10  O3  UNL     1      -0.814   9.204  12.904  1.00  0.00    -0.351 OA
HETATM   11  C12 UNL     1      -1.585   9.883  13.913  1.00  0.00     0.297 C 
HETATM   12  O4  UNL     1      -1.389  11.302  13.896  1.00  0.00    -0.347 OA
HETATM   13  C13 UNL     1      -1.328  12.038  15.124  1.00  0.00     0.191 C 
HETATM   14  C14 UNL     1       0.064  12.710  15.192  1.00  0.00     0.203 C 
HETATM   15  O5  UNL     1       1.062  11.733  14.913  1.00  0.00    -0.388 OA
HETATM   16  C15 UNL     1       2.392  12.225  15.007  1.00  0.00     0.167 C 
HETATM   17  C16 UNL     1       3.192  11.583  13.881  1.00  0.00     0.027 C 
HETATM   18  C17 UNL     1       3.291  10.048  14.007  1.00  0.00     0.007 C 
HETATM   19  C18 UNL     1      -1.861  11.364  16.444  1.00  0.00     0.148 C 
HETATM   20  O6  UNL     1      -2.737  12.352  17.083  1.00  0.00    -0.332 OA
HETATM   21  C19 UNL     1      -2.228  13.140  18.096  1.00  0.00     0.075 C 
HETATM   22  C23 UNL     1      -1.097  12.817  18.737  1.00  0.00     0.072 A 
HETATM   23  N1  UNL     1      -0.376  13.384  19.750  1.00  0.00    -0.357 N 
HETATM   24  C24 UNL     1       0.673  12.552  20.138  1.00  0.00     0.014 A 
HETATM   25  C33 UNL     1       0.709  11.447  19.360  1.00  0.00     0.039 A 
HETATM   26  C34 UNL     1      -0.392  11.582  18.424  1.00  0.00     0.001 A 
HETATM   27  C35 UNL     1      -0.739  10.842  17.353  1.00  0.00    -0.027 C 
HETATM   28  C36 UNL     1      -0.023   9.587  16.928  1.00  0.00     0.041 C 
HETATM   29  C37 UNL     1      -0.909   8.585  16.193  1.00  0.00     0.050 C 
HETATM   30  C38 UNL     1      -1.985   9.167  15.251  1.00  0.00     0.136 C 
HETATM   31  C39 UNL     1      -2.799  10.198  16.054  1.00  0.00     0.199 C 
HETATM   32  C40 UNL     1       0.131   6.704  11.739  1.00  0.00     0.044 C 
HETATM   33  H30 UNL     1      -0.756  14.104  20.348  1.00  0.00     0.166 HD
ENDROOT
BRANCH  24  34
HETATM   34  C25 UNL     1       1.622  12.968  21.236  1.00  0.00     0.035 C 
HETATM   35  C26 UNL     1       2.023  14.433  21.009  1.00  0.00     0.017 C 
BRANCH  34  36
HETATM   36  C27 UNL     1       2.840  12.015  21.414  1.00  0.00    -0.005 C 
HETATM   37  C28 UNL     1       2.419  10.540  21.225  1.00  0.00     0.005 C 
HETATM   38  C29 UNL     1       3.339   9.568  21.956  1.00  0.00     0.000 C 
HETATM   39  C30 UNL     1       3.315   9.801  23.471  1.00  0.00     0.000 C 
HETATM   40  C31 UNL     1       3.068  11.261  23.848  1.00  0.00     0.000 C 
HETATM   41  C32 UNL     1       3.579  12.207  22.760  1.00  0.00     0.005 C 
ENDBRANCH  34  36
ENDBRANCH  24  34
BRANCH  21  42
HETATM   42  C20 UNL     1      -3.055  14.349  18.423  1.00  0.00     0.069 C 
BRANCH  42  43
HETATM   43  C21 UNL     1      -4.551  13.989  18.515  1.00  0.00     0.033 C 
BRANCH  43  44
HETATM   44  C22 UNL     1      -4.867  13.253  19.812  1.00  0.00     0.164 C 
BRANCH  44  45
HETATM   45  O7  UNL     1      -4.799  14.173  20.901  1.00  0.00    -0.401 OA
HETATM   46  H29 UNL     1      -4.867  13.641  21.724  1.00  0.00     0.209 HD
ENDBRANCH  44  45
ENDBRANCH  43  44
ENDBRANCH  42  43
ENDBRANCH  21  42
BRANCH  31  47
HETATM   47  O9  UNL     1      -3.405   9.550  17.194  1.00  0.00    -0.389 OA
HETATM   48  H53 UNL     1      -3.840   8.766  16.822  1.00  0.00     0.210 HD
ENDBRANCH  31  47
BRANCH  30  49
HETATM   49  O8  UNL     1      -2.838   8.025  14.946  1.00  0.00    -0.382 OA
HETATM   50  H51 UNL     1      -3.459   8.292  14.238  1.00  0.00     0.210 HD
ENDBRANCH  30  49
BRANCH  32  51
HETATM   51  C41 UNL     1       0.154   5.155  11.735  1.00  0.00     0.120 C 
BRANCH  51  52
HETATM   52  C42 UNL     1      -1.184   4.526  11.436  1.00  0.00     0.140 C 
HETATM   53  O10 UNL     1      -1.507   3.837  10.480  1.00  0.00    -0.650 OA
BRANCH  52  54
HETATM   54  O11 UNL     1      -2.107   4.849  12.377  1.00  0.00    -0.776 OA
HETATM   55  H57 UNL     1      -2.918   4.392  12.066  1.00  0.00     0.167 HD
ENDBRANCH  52  54
ENDBRANCH  51  52
ENDBRANCH  32  51
BRANCH   1  56
HETATM   56  C2  UNL     1       0.960   7.013   9.214  1.00  0.00     0.289 C 
HETATM   57  O2  UNL     1       0.449   7.615   8.275  1.00  0.00    -0.260 OA
BRANCH  56  58
HETATM   58  O1  UNL     1       1.701   5.885   9.093  1.00  0.00    -0.323 OA
HETATM   59  C1  UNL     1       3.055   6.119   8.698  1.00  0.00     0.213 C 
ENDBRANCH  56  58
ENDBRANCH   1  56
TORSDOF 13
ENDMDL
MODEL 4
REMARK minimizedAffinity -7.03780031
REMARK CNNscore 0.192965358
REMARK CNNaffinity 5.85627031
REMARK  13 active torsions:
REMARK  status: ('A' for Active; 'I' for Inactive)
REMARK    1  A    between atoms: O1_2  and  C2_3 
REMARK    2  A    between atoms: C2_3  and  C3_5 
REMARK    3  A    between atoms: C19_25  and  C20_26 
REMARK    4  A    between atoms: C20_26  and  C21_27 
REMARK    5  A    between atoms: C21_27  and  C22_28 
REMARK    6  A    between atoms: C22_28  and  O7_29 
REMARK    7  A    between atoms: C24_32  and  C25_33 
REMARK    8  A    between atoms: C25_33  and  C27_35 
REMARK    9  A    between atoms: C38_46  and  O8_47 
REMARK   10  A    between atoms: C39_48  and  O9_49 
REMARK   11  A    between atoms: C40_50  and  C41_51 
REMARK   12  A    between atoms: C41_51  and  C42_52 
REMARK   13  A    between atoms: C42_52  and  O11_54 
ROOT
HETATM    1  C3  UNL     1     -16.019  12.022  14.320  1.00  0.00     0.019 C 
HETATM    2  C4  UNL     1     -16.325  12.632  15.482  1.00  0.00    -0.006 C 
HETATM    3  C5  UNL     1     -15.356  12.873  16.621  1.00  0.00     0.043 C 
HETATM    4  C6  UNL     1     -15.065  14.412  16.669  1.00  0.00    -0.001 C 
HETATM    5  C7  UNL     1     -14.533  14.992  15.338  1.00  0.00     0.032 C 
HETATM    6  C8  UNL     1     -13.228  14.492  14.808  1.00  0.00    -0.030 C 
HETATM    7  C9  UNL     1     -12.835  13.214  14.684  1.00  0.00    -0.023 C 
HETATM    8  C10 UNL     1     -13.558  11.943  15.078  1.00  0.00     0.047 C 
HETATM    9  C11 UNL     1     -14.086  11.987  16.532  1.00  0.00     0.141 C 
HETATM   10  O3  UNL     1     -14.409  10.634  16.875  1.00  0.00    -0.351 OA
HETATM   11  C12 UNL     1     -13.654   9.997  17.922  1.00  0.00     0.297 C 
HETATM   12  O4  UNL     1     -14.227  10.202  19.219  1.00  0.00    -0.347 OA
HETATM   13  C13 UNL     1     -13.383  10.417  20.356  1.00  0.00     0.191 C 
HETATM   14  C14 UNL     1     -13.726  11.813  20.929  1.00  0.00     0.203 C 
HETATM   15  O5  UNL     1     -13.722  12.761  19.867  1.00  0.00    -0.388 OA
HETATM   16  C15 UNL     1     -13.967  14.097  20.287  1.00  0.00     0.167 C 
HETATM   17  C16 UNL     1     -14.848  14.749  19.228  1.00  0.00     0.027 C 
HETATM   18  C17 UNL     1     -14.163  14.849  17.849  1.00  0.00     0.007 C 
HETATM   19  C18 UNL     1     -11.857  10.043  20.255  1.00  0.00     0.148 C 
HETATM   20  O6  UNL     1     -11.547   9.259  21.455  1.00  0.00    -0.332 OA
HETATM   21  C19 UNL     1     -10.968   9.893  22.536  1.00  0.00     0.075 C 
HETATM   22  C23 UNL     1     -10.381  11.091  22.417  1.00  0.00     0.072 A 
HETATM   23  N1  UNL     1      -9.742  11.934  23.282  1.00  0.00    -0.357 N 
HETATM   24  C24 UNL     1      -9.185  13.016  22.601  1.00  0.00     0.014 A 
HETATM   25  C33 UNL     1      -9.487  12.948  21.284  1.00  0.00     0.039 A 
HETATM   26  C34 UNL     1     -10.279  11.743  21.119  1.00  0.00     0.001 A 
HETATM   27  C35 UNL     1     -10.946  11.262  20.051  1.00  0.00    -0.027 C 
HETATM   28  C36 UNL     1     -10.941  11.910  18.692  1.00  0.00     0.041 C 
HETATM   29  C37 UNL     1     -11.142  10.934  17.537  1.00  0.00     0.050 C 
HETATM   30  C38 UNL     1     -12.110   9.756  17.781  1.00  0.00     0.136 C 
HETATM   31  C39 UNL     1     -11.672   9.054  19.079  1.00  0.00     0.199 C 
HETATM   32  C40 UNL     1     -14.640  11.409  14.074  1.00  0.00     0.044 C 
HETATM   33  H30 UNL     1      -9.422  11.636  24.193  1.00  0.00     0.166 HD
ENDROOT
BRANCH  24  34
HETATM   34  C25 UNL     1      -8.436  14.095  23.345  1.00  0.00     0.035 C 
HETATM   35  C26 UNL     1      -8.826  15.459  22.755  1.00  0.00     0.017 C 
BRANCH  34  36
HETATM   36  C27 UNL     1      -6.898  13.868  23.409  1.00  0.00    -0.005 C 
HETATM   37  C28 UNL     1      -6.148  15.212  23.557  1.00  0.00     0.005 C 
HETATM   38  C29 UNL     1      -4.721  15.150  23.025  1.00  0.00     0.000 C 
HETATM   39  C30 UNL     1      -4.693  14.839  21.523  1.00  0.00     0.000 C 
HETATM   40  C31 UNL     1      -5.859  13.961  21.072  1.00  0.00     0.000 C 
HETATM   41  C32 UNL     1      -6.345  13.061  22.210  1.00  0.00     0.005 C 
ENDBRANCH  34  36
ENDBRANCH  24  34
BRANCH  21  42
HETATM   42  C20 UNL     1     -11.034   9.122  23.823  1.00  0.00     0.069 C 
BRANCH  42  43
HETATM   43  C21 UNL     1     -12.363   8.351  23.940  1.00  0.00     0.033 C 
BRANCH  43  44
HETATM   44  C22 UNL     1     -13.085   8.684  25.241  1.00  0.00     0.164 C 
BRANCH  44  45
HETATM   45  O7  UNL     1     -12.431   9.783  25.872  1.00  0.00    -0.401 OA
HETATM   46  H29 UNL     1     -12.833   9.875  26.764  1.00  0.00     0.209 HD
ENDBRANCH  44  45
ENDBRANCH  43  44
ENDBRANCH  42  43
ENDBRANCH  21  42
BRANCH  31  47
HETATM   47  O9  UNL     1     -10.313   8.586  18.938  1.00  0.00    -0.389 OA
HETATM   48  H53 UNL     1     -10.312   8.102  18.097  1.00  0.00     0.210 HD
ENDBRANCH  31  47
BRANCH  30  49
HETATM   49  O8  UNL     1     -11.866   8.863  16.655  1.00  0.00    -0.382 OA
HETATM   50  H51 UNL     1     -12.550   8.163  16.672  1.00  0.00     0.210 HD
ENDBRANCH  30  49
BRANCH  32  51
HETATM   51  C41 UNL     1     -14.061  11.419  12.637  1.00  0.00     0.120 C 
BRANCH  51  52
HETATM   52  C42 UNL     1     -13.671  10.053  12.128  1.00  0.00     0.140 C 
HETATM   53  O10 UNL     1     -14.273   8.996  12.241  1.00  0.00    -0.650 OA
BRANCH  52  54
HETATM   54  O11 UNL     1     -12.462  10.078  11.512  1.00  0.00    -0.776 OA
HETATM   55  H57 UNL     1     -12.326   9.145  11.240  1.00  0.00     0.167 HD
ENDBRANCH  52  54
ENDBRANCH  51  52
ENDBRANCH  32  51
BRANCH   1  56
HETATM   56  C2  UNL     1     -17.169  11.929  13.372  1.00  0.00     0.289 C 
HETATM   57  O2  UNL     1     -18.305  11.600  13.699  1.00  0.00    -0.260 OA
BRANCH  56  58
HETATM   58  O1  UNL     1     -16.803  12.287  12.117  1.00  0.00    -0.323 OA
HETATM   59  C1  UNL     1     -17.794  13.044  11.418  1.00  0.00     0.213 C 
ENDBRANCH  56  58
ENDBRANCH   1  56
TORSDOF 13
ENDMDL
MODEL 5
REMARK minimizedAffinity -7.25850248
REMARK CNNscore 0.192102715
REMARK CNNaffinity 6.12772512
REMARK  13 active torsions:
REMARK  status: ('A' for Active; 'I' for Inactive)
REMARK    1  A    between atoms: O1_2  and  C2_3 
REMARK    2  A    between atoms: C2_3  and  C3_5 
REMARK    3  A    between atoms: C19_25  and  C20_26 
REMARK    4  A    between atoms: C20_26  and  C21_27 
REMARK    5  A    between atoms: C21_27  and  C22_28 
REMARK    6  A    between atoms: C22_28  and  O7_29 
REMARK    7  A    between atoms: C24_32  and  C25_33 
REMARK    8  A    between atoms: C25_33  and  C27_35 
REMARK    9  A    between atoms: C38_46  and  O8_47 
REMARK   10  A    between atoms: C39_48  and  O9_49 
REMARK   11  A    between atoms: C40_50  and  C41_51 
REMARK   12  A    between atoms: C41_51  and  C42_52 
REMARK   13  A    between atoms: C42_52  and  O11_54 
ROOT
HETATM    1  C3  UNL     1       3.506  10.050  21.840  1.00  0.00     0.019 C 
HETATM    2  C4  UNL     1       4.621  10.408  22.509  1.00  0.00    -0.006 C 
HETATM    3  C5  UNL     1       5.600  11.473  22.062  1.00  0.00     0.043 C 
HETATM    4  C6  UNL     1       5.439  12.692  23.033  1.00  0.00    -0.001 C 
HETATM    5  C7  UNL     1       3.997  13.244  23.115  1.00  0.00     0.032 C 
HETATM    6  C8  UNL     1       3.372  13.806  21.879  1.00  0.00    -0.030 C 
HETATM    7  C9  UNL     1       3.347  13.253  20.655  1.00  0.00    -0.023 C 
HETATM    8  C10 UNL     1       3.965  11.958  20.172  1.00  0.00     0.047 C 
HETATM    9  C11 UNL     1       5.458  11.833  20.560  1.00  0.00     0.141 C 
HETATM   10  O3  UNL     1       5.988  10.774  19.752  1.00  0.00    -0.351 OA
HETATM   11  C12 UNL     1       7.001  11.099  18.782  1.00  0.00     0.297 C 
HETATM   12  O4  UNL     1       8.327  11.018  19.320  1.00  0.00    -0.347 OA
HETATM   13  C13 UNL     1       9.321  11.974  18.935  1.00  0.00     0.191 C 
HETATM   14  C14 UNL     1       9.771  12.714  20.218  1.00  0.00     0.203 C 
HETATM   15  O5  UNL     1       8.616  13.154  20.925  1.00  0.00    -0.388 OA
HETATM   16  C15 UNL     1       8.910  13.904  22.096  1.00  0.00     0.167 C 
HETATM   17  C16 UNL     1       7.899  13.494  23.160  1.00  0.00     0.027 C 
HETATM   18  C17 UNL     1       6.444  13.842  22.779  1.00  0.00     0.007 C 
HETATM   19  C18 UNL     1       9.079  12.853  17.651  1.00  0.00     0.148 C 
HETATM   20  O6  UNL     1      10.314  12.776  16.863  1.00  0.00    -0.332 OA
HETATM   21  C19 UNL     1      11.238  13.795  16.969  1.00  0.00     0.075 C 
HETATM   22  C23 UNL     1      10.915  14.987  17.488  1.00  0.00     0.072 A 
HETATM   23  N1  UNL     1      11.596  16.151  17.710  1.00  0.00    -0.357 N 
HETATM   24  C24 UNL     1      10.735  17.152  18.158  1.00  0.00     0.014 A 
HETATM   25  C33 UNL     1       9.481  16.666  18.297  1.00  0.00     0.039 A 
HETATM   26  C34 UNL     1       9.549  15.270  17.905  1.00  0.00     0.001 A 
HETATM   27  C35 UNL     1       8.631  14.286  17.974  1.00  0.00    -0.027 C 
HETATM   28  C36 UNL     1       7.216  14.484  18.452  1.00  0.00     0.041 C 
HETATM   29  C37 UNL     1       6.212  13.513  17.840  1.00  0.00     0.050 C 
HETATM   30  C38 UNL     1       6.703  12.071  17.587  1.00  0.00     0.136 C 
HETATM   31  C39 UNL     1       8.009  12.158  16.777  1.00  0.00     0.199 C 
HETATM   32  C40 UNL     1       3.166  10.641  20.472  1.00  0.00     0.044 C 
HETATM   33  H30 UNL     1      12.489  16.347  17.281  1.00  0.00     0.166 HD
ENDROOT
BRANCH  24  34
HETATM   34  C25 UNL     1      11.257  18.530  18.486  1.00  0.00     0.035 C 
HETATM   35  C26 UNL     1      12.729  18.613  18.051  1.00  0.00     0.017 C 
BRANCH  34  36
HETATM   36  C27 UNL     1      11.027  18.959  19.964  1.00  0.00    -0.005 C 
HETATM   37  C28 UNL     1      11.616  20.364  20.228  1.00  0.00     0.005 C 
HETATM   38  C29 UNL     1      11.978  20.583  21.694  1.00  0.00     0.000 C 
HETATM   39  C30 UNL     1      13.059  19.600  22.159  1.00  0.00     0.000 C 
HETATM   40  C31 UNL     1      12.993  18.253  21.442  1.00  0.00     0.000 C 
HETATM   41  C32 UNL     1      11.565  17.936  20.993  1.00  0.00     0.005 C 
ENDBRANCH  34  36
ENDBRANCH  24  34
BRANCH  21  42
HETATM   42  C20 UNL     1      12.602  13.461  16.437  1.00  0.00     0.069 C 
BRANCH  42  43
HETATM   43  C21 UNL     1      12.805  11.936  16.352  1.00  0.00     0.033 C 
BRANCH  43  44
HETATM   44  C22 UNL     1      12.954  11.476  14.906  1.00  0.00     0.164 C 
BRANCH  44  45
HETATM   45  O7  UNL     1      12.474  10.138  14.788  1.00  0.00    -0.401 OA
HETATM   46  H29 UNL     1      12.715   9.831  13.886  1.00  0.00     0.209 HD
ENDBRANCH  44  45
ENDBRANCH  43  44
ENDBRANCH  42  43
ENDBRANCH  21  42
BRANCH  31  47
HETATM   47  O9  UNL     1       7.758  12.845  15.532  1.00  0.00    -0.389 OA
HETATM   48  H53 UNL     1       6.982  12.395  15.161  1.00  0.00     0.210 HD
ENDBRANCH  31  47
BRANCH  30  49
HETATM   49  O8  UNL     1       5.663  11.490  16.747  1.00  0.00    -0.382 OA
HETATM   50  H51 UNL     1       5.840  10.530  16.666  1.00  0.00     0.210 HD
ENDBRANCH  30  49
BRANCH  32  51
HETATM   51  C41 UNL     1       1.678  10.842  20.092  1.00  0.00     0.120 C 
BRANCH  51  52
HETATM   52  C42 UNL     1       1.368  10.516  18.652  1.00  0.00     0.140 C 
HETATM   53  O10 UNL     1       0.433  10.903  17.965  1.00  0.00    -0.650 OA
BRANCH  52  54
HETATM   54  O11 UNL     1       2.266   9.641  18.135  1.00  0.00    -0.776 OA
HETATM   55  H57 UNL     1       1.953   9.509  17.214  1.00  0.00     0.167 HD
ENDBRANCH  52  54
ENDBRANCH  51  52
ENDBRANCH  32  51
BRANCH   1  56
HETATM   56  C2  UNL     1       2.720   8.976  22.519  1.00  0.00     0.289 C 
HETATM   57  O2  UNL     1       1.908   8.255  21.949  1.00  0.00    -0.260 OA
BRANCH  56  58
HETATM   58  O1  UNL     1       3.046   8.881  23.831  1.00  0.00    -0.323 OA
HETATM   59  C1  UNL     1       2.415   9.861  24.658  1.00  0.00     0.213 C 
ENDBRANCH  56  58
ENDBRANCH   1  56
TORSDOF 13
ENDMDL
MODEL 6
REMARK minimizedAffinity -8.12977123
REMARK CNNscore 0.182631046
REMARK CNNaffinity 7.3417244
REMARK  13 active torsions:
REMARK  status: ('A' for Active; 'I' for Inactive)
REMARK    1  A    between atoms: O1_2  and  C2_3 
REMARK    2  A    between atoms: C2_3  and  C3_5 
REMARK    3  A    between atoms: C19_25  and  C20_26 
REMARK    4  A    between atoms: C20_26  and  C21_27 
REMARK    5  A    between atoms: C21_27  and  C22_28 
REMARK    6  A    between atoms: C22_28  and  O7_29 
REMARK    7  A    between atoms: C24_32  and  C25_33 
REMARK    8  A    between atoms: C25_33  and  C27_35 
REMARK    9  A    between atoms: C38_46  and  O8_47 
REMARK   10  A    between atoms: C39_48  and  O9_49 
REMARK   11  A    between atoms: C40_50  and  C41_51 
REMARK   12  A    between atoms: C41_51  and  C42_52 
REMARK   13  A    between atoms: C42_52  and  O11_54 
ROOT
HETATM    1  C3  UNL     1       2.269  13.468  17.568  1.00  0.00     0.019 C 
HETATM    2  C4  UNL     1       1.245  13.655  16.711  1.00  0.00    -0.006 C 
HETATM    3  C5  UNL     1       0.272  12.581  16.270  1.00  0.00     0.043 C 
HETATM    4  C6  UNL     1      -1.111  12.904  16.934  1.00  0.00    -0.001 C 
HETATM    5  C7  UNL     1      -1.055  13.022  18.475  1.00  0.00     0.032 C 
HETATM    6  C8  UNL     1      -0.651  11.825  19.272  1.00  0.00    -0.030 C 
HETATM    7  C9  UNL     1       0.403  11.020  19.057  1.00  0.00    -0.023 C 
HETATM    8  C10 UNL     1       1.434  11.061  17.949  1.00  0.00     0.047 C 
HETATM    9  C11 UNL     1       0.790  11.146  16.543  1.00  0.00     0.141 C 
HETATM   10  O3  UNL     1       1.830  10.816  15.613  1.00  0.00    -0.351 OA
HETATM   11  C12 UNL     1       1.687   9.619  14.827  1.00  0.00     0.297 C 
HETATM   12  O4  UNL     1       0.995   9.848  13.593  1.00  0.00    -0.347 OA
HETATM   13  C13 UNL     1       0.071   8.876  13.092  1.00  0.00     0.191 C 
HETATM   14  C14 UNL     1      -1.315   9.558  13.002  1.00  0.00     0.203 C 
HETATM   15  O5  UNL     1      -1.589  10.210  14.237  1.00  0.00    -0.388 OA
HETATM   16  C15 UNL     1      -2.870  10.825  14.292  1.00  0.00     0.167 C 
HETATM   17  C16 UNL     1      -2.707  12.142  15.041  1.00  0.00     0.027 C 
HETATM   18  C17 UNL     1      -2.256  11.954  16.505  1.00  0.00     0.007 C 
HETATM   19  C18 UNL     1       0.109   7.414  13.676  1.00  0.00     0.148 C 
HETATM   20  O6  UNL     1       0.110   6.511  12.521  1.00  0.00    -0.332 OA
HETATM   21  C19 UNL     1      -1.083   5.949  12.112  1.00  0.00     0.075 C 
HETATM   22  C23 UNL     1      -2.159   5.924  12.910  1.00  0.00     0.072 A 
HETATM   23  N1  UNL     1      -3.434   5.448  12.783  1.00  0.00    -0.357 N 
HETATM   24  C24 UNL     1      -4.127   5.560  13.988  1.00  0.00     0.014 A 
HETATM   25  C33 UNL     1      -3.354   6.160  14.921  1.00  0.00     0.039 A 
HETATM   26  C34 UNL     1      -2.087   6.440  14.269  1.00  0.00     0.001 A 
HETATM   27  C35 UNL     1      -1.012   7.135  14.688  1.00  0.00    -0.027 C 
HETATM   28  C36 UNL     1      -0.886   7.753  16.056  1.00  0.00     0.041 C 
HETATM   29  C37 UNL     1       0.550   7.870  16.556  1.00  0.00     0.050 C 
HETATM   30  C38 UNL     1       1.629   8.204  15.502  1.00  0.00     0.136 C 
HETATM   31  C39 UNL     1       1.484   7.192  14.350  1.00  0.00     0.199 C 
HETATM   32  C40 UNL     1       2.611  12.084  18.120  1.00  0.00     0.044 C 
HETATM   33  H30 UNL     1      -3.702   4.803  12.053  1.00  0.00     0.166 HD
ENDROOT
BRANCH  24  34
HETATM   34  C25 UNL     1      -5.564   5.111  14.096  1.00  0.00     0.035 C 
HETATM   35  C26 UNL     1      -5.794   3.961  13.103  1.00  0.00     0.017 C 
BRANCH  34  36
HETATM   36  C27 UNL     1      -6.600   6.264  13.954  1.00  0.00    -0.005 C 
HETATM   37  C28 UNL     1      -6.148   7.512  14.747  1.00  0.00     0.005 C 
HETATM   38  C29 UNL     1      -7.317   8.400  15.160  1.00  0.00     0.000 C 
HETATM   39  C30 UNL     1      -8.284   7.661  16.093  1.00  0.00     0.000 C 
HETATM   40  C31 UNL     1      -8.350   6.159  15.819  1.00  0.00     0.000 C 
HETATM   41  C32 UNL     1      -8.037   5.852  14.353  1.00  0.00     0.005 C 
ENDBRANCH  34  36
ENDBRANCH  24  34
BRANCH  21  42
HETATM   42  C20 UNL     1      -1.057   5.358  10.732  1.00  0.00     0.069 C 
BRANCH  42  43
HETATM   43  C21 UNL     1      -1.468   3.873  10.757  1.00  0.00     0.033 C 
BRANCH  43  44
HETATM   44  C22 UNL     1      -0.594   3.071  11.715  1.00  0.00     0.164 C 
BRANCH  44  45
HETATM   45  O7  UNL     1       0.478   2.475  10.984  1.00  0.00    -0.401 OA
HETATM   46  H29 UNL     1       0.931   1.860  11.602  1.00  0.00     0.209 HD
ENDBRANCH  44  45
ENDBRANCH  43  44
ENDBRANCH  42  43
ENDBRANCH  21  42
BRANCH  31  47
HETATM   47  O9  UNL     1       1.658   5.853  14.862  1.00  0.00    -0.389 OA
HETATM   48  H53 UNL     1       2.481   5.896  15.374  1.00  0.00     0.210 HD
ENDBRANCH  31  47
BRANCH  30  49
HETATM   49  O8  UNL     1       2.885   7.954  16.196  1.00  0.00    -0.382 OA
HETATM   50  H51 UNL     1       3.614   8.282  15.630  1.00  0.00     0.210 HD
ENDBRANCH  30  49
BRANCH  32  51
HETATM   51  C41 UNL     1       3.190  11.971  19.552  1.00  0.00     0.120 C 
BRANCH  51  52
HETATM   52  C42 UNL     1       4.680  11.736  19.591  1.00  0.00     0.140 C 
HETATM   53  O10 UNL     1       5.286  10.736  19.946  1.00  0.00    -0.650 OA
BRANCH  52  54
HETATM   54  O11 UNL     1       5.368  12.840  19.206  1.00  0.00    -0.776 OA
HETATM   55  H57 UNL     1       6.306  12.562  19.282  1.00  0.00     0.167 HD
ENDBRANCH  52  54
ENDBRANCH  51  52
ENDBRANCH  32  51
BRANCH   1  56
HETATM   56  C2  UNL     1       3.062  14.706  17.831  1.00  0.00     0.289 C 
HETATM   57  O2  UNL     1       3.211  15.203  18.944  1.00  0.00    -0.260 OA
BRANCH  56  58
HETATM   58  O1  UNL     1       3.621  15.185  16.694  1.00  0.00    -0.323 OA
HETATM   59  C1  UNL     1       4.399  16.369  16.884  1.00  0.00     0.213 C 
ENDBRANCH  56  58
ENDBRANCH   1  56
TORSDOF 13
ENDMDL
MODEL 7
REMARK minimizedAffinity -9.68223667
REMARK CNNscore 0.171655968
REMARK CNNaffinity 7.09414148
REMARK  13 active torsions:
REMARK  status: ('A' for Active; 'I' for Inactive)
REMARK    1  A    between atoms: O1_2  and  C2_3 
REMARK    2  A    between atoms: C2_3  and  C3_5 
REMARK    3  A    between atoms: C19_25  and  C20_26 
REMARK    4  A    between atoms: C20_26  and  C21_27 
REMARK    5  A    between atoms: C21_27  and  C22_28 
REMARK    6  A    between atoms: C22_28  and  O7_29 
REMARK    7  A    between atoms: C24_32  and  C25_33 
REMARK    8  A    between atoms: C25_33  and  C27_35 
REMARK    9  A    between atoms: C38_46  and  O8_47 
REMARK   10  A    between atoms: C39_48  and  O9_49 
REMARK   11  A    between atoms: C40_50  and  C41_51 
REMARK   12  A    between atoms: C41_51  and  C42_52 
REMARK   13  A    between atoms: C42_52  and  O11_54 
ROOT
HETATM    1  C3  UNL     1      -0.368  13.334  18.245  1.00  0.00     0.019 C 
HETATM    2  C4  UNL     1      -1.195  13.249  17.184  1.00  0.00    -0.006 C 
HETATM    3  C5  UNL     1      -1.539  11.971  16.447  1.00  0.00     0.043 C 
HETATM    4  C6  UNL     1      -3.030  11.625  16.784  1.00  0.00    -0.001 C 
HETATM    5  C7  UNL     1      -3.320  11.504  18.298  1.00  0.00     0.032 C 
HETATM    6  C8  UNL     1      -2.618  10.442  19.081  1.00  0.00    -0.030 C 
HETATM    7  C9  UNL     1      -1.308  10.150  19.066  1.00  0.00    -0.023 C 
HETATM    8  C10 UNL     1      -0.195  10.763  18.241  1.00  0.00     0.047 C 
HETATM    9  C11 UNL     1      -0.538  10.821  16.733  1.00  0.00     0.141 C 
HETATM   10  O3  UNL     1       0.700  11.072  16.057  1.00  0.00    -0.351 OA
HETATM   11  C12 UNL     1       1.214  10.056  15.175  1.00  0.00     0.297 C 
HETATM   12  O4  UNL     1       0.736  10.199  13.831  1.00  0.00    -0.347 OA
HETATM   13  C13 UNL     1       0.406   9.041  13.055  1.00  0.00     0.191 C 
HETATM   14  C14 UNL     1      -1.093   9.143  12.686  1.00  0.00     0.203 C 
HETATM   15  O5  UNL     1      -1.839   9.430  13.865  1.00  0.00    -0.388 OA
HETATM   16  C15 UNL     1      -3.244   9.488  13.656  1.00  0.00     0.167 C 
HETATM   17  C16 UNL     1      -3.782  10.626  14.515  1.00  0.00     0.027 C 
HETATM   18  C17 UNL     1      -3.579  10.391  16.028  1.00  0.00     0.007 C 
HETATM   19  C18 UNL     1       0.931   7.632  13.525  1.00  0.00     0.148 C 
HETATM   20  O6  UNL     1       1.521   6.999  12.342  1.00  0.00    -0.332 OA
HETATM   21  C19 UNL     1       0.765   6.097  11.621  1.00  0.00     0.075 C 
HETATM   22  C23 UNL     1      -0.335   5.531  12.135  1.00  0.00     0.072 A 
HETATM   23  N1  UNL     1      -1.253   4.629  11.674  1.00  0.00    -0.357 N 
HETATM   24  C24 UNL     1      -2.145   4.269  12.683  1.00  0.00     0.014 A 
HETATM   25  C33 UNL     1      -1.879   4.961  13.815  1.00  0.00     0.039 A 
HETATM   26  C34 UNL     1      -0.740   5.807  13.506  1.00  0.00     0.001 A 
HETATM   27  C35 UNL     1      -0.146   6.784  14.218  1.00  0.00    -0.027 C 
HETATM   28  C36 UNL     1      -0.547   7.172  15.617  1.00  0.00     0.041 C 
HETATM   29  C37 UNL     1       0.592   7.750  16.452  1.00  0.00     0.050 C 
HETATM   30  C38 UNL     1       1.616   8.639  15.713  1.00  0.00     0.136 C 
HETATM   31  C39 UNL     1       2.120   7.850  14.491  1.00  0.00     0.199 C 
HETATM   32  C40 UNL     1       0.402  12.119  18.762  1.00  0.00     0.044 C 
HETATM   33  H30 UNL     1      -1.088   4.058  10.857  1.00  0.00     0.166 HD
ENDROOT
BRANCH  24  34
HETATM   34  C25 UNL     1      -3.262   3.291  12.413  1.00  0.00     0.035 C 
HETATM   35  C26 UNL     1      -2.749   2.217  11.442  1.00  0.00     0.017 C 
BRANCH  34  36
HETATM   36  C27 UNL     1      -4.589   3.959  11.948  1.00  0.00    -0.005 C 
HETATM   37  C28 UNL     1      -5.338   4.588  13.144  1.00  0.00     0.005 C 
HETATM   38  C29 UNL     1      -6.841   4.696  12.906  1.00  0.00     0.000 C 
HETATM   39  C30 UNL     1      -7.481   3.316  12.713  1.00  0.00     0.000 C 
HETATM   40  C31 UNL     1      -6.538   2.305  12.064  1.00  0.00     0.000 C 
HETATM   41  C32 UNL     1      -5.517   3.001  11.162  1.00  0.00     0.005 C 
ENDBRANCH  34  36
ENDBRANCH  24  34
BRANCH  21  42
HETATM   42  C20 UNL     1       1.293   5.793  10.248  1.00  0.00     0.069 C 
BRANCH  42  43
HETATM   43  C21 UNL     1       2.826   5.937  10.200  1.00  0.00     0.033 C 
BRANCH  43  44
HETATM   44  C22 UNL     1       3.469   4.781   9.442  1.00  0.00     0.164 C 
BRANCH  44  45
HETATM   45  O7  UNL     1       3.039   3.547  10.015  1.00  0.00    -0.401 OA
HETATM   46  H29 UNL     1       3.578   2.840   9.597  1.00  0.00     0.209 HD
ENDBRANCH  44  45
ENDBRANCH  43  44
ENDBRANCH  42  43
ENDBRANCH  21  42
BRANCH  31  47
HETATM   47  O9  UNL     1       2.729   6.617  14.931  1.00  0.00    -0.389 OA
HETATM   48  H53 UNL     1       3.348   6.889  15.626  1.00  0.00     0.210 HD
ENDBRANCH  31  47
BRANCH  30  49
HETATM   49  O8  UNL     1       2.708   8.782  16.667  1.00  0.00    -0.382 OA
HETATM   50  H51 UNL     1       3.330   9.452  16.317  1.00  0.00     0.210 HD
ENDBRANCH  30  49
BRANCH  32  51
HETATM   51  C41 UNL     1       0.694  12.005  20.279  1.00  0.00     0.120 C 
BRANCH  51  52
HETATM   52  C42 UNL     1       1.804  11.041  20.616  1.00  0.00     0.140 C 
HETATM   53  O10 UNL     1       1.722   9.925  21.110  1.00  0.00    -0.650 OA
BRANCH  52  54
HETATM   54  O11 UNL     1       3.023  11.570  20.344  1.00  0.00    -0.776 OA
HETATM   55  H57 UNL     1       3.645  10.859  20.610  1.00  0.00     0.167 HD
ENDBRANCH  52  54
ENDBRANCH  51  52
ENDBRANCH  32  51
BRANCH   1  56
HETATM   56  C2  UNL     1      -0.219  14.721  18.778  1.00  0.00     0.289 C 
HETATM   57  O2  UNL     1       0.861  15.251  19.023  1.00  0.00    -0.260 OA
BRANCH  56  58
HETATM   58  O1  UNL     1      -1.422  15.326  18.923  1.00  0.00    -0.323 OA
HETATM   59  C1  UNL     1      -1.952  15.254  20.249  1.00  0.00     0.213 C 
ENDBRANCH  56  58
ENDBRANCH   1  56
TORSDOF 13
ENDMDL
MODEL 8
REMARK minimizedAffinity -6.95771599
REMARK CNNscore 0.162926346
REMARK CNNaffinity 5.9631238
REMARK  13 active torsions:
REMARK  status: ('A' for Active; 'I' for Inactive)
REMARK    1  A    between atoms: O1_2  and  C2_3 
REMARK    2  A    between atoms: C2_3  and  C3_5 
REMARK    3  A    between atoms: C19_25  and  C20_26 
REMARK    4  A    between atoms: C20_26  and  C21_27 
REMARK    5  A    between atoms: C21_27  and  C22_28 
REMARK    6  A    between atoms: C22_28  and  O7_29 
REMARK    7  A    between atoms: C24_32  and  C25_33 
REMARK    8  A    between atoms: C25_33  and  C27_35 
REMARK    9  A    between atoms: C38_46  and  O8_47 
REMARK   10  A    between atoms: C39_48  and  O9_49 
REMARK   11  A    between atoms: C40_50  and  C41_51 
REMARK   12  A    between atoms: C41_51  and  C42_52 
REMARK   13  A    between atoms: C42_52  and  O11_54 
ROOT
HETATM    1  C3  UNL     1       3.146  10.375  13.865  1.00  0.00     0.019 C 
HETATM    2  C4  UNL     1       2.925  11.691  14.058  1.00  0.00    -0.006 C 
HETATM    3  C5  UNL     1       1.882  12.271  14.990  1.00  0.00     0.043 C 
HETATM    4  C6  UNL     1       2.643  12.910  16.202  1.00  0.00    -0.001 C 
HETATM    5  C7  UNL     1       3.582  11.929  16.941  1.00  0.00     0.032 C 
HETATM    6  C8  UNL     1       2.988  10.728  17.604  1.00  0.00    -0.030 C 
HETATM    7  C9  UNL     1       2.104   9.862  17.081  1.00  0.00    -0.023 C 
HETATM    8  C10 UNL     1       1.434   9.875  15.724  1.00  0.00     0.047 C 
HETATM    9  C11 UNL     1       0.792  11.244  15.392  1.00  0.00     0.141 C 
HETATM   10  O3  UNL     1      -0.089  11.009  14.286  1.00  0.00    -0.351 OA
HETATM   11  C12 UNL     1      -1.502  11.195  14.488  1.00  0.00     0.297 C 
HETATM   12  O4  UNL     1      -1.925  12.538  14.221  1.00  0.00    -0.347 OA
HETATM   13  C13 UNL     1      -2.923  13.158  15.041  1.00  0.00     0.191 C 
HETATM   14  C14 UNL     1      -2.277  14.405  15.692  1.00  0.00     0.203 C 
HETATM   15  O5  UNL     1      -1.031  14.029  16.270  1.00  0.00    -0.388 OA
HETATM   16  C15 UNL     1      -0.372  15.088  16.953  1.00  0.00     0.167 C 
HETATM   17  C16 UNL     1       1.118  14.952  16.664  1.00  0.00     0.027 C 
HETATM   18  C17 UNL     1       1.724  13.643  17.211  1.00  0.00     0.007 C 
HETATM   19  C18 UNL     1      -3.820  12.253  15.967  1.00  0.00     0.148 C 
HETATM   20  O6  UNL     1      -5.204  12.679  15.738  1.00  0.00    -0.332 OA
HETATM   21  C19 UNL     1      -5.785  13.566  16.622  1.00  0.00     0.075 C 
HETATM   22  C23 UNL     1      -5.267  13.788  17.837  1.00  0.00     0.072 A 
HETATM   23  N1  UNL     1      -5.614  14.581  18.895  1.00  0.00    -0.357 N 
HETATM   24  C24 UNL     1      -4.795  14.328  19.995  1.00  0.00     0.014 A 
HETATM   25  C33 UNL     1      -3.855  13.408  19.679  1.00  0.00     0.039 A 
HETATM   26  C34 UNL     1      -4.099  13.049  18.294  1.00  0.00     0.001 A 
HETATM   27  C35 UNL     1      -3.391  12.282  17.441  1.00  0.00    -0.027 C 
HETATM   28  C36 UNL     1      -2.138  11.536  17.819  1.00  0.00     0.041 C 
HETATM   29  C37 UNL     1      -1.900  10.269  17.003  1.00  0.00     0.050 C 
HETATM   30  C38 UNL     1      -2.301  10.316  15.512  1.00  0.00     0.136 C 
HETATM   31  C39 UNL     1      -3.760  10.801  15.438  1.00  0.00     0.199 C 
HETATM   32  C40 UNL     1       2.269   9.309  14.521  1.00  0.00     0.044 C 
HETATM   33  H30 UNL     1      -6.526  15.008  18.977  1.00  0.00     0.166 HD
ENDROOT
BRANCH  24  34
HETATM   34  C25 UNL     1      -4.975  15.092  21.284  1.00  0.00     0.035 C 
HETATM   35  C26 UNL     1      -3.664  15.825  21.607  1.00  0.00     0.017 C 
BRANCH  34  36
HETATM   36  C27 UNL     1      -5.505  14.226  22.464  1.00  0.00    -0.005 C 
HETATM   37  C28 UNL     1      -6.708  13.365  22.019  1.00  0.00     0.005 C 
HETATM   38  C29 UNL     1      -7.626  12.994  23.179  1.00  0.00     0.000 C 
HETATM   39  C30 UNL     1      -8.242  14.238  23.831  1.00  0.00     0.000 C 
HETATM   40  C31 UNL     1      -7.332  15.462  23.761  1.00  0.00     0.000 C 
HETATM   41  C32 UNL     1      -5.858  15.054  23.723  1.00  0.00     0.005 C 
ENDBRANCH  34  36
ENDBRANCH  24  34
BRANCH  21  42
HETATM   42  C20 UNL     1      -7.036  14.224  16.117  1.00  0.00     0.069 C 
BRANCH  42  43
HETATM   43  C21 UNL     1      -8.227  13.247  16.149  1.00  0.00     0.033 C 
BRANCH  43  44
HETATM   44  C22 UNL     1      -9.399  13.772  15.326  1.00  0.00     0.164 C 
BRANCH  44  45
HETATM   45  O7  UNL     1      -9.399  13.133  14.050  1.00  0.00    -0.401 OA
HETATM   46  H29 UNL     1     -10.073  13.595  13.505  1.00  0.00     0.209 HD
ENDBRANCH  44  45
ENDBRANCH  43  44
ENDBRANCH  42  43
ENDBRANCH  21  42
BRANCH  31  47
HETATM   47  O9  UNL     1      -4.608   9.892  16.174  1.00  0.00    -0.389 OA
HETATM   48  H53 UNL     1      -4.367   9.014  15.838  1.00  0.00     0.210 HD
ENDBRANCH  31  47
BRANCH  30  49
HETATM   49  O8  UNL     1      -2.244   8.921  15.091  1.00  0.00    -0.382 OA
HETATM   50  H51 UNL     1      -2.349   8.895  14.118  1.00  0.00     0.210 HD
ENDBRANCH  30  49
BRANCH  32  51
HETATM   51  C41 UNL     1       2.907   7.958  14.926  1.00  0.00     0.120 C 
BRANCH  51  52
HETATM   52  C42 UNL     1       4.409   8.011  15.067  1.00  0.00     0.140 C 
HETATM   53  O10 UNL     1       5.078   8.621  15.888  1.00  0.00    -0.650 OA
BRANCH  52  54
HETATM   54  O11 UNL     1       5.026   7.298  14.091  1.00  0.00    -0.776 OA
HETATM   55  H57 UNL     1       5.979   7.419  14.289  1.00  0.00     0.167 HD
ENDBRANCH  52  54
ENDBRANCH  51  52
ENDBRANCH  32  51
BRANCH   1  56
HETATM   56  C2  UNL     1       4.245  10.089  12.895  1.00  0.00     0.289 C 
HETATM   57  O2  UNL     1       4.142   9.316  11.947  1.00  0.00    -0.260 OA
BRANCH  56  58
HETATM   58  O1  UNL     1       5.353  10.816  13.177  1.00  0.00    -0.323 OA
HETATM   59  C1  UNL     1       6.294  10.880  12.102  1.00  0.00     0.213 C 
ENDBRANCH  56  58
ENDBRANCH   1  56
TORSDOF 13
ENDMDL
MODEL 9
REMARK minimizedAffinity -6.82733583
REMARK CNNscore 0.150780872
REMARK CNNaffinity 5.69195223
REMARK  13 active torsions:
REMARK  status: ('A' for Active; 'I' for Inactive)
REMARK    1  A    between atoms: O1_2  and  C2_3 
REMARK    2  A    between atoms: C2_3  and  C3_5 
REMARK    3  A    between atoms: C19_25  and  C20_26 
REMARK    4  A    between atoms: C20_26  and  C21_27 
REMARK    5  A    between atoms: C21_27  and  C22_28 
REMARK    6  A    between atoms: C22_28  and  O7_29 
REMARK    7  A    between atoms: C24_32  and  C25_33 
REMARK    8  A    between atoms: C25_33  and  C27_35 
REMARK    9  A    between atoms: C38_46  and  O8_47 
REMARK   10  A    between atoms: C39_48  and  O9_49 
REMARK   11  A    between atoms: C40_50  and  C41_51 
REMARK   12  A    between atoms: C41_51  and  C42_52 
REMARK   13  A    between atoms: C42_52  and  O11_54 
ROOT
HETATM    1  C3  UNL     1      10.284  11.510  11.862  1.00  0.00     0.019 C 
HETATM    2  C4  UNL     1       9.281  12.399  11.720  1.00  0.00    -0.006 C 
HETATM    3  C5  UNL     1       8.074  12.502  12.629  1.00  0.00     0.043 C 
HETATM    4  C6  UNL     1       8.226  13.824  13.457  1.00  0.00    -0.001 C 
HETATM    5  C7  UNL     1       9.547  13.918  14.255  1.00  0.00     0.032 C 
HETATM    6  C8  UNL     1       9.816  12.905  15.320  1.00  0.00    -0.030 C 
HETATM    7  C9  UNL     1       9.687  11.571  15.228  1.00  0.00    -0.023 C 
HETATM    8  C10 UNL     1       9.202  10.730  14.066  1.00  0.00     0.047 C 
HETATM    9  C11 UNL     1       7.855  11.232  13.492  1.00  0.00     0.141 C 
HETATM   10  O3  UNL     1       7.354  10.167  12.674  1.00  0.00    -0.351 OA
HETATM   11  C12 UNL     1       6.131   9.521  13.071  1.00  0.00     0.297 C 
HETATM   12  O4  UNL     1       4.968  10.157  12.524  1.00  0.00    -0.347 OA
HETATM   13  C13 UNL     1       3.776  10.280  13.308  1.00  0.00     0.191 C 
HETATM   14  C14 UNL     1       3.476  11.790  13.459  1.00  0.00     0.203 C 
HETATM   15  O5  UNL     1       4.661  12.456  13.882  1.00  0.00    -0.388 OA
HETATM   16  C15 UNL     1       4.488  13.848  14.113  1.00  0.00     0.167 C 
HETATM   17  C16 UNL     1       5.743  14.549  13.606  1.00  0.00     0.027 C 
HETATM   18  C17 UNL     1       7.018  14.139  14.374  1.00  0.00     0.007 C 
HETATM   19  C18 UNL     1       3.614   9.388  14.596  1.00  0.00     0.148 C 
HETATM   20  O6  UNL     1       2.277   8.790  14.515  1.00  0.00    -0.332 OA
HETATM   21  C19 UNL     1       1.239   9.380  15.209  1.00  0.00     0.075 C 
HETATM   22  C23 UNL     1       1.463  10.253  16.200  1.00  0.00     0.072 A 
HETATM   23  N1  UNL     1       0.661  10.972  17.041  1.00  0.00    -0.357 N 
HETATM   24  C24 UNL     1       1.420  11.642  17.999  1.00  0.00     0.014 A 
HETATM   25  C33 UNL     1       2.739  11.432  17.785  1.00  0.00     0.039 A 
HETATM   26  C34 UNL     1       2.820  10.567  16.622  1.00  0.00     0.001 A 
HETATM   27  C35 UNL     1       3.880  10.153  15.901  1.00  0.00    -0.027 C 
HETATM   28  C36 UNL     1       5.311  10.486  16.235  1.00  0.00     0.041 C 
HETATM   29  C37 UNL     1       6.318   9.437  15.772  1.00  0.00     0.050 C 
HETATM   30  C38 UNL     1       6.025   8.738  14.426  1.00  0.00     0.136 C 
HETATM   31  C39 UNL     1       4.588   8.191  14.488  1.00  0.00     0.199 C 
HETATM   32  C40 UNL     1      10.247  10.422  12.936  1.00  0.00     0.044 C 
HETATM   33  H30 UNL     1      -0.320  10.762  17.166  1.00  0.00     0.166 HD
ENDROOT
BRANCH  24  34
HETATM   34  C25 UNL     1       0.758  12.515  19.037  1.00  0.00     0.035 C 
HETATM   35  C26 UNL     1       1.650  12.555  20.287  1.00  0.00     0.017 C 
BRANCH  34  36
HETATM   36  C27 UNL     1      -0.717  12.124  19.345  1.00  0.00    -0.005 C 
HETATM   37  C28 UNL     1      -0.974  10.636  19.015  1.00  0.00     0.005 C 
HETATM   38  C29 UNL     1      -2.438  10.348  18.703  1.00  0.00     0.000 C 
HETATM   39  C30 UNL     1      -2.914  11.121  17.467  1.00  0.00     0.000 C 
HETATM   40  C31 UNL     1      -2.205  12.462  17.291  1.00  0.00     0.000 C 
HETATM   41  C32 UNL     1      -1.754  13.030  18.638  1.00  0.00     0.005 C 
ENDBRANCH  34  36
ENDBRANCH  24  34
BRANCH  21  42
HETATM   42  C20 UNL     1      -0.131   8.941  14.778  1.00  0.00     0.069 C 
BRANCH  42  43
HETATM   43  C21 UNL     1      -0.760   7.993  15.817  1.00  0.00     0.033 C 
BRANCH  43  44
HETATM   44  C22 UNL     1      -2.218   7.696  15.486  1.00  0.00     0.164 C 
BRANCH  44  45
HETATM   45  O7  UNL     1      -2.896   7.293  16.676  1.00  0.00    -0.401 OA
HETATM   46  H29 UNL     1      -3.785   6.977  16.399  1.00  0.00     0.209 HD
ENDBRANCH  44  45
ENDBRANCH  43  44
ENDBRANCH  42  43
ENDBRANCH  21  42
BRANCH  31  47
HETATM   47  O9  UNL     1       4.473   7.262  15.588  1.00  0.00    -0.389 OA
HETATM   48  H53 UNL     1       5.222   6.657  15.471  1.00  0.00     0.210 HD
ENDBRANCH  31  47
BRANCH  30  49
HETATM   49  O8  UNL     1       6.958   7.618  14.405  1.00  0.00    -0.382 OA
HETATM   50  H51 UNL     1       6.925   7.215  13.513  1.00  0.00     0.210 HD
ENDBRANCH  30  49
BRANCH  32  51
HETATM   51  C41 UNL     1      11.578   9.955  13.576  1.00  0.00     0.120 C 
BRANCH  51  52
HETATM   52  C42 UNL     1      12.769  10.794  13.185  1.00  0.00     0.140 C 
HETATM   53  O10 UNL     1      13.717  10.491  12.476  1.00  0.00    -0.650 OA
BRANCH  52  54
HETATM   54  O11 UNL     1      12.731  12.017  13.772  1.00  0.00    -0.776 OA
HETATM   55  H57 UNL     1      13.549  12.451  13.447  1.00  0.00     0.167 HD
ENDBRANCH  52  54
ENDBRANCH  51  52
ENDBRANCH  32  51
BRANCH   1  56
HETATM   56  C2  UNL     1      11.351  11.641  10.826  1.00  0.00     0.289 C 
HETATM   57  O2  UNL     1      11.614  10.776   9.996  1.00  0.00    -0.260 OA
BRANCH  56  58
HETATM   58  O1  UNL     1      11.965  12.847  10.899  1.00  0.00    -0.323 OA
HETATM   59  C1  UNL     1      13.082  12.985  10.019  1.00  0.00     0.213 C 
ENDBRANCH  56  58
ENDBRANCH   1  56
TORSDOF 13
ENDMDL
