MODEL 1
REMARK minimizedAffinity -7.50628853
REMARK CNNscore 0.622444093
REMARK CNNaffinity 6.50577784
REMARK  7 active torsions:
REMARK  status: ('A' for Active; 'I' for Inactive)
REMARK    1  A    between atoms: C2_2  and  C30_33 
REMARK    2  A    between atoms: C3_3  and  C4_4 
REMARK    3  A    between atoms: C4_4  and  C5_5 
REMARK    4  A    between atoms: C5_5  and  C6_6 
REMARK    5  A    between atoms: C6_6  and  C8_8 
REMARK    6  A    between atoms: C15_15  and  O1_16 
REMARK    7  A    between atoms: C30_33  and  O5_35 
ROOT
HETATM    1  C8  UNL     1     -17.684   3.222  14.205  1.00  0.00    -0.002 C 
HETATM    2  C9  UNL     1     -17.683   3.053  15.746  1.00  0.00     0.007 C 
HETATM    3  C10 UNL     1     -17.007   1.711  16.074  1.00  0.00     0.015 C 
HETATM    4  C11 UNL     1     -16.305   1.282  14.774  1.00  0.00    -0.005 C 
HETATM    5  C12 UNL     1     -14.933   2.021  14.731  1.00  0.00     0.021 C 
HETATM    6  C13 UNL     1     -15.971  -0.187  14.532  1.00  0.00     0.002 C 
HETATM    7  C14 UNL     1     -15.905  -0.703  13.274  1.00  0.00    -0.032 C 
HETATM    8  C15 UNL     1     -16.182   0.211  12.062  1.00  0.00     0.149 C 
HETATM    9  C16 UNL     1     -16.715   1.641  12.330  1.00  0.00     0.047 C 
HETATM   10  C17 UNL     1     -17.370   1.769  13.716  1.00  0.00    -0.026 C 
HETATM   11  C18 UNL     1     -18.687   0.930  13.750  1.00  0.00     0.016 C 
HETATM   12  C19 UNL     1     -15.488  -2.183  12.987  1.00  0.00    -0.012 C 
HETATM   13  C20 UNL     1     -16.768  -3.009  12.712  1.00  0.00     0.021 C 
HETATM   14  C21 UNL     1     -14.541  -2.250  11.754  1.00  0.00     0.021 C 
HETATM   15  C22 UNL     1     -13.662  -3.490  11.629  1.00  0.00     0.080 C 
HETATM   16  C23 UNL     1     -14.028  -4.606  12.570  1.00  0.00     0.135 C 
HETATM   17  O2  UNL     1     -14.071  -5.769  12.163  1.00  0.00    -0.297 OA
HETATM   18  C24 UNL     1     -14.216  -4.253  14.051  1.00  0.00     0.018 C 
HETATM   19  C25 UNL     1     -12.836  -4.426  14.723  1.00  0.00     0.023 C 
HETATM   20  C26 UNL     1     -15.175  -5.283  14.690  1.00  0.00     0.023 C 
HETATM   21  C27 UNL     1     -14.683  -2.762  14.202  1.00  0.00     0.020 C 
HETATM   22  C28 UNL     1     -15.420  -2.506  15.516  1.00  0.00     0.090 C 
HETATM   23  C29 UNL     1     -15.648  -1.036  15.722  1.00  0.00     0.157 C 
HETATM   24  O3  UNL     1     -15.596  -0.562  16.855  1.00  0.00    -0.293 OA
ENDROOT
BRANCH   1  25
HETATM   25  C6  UNL     1     -18.958   3.957  13.678  1.00  0.00    -0.014 C 
HETATM   26  C7  UNL     1     -19.221   3.649  12.196  1.00  0.00     0.010 C 
BRANCH  25  27
HETATM   27  C5  UNL     1     -18.870   5.507  13.814  1.00  0.00     0.008 C 
BRANCH  27  28
HETATM   28  C4  UNL     1     -18.083   6.281  12.744  1.00  0.00     0.028 C 
BRANCH  28  29
HETATM   29  C3  UNL     1     -16.589   6.293  12.926  1.00  0.00    -0.013 C 
HETATM   30  C2  UNL     1     -15.692   7.193  12.473  1.00  0.00     0.008 C 
HETATM   31  C1  UNL     1     -14.229   7.070  12.781  1.00  0.00     0.055 C 
BRANCH  30  32
HETATM   32  C30 UNL     1     -16.102   8.337  11.625  1.00  0.00     0.171 C 
HETATM   33  O4  UNL     1     -17.110   8.432  10.950  1.00  0.00    -0.646 OA
BRANCH  32  34
HETATM   34  O5  UNL     1     -15.189   9.323  11.660  1.00  0.00    -0.773 OA
HETATM   35  H44 UNL     1     -15.572  10.007  11.072  1.00  0.00     0.167 HD
ENDBRANCH  32  34
ENDBRANCH  30  32
ENDBRANCH  28  29
ENDBRANCH  27  28
ENDBRANCH  25  27
ENDBRANCH   1  25
BRANCH   8  36
HETATM   36  O1  UNL     1     -17.094  -0.428  11.175  1.00  0.00    -0.391 OA
HETATM   37  H22 UNL     1     -17.974  -0.411  11.585  1.00  0.00     0.210 HD
ENDBRANCH   8  36
TORSDOF 7
ENDMDL
MODEL 2
REMARK minimizedAffinity -9.64630413
REMARK CNNscore 0.612441003
REMARK CNNaffinity 7.10889626
REMARK  7 active torsions:
REMARK  status: ('A' for Active; 'I' for Inactive)
REMARK    1  A    between atoms: C2_2  and  C30_33 
REMARK    2  A    between atoms: C3_3  and  C4_4 
REMARK    3  A    between atoms: C4_4  and  C5_5 
REMARK    4  A    between atoms: C5_5  and  C6_6 
REMARK    5  A    between atoms: C6_6  and  C8_8 
REMARK    6  A    between atoms: C15_15  and  O1_16 
REMARK    7  A    between atoms: C30_33  and  O5_35 
ROOT
HETATM    1  C8  UNL     1      -4.245   7.028  14.788  1.00  0.00    -0.002 C 
HETATM    2  C9  UNL     1      -4.544   5.608  14.243  1.00  0.00     0.007 C 
HETATM    3  C10 UNL     1      -3.373   5.194  13.336  1.00  0.00     0.015 C 
HETATM    4  C11 UNL     1      -2.250   6.200  13.639  1.00  0.00    -0.005 C 
HETATM    5  C12 UNL     1      -1.512   5.689  14.914  1.00  0.00     0.021 C 
HETATM    6  C13 UNL     1      -1.146   6.448  12.615  1.00  0.00     0.002 C 
HETATM    7  C14 UNL     1      -0.504   7.647  12.538  1.00  0.00    -0.032 C 
HETATM    8  C15 UNL     1      -0.903   8.785  13.499  1.00  0.00     0.149 C 
HETATM    9  C16 UNL     1      -2.155   8.586  14.391  1.00  0.00     0.047 C 
HETATM   10  C17 UNL     1      -3.104   7.513  13.833  1.00  0.00    -0.026 C 
HETATM   11  C18 UNL     1      -3.743   8.023  12.502  1.00  0.00     0.016 C 
HETATM   12  C19 UNL     1       0.684   7.908  11.556  1.00  0.00    -0.012 C 
HETATM   13  C20 UNL     1       0.146   8.693  10.333  1.00  0.00     0.021 C 
HETATM   14  C21 UNL     1       1.799   8.731  12.260  1.00  0.00     0.021 C 
HETATM   15  C22 UNL     1       3.197   8.658  11.653  1.00  0.00     0.080 C 
HETATM   16  C23 UNL     1       3.247   8.016  10.293  1.00  0.00     0.135 C 
HETATM   17  O2  UNL     1       3.925   8.521   9.396  1.00  0.00    -0.297 OA
HETATM   18  C24 UNL     1       2.536   6.668  10.117  1.00  0.00     0.018 C 
HETATM   19  C25 UNL     1       3.578   5.575  10.437  1.00  0.00     0.023 C 
HETATM   20  C26 UNL     1       2.135   6.507   8.633  1.00  0.00     0.023 C 
HETATM   21  C27 UNL     1       1.335   6.549  11.121  1.00  0.00     0.020 C 
HETATM   22  C28 UNL     1       0.270   5.559  10.652  1.00  0.00     0.090 C 
HETATM   23  C29 UNL     1      -0.738   5.307  11.736  1.00  0.00     0.157 C 
HETATM   24  O3  UNL     1      -1.231   4.188  11.865  1.00  0.00    -0.293 OA
ENDROOT
BRANCH   1  25
HETATM   25  C6  UNL     1      -5.534   7.897  14.956  1.00  0.00    -0.014 C 
HETATM   26  C7  UNL     1      -5.235   9.230  15.656  1.00  0.00     0.010 C 
BRANCH  25  27
HETATM   27  C5  UNL     1      -6.646   7.185  15.783  1.00  0.00     0.008 C 
BRANCH  27  28
HETATM   28  C4  UNL     1      -7.397   6.016  15.125  1.00  0.00     0.028 C 
BRANCH  28  29
HETATM   29  C3  UNL     1      -8.073   6.339  13.819  1.00  0.00    -0.013 C 
HETATM   30  C2  UNL     1      -8.271   5.537  12.751  1.00  0.00     0.008 C 
HETATM   31  C1  UNL     1      -9.004   6.016  11.533  1.00  0.00     0.055 C 
BRANCH  30  32
HETATM   32  C30 UNL     1      -7.751   4.150  12.716  1.00  0.00     0.171 C 
HETATM   33  O4  UNL     1      -6.679   3.774  12.280  1.00  0.00    -0.646 OA
BRANCH  32  34
HETATM   34  O5  UNL     1      -8.639   3.283  13.231  1.00  0.00    -0.773 OA
HETATM   35  H44 UNL     1      -8.183   2.419  13.153  1.00  0.00     0.167 HD
ENDBRANCH  32  34
ENDBRANCH  30  32
ENDBRANCH  28  29
ENDBRANCH  27  28
ENDBRANCH  25  27
ENDBRANCH   1  25
BRANCH   8  36
HETATM   36  O1  UNL     1      -1.086   9.993  12.767  1.00  0.00    -0.391 OA
HETATM   37  H22 UNL     1      -1.913   9.917  12.265  1.00  0.00     0.210 HD
ENDBRANCH   8  36
TORSDOF 7
ENDMDL
MODEL 3
REMARK minimizedAffinity -7.68477583
REMARK CNNscore 0.417249709
REMARK CNNaffinity 6.7363143
REMARK  7 active torsions:
REMARK  status: ('A' for Active; 'I' for Inactive)
REMARK    1  A    between atoms: C2_2  and  C30_33 
REMARK    2  A    between atoms: C3_3  and  C4_4 
REMARK    3  A    between atoms: C4_4  and  C5_5 
REMARK    4  A    between atoms: C5_5  and  C6_6 
REMARK    5  A    between atoms: C6_6  and  C8_8 
REMARK    6  A    between atoms: C15_15  and  O1_16 
REMARK    7  A    between atoms: C30_33  and  O5_35 
ROOT
HETATM    1  C8  UNL     1      -1.573   9.751  15.238  1.00  0.00    -0.002 C 
HETATM    2  C9  UNL     1      -0.385   8.904  14.713  1.00  0.00     0.007 C 
HETATM    3  C10 UNL     1      -0.963   7.668  14.002  1.00  0.00     0.015 C 
HETATM    4  C11 UNL     1      -2.456   7.978  13.800  1.00  0.00    -0.005 C 
HETATM    5  C12 UNL     1      -2.571   8.841  12.506  1.00  0.00     0.021 C 
HETATM    6  C13 UNL     1      -3.455   6.841  13.607  1.00  0.00     0.002 C 
HETATM    7  C14 UNL     1      -4.756   6.965  13.990  1.00  0.00    -0.032 C 
HETATM    8  C15 UNL     1      -5.234   8.280  14.640  1.00  0.00     0.149 C 
HETATM    9  C16 UNL     1      -4.169   9.343  15.011  1.00  0.00     0.047 C 
HETATM   10  C17 UNL     1      -2.763   8.737  15.149  1.00  0.00    -0.026 C 
HETATM   11  C18 UNL     1      -2.719   7.798  16.396  1.00  0.00     0.016 C 
HETATM   12  C19 UNL     1      -5.823   5.851  13.735  1.00  0.00    -0.012 C 
HETATM   13  C20 UNL     1      -6.039   5.068  15.054  1.00  0.00     0.021 C 
HETATM   14  C21 UNL     1      -7.166   6.483  13.270  1.00  0.00     0.021 C 
HETATM   15  C22 UNL     1      -8.132   5.571  12.520  1.00  0.00     0.080 C 
HETATM   16  C23 UNL     1      -7.770   4.111  12.571  1.00  0.00     0.135 C 
HETATM   17  O2  UNL     1      -8.643   3.265  12.781  1.00  0.00    -0.297 OA
HETATM   18  C24 UNL     1      -6.325   3.725  12.231  1.00  0.00     0.018 C 
HETATM   19  C25 UNL     1      -6.286   3.462  10.710  1.00  0.00     0.023 C 
HETATM   20  C26 UNL     1      -5.986   2.394  12.940  1.00  0.00     0.023 C 
HETATM   21  C27 UNL     1      -5.349   4.903  12.578  1.00  0.00     0.020 C 
HETATM   22  C28 UNL     1      -3.915   4.431  12.814  1.00  0.00     0.090 C 
HETATM   23  C29 UNL     1      -2.978   5.600  12.919  1.00  0.00     0.157 C 
HETATM   24  O3  UNL     1      -1.837   5.512  12.470  1.00  0.00    -0.293 OA
ENDROOT
BRANCH   1  25
HETATM   25  C6  UNL     1      -1.260  10.458  16.596  1.00  0.00    -0.014 C 
HETATM   26  C7  UNL     1      -2.133  11.705  16.803  1.00  0.00     0.010 C 
BRANCH  25  27
HETATM   27  C5  UNL     1       0.225  10.913  16.718  1.00  0.00     0.008 C 
BRANCH  27  28
HETATM   28  C4  UNL     1       0.648  11.652  17.998  1.00  0.00     0.028 C 
BRANCH  28  29
HETATM   29  C3  UNL     1       1.116  10.771  19.125  1.00  0.00    -0.013 C 
HETATM   30  C2  UNL     1       1.586  11.131  20.338  1.00  0.00     0.008 C 
HETATM   31  C1  UNL     1       1.977  10.111  21.366  1.00  0.00     0.055 C 
BRANCH  30  32
HETATM   32  C30 UNL     1       1.766  12.555  20.708  1.00  0.00     0.171 C 
HETATM   33  O4  UNL     1       0.918  13.428  20.719  1.00  0.00    -0.646 OA
BRANCH  32  34
HETATM   34  O5  UNL     1       3.042  12.816  21.039  1.00  0.00    -0.773 OA
HETATM   35  H44 UNL     1       3.027  13.770  21.262  1.00  0.00     0.167 HD
ENDBRANCH  32  34
ENDBRANCH  30  32
ENDBRANCH  28  29
ENDBRANCH  27  28
ENDBRANCH  25  27
ENDBRANCH   1  25
BRANCH   8  36
HETATM   36  O1  UNL     1      -5.981   7.992  15.818  1.00  0.00    -0.391 OA
HETATM   37  H22 UNL     1      -5.359   7.697  16.503  1.00  0.00     0.210 HD
ENDBRANCH   8  36
TORSDOF 7
ENDMDL
MODEL 4
REMARK minimizedAffinity -8.32470226
REMARK CNNscore 0.396521568
REMARK CNNaffinity 6.70627213
REMARK  7 active torsions:
REMARK  status: ('A' for Active; 'I' for Inactive)
REMARK    1  A    between atoms: C2_2  and  C30_33 
REMARK    2  A    between atoms: C3_3  and  C4_4 
REMARK    3  A    between atoms: C4_4  and  C5_5 
REMARK    4  A    between atoms: C5_5  and  C6_6 
REMARK    5  A    between atoms: C6_6  and  C8_8 
REMARK    6  A    between atoms: C15_15  and  O1_16 
REMARK    7  A    between atoms: C30_33  and  O5_35 
ROOT
HETATM    1  C8  UNL     1      -8.593   6.124  14.383  1.00  0.00    -0.002 C 
HETATM    2  C9  UNL     1      -8.973   5.381  13.076  1.00  0.00     0.007 C 
HETATM    3  C10 UNL     1      -7.672   4.887  12.419  1.00  0.00     0.015 C 
HETATM    4  C11 UNL     1      -6.592   5.023  13.505  1.00  0.00    -0.005 C 
HETATM    5  C12 UNL     1      -6.684   3.750  14.401  1.00  0.00     0.021 C 
HETATM    6  C13 UNL     1      -5.120   5.126  13.114  1.00  0.00     0.002 C 
HETATM    7  C14 UNL     1      -4.224   5.795  13.891  1.00  0.00    -0.032 C 
HETATM    8  C15 UNL     1      -4.702   6.471  15.193  1.00  0.00     0.149 C 
HETATM    9  C16 UNL     1      -6.226   6.529  15.471  1.00  0.00     0.047 C 
HETATM   10  C17 UNL     1      -7.059   6.366  14.189  1.00  0.00    -0.026 C 
HETATM   11  C18 UNL     1      -6.857   7.615  13.273  1.00  0.00     0.016 C 
HETATM   12  C19 UNL     1      -2.697   5.852  13.562  1.00  0.00    -0.012 C 
HETATM   13  C20 UNL     1      -2.386   7.223  12.911  1.00  0.00     0.021 C 
HETATM   14  C21 UNL     1      -1.855   5.681  14.858  1.00  0.00     0.021 C 
HETATM   15  C22 UNL     1      -0.410   5.224  14.686  1.00  0.00     0.080 C 
HETATM   16  C23 UNL     1       0.085   5.263  13.266  1.00  0.00     0.135 C 
HETATM   17  O2  UNL     1       1.206   5.714  13.014  1.00  0.00    -0.297 OA
HETATM   18  C24 UNL     1      -0.793   4.616  12.188  1.00  0.00     0.018 C 
HETATM   19  C25 UNL     1      -0.343   3.143  12.079  1.00  0.00     0.023 C 
HETATM   20  C26 UNL     1      -0.496   5.293  10.831  1.00  0.00     0.023 C 
HETATM   21  C27 UNL     1      -2.304   4.667  12.613  1.00  0.00     0.020 C 
HETATM   22  C28 UNL     1      -3.255   4.585  11.419  1.00  0.00     0.090 C 
HETATM   23  C29 UNL     1      -4.673   4.410  11.878  1.00  0.00     0.157 C 
HETATM   24  O3  UNL     1      -5.446   3.713  11.224  1.00  0.00    -0.293 OA
ENDROOT
BRANCH   1  25
HETATM   25  C6  UNL     1      -9.535   7.334  14.686  1.00  0.00    -0.014 C 
HETATM   26  C7  UNL     1      -9.421   7.791  16.148  1.00  0.00     0.010 C 
BRANCH  25  27
HETATM   27  C5  UNL     1     -11.038   7.021  14.420  1.00  0.00     0.008 C 
BRANCH  27  28
HETATM   28  C4  UNL     1     -12.066   8.127  14.703  1.00  0.00     0.028 C 
BRANCH  28  29
HETATM   29  C3  UNL     1     -13.356   8.019  13.936  1.00  0.00    -0.013 C 
HETATM   30  C2  UNL     1     -13.846   8.848  12.990  1.00  0.00     0.008 C 
HETATM   31  C1  UNL     1     -15.145   8.566  12.293  1.00  0.00     0.055 C 
BRANCH  30  32
HETATM   32  C30 UNL     1     -13.140  10.093  12.608  1.00  0.00     0.171 C 
HETATM   33  O4  UNL     1     -13.188  11.171  13.169  1.00  0.00    -0.646 OA
BRANCH  32  34
HETATM   34  O5  UNL     1     -12.401   9.914  11.500  1.00  0.00    -0.773 OA
HETATM   35  H44 UNL     1     -11.991  10.793  11.357  1.00  0.00     0.167 HD
ENDBRANCH  32  34
ENDBRANCH  30  32
ENDBRANCH  28  29
ENDBRANCH  27  28
ENDBRANCH  25  27
ENDBRANCH   1  25
BRANCH   8  36
HETATM   36  O1  UNL     1      -4.203   7.803  15.255  1.00  0.00    -0.391 OA
HETATM   37  H22 UNL     1      -4.696   8.339  14.613  1.00  0.00     0.210 HD
ENDBRANCH   8  36
TORSDOF 7
ENDMDL
MODEL 5
REMARK minimizedAffinity -7.19942427
REMARK CNNscore 0.385306805
REMARK CNNaffinity 6.70139313
REMARK  7 active torsions:
REMARK  status: ('A' for Active; 'I' for Inactive)
REMARK    1  A    between atoms: C2_2  and  C30_33 
REMARK    2  A    between atoms: C3_3  and  C4_4 
REMARK    3  A    between atoms: C4_4  and  C5_5 
REMARK    4  A    between atoms: C5_5  and  C6_6 
REMARK    5  A    between atoms: C6_6  and  C8_8 
REMARK    6  A    between atoms: C15_15  and  O1_16 
REMARK    7  A    between atoms: C30_33  and  O5_35 
ROOT
HETATM    1  C8  UNL     1      -7.191   6.659  15.414  1.00  0.00    -0.002 C 
HETATM    2  C9  UNL     1      -7.235   5.255  14.756  1.00  0.00     0.007 C 
HETATM    3  C10 UNL     1      -5.866   4.994  14.105  1.00  0.00     0.015 C 
HETATM    4  C11 UNL     1      -4.930   6.068  14.686  1.00  0.00    -0.005 C 
HETATM    5  C12 UNL     1      -4.433   5.541  16.067  1.00  0.00     0.021 C 
HETATM    6  C13 UNL     1      -3.663   6.468  13.935  1.00  0.00     0.002 C 
HETATM    7  C14 UNL     1      -3.134   7.717  14.049  1.00  0.00    -0.032 C 
HETATM    8  C15 UNL     1      -3.830   8.758  14.951  1.00  0.00     0.149 C 
HETATM    9  C16 UNL     1      -5.217   8.403  15.543  1.00  0.00     0.047 C 
HETATM   10  C17 UNL     1      -5.924   7.293  14.748  1.00  0.00    -0.026 C 
HETATM   11  C18 UNL     1      -6.313   7.830  13.334  1.00  0.00     0.016 C 
HETATM   12  C19 UNL     1      -1.795   8.135  13.358  1.00  0.00    -0.012 C 
HETATM   13  C20 UNL     1      -2.134   8.947  12.083  1.00  0.00     0.021 C 
HETATM   14  C21 UNL     1      -0.934   9.001  14.321  1.00  0.00     0.021 C 
HETATM   15  C22 UNL     1       0.561   9.080  14.026  1.00  0.00     0.080 C 
HETATM   16  C23 UNL     1       0.955   8.529  12.682  1.00  0.00     0.135 C 
HETATM   17  O2  UNL     1       1.757   9.142  11.974  1.00  0.00    -0.297 OA
HETATM   18  C24 UNL     1       0.425   7.141  12.299  1.00  0.00     0.018 C 
HETATM   19  C25 UNL     1       1.474   6.119  12.789  1.00  0.00     0.023 C 
HETATM   20  C26 UNL     1       0.362   7.040  10.759  1.00  0.00     0.023 C 
HETATM   21  C27 UNL     1      -0.944   6.863  13.016  1.00  0.00     0.020 C 
HETATM   22  C28 UNL     1      -1.790   5.820  12.287  1.00  0.00     0.090 C 
HETATM   23  C29 UNL     1      -2.976   5.420  13.116  1.00  0.00     0.157 C 
HETATM   24  O3  UNL     1      -3.378   4.260  13.088  1.00  0.00    -0.293 OA
ENDROOT
BRANCH   1  25
HETATM   25  C6  UNL     1      -8.561   7.407  15.337  1.00  0.00    -0.014 C 
HETATM   26  C7  UNL     1      -9.433   6.881  14.187  1.00  0.00     0.010 C 
BRANCH  25  27
HETATM   27  C5  UNL     1      -8.406   8.943  15.129  1.00  0.00     0.008 C 
BRANCH  27  28
HETATM   28  C4  UNL     1      -9.670   9.813  15.222  1.00  0.00     0.028 C 
BRANCH  28  29
HETATM   29  C3  UNL     1     -10.244   9.969  16.604  1.00  0.00    -0.013 C 
HETATM   30  C2  UNL     1     -11.494   9.695  17.034  1.00  0.00     0.008 C 
HETATM   31  C1  UNL     1     -11.891   9.876  18.469  1.00  0.00     0.055 C 
BRANCH  30  32
HETATM   32  C30 UNL     1     -12.548   9.225  16.104  1.00  0.00     0.171 C 
HETATM   33  O4  UNL     1     -12.414   8.475  15.155  1.00  0.00    -0.646 OA
BRANCH  32  34
HETATM   34  O5  UNL     1     -13.745   9.749  16.417  1.00  0.00    -0.773 OA
HETATM   35  H44 UNL     1     -14.343   9.366  15.743  1.00  0.00     0.167 HD
ENDBRANCH  32  34
ENDBRANCH  30  32
ENDBRANCH  28  29
ENDBRANCH  27  28
ENDBRANCH  25  27
ENDBRANCH   1  25
BRANCH   8  36
HETATM   36  O1  UNL     1      -3.966   9.990  14.249  1.00  0.00    -0.391 OA
HETATM   37  H22 UNL     1      -4.658   9.878  13.578  1.00  0.00     0.210 HD
ENDBRANCH   8  36
TORSDOF 7
ENDMDL
MODEL 6
REMARK minimizedAffinity -8.53655624
REMARK CNNscore 0.356624067
REMARK CNNaffinity 6.55515242
REMARK  7 active torsions:
REMARK  status: ('A' for Active; 'I' for Inactive)
REMARK    1  A    between atoms: C2_2  and  C30_33 
REMARK    2  A    between atoms: C3_3  and  C4_4 
REMARK    3  A    between atoms: C4_4  and  C5_5 
REMARK    4  A    between atoms: C5_5  and  C6_6 
REMARK    5  A    between atoms: C6_6  and  C8_8 
REMARK    6  A    between atoms: C15_15  and  O1_16 
REMARK    7  A    between atoms: C30_33  and  O5_35 
ROOT
HETATM    1  C8  UNL     1      -2.237   6.134  12.645  1.00  0.00    -0.002 C 
HETATM    2  C9  UNL     1      -3.374   5.509  13.494  1.00  0.00     0.007 C 
HETATM    3  C10 UNL     1      -3.918   6.600  14.433  1.00  0.00     0.015 C 
HETATM    4  C11 UNL     1      -3.357   7.923  13.884  1.00  0.00    -0.005 C 
HETATM    5  C12 UNL     1      -4.301   8.374  12.728  1.00  0.00     0.021 C 
HETATM    6  C13 UNL     1      -3.237   9.142  14.795  1.00  0.00     0.002 C 
HETATM    7  C14 UNL     1      -2.282  10.091  14.590  1.00  0.00    -0.032 C 
HETATM    8  C15 UNL     1      -1.292   9.933  13.417  1.00  0.00     0.149 C 
HETATM    9  C16 UNL     1      -1.298   8.598  12.629  1.00  0.00     0.047 C 
HETATM   10  C17 UNL     1      -1.920   7.447  13.437  1.00  0.00    -0.026 C 
HETATM   11  C18 UNL     1      -0.994   7.096  14.645  1.00  0.00     0.016 C 
HETATM   12  C19 UNL     1      -2.182  11.390  15.455  1.00  0.00    -0.012 C 
HETATM   13  C20 UNL     1      -1.049  11.201  16.494  1.00  0.00     0.021 C 
HETATM   14  C21 UNL     1      -1.871  12.619  14.554  1.00  0.00     0.021 C 
HETATM   15  C22 UNL     1      -2.219  13.992  15.118  1.00  0.00     0.080 C 
HETATM   16  C23 UNL     1      -2.565  13.989  16.583  1.00  0.00     0.135 C 
HETATM   17  O2  UNL     1      -2.107  14.858  17.328  1.00  0.00    -0.297 OA
HETATM   18  C24 UNL     1      -3.589  12.955  17.069  1.00  0.00     0.018 C 
HETATM   19  C25 UNL     1      -4.976  13.626  16.962  1.00  0.00     0.023 C 
HETATM   20  C26 UNL     1      -3.329  12.664  18.564  1.00  0.00     0.023 C 
HETATM   21  C27 UNL     1      -3.556  11.682  16.152  1.00  0.00     0.020 C 
HETATM   22  C28 UNL     1      -4.085  10.434  16.858  1.00  0.00     0.090 C 
HETATM   23  C29 UNL     1      -4.248   9.300  15.887  1.00  0.00     0.157 C 
HETATM   24  O3  UNL     1      -5.181   8.511  16.019  1.00  0.00    -0.293 OA
ENDROOT
BRANCH   1  25
HETATM   25  C6  UNL     1      -1.088   5.122  12.334  1.00  0.00    -0.014 C 
HETATM   26  C7  UNL     1       0.016   5.169  13.401  1.00  0.00     0.010 C 
BRANCH  25  27
HETATM   27  C5  UNL     1      -0.405   5.379  10.957  1.00  0.00     0.008 C 
BRANCH  27  28
HETATM   28  C4  UNL     1       0.945   6.115  10.949  1.00  0.00     0.028 C 
BRANCH  28  29
HETATM   29  C3  UNL     1       1.187   7.003   9.757  1.00  0.00    -0.013 C 
HETATM   30  C2  UNL     1       2.120   6.881   8.790  1.00  0.00     0.008 C 
HETATM   31  C1  UNL     1       2.197   7.845   7.644  1.00  0.00     0.055 C 
BRANCH  30  32
HETATM   32  C30 UNL     1       3.136   5.802   8.825  1.00  0.00     0.171 C 
HETATM   33  O4  UNL     1       3.102   4.737   8.237  1.00  0.00    -0.646 OA
BRANCH  32  34
HETATM   34  O5  UNL     1       4.162   6.123   9.632  1.00  0.00    -0.773 OA
HETATM   35  H44 UNL     1       4.753   5.344   9.566  1.00  0.00     0.167 HD
ENDBRANCH  32  34
ENDBRANCH  30  32
ENDBRANCH  28  29
ENDBRANCH  27  28
ENDBRANCH  25  27
ENDBRANCH   1  25
BRANCH   8  36
HETATM   36  O1  UNL     1       0.038  10.155  13.876  1.00  0.00    -0.391 OA
HETATM   37  H22 UNL     1       0.304   9.387  14.408  1.00  0.00     0.210 HD
ENDBRANCH   8  36
TORSDOF 7
ENDMDL
MODEL 7
REMARK minimizedAffinity -7.2797327
REMARK CNNscore 0.354539901
REMARK CNNaffinity 6.21495295
REMARK  7 active torsions:
REMARK  status: ('A' for Active; 'I' for Inactive)
REMARK    1  A    between atoms: C2_2  and  C30_33 
REMARK    2  A    between atoms: C3_3  and  C4_4 
REMARK    3  A    between atoms: C4_4  and  C5_5 
REMARK    4  A    between atoms: C5_5  and  C6_6 
REMARK    5  A    between atoms: C6_6  and  C8_8 
REMARK    6  A    between atoms: C15_15  and  O1_16 
REMARK    7  A    between atoms: C30_33  and  O5_35 
ROOT
HETATM    1  C8  UNL     1       2.610   7.374  11.105  1.00  0.00    -0.002 C 
HETATM    2  C9  UNL     1       3.201   7.924   9.781  1.00  0.00     0.007 C 
HETATM    3  C10 UNL     1       4.572   8.546  10.098  1.00  0.00     0.015 C 
HETATM    4  C11 UNL     1       4.929   8.043  11.508  1.00  0.00    -0.005 C 
HETATM    5  C12 UNL     1       5.553   6.624  11.340  1.00  0.00     0.021 C 
HETATM    6  C13 UNL     1       5.926   8.815  12.367  1.00  0.00     0.002 C 
HETATM    7  C14 UNL     1       5.858   8.792  13.727  1.00  0.00    -0.032 C 
HETATM    8  C15 UNL     1       4.747   7.976  14.419  1.00  0.00     0.149 C 
HETATM    9  C16 UNL     1       3.629   7.366  13.537  1.00  0.00     0.047 C 
HETATM   10  C17 UNL     1       3.502   8.079  12.181  1.00  0.00    -0.026 C 
HETATM   11  C18 UNL     1       2.973   9.532  12.402  1.00  0.00     0.016 C 
HETATM   12  C19 UNL     1       6.910   9.506  14.638  1.00  0.00    -0.012 C 
HETATM   13  C20 UNL     1       6.302  10.840  15.137  1.00  0.00     0.021 C 
HETATM   14  C21 UNL     1       7.275   8.606  15.853  1.00  0.00     0.021 C 
HETATM   15  C22 UNL     1       8.599   8.897  16.553  1.00  0.00     0.080 C 
HETATM   16  C23 UNL     1       9.243  10.194  16.140  1.00  0.00     0.135 C 
HETATM   17  O2  UNL     1       9.727  10.942  16.993  1.00  0.00    -0.297 OA
HETATM   18  C24 UNL     1       9.380  10.474  14.639  1.00  0.00     0.018 C 
HETATM   19  C25 UNL     1      10.748   9.903  14.207  1.00  0.00     0.023 C 
HETATM   20  C26 UNL     1       9.425  12.003  14.420  1.00  0.00     0.023 C 
HETATM   21  C27 UNL     1       8.240   9.746  13.842  1.00  0.00     0.020 C 
HETATM   22  C28 UNL     1       7.956  10.399  12.490  1.00  0.00     0.090 C 
HETATM   23  C29 UNL     1       7.029   9.549  11.671  1.00  0.00     0.157 C 
HETATM   24  O3  UNL     1       7.169   9.491  10.451  1.00  0.00    -0.293 OA
ENDROOT
BRANCH   1  25
HETATM   25  C6  UNL     1       1.055   7.515  11.178  1.00  0.00    -0.014 C 
HETATM   26  C7  UNL     1       0.510   8.403  10.049  1.00  0.00     0.010 C 
BRANCH  25  27
HETATM   27  C5  UNL     1       0.560   8.128  12.522  1.00  0.00     0.008 C 
BRANCH  27  28
HETATM   28  C4  UNL     1      -0.952   8.337  12.705  1.00  0.00     0.028 C 
BRANCH  28  29
HETATM   29  C3  UNL     1      -1.789   7.088  12.629  1.00  0.00    -0.013 C 
HETATM   30  C2  UNL     1      -2.202   6.287  13.634  1.00  0.00     0.008 C 
HETATM   31  C1  UNL     1      -3.070   5.090  13.381  1.00  0.00     0.055 C 
BRANCH  30  32
HETATM   32  C30 UNL     1      -1.798   6.534  15.038  1.00  0.00     0.171 C 
HETATM   33  O4  UNL     1      -2.297   7.318  15.824  1.00  0.00    -0.646 OA
BRANCH  32  34
HETATM   34  O5  UNL     1      -0.747   5.771  15.385  1.00  0.00    -0.773 OA
HETATM   35  H44 UNL     1      -0.584   6.022  16.318  1.00  0.00     0.167 HD
ENDBRANCH  32  34
ENDBRANCH  30  32
ENDBRANCH  28  29
ENDBRANCH  27  28
ENDBRANCH  25  27
ENDBRANCH   1  25
BRANCH   8  36
HETATM   36  O1  UNL     1       4.119   8.769  15.421  1.00  0.00    -0.391 OA
HETATM   37  H22 UNL     1       3.569   9.434  14.976  1.00  0.00     0.210 HD
ENDBRANCH   8  36
TORSDOF 7
ENDMDL
MODEL 8
REMARK minimizedAffinity -7.38478518
REMARK CNNscore 0.338376939
REMARK CNNaffinity 6.02685547
REMARK  7 active torsions:
REMARK  status: ('A' for Active; 'I' for Inactive)
REMARK    1  A    between atoms: C2_2  and  C30_33 
REMARK    2  A    between atoms: C3_3  and  C4_4 
REMARK    3  A    between atoms: C4_4  and  C5_5 
REMARK    4  A    between atoms: C5_5  and  C6_6 
REMARK    5  A    between atoms: C6_6  and  C8_8 
REMARK    6  A    between atoms: C15_15  and  O1_16 
REMARK    7  A    between atoms: C30_33  and  O5_35 
ROOT
HETATM    1  C8  UNL     1      -9.340  -8.107  -3.425  1.00  0.00    -0.002 C 
HETATM    2  C9  UNL     1      -8.044  -8.130  -4.275  1.00  0.00     0.007 C 
HETATM    3  C10 UNL     1      -6.950  -8.831  -3.451  1.00  0.00     0.015 C 
HETATM    4  C11 UNL     1      -7.694  -9.523  -2.296  1.00  0.00    -0.005 C 
HETATM    5  C12 UNL     1      -8.225 -10.882  -2.845  1.00  0.00     0.021 C 
HETATM    6  C13 UNL     1      -6.953  -9.877  -1.010  1.00  0.00     0.002 C 
HETATM    7  C14 UNL     1      -7.597  -9.935   0.189  1.00  0.00    -0.032 C 
HETATM    8  C15 UNL     1      -9.108  -9.629   0.255  1.00  0.00     0.149 C 
HETATM    9  C16 UNL     1      -9.800  -9.077  -1.017  1.00  0.00     0.047 C 
HETATM   10  C17 UNL     1      -8.800  -8.437  -1.994  1.00  0.00    -0.026 C 
HETATM   11  C18 UNL     1      -8.214  -7.135  -1.362  1.00  0.00     0.016 C 
HETATM   12  C19 UNL     1      -6.886 -10.373   1.511  1.00  0.00    -0.012 C 
HETATM   13  C20 UNL     1      -6.547  -9.102   2.329  1.00  0.00     0.021 C 
HETATM   14  C21 UNL     1      -7.812 -11.305   2.343  1.00  0.00     0.021 C 
HETATM   15  C22 UNL     1      -7.138 -12.202   3.375  1.00  0.00     0.080 C 
HETATM   16  C23 UNL     1      -5.695 -11.865   3.639  1.00  0.00     0.135 C 
HETATM   17  O2  UNL     1      -5.268 -11.835   4.795  1.00  0.00    -0.297 OA
HETATM   18  C24 UNL     1      -4.773 -11.690   2.425  1.00  0.00     0.018 C 
HETATM   19  C25 UNL     1      -4.172 -13.081   2.125  1.00  0.00     0.023 C 
HETATM   20  C26 UNL     1      -3.606 -10.756   2.817  1.00  0.00     0.023 C 
HETATM   21  C27 UNL     1      -5.595 -11.201   1.181  1.00  0.00     0.020 C 
HETATM   22  C28 UNL     1      -4.730 -10.477   0.151  1.00  0.00     0.090 C 
HETATM   23  C29 UNL     1      -5.501 -10.228  -1.113  1.00  0.00     0.157 C 
HETATM   24  O3  UNL     1      -4.930 -10.286  -2.200  1.00  0.00    -0.293 OA
ENDROOT
BRANCH   1  25
HETATM   25  C6  UNL     1     -10.190  -6.814  -3.651  1.00  0.00    -0.014 C 
HETATM   26  C7  UNL     1     -11.315  -7.044  -4.671  1.00  0.00     0.010 C 
BRANCH  25  27
HETATM   27  C5  UNL     1      -9.344  -5.611  -4.166  1.00  0.00     0.008 C 
BRANCH  27  28
HETATM   28  C4  UNL     1      -9.921  -4.762  -5.310  1.00  0.00     0.028 C 
BRANCH  28  29
HETATM   29  C3  UNL     1     -10.307  -3.356  -4.938  1.00  0.00    -0.013 C 
HETATM   30  C2  UNL     1      -9.579  -2.224  -5.049  1.00  0.00     0.008 C 
HETATM   31  C1  UNL     1     -10.137  -0.888  -4.660  1.00  0.00     0.055 C 
BRANCH  30  32
HETATM   32  C30 UNL     1      -8.180  -2.247  -5.537  1.00  0.00     0.171 C 
HETATM   33  O4  UNL     1      -7.794  -2.088  -6.680  1.00  0.00    -0.646 OA
BRANCH  32  34
HETATM   34  O5  UNL     1      -7.317  -2.492  -4.536  1.00  0.00    -0.773 OA
HETATM   35  H44 UNL     1      -6.444  -2.479  -4.981  1.00  0.00     0.167 HD
ENDBRANCH  32  34
ENDBRANCH  30  32
ENDBRANCH  28  29
ENDBRANCH  27  28
ENDBRANCH  25  27
ENDBRANCH   1  25
BRANCH   8  36
HETATM   36  O1  UNL     1      -9.368  -8.716   1.316  1.00  0.00    -0.391 OA
HETATM   37  H22 UNL     1      -9.045  -7.842   1.046  1.00  0.00     0.210 HD
ENDBRANCH   8  36
TORSDOF 7
ENDMDL
MODEL 9
REMARK minimizedAffinity -7.57791901
REMARK CNNscore 0.326836735
REMARK CNNaffinity 6.1822257
REMARK  7 active torsions:
REMARK  status: ('A' for Active; 'I' for Inactive)
REMARK    1  A    between atoms: C2_2  and  C30_33 
REMARK    2  A    between atoms: C3_3  and  C4_4 
REMARK    3  A    between atoms: C4_4  and  C5_5 
REMARK    4  A    between atoms: C5_5  and  C6_6 
REMARK    5  A    between atoms: C6_6  and  C8_8 
REMARK    6  A    between atoms: C15_15  and  O1_16 
REMARK    7  A    between atoms: C30_33  and  O5_35 
ROOT
HETATM    1  C8  UNL     1      -1.530  10.074  16.491  1.00  0.00    -0.002 C 
HETATM    2  C9  UNL     1      -0.219   9.941  17.308  1.00  0.00     0.007 C 
HETATM    3  C10 UNL     1       0.887   9.463  16.351  1.00  0.00     0.015 C 
HETATM    4  C11 UNL     1       0.316   9.665  14.937  1.00  0.00    -0.005 C 
HETATM    5  C12 UNL     1       0.559  11.158  14.557  1.00  0.00     0.021 C 
HETATM    6  C13 UNL     1       0.870   8.862  13.764  1.00  0.00     0.002 C 
HETATM    7  C14 UNL     1       0.098   8.554  12.686  1.00  0.00    -0.032 C 
HETATM    8  C15 UNL     1      -1.372   9.018  12.647  1.00  0.00     0.149 C 
HETATM    9  C16 UNL     1      -1.974   9.654  13.926  1.00  0.00     0.047 C 
HETATM   10  C17 UNL     1      -1.190   9.270  15.192  1.00  0.00    -0.026 C 
HETATM   11  C18 UNL     1      -1.377   7.746  15.479  1.00  0.00     0.016 C 
HETATM   12  C19 UNL     1       0.657   7.803  11.433  1.00  0.00    -0.012 C 
HETATM   13  C20 UNL     1       0.231   6.316  11.524  1.00  0.00     0.021 C 
HETATM   14  C21 UNL     1       0.095   8.434  10.127  1.00  0.00     0.021 C 
HETATM   15  C22 UNL     1       0.880   8.177   8.845  1.00  0.00     0.080 C 
HETATM   16  C23 UNL     1       1.943   7.119   8.974  1.00  0.00     0.135 C 
HETATM   17  O2  UNL     1       2.078   6.268   8.091  1.00  0.00    -0.297 OA
HETATM   18  C24 UNL     1       2.910   7.223  10.160  1.00  0.00     0.018 C 
HETATM   19  C25 UNL     1       4.109   8.068   9.677  1.00  0.00     0.023 C 
HETATM   20  C26 UNL     1       3.442   5.811  10.494  1.00  0.00     0.023 C 
HETATM   21  C27 UNL     1       2.217   7.949  11.367  1.00  0.00     0.020 C 
HETATM   22  C28 UNL     1       2.855   7.599  12.710  1.00  0.00     0.090 C 
HETATM   23  C29 UNL     1       2.317   8.478  13.802  1.00  0.00     0.157 C 
HETATM   24  O3  UNL     1       3.055   8.840  14.716  1.00  0.00    -0.293 OA
ENDROOT
BRANCH   1  25
HETATM   25  C6  UNL     1      -2.801   9.701  17.321  1.00  0.00    -0.014 C 
HETATM   26  C7  UNL     1      -4.093   9.971  16.536  1.00  0.00     0.010 C 
BRANCH  25  27
HETATM   27  C5  UNL     1      -2.907  10.487  18.662  1.00  0.00     0.008 C 
BRANCH  27  28
HETATM   28  C4  UNL     1      -2.977  12.021  18.594  1.00  0.00     0.028 C 
BRANCH  28  29
HETATM   29  C3  UNL     1      -4.228  12.634  19.164  1.00  0.00    -0.013 C 
HETATM   30  C2  UNL     1      -5.153  13.394  18.542  1.00  0.00     0.008 C 
HETATM   31  C1  UNL     1      -6.371  13.898  19.260  1.00  0.00     0.055 C 
BRANCH  30  32
HETATM   32  C30 UNL     1      -5.003  13.794  17.123  1.00  0.00     0.171 C 
HETATM   33  O4  UNL     1      -4.333  14.708  16.680  1.00  0.00    -0.646 OA
BRANCH  32  34
HETATM   34  O5  UNL     1      -5.734  13.009  16.315  1.00  0.00    -0.773 OA
HETATM   35  H44 UNL     1      -5.549  13.368  15.422  1.00  0.00     0.167 HD
ENDBRANCH  32  34
ENDBRANCH  30  32
ENDBRANCH  28  29
ENDBRANCH  27  28
ENDBRANCH  25  27
ENDBRANCH   1  25
BRANCH   8  36
HETATM   36  O1  UNL     1      -2.211   7.930  12.273  1.00  0.00    -0.391 OA
HETATM   37  H22 UNL     1      -2.262   7.318  13.024  1.00  0.00     0.210 HD
ENDBRANCH   8  36
TORSDOF 7
ENDMDL
