MODEL 1
REMARK minimizedAffinity -10.8259392
REMARK CNNscore 0.669505835
REMARK CNNaffinity 7.09878397
REMARK  10 active torsions:
REMARK  status: ('A' for Active; 'I' for Inactive)
REMARK    1  A    between atoms: C2_2  and  C3_3 
REMARK    2  A    between atoms: C2_2  and  C9_11 
REMARK    3  A    between atoms: C3_3  and  C4_4 
REMARK    4  A    between atoms: C4_4  and  C5_5 
REMARK    5  A    between atoms: C5_5  and  O1_6 
REMARK    6  A    between atoms: C5_5  and  C6_7 
REMARK    7  A    between atoms: C6_7  and  O2_10 
REMARK    8  A    between atoms: C10_12  and  O3_13 
REMARK    9  A    between atoms: C12_15  and  C13_16 
REMARK   10  A    between atoms: C13_16  and  O5_18 
ROOT
HETATM    1  C9  UNL     1       1.019   7.060  12.981  1.00  0.00     0.028 C 
HETATM    2  C10 UNL     1       0.653   7.806  14.289  1.00  0.00     0.124 C 
HETATM    3  C11 UNL     1      -0.851   7.647  14.485  1.00  0.00     0.053 C 
HETATM    4  C12 UNL     1      -1.425   7.608  13.051  1.00  0.00     0.060 C 
HETATM    5  C14 UNL     1      -2.911   7.090  12.998  1.00  0.00     0.014 C 
HETATM    6  C15 UNL     1      -3.831   7.942  13.905  1.00  0.00     0.007 C 
HETATM    7  C16 UNL     1      -5.266   7.438  14.083  1.00  0.00     0.007 C 
HETATM    8  C17 UNL     1      -5.613   6.149  13.323  1.00  0.00     0.010 C 
HETATM    9  C18 UNL     1      -7.021   5.573  13.695  1.00  0.00     0.018 C 
HETATM   10  C19 UNL     1      -8.124   6.613  13.420  1.00  0.00     0.023 C 
HETATM   11  C20 UNL     1      -7.121   5.112  15.160  1.00  0.00     0.023 C 
HETATM   12  C21 UNL     1      -7.313   4.354  12.810  1.00  0.00     0.135 C 
HETATM   13  O6  UNL     1      -8.443   3.860  12.727  1.00  0.00    -0.297 OA
HETATM   14  C22 UNL     1      -6.172   3.779  12.009  1.00  0.00     0.080 C 
HETATM   15  C23 UNL     1      -4.922   3.716  12.869  1.00  0.00     0.018 C 
HETATM   16  C24 UNL     1      -4.510   5.081  13.417  1.00  0.00    -0.026 A 
HETATM   17  C25 UNL     1      -3.545   5.059  14.592  1.00  0.00     0.021 A 
HETATM   18  C26 UNL     1      -3.059   5.588  13.261  1.00  0.00    -0.027 A 
HETATM   19  C27 UNL     1      -2.072   4.740  12.489  1.00  0.00     0.011 C 
HETATM   20  C28 UNL     1      -0.642   5.194  12.728  1.00  0.00     0.012 C 
HETATM   21  C29 UNL     1      -0.372   6.686  12.324  1.00  0.00    -0.020 C 
HETATM   22  C30 UNL     1      -0.449   6.738  10.789  1.00  0.00     0.017 C 
ENDROOT
BRANCH   1  23
HETATM   23  C2  UNL     1       2.172   7.804  12.237  1.00  0.00    -0.011 C 
HETATM   24  C1  UNL     1       2.551   9.195  12.748  1.00  0.00     0.010 C 
BRANCH  23  25
HETATM   25  C3  UNL     1       1.987   7.824  10.698  1.00  0.00     0.007 C 
BRANCH  25  26
HETATM   26  C4  UNL     1       2.333   6.488  10.007  1.00  0.00     0.035 C 
BRANCH  26  27
HETATM   27  C5  UNL     1       2.961   6.679   8.608  1.00  0.00     0.151 C 
BRANCH  27  28
HETATM   28  O1  UNL     1       3.118   5.417   7.957  1.00  0.00    -0.393 OA
HETATM   29  H10 UNL     1       2.259   4.960   7.978  1.00  0.00     0.210 HD
ENDBRANCH  27  28
BRANCH  27  30
HETATM   30  C6  UNL     1       2.186   7.679   7.697  1.00  0.00     0.076 C 
HETATM   31  C7  UNL     1       1.928   7.047   6.323  1.00  0.00     0.048 C 
HETATM   32  C8  UNL     1       0.851   8.122   8.305  1.00  0.00     0.048 C 
BRANCH  30  33
HETATM   33  O2  UNL     1       2.990   8.848   7.499  1.00  0.00    -0.388 OA
HETATM   34  H17 UNL     1       2.525   9.431   6.873  1.00  0.00     0.210 HD
ENDBRANCH  30  33
ENDBRANCH  27  30
ENDBRANCH  26  27
ENDBRANCH  25  26
ENDBRANCH  23  25
ENDBRANCH   1  23
BRANCH   2  35
HETATM   35  O3  UNL     1       1.360   7.236  15.382  1.00  0.00    -0.395 OA
HETATM   36  H20 UNL     1       1.089   7.719  16.181  1.00  0.00     0.210 HD
ENDBRANCH   2  35
BRANCH   4  37
HETATM   37  C13 UNL     1      -1.474   9.012  12.420  1.00  0.00     0.150 C 
HETATM   38  O4  UNL     1      -1.841   9.279  11.285  1.00  0.00    -0.649 OA
BRANCH  37  39
HETATM   39  O5  UNL     1      -1.165  10.022  13.253  1.00  0.00    -0.776 OA
HETATM   40  H23 UNL     1      -1.309  10.827  12.707  1.00  0.00     0.167 HD
ENDBRANCH  37  39
ENDBRANCH   4  37
TORSDOF 10
ENDMDL
MODEL 2
REMARK minimizedAffinity -7.1579175
REMARK CNNscore 0.529729068
REMARK CNNaffinity 5.57744074
REMARK  10 active torsions:
REMARK  status: ('A' for Active; 'I' for Inactive)
REMARK    1  A    between atoms: C2_2  and  C3_3 
REMARK    2  A    between atoms: C2_2  and  C9_11 
REMARK    3  A    between atoms: C3_3  and  C4_4 
REMARK    4  A    between atoms: C4_4  and  C5_5 
REMARK    5  A    between atoms: C5_5  and  O1_6 
REMARK    6  A    between atoms: C5_5  and  C6_7 
REMARK    7  A    between atoms: C6_7  and  O2_10 
REMARK    8  A    between atoms: C10_12  and  O3_13 
REMARK    9  A    between atoms: C12_15  and  C13_16 
REMARK   10  A    between atoms: C13_16  and  O5_18 
ROOT
HETATM    1  C9  UNL     1     -13.972   8.216  22.741  1.00  0.00     0.028 C 
HETATM    2  C10 UNL     1     -14.996   9.346  23.017  1.00  0.00     0.124 C 
HETATM    3  C11 UNL     1     -14.195  10.626  23.237  1.00  0.00     0.053 C 
HETATM    4  C12 UNL     1     -12.884  10.152  23.901  1.00  0.00     0.060 C 
HETATM    5  C14 UNL     1     -11.757  11.252  23.890  1.00  0.00     0.014 C 
HETATM    6  C15 UNL     1     -12.244  12.555  24.570  1.00  0.00     0.007 C 
HETATM    7  C16 UNL     1     -11.309  13.763  24.471  1.00  0.00     0.007 C 
HETATM    8  C17 UNL     1      -9.994  13.522  23.716  1.00  0.00     0.010 C 
HETATM    9  C18 UNL     1      -9.171  14.833  23.473  1.00  0.00     0.018 C 
HETATM   10  C19 UNL     1      -8.845  15.525  24.811  1.00  0.00     0.023 C 
HETATM   11  C20 UNL     1      -9.885  15.836  22.551  1.00  0.00     0.023 C 
HETATM   12  C21 UNL     1      -7.835  14.470  22.811  1.00  0.00     0.135 C 
HETATM   13  O6  UNL     1      -6.904  15.277  22.730  1.00  0.00    -0.297 OA
HETATM   14  C22 UNL     1      -7.676  13.070  22.273  1.00  0.00     0.080 C 
HETATM   15  C23 UNL     1      -8.938  12.656  21.538  1.00  0.00     0.018 C 
HETATM   16  C24 UNL     1     -10.185  12.713  22.421  1.00  0.00    -0.026 A 
HETATM   17  C25 UNL     1     -11.516  12.720  21.687  1.00  0.00     0.021 A 
HETATM   18  C26 UNL     1     -11.144  11.507  22.509  1.00  0.00    -0.027 A 
HETATM   19  C27 UNL     1     -10.788  10.239  21.764  1.00  0.00     0.011 C 
HETATM   20  C28 UNL     1     -11.978   9.299  21.665  1.00  0.00     0.012 C 
HETATM   21  C29 UNL     1     -12.561   8.860  23.054  1.00  0.00    -0.020 C 
HETATM   22  C30 UNL     1     -11.506   7.942  23.693  1.00  0.00     0.017 C 
ENDROOT
BRANCH   1  23
HETATM   23  C2  UNL     1     -14.477   6.867  23.342  1.00  0.00    -0.011 C 
HETATM   24  C1  UNL     1     -14.530   6.759  24.868  1.00  0.00     0.010 C 
BRANCH  23  25
HETATM   25  C3  UNL     1     -13.769   5.630  22.736  1.00  0.00     0.007 C 
BRANCH  25  26
HETATM   26  C4  UNL     1     -13.159   4.677  23.787  1.00  0.00     0.035 C 
BRANCH  26  27
HETATM   27  C5  UNL     1     -13.683   3.230  23.664  1.00  0.00     0.151 C 
BRANCH  27  28
HETATM   28  O1  UNL     1     -13.485   2.740  22.336  1.00  0.00    -0.393 OA
HETATM   29  H10 UNL     1     -12.550   2.874  22.104  1.00  0.00     0.210 HD
ENDBRANCH  27  28
BRANCH  27  30
HETATM   30  C6  UNL     1     -13.078   2.246  24.711  1.00  0.00     0.076 C 
HETATM   31  C7  UNL     1     -11.560   2.132  24.512  1.00  0.00     0.048 C 
HETATM   32  C8  UNL     1     -13.363   2.670  26.156  1.00  0.00     0.048 C 
BRANCH  30  33
HETATM   33  O2  UNL     1     -13.646   0.946  24.512  1.00  0.00    -0.388 OA
HETATM   34  H17 UNL     1     -13.208   0.329  25.124  1.00  0.00     0.210 HD
ENDBRANCH  30  33
ENDBRANCH  27  30
ENDBRANCH  26  27
ENDBRANCH  25  26
ENDBRANCH  23  25
ENDBRANCH   1  23
BRANCH   2  35
HETATM   35  O3  UNL     1     -15.867   9.489  21.905  1.00  0.00    -0.395 OA
HETATM   36  H20 UNL     1     -16.478  10.217  22.112  1.00  0.00     0.210 HD
ENDBRANCH   2  35
BRANCH   4  37
HETATM   37  C13 UNL     1     -13.090   9.813  25.389  1.00  0.00     0.150 C 
HETATM   38  O4  UNL     1     -14.144   9.886  26.004  1.00  0.00    -0.649 OA
BRANCH  37  39
HETATM   39  O5  UNL     1     -12.011   9.306  26.013  1.00  0.00    -0.776 OA
HETATM   40  H23 UNL     1     -12.341   9.096  26.914  1.00  0.00     0.167 HD
ENDBRANCH  37  39
ENDBRANCH   4  37
TORSDOF 10
ENDMDL
MODEL 3
REMARK minimizedAffinity -7.13266802
REMARK CNNscore 0.522567034
REMARK CNNaffinity 6.05233717
REMARK  10 active torsions:
REMARK  status: ('A' for Active; 'I' for Inactive)
REMARK    1  A    between atoms: C2_2  and  C3_3 
REMARK    2  A    between atoms: C2_2  and  C9_11 
REMARK    3  A    between atoms: C3_3  and  C4_4 
REMARK    4  A    between atoms: C4_4  and  C5_5 
REMARK    5  A    between atoms: C5_5  and  O1_6 
REMARK    6  A    between atoms: C5_5  and  C6_7 
REMARK    7  A    between atoms: C6_7  and  O2_10 
REMARK    8  A    between atoms: C10_12  and  O3_13 
REMARK    9  A    between atoms: C12_15  and  C13_16 
REMARK   10  A    between atoms: C13_16  and  O5_18 
ROOT
HETATM    1  C9  UNL     1      -9.848 -10.065  11.996  1.00  0.00     0.028 C 
HETATM    2  C10 UNL     1      -8.707  -9.230  12.629  1.00  0.00     0.124 C 
HETATM    3  C11 UNL     1      -7.514  -9.320  11.681  1.00  0.00     0.053 C 
HETATM    4  C12 UNL     1      -7.622 -10.728  11.057  1.00  0.00     0.060 C 
HETATM    5  C14 UNL     1      -6.710 -10.908   9.786  1.00  0.00     0.014 C 
HETATM    6  C15 UNL     1      -5.230 -10.595  10.113  1.00  0.00     0.007 C 
HETATM    7  C16 UNL     1      -4.264 -10.559   8.926  1.00  0.00     0.007 C 
HETATM    8  C17 UNL     1      -4.890 -10.853   7.555  1.00  0.00     0.010 C 
HETATM    9  C18 UNL     1      -3.906 -10.611   6.361  1.00  0.00     0.018 C 
HETATM   10  C19 UNL     1      -2.640 -11.476   6.515  1.00  0.00     0.023 C 
HETATM   11  C20 UNL     1      -3.490  -9.137   6.208  1.00  0.00     0.023 C 
HETATM   12  C21 UNL     1      -4.591 -11.032   5.054  1.00  0.00     0.135 C 
HETATM   13  O6  UNL     1      -3.961 -11.171   4.000  1.00  0.00    -0.297 OA
HETATM   14  C22 UNL     1      -6.074 -11.302   5.094  1.00  0.00     0.080 C 
HETATM   15  C23 UNL     1      -6.769 -10.231   5.915  1.00  0.00     0.018 C 
HETATM   16  C24 UNL     1      -6.238 -10.142   7.345  1.00  0.00    -0.026 A 
HETATM   17  C25 UNL     1      -6.568  -8.861   8.096  1.00  0.00     0.021 A 
HETATM   18  C26 UNL     1      -7.207 -10.155   8.548  1.00  0.00    -0.027 A 
HETATM   19  C27 UNL     1      -8.687 -10.333   8.287  1.00  0.00     0.011 C 
HETATM   20  C28 UNL     1      -9.514  -9.973   9.509  1.00  0.00     0.012 C 
HETATM   21  C29 UNL     1      -9.173 -10.824  10.782  1.00  0.00    -0.020 C 
HETATM   22  C30 UNL     1      -9.669 -12.250  10.494  1.00  0.00     0.017 C 
ENDROOT
BRANCH   1  23
HETATM   23  C2  UNL     1     -10.692 -10.762  13.110  1.00  0.00    -0.011 C 
HETATM   24  C1  UNL     1     -12.159 -10.344  13.239  1.00  0.00     0.010 C 
BRANCH  23  25
HETATM   25  C3  UNL     1     -10.000 -10.744  14.496  1.00  0.00     0.007 C 
BRANCH  25  26
HETATM   26  C4  UNL     1     -10.677  -9.812  15.524  1.00  0.00     0.035 C 
BRANCH  26  27
HETATM   27  C5  UNL     1     -10.030  -9.887  16.924  1.00  0.00     0.151 C 
BRANCH  27  28
HETATM   28  O1  UNL     1      -9.353  -8.666  17.226  1.00  0.00    -0.393 OA
HETATM   29  H10 UNL     1      -9.980  -7.934  17.086  1.00  0.00     0.210 HD
ENDBRANCH  27  28
BRANCH  27  30
HETATM   30  C6  UNL     1     -11.026 -10.263  18.063  1.00  0.00     0.076 C 
HETATM   31  C7  UNL     1     -11.684 -11.616  17.763  1.00  0.00     0.048 C 
HETATM   32  C8  UNL     1     -10.356 -10.325  19.440  1.00  0.00     0.048 C 
BRANCH  30  33
HETATM   33  O2  UNL     1     -12.062  -9.274  18.121  1.00  0.00    -0.388 OA
HETATM   34  H17 UNL     1     -12.713  -9.558  18.786  1.00  0.00     0.210 HD
ENDBRANCH  30  33
ENDBRANCH  27  30
ENDBRANCH  26  27
ENDBRANCH  25  26
ENDBRANCH  23  25
ENDBRANCH   1  23
BRANCH   2  35
HETATM   35  O3  UNL     1      -9.123  -7.880  12.778  1.00  0.00    -0.395 OA
HETATM   36  H20 UNL     1      -8.375  -7.390  13.159  1.00  0.00     0.210 HD
ENDBRANCH   2  35
BRANCH   4  37
HETATM   37  C13 UNL     1      -7.155 -11.821  12.036  1.00  0.00     0.150 C 
HETATM   38  O4  UNL     1      -6.926 -11.670  13.227  1.00  0.00    -0.649 OA
BRANCH  37  39
HETATM   39  O5  UNL     1      -7.091 -13.061  11.518  1.00  0.00    -0.776 OA
HETATM   40  H23 UNL     1      -6.842 -13.622  12.285  1.00  0.00     0.167 HD
ENDBRANCH  37  39
ENDBRANCH   4  37
TORSDOF 10
ENDMDL
MODEL 4
REMARK minimizedAffinity -8.01935673
REMARK CNNscore 0.514122665
REMARK CNNaffinity 6.50062799
REMARK  10 active torsions:
REMARK  status: ('A' for Active; 'I' for Inactive)
REMARK    1  A    between atoms: C2_2  and  C3_3 
REMARK    2  A    between atoms: C2_2  and  C9_11 
REMARK    3  A    between atoms: C3_3  and  C4_4 
REMARK    4  A    between atoms: C4_4  and  C5_5 
REMARK    5  A    between atoms: C5_5  and  O1_6 
REMARK    6  A    between atoms: C5_5  and  C6_7 
REMARK    7  A    between atoms: C6_7  and  O2_10 
REMARK    8  A    between atoms: C10_12  and  O3_13 
REMARK    9  A    between atoms: C12_15  and  C13_16 
REMARK   10  A    between atoms: C13_16  and  O5_18 
ROOT
HETATM    1  C9  UNL     1      -0.762   6.635  13.269  1.00  0.00     0.028 C 
HETATM    2  C10 UNL     1      -0.160   6.292  14.655  1.00  0.00     0.124 C 
HETATM    3  C11 UNL     1      -0.451   7.476  15.571  1.00  0.00     0.053 C 
HETATM    4  C12 UNL     1      -0.415   8.705  14.637  1.00  0.00     0.060 C 
HETATM    5  C14 UNL     1      -1.042   9.993  15.292  1.00  0.00     0.014 C 
HETATM    6  C15 UNL     1      -0.343  10.335  16.630  1.00  0.00     0.007 C 
HETATM    7  C16 UNL     1      -0.971  11.459  17.457  1.00  0.00     0.007 C 
HETATM    8  C17 UNL     1      -2.215  12.117  16.842  1.00  0.00     0.010 C 
HETATM    9  C18 UNL     1      -2.930  13.118  17.813  1.00  0.00     0.018 C 
HETATM   10  C19 UNL     1      -1.960  14.229  18.257  1.00  0.00     0.023 C 
HETATM   11  C20 UNL     1      -3.517  12.437  19.061  1.00  0.00     0.023 C 
HETATM   12  C21 UNL     1      -4.089  13.795  17.070  1.00  0.00     0.135 C 
HETATM   13  O6  UNL     1      -4.661  14.793  17.520  1.00  0.00    -0.297 OA
HETATM   14  C22 UNL     1      -4.504  13.216  15.741  1.00  0.00     0.080 C 
HETATM   15  C23 UNL     1      -4.541  11.701  15.829  1.00  0.00     0.018 C 
HETATM   16  C24 UNL     1      -3.198  11.098  16.239  1.00  0.00    -0.026 A 
HETATM   17  C25 UNL     1      -3.242   9.665  16.747  1.00  0.00     0.021 A 
HETATM   18  C26 UNL     1      -2.568   9.948  15.424  1.00  0.00    -0.027 A 
HETATM   19  C27 UNL     1      -3.268   9.481  14.166  1.00  0.00     0.011 C 
HETATM   20  C28 UNL     1      -2.725   8.143  13.692  1.00  0.00     0.012 C 
HETATM   21  C29 UNL     1      -1.188   8.156  13.376  1.00  0.00    -0.020 C 
HETATM   22  C30 UNL     1      -1.014   9.015  12.113  1.00  0.00     0.017 C 
ENDROOT
BRANCH   1  23
HETATM   23  C2  UNL     1       0.129   6.049  12.130  1.00  0.00    -0.011 C 
HETATM   24  C1  UNL     1       1.107   7.007  11.445  1.00  0.00     0.010 C 
BRANCH  23  25
HETATM   25  C3  UNL     1      -0.681   5.256  11.073  1.00  0.00     0.007 C 
BRANCH  25  26
HETATM   26  C4  UNL     1      -1.580   4.152  11.671  1.00  0.00     0.035 C 
BRANCH  26  27
HETATM   27  C5  UNL     1      -2.539   3.529  10.633  1.00  0.00     0.151 C 
BRANCH  27  28
HETATM   28  O1  UNL     1      -1.883   2.484   9.913  1.00  0.00    -0.393 OA
HETATM   29  H10 UNL     1      -1.500   1.867  10.562  1.00  0.00     0.210 HD
ENDBRANCH  27  28
BRANCH  27  30
HETATM   30  C6  UNL     1      -3.884   3.022  11.239  1.00  0.00     0.076 C 
HETATM   31  C7  UNL     1      -3.724   1.584  11.748  1.00  0.00     0.048 C 
HETATM   32  C8  UNL     1      -4.389   3.907  12.384  1.00  0.00     0.048 C 
BRANCH  30  33
HETATM   33  O2  UNL     1      -4.884   3.015  10.213  1.00  0.00    -0.388 OA
HETATM   34  H17 UNL     1      -5.696   2.631  10.586  1.00  0.00     0.210 HD
ENDBRANCH  30  33
ENDBRANCH  27  30
ENDBRANCH  26  27
ENDBRANCH  25  26
ENDBRANCH  23  25
ENDBRANCH   1  23
BRANCH   2  35
HETATM   35  O3  UNL     1      -0.762   5.110  15.162  1.00  0.00    -0.395 OA
HETATM   36  H20 UNL     1      -0.370   4.942  16.036  1.00  0.00     0.210 HD
ENDBRANCH   2  35
BRANCH   4  37
HETATM   37  C13 UNL     1       1.028   9.107  14.282  1.00  0.00     0.150 C 
HETATM   38  O4  UNL     1       2.029   8.426  14.458  1.00  0.00    -0.649 OA
BRANCH  37  39
HETATM   39  O5  UNL     1       1.152  10.281  13.637  1.00  0.00    -0.776 OA
HETATM   40  H23 UNL     1       2.113  10.339  13.440  1.00  0.00     0.167 HD
ENDBRANCH  37  39
ENDBRANCH   4  37
TORSDOF 10
ENDMDL
MODEL 5
REMARK minimizedAffinity -6.48877764
REMARK CNNscore 0.471948564
REMARK CNNaffinity 5.67313623
REMARK  10 active torsions:
REMARK  status: ('A' for Active; 'I' for Inactive)
REMARK    1  A    between atoms: C2_2  and  C3_3 
REMARK    2  A    between atoms: C2_2  and  C9_11 
REMARK    3  A    between atoms: C3_3  and  C4_4 
REMARK    4  A    between atoms: C4_4  and  C5_5 
REMARK    5  A    between atoms: C5_5  and  O1_6 
REMARK    6  A    between atoms: C5_5  and  C6_7 
REMARK    7  A    between atoms: C6_7  and  O2_10 
REMARK    8  A    between atoms: C10_12  and  O3_13 
REMARK    9  A    between atoms: C12_15  and  C13_16 
REMARK   10  A    between atoms: C13_16  and  O5_18 
ROOT
HETATM    1  C9  UNL     1     -11.393  15.383   1.869  1.00  0.00     0.028 C 
HETATM    2  C10 UNL     1     -12.371  16.452   2.419  1.00  0.00     0.124 C 
HETATM    3  C11 UNL     1     -11.704  17.076   3.641  1.00  0.00     0.053 C 
HETATM    4  C12 UNL     1     -10.879  15.927   4.260  1.00  0.00     0.060 C 
HETATM    5  C14 UNL     1      -9.825  16.429   5.318  1.00  0.00     0.014 C 
HETATM    6  C15 UNL     1     -10.509  17.244   6.442  1.00  0.00     0.007 C 
HETATM    7  C16 UNL     1      -9.579  17.939   7.440  1.00  0.00     0.007 C 
HETATM    8  C17 UNL     1      -8.077  17.726   7.203  1.00  0.00     0.010 C 
HETATM    9  C18 UNL     1      -7.172  18.613   8.124  1.00  0.00     0.018 C 
HETATM   10  C19 UNL     1      -7.476  18.338   9.610  1.00  0.00     0.023 C 
HETATM   11  C20 UNL     1      -7.324  20.120   7.853  1.00  0.00     0.023 C 
HETATM   12  C21 UNL     1      -5.701  18.248   7.884  1.00  0.00     0.135 C 
HETATM   13  O6  UNL     1      -4.802  18.621   8.645  1.00  0.00    -0.297 OA
HETATM   14  C22 UNL     1      -5.378  17.388   6.689  1.00  0.00     0.080 C 
HETATM   15  C23 UNL     1      -6.170  17.864   5.484  1.00  0.00     0.018 C 
HETATM   16  C24 UNL     1      -7.680  17.843   5.721  1.00  0.00    -0.026 A 
HETATM   17  C25 UNL     1      -8.513  18.671   4.755  1.00  0.00     0.021 A 
HETATM   18  C26 UNL     1      -8.627  17.164   4.708  1.00  0.00    -0.027 A 
HETATM   19  C27 UNL     1      -8.027  16.452   3.515  1.00  0.00     0.011 C 
HETATM   20  C28 UNL     1      -9.077  16.156   2.458  1.00  0.00     0.012 C 
HETATM   21  C29 UNL     1     -10.261  15.263   2.969  1.00  0.00    -0.020 C 
HETATM   22  C30 UNL     1      -9.673  13.862   3.208  1.00  0.00     0.017 C 
ENDROOT
BRANCH   1  23
HETATM   23  C2  UNL     1     -12.185  14.172   1.285  1.00  0.00    -0.011 C 
HETATM   24  C1  UNL     1     -11.895  13.781  -0.166  1.00  0.00     0.010 C 
BRANCH  23  25
HETATM   25  C3  UNL     1     -13.713  14.275   1.523  1.00  0.00     0.007 C 
BRANCH  25  26
HETATM   26  C4  UNL     1     -14.566  13.636   0.406  1.00  0.00     0.035 C 
BRANCH  26  27
HETATM   27  C5  UNL     1     -15.119  12.246   0.790  1.00  0.00     0.151 C 
BRANCH  27  28
HETATM   28  O1  UNL     1     -16.422  12.370   1.365  1.00  0.00    -0.393 OA
HETATM   29  H10 UNL     1     -16.971  12.892   0.753  1.00  0.00     0.210 HD
ENDBRANCH  27  28
BRANCH  27  30
HETATM   30  C6  UNL     1     -15.130  11.222  -0.385  1.00  0.00     0.076 C 
HETATM   31  C7  UNL     1     -14.801  11.931  -1.706  1.00  0.00     0.048 C 
HETATM   32  C8  UNL     1     -14.142  10.069  -0.176  1.00  0.00     0.048 C 
BRANCH  30  33
HETATM   33  O2  UNL     1     -16.443  10.662  -0.503  1.00  0.00    -0.388 OA
HETATM   34  H17 UNL     1     -16.454  10.079  -1.283  1.00  0.00     0.210 HD
ENDBRANCH  30  33
ENDBRANCH  27  30
ENDBRANCH  26  27
ENDBRANCH  25  26
ENDBRANCH  23  25
ENDBRANCH   1  23
BRANCH   2  35
HETATM   35  O3  UNL     1     -12.614  17.438   1.427  1.00  0.00    -0.395 OA
HETATM   36  H20 UNL     1     -13.215  18.095   1.817  1.00  0.00     0.210 HD
ENDBRANCH   2  35
BRANCH   4  37
HETATM   37  C13 UNL     1     -11.771  14.938   5.031  1.00  0.00     0.150 C 
HETATM   38  O4  UNL     1     -11.384  14.048   5.775  1.00  0.00    -0.649 OA
BRANCH  37  39
HETATM   39  O5  UNL     1     -13.093  15.160   4.924  1.00  0.00    -0.776 OA
HETATM   40  H23 UNL     1     -13.493  14.486   5.518  1.00  0.00     0.167 HD
ENDBRANCH  37  39
ENDBRANCH   4  37
TORSDOF 10
ENDMDL
MODEL 6
REMARK minimizedAffinity -10.1498117
REMARK CNNscore 0.4150756
REMARK CNNaffinity 6.78902388
REMARK  10 active torsions:
REMARK  status: ('A' for Active; 'I' for Inactive)
REMARK    1  A    between atoms: C2_2  and  C3_3 
REMARK    2  A    between atoms: C2_2  and  C9_11 
REMARK    3  A    between atoms: C3_3  and  C4_4 
REMARK    4  A    between atoms: C4_4  and  C5_5 
REMARK    5  A    between atoms: C5_5  and  O1_6 
REMARK    6  A    between atoms: C5_5  and  C6_7 
REMARK    7  A    between atoms: C6_7  and  O2_10 
REMARK    8  A    between atoms: C10_12  and  O3_13 
REMARK    9  A    between atoms: C12_15  and  C13_16 
REMARK   10  A    between atoms: C13_16  and  O5_18 
ROOT
HETATM    1  C9  UNL     1       0.923   7.161  13.850  1.00  0.00     0.028 C 
HETATM    2  C10 UNL     1       0.833   7.770  15.272  1.00  0.00     0.124 C 
HETATM    3  C11 UNL     1      -0.650   7.939  15.589  1.00  0.00     0.053 C 
HETATM    4  C12 UNL     1      -1.304   8.247  14.225  1.00  0.00     0.060 C 
HETATM    5  C14 UNL     1      -2.872   8.103  14.249  1.00  0.00     0.014 C 
HETATM    6  C15 UNL     1      -3.497   9.003  15.341  1.00  0.00     0.007 C 
HETATM    7  C16 UNL     1      -4.997   8.827  15.590  1.00  0.00     0.007 C 
HETATM    8  C17 UNL     1      -5.696   7.781  14.709  1.00  0.00     0.010 C 
HETATM    9  C18 UNL     1      -7.176   7.500  15.137  1.00  0.00     0.018 C 
HETATM   10  C19 UNL     1      -8.007   8.798  15.105  1.00  0.00     0.023 C 
HETATM   11  C20 UNL     1      -7.294   6.865  16.533  1.00  0.00     0.023 C 
HETATM   12  C21 UNL     1      -7.812   6.527  14.135  1.00  0.00     0.135 C 
HETATM   13  O6  UNL     1      -9.031   6.329  14.098  1.00  0.00    -0.297 OA
HETATM   14  C22 UNL     1      -6.898   5.827  13.161  1.00  0.00     0.080 C 
HETATM   15  C23 UNL     1      -5.650   5.348  13.881  1.00  0.00     0.018 C 
HETATM   16  C24 UNL     1      -4.883   6.483  14.558  1.00  0.00    -0.026 A 
HETATM   17  C25 UNL     1      -3.881   6.064  15.623  1.00  0.00     0.021 A 
HETATM   18  C26 UNL     1      -3.366   6.655  14.330  1.00  0.00    -0.027 A 
HETATM   19  C27 UNL     1      -2.666   5.724  13.364  1.00  0.00     0.011 C 
HETATM   20  C28 UNL     1      -1.156   5.792  13.521  1.00  0.00     0.012 C 
HETATM   21  C29 UNL     1      -0.555   7.222  13.288  1.00  0.00    -0.020 C 
HETATM   22  C30 UNL     1      -0.714   7.517  11.787  1.00  0.00     0.017 C 
ENDROOT
BRANCH   1  23
HETATM   23  C2  UNL     1       2.174   7.717  13.100  1.00  0.00    -0.011 C 
HETATM   24  C1  UNL     1       2.193   9.215  12.788  1.00  0.00     0.010 C 
BRANCH  23  25
HETATM   25  C3  UNL     1       2.538   6.896  11.837  1.00  0.00     0.007 C 
BRANCH  25  26
HETATM   26  C4  UNL     1       2.796   7.756  10.582  1.00  0.00     0.035 C 
BRANCH  26  27
HETATM   27  C5  UNL     1       2.705   6.949   9.268  1.00  0.00     0.151 C 
BRANCH  27  28
HETATM   28  O1  UNL     1       1.970   5.742   9.476  1.00  0.00    -0.393 OA
HETATM   29  H10 UNL     1       1.121   5.976   9.891  1.00  0.00     0.210 HD
ENDBRANCH  27  28
BRANCH  27  30
HETATM   30  C6  UNL     1       2.118   7.754   8.070  1.00  0.00     0.076 C 
HETATM   31  C7  UNL     1       1.976   6.844   6.842  1.00  0.00     0.048 C 
HETATM   32  C8  UNL     1       0.757   8.382   8.388  1.00  0.00     0.048 C 
BRANCH  30  33
HETATM   33  O2  UNL     1       3.023   8.811   7.730  1.00  0.00    -0.388 OA
HETATM   34  H17 UNL     1       2.679   9.260   6.938  1.00  0.00     0.210 HD
ENDBRANCH  30  33
ENDBRANCH  27  30
ENDBRANCH  26  27
ENDBRANCH  25  26
ENDBRANCH  23  25
ENDBRANCH   1  23
BRANCH   2  35
HETATM   35  O3  UNL     1       1.445   6.896  16.210  1.00  0.00    -0.395 OA
HETATM   36  H20 UNL     1       1.351   7.306  17.087  1.00  0.00     0.210 HD
ENDBRANCH   2  35
BRANCH   4  37
HETATM   37  C13 UNL     1      -1.048   9.701  13.787  1.00  0.00     0.150 C 
HETATM   38  O4  UNL     1      -0.439  10.548  14.424  1.00  0.00    -0.649 OA
BRANCH  37  39
HETATM   39  O5  UNL     1      -1.467  10.005  12.546  1.00  0.00    -0.776 OA
HETATM   40  H23 UNL     1      -1.170  10.933  12.419  1.00  0.00     0.167 HD
ENDBRANCH  37  39
ENDBRANCH   4  37
TORSDOF 10
ENDMDL
MODEL 7
REMARK minimizedAffinity -7.12207747
REMARK CNNscore 0.389144957
REMARK CNNaffinity 6.14469576
REMARK  10 active torsions:
REMARK  status: ('A' for Active; 'I' for Inactive)
REMARK    1  A    between atoms: C2_2  and  C3_3 
REMARK    2  A    between atoms: C2_2  and  C9_11 
REMARK    3  A    between atoms: C3_3  and  C4_4 
REMARK    4  A    between atoms: C4_4  and  C5_5 
REMARK    5  A    between atoms: C5_5  and  O1_6 
REMARK    6  A    between atoms: C5_5  and  C6_7 
REMARK    7  A    between atoms: C6_7  and  O2_10 
REMARK    8  A    between atoms: C10_12  and  O3_13 
REMARK    9  A    between atoms: C12_15  and  C13_16 
REMARK   10  A    between atoms: C13_16  and  O5_18 
ROOT
HETATM    1  C9  UNL     1       1.487  12.032  15.912  1.00  0.00     0.028 C 
HETATM    2  C10 UNL     1       2.586  11.862  14.833  1.00  0.00     0.124 C 
HETATM    3  C11 UNL     1       2.290  10.558  14.100  1.00  0.00     0.053 C 
HETATM    4  C12 UNL     1       1.662   9.644  15.174  1.00  0.00     0.060 C 
HETATM    5  C14 UNL     1       0.949   8.379  14.565  1.00  0.00     0.014 C 
HETATM    6  C15 UNL     1       1.923   7.558  13.688  1.00  0.00     0.007 C 
HETATM    7  C16 UNL     1       1.313   6.401  12.893  1.00  0.00     0.007 C 
HETATM    8  C17 UNL     1      -0.198   6.195  13.080  1.00  0.00     0.010 C 
HETATM    9  C18 UNL     1      -0.803   5.133  12.100  1.00  0.00     0.018 C 
HETATM   10  C19 UNL     1      -0.101   3.773  12.272  1.00  0.00     0.023 C 
HETATM   11  C20 UNL     1      -0.723   5.556  10.623  1.00  0.00     0.023 C 
HETATM   12  C21 UNL     1      -2.286   4.927  12.439  1.00  0.00     0.135 C 
HETATM   13  O6  UNL     1      -2.935   3.979  11.985  1.00  0.00    -0.297 OA
HETATM   14  C22 UNL     1      -2.935   5.913  13.377  1.00  0.00     0.080 C 
HETATM   15  C23 UNL     1      -2.506   7.323  13.017  1.00  0.00     0.018 C 
HETATM   16  C24 UNL     1      -0.990   7.513  13.063  1.00  0.00    -0.026 A 
HETATM   17  C25 UNL     1      -0.453   8.736  12.335  1.00  0.00     0.021 A 
HETATM   18  C26 UNL     1      -0.367   8.691  13.843  1.00  0.00    -0.027 A 
HETATM   19  C27 UNL     1      -1.281   9.609  14.625  1.00  0.00     0.011 C 
HETATM   20  C28 UNL     1      -0.568  10.889  15.030  1.00  0.00     0.012 C 
HETATM   21  C29 UNL     1       0.706  10.656  15.916  1.00  0.00    -0.020 C 
HETATM   22  C30 UNL     1       0.198  10.152  17.277  1.00  0.00     0.017 C 
ENDROOT
BRANCH   1  23
HETATM   23  C2  UNL     1       2.077  12.713  17.186  1.00  0.00    -0.011 C 
HETATM   24  C1  UNL     1       3.601  12.742  17.321  1.00  0.00     0.010 C 
BRANCH  23  25
HETATM   25  C3  UNL     1       1.427  12.210  18.499  1.00  0.00     0.007 C 
BRANCH  25  26
HETATM   26  C4  UNL     1       2.383  12.203  19.711  1.00  0.00     0.035 C 
BRANCH  26  27
HETATM   27  C5  UNL     1       1.884  11.310  20.868  1.00  0.00     0.151 C 
BRANCH  27  28
HETATM   28  O1  UNL     1       0.763  10.531  20.447  1.00  0.00    -0.393 OA
HETATM   29  H10 UNL     1       1.011  10.066  19.628  1.00  0.00     0.210 HD
ENDBRANCH  27  28
BRANCH  27  30
HETATM   30  C6  UNL     1       2.988  10.400  21.487  1.00  0.00     0.076 C 
HETATM   31  C7  UNL     1       3.684  11.128  22.645  1.00  0.00     0.048 C 
HETATM   32  C8  UNL     1       2.438   9.062  21.994  1.00  0.00     0.048 C 
BRANCH  30  33
HETATM   33  O2  UNL     1       3.976  10.121  20.488  1.00  0.00    -0.388 OA
HETATM   34  H17 UNL     1       4.693   9.612  20.906  1.00  0.00     0.210 HD
ENDBRANCH  30  33
ENDBRANCH  27  30
ENDBRANCH  26  27
ENDBRANCH  25  26
ENDBRANCH  23  25
ENDBRANCH   1  23
BRANCH   2  35
HETATM   35  O3  UNL     1       2.551  12.959  13.932  1.00  0.00    -0.395 OA
HETATM   36  H20 UNL     1       3.241  12.804  13.265  1.00  0.00     0.210 HD
ENDBRANCH   2  35
BRANCH   4  37
HETATM   37  C13 UNL     1       2.728   9.074  16.129  1.00  0.00     0.150 C 
HETATM   38  O4  UNL     1       3.939   9.185  16.004  1.00  0.00    -0.649 OA
BRANCH  37  39
HETATM   39  O5  UNL     1       2.244   8.485  17.237  1.00  0.00    -0.776 OA
HETATM   40  H23 UNL     1       3.050   8.243  17.744  1.00  0.00     0.167 HD
ENDBRANCH  37  39
ENDBRANCH   4  37
TORSDOF 10
ENDMDL
MODEL 8
REMARK minimizedAffinity -7.48656178
REMARK CNNscore 0.373769253
REMARK CNNaffinity 6.13863134
REMARK  10 active torsions:
REMARK  status: ('A' for Active; 'I' for Inactive)
REMARK    1  A    between atoms: C2_2  and  C3_3 
REMARK    2  A    between atoms: C2_2  and  C9_11 
REMARK    3  A    between atoms: C3_3  and  C4_4 
REMARK    4  A    between atoms: C4_4  and  C5_5 
REMARK    5  A    between atoms: C5_5  and  O1_6 
REMARK    6  A    between atoms: C5_5  and  C6_7 
REMARK    7  A    between atoms: C6_7  and  O2_10 
REMARK    8  A    between atoms: C10_12  and  O3_13 
REMARK    9  A    between atoms: C12_15  and  C13_16 
REMARK   10  A    between atoms: C13_16  and  O5_18 
ROOT
HETATM    1  C9  UNL     1      -0.730  10.738  17.690  1.00  0.00     0.028 C 
HETATM    2  C10 UNL     1      -2.097  10.111  17.317  1.00  0.00     0.124 C 
HETATM    3  C11 UNL     1      -1.956   9.544  15.908  1.00  0.00     0.053 C 
HETATM    4  C12 UNL     1      -0.961  10.495  15.207  1.00  0.00     0.060 C 
HETATM    5  C14 UNL     1      -0.388   9.903  13.865  1.00  0.00     0.014 C 
HETATM    6  C15 UNL     1      -1.529   9.530  12.888  1.00  0.00     0.007 C 
HETATM    7  C16 UNL     1      -1.118   8.781  11.618  1.00  0.00     0.007 C 
HETATM    8  C17 UNL     1       0.385   8.505  11.469  1.00  0.00     0.010 C 
HETATM    9  C18 UNL     1       0.726   7.570  10.260  1.00  0.00     0.018 C 
HETATM   10  C19 UNL     1       0.209   8.176   8.941  1.00  0.00     0.023 C 
HETATM   11  C20 UNL     1       0.158   6.148  10.414  1.00  0.00     0.023 C 
HETATM   12  C21 UNL     1       2.250   7.444  10.137  1.00  0.00     0.135 C 
HETATM   13  O6  UNL     1       2.789   6.966   9.133  1.00  0.00    -0.297 OA
HETATM   14  C22 UNL     1       3.090   7.951  11.282  1.00  0.00     0.080 C 
HETATM   15  C23 UNL     1       2.473   7.523  12.601  1.00  0.00     0.018 C 
HETATM   16  C24 UNL     1       1.039   8.021  12.775  1.00  0.00    -0.026 A 
HETATM   17  C25 UNL     1       0.217   7.314  13.842  1.00  0.00     0.021 A 
HETATM   18  C26 UNL     1       0.611   8.757  14.063  1.00  0.00    -0.027 A 
HETATM   19  C27 UNL     1       1.657   9.044  15.117  1.00  0.00     0.011 C 
HETATM   20  C28 UNL     1       1.020   9.443  16.439  1.00  0.00     0.012 C 
HETATM   21  C29 UNL     1       0.108  10.716  16.347  1.00  0.00    -0.020 C 
HETATM   22  C30 UNL     1       1.050  11.905  16.098  1.00  0.00     0.017 C 
ENDROOT
BRANCH   1  23
HETATM   23  C2  UNL     1      -0.937  12.006  18.577  1.00  0.00    -0.011 C 
HETATM   24  C1  UNL     1      -0.963  13.360  17.865  1.00  0.00     0.010 C 
BRANCH  23  25
HETATM   25  C3  UNL     1       0.016  12.054  19.798  1.00  0.00     0.007 C 
BRANCH  25  26
HETATM   26  C4  UNL     1       1.478  11.681  19.468  1.00  0.00     0.035 C 
BRANCH  26  27
HETATM   27  C5  UNL     1       2.093  10.698  20.489  1.00  0.00     0.151 C 
BRANCH  27  28
HETATM   28  O1  UNL     1       2.519   9.502  19.833  1.00  0.00    -0.393 OA
HETATM   29  H10 UNL     1       3.093   9.756  19.089  1.00  0.00     0.210 HD
ENDBRANCH  27  28
BRANCH  27  30
HETATM   30  C6  UNL     1       3.253  11.308  21.334  1.00  0.00     0.076 C 
HETATM   31  C7  UNL     1       4.078  10.188  21.982  1.00  0.00     0.048 C 
HETATM   32  C8  UNL     1       4.183  12.202  20.507  1.00  0.00     0.048 C 
BRANCH  30  33
HETATM   33  O2  UNL     1       2.695  12.106  22.385  1.00  0.00    -0.388 OA
HETATM   34  H17 UNL     1       3.425  12.421  22.945  1.00  0.00     0.210 HD
ENDBRANCH  30  33
ENDBRANCH  27  30
ENDBRANCH  26  27
ENDBRANCH  25  26
ENDBRANCH  23  25
ENDBRANCH   1  23
BRANCH   2  35
HETATM   35  O3  UNL     1      -2.422   9.081  18.239  1.00  0.00    -0.395 OA
HETATM   36  H20 UNL     1      -3.274   8.704  17.959  1.00  0.00     0.210 HD
ENDBRANCH   2  35
BRANCH   4  37
HETATM   37  C13 UNL     1      -1.631  11.819  14.799  1.00  0.00     0.150 C 
HETATM   38  O4  UNL     1      -2.687  12.256  15.236  1.00  0.00    -0.649 OA
BRANCH  37  39
HETATM   39  O5  UNL     1      -0.918  12.582  13.952  1.00  0.00    -0.776 OA
HETATM   40  H23 UNL     1      -1.461  13.396  13.856  1.00  0.00     0.167 HD
ENDBRANCH  37  39
ENDBRANCH   4  37
TORSDOF 10
ENDMDL
MODEL 9
REMARK minimizedAffinity -7.41905689
REMARK CNNscore 0.340175033
REMARK CNNaffinity 5.60115004
REMARK  10 active torsions:
REMARK  status: ('A' for Active; 'I' for Inactive)
REMARK    1  A    between atoms: C2_2  and  C3_3 
REMARK    2  A    between atoms: C2_2  and  C9_11 
REMARK    3  A    between atoms: C3_3  and  C4_4 
REMARK    4  A    between atoms: C4_4  and  C5_5 
REMARK    5  A    between atoms: C5_5  and  O1_6 
REMARK    6  A    between atoms: C5_5  and  C6_7 
REMARK    7  A    between atoms: C6_7  and  O2_10 
REMARK    8  A    between atoms: C10_12  and  O3_13 
REMARK    9  A    between atoms: C12_15  and  C13_16 
REMARK   10  A    between atoms: C13_16  and  O5_18 
ROOT
HETATM    1  C9  UNL     1       6.701   9.097  12.249  1.00  0.00     0.028 C 
HETATM    2  C10 UNL     1       5.736  10.296  12.422  1.00  0.00     0.124 C 
HETATM    3  C11 UNL     1       6.034  10.912  13.785  1.00  0.00     0.053 C 
HETATM    4  C12 UNL     1       6.461   9.717  14.664  1.00  0.00     0.060 C 
HETATM    5  C14 UNL     1       7.160  10.158  16.005  1.00  0.00     0.014 C 
HETATM    6  C15 UNL     1       6.250  11.107  16.822  1.00  0.00     0.007 C 
HETATM    7  C16 UNL     1       6.878  11.751  18.061  1.00  0.00     0.007 C 
HETATM    8  C17 UNL     1       8.336  11.360  18.343  1.00  0.00     0.010 C 
HETATM    9  C18 UNL     1       8.987  12.193  19.498  1.00  0.00     0.018 C 
HETATM   10  C19 UNL     1       8.180  12.038  20.801  1.00  0.00     0.023 C 
HETATM   11  C20 UNL     1       9.120  13.690  19.166  1.00  0.00     0.023 C 
HETATM   12  C21 UNL     1      10.399  11.655  19.769  1.00  0.00     0.135 C 
HETATM   13  O6  UNL     1      11.036  11.969  20.780  1.00  0.00    -0.297 OA
HETATM   14  C22 UNL     1      10.990  10.698  18.766  1.00  0.00     0.080 C 
HETATM   15  C23 UNL     1      10.704  11.188  17.358  1.00  0.00     0.018 C 
HETATM   16  C24 UNL     1       9.210  11.348  17.077  1.00  0.00    -0.026 A 
HETATM   17  C25 UNL     1       8.850  12.206  15.874  1.00  0.00     0.021 A 
HETATM   18  C26 UNL     1       8.573  10.721  15.818  1.00  0.00    -0.027 A 
HETATM   19  C27 UNL     1       9.441   9.880  14.906  1.00  0.00     0.011 C 
HETATM   20  C28 UNL     1       8.770   9.642  13.564  1.00  0.00     0.012 C 
HETATM   21  C29 UNL     1       7.383   8.915  13.666  1.00  0.00    -0.020 C 
HETATM   22  C30 UNL     1       7.682   7.474  14.111  1.00  0.00     0.017 C 
ENDROOT
BRANCH   1  23
HETATM   23  C2  UNL     1       6.003   7.948  11.455  1.00  0.00    -0.011 C 
HETATM   24  C1  UNL     1       6.908   6.930  10.758  1.00  0.00     0.010 C 
BRANCH  23  25
HETATM   25  C3  UNL     1       4.914   8.461  10.479  1.00  0.00     0.007 C 
BRANCH  25  26
HETATM   26  C4  UNL     1       3.469   8.206  10.960  1.00  0.00     0.035 C 
BRANCH  26  27
HETATM   27  C5  UNL     1       3.145   6.704  11.121  1.00  0.00     0.151 C 
BRANCH  27  28
HETATM   28  O1  UNL     1       2.601   6.449  12.418  1.00  0.00    -0.393 OA
HETATM   29  H10 UNL     1       1.857   7.062  12.557  1.00  0.00     0.210 HD
ENDBRANCH  27  28
BRANCH  27  30
HETATM   30  C6  UNL     1       2.212   6.135  10.010  1.00  0.00     0.076 C 
HETATM   31  C7  UNL     1       1.047   7.101   9.753  1.00  0.00     0.048 C 
HETATM   32  C8  UNL     1       2.949   5.878   8.691  1.00  0.00     0.048 C 
BRANCH  30  33
HETATM   33  O2  UNL     1       1.659   4.891  10.456  1.00  0.00    -0.388 OA
HETATM   34  H17 UNL     1       1.026   4.583   9.784  1.00  0.00     0.210 HD
ENDBRANCH  30  33
ENDBRANCH  27  30
ENDBRANCH  26  27
ENDBRANCH  25  26
ENDBRANCH  23  25
ENDBRANCH   1  23
BRANCH   2  35
HETATM   35  O3  UNL     1       5.957  11.245  11.388  1.00  0.00    -0.395 OA
HETATM   36  H20 UNL     1       5.346  11.986  11.545  1.00  0.00     0.210 HD
ENDBRANCH   2  35
BRANCH   4  37
HETATM   37  C13 UNL     1       5.250   8.877  15.110  1.00  0.00     0.150 C 
HETATM   38  O4  UNL     1       4.089   9.050  14.767  1.00  0.00    -0.649 OA
BRANCH  37  39
HETATM   39  O5  UNL     1       5.545   7.809  15.872  1.00  0.00    -0.776 OA
HETATM   40  H23 UNL     1       4.676   7.368  16.004  1.00  0.00     0.167 HD
ENDBRANCH  37  39
ENDBRANCH   4  37
TORSDOF 10
ENDMDL
