MODEL 1
REMARK minimizedAffinity -9.84556961
REMARK CNNscore 0.815645218
REMARK CNNaffinity 7.85144997
REMARK  12 active torsions:
REMARK  status: ('A' for Active; 'I' for Inactive)
REMARK    1  A    between atoms: C2_2  and  C4_4 
REMARK    2  A    between atoms: C4_4  and  C6_6 
REMARK    3  A    between atoms: C7_8  and  C8_9 
REMARK    4  A    between atoms: C8_9  and  O2_11 
REMARK    5  A    between atoms: C8_9  and  C10_12 
REMARK    6  A    between atoms: C13_15  and  O3_16 
REMARK    7  A    between atoms: C19_23  and  O5_24 
REMARK    8  A    between atoms: C20_25  and  O6_26 
REMARK    9  A    between atoms: C27_33  and  C28_34 
REMARK   10  A    between atoms: C28_34  and  C29_35 
REMARK   11  A    between atoms: C29_35  and  C30_36 
REMARK   12  A    between atoms: C34_40  and  O7_41 
ROOT
HETATM    1  C10 UNL     1      -3.098  48.820 -20.659  1.00  0.00     0.034 C 
HETATM    2  C11 UNL     1      -1.716  48.467 -21.281  1.00  0.00     0.012 C 
HETATM    3  C12 UNL     1      -0.652  48.801 -20.214  1.00  0.00     0.044 C 
HETATM    4  C13 UNL     1      -1.463  48.987 -18.929  1.00  0.00     0.090 C 
HETATM    5  C14 UNL     1      -0.901  49.669 -17.704  1.00  0.00    -0.037 C 
HETATM    6  C15 UNL     1       0.299  50.267 -17.681  1.00  0.00     0.057 C 
HETATM    7  C16 UNL     1       0.716  51.094 -16.530  1.00  0.00     0.154 C 
HETATM    8  O4  UNL     1       1.884  51.477 -16.486  1.00  0.00    -0.293 OA
HETATM    9  C17 UNL     1      -0.335  51.457 -15.482  1.00  0.00     0.071 C 
HETATM   10  C18 UNL     1       0.335  52.012 -14.207  1.00  0.00     0.047 C 
HETATM   11  C19 UNL     1       0.913  50.933 -13.284  1.00  0.00     0.147 C 
HETATM   12  C20 UNL     1       0.919  49.526 -13.891  1.00  0.00     0.147 C 
HETATM   13  C21 UNL     1      -0.431  49.106 -14.493  1.00  0.00     0.044 C 
HETATM   14  C22 UNL     1      -1.253  50.245 -15.191  1.00  0.00    -0.023 C 
HETATM   15  C23 UNL     1      -2.386  50.663 -14.218  1.00  0.00     0.016 C 
HETATM   16  C24 UNL     1      -1.885  49.691 -16.528  1.00  0.00     0.027 C 
HETATM   17  C25 UNL     1      -3.204  50.365 -16.995  1.00  0.00     0.011 C 
HETATM   18  C26 UNL     1      -3.777  49.734 -18.287  1.00  0.00     0.014 C 
HETATM   19  C27 UNL     1      -2.749  49.752 -19.444  1.00  0.00     0.002 C 
ENDROOT
BRANCH   1  20
HETATM   20  C8  UNL     1      -4.212  49.148 -21.693  1.00  0.00     0.087 C 
HETATM   21  C9  UNL     1      -4.715  47.827 -22.310  1.00  0.00     0.049 C 
BRANCH  20  22
HETATM   22  C7  UNL     1      -3.787  50.144 -22.758  1.00  0.00     0.185 A 
HETATM   23  C6  UNL     1      -3.672  49.835 -24.245  1.00  0.00     0.158 A 
HETATM   24  O1  UNL     1      -4.835  50.463 -23.700  1.00  0.00    -0.372 OA
BRANCH  23  25
HETATM   25  C4  UNL     1      -2.856  50.669 -25.212  1.00  0.00     0.017 C 
HETATM   26  C5  UNL     1      -3.436  52.059 -25.492  1.00  0.00     0.013 C 
BRANCH  25  27
HETATM   27  C2  UNL     1      -2.558  49.855 -26.507  1.00  0.00    -0.016 C 
HETATM   28  C1  UNL     1      -2.953  50.623 -27.772  1.00  0.00     0.010 C 
HETATM   29  C3  UNL     1      -3.209  48.469 -26.519  1.00  0.00     0.010 C 
ENDBRANCH  25  27
ENDBRANCH  23  25
ENDBRANCH  20  22
BRANCH  20  30
HETATM   30  O2  UNL     1      -5.331  49.698 -20.995  1.00  0.00    -0.387 OA
HETATM   31  H17 UNL     1      -5.935  50.042 -21.681  1.00  0.00     0.210 HD
ENDBRANCH  20  30
ENDBRANCH   1  20
BRANCH  19  32
HETATM   32  C28 UNL     1      -2.393  51.229 -19.860  1.00  0.00     0.018 C 
BRANCH  32  33
HETATM   33  C29 UNL     1      -0.954  51.721 -19.614  1.00  0.00     0.039 C 
BRANCH  33  34
HETATM   34  C30 UNL     1      -0.376  52.335 -20.869  1.00  0.00    -0.056 A 
HETATM   35  C31 UNL     1      -0.778  51.895 -22.137  1.00  0.00     0.007 A 
HETATM   36  C32 UNL     1      -0.208  52.442 -23.290  1.00  0.00     0.003 A 
HETATM   37  C33 UNL     1       0.767  53.433 -23.189  1.00  0.00     0.036 A 
HETATM   38  C34 UNL     1       1.162  53.875 -21.930  1.00  0.00     0.066 A 
HETATM   39  C35 UNL     1       0.601  53.338 -20.776  1.00  0.00     0.043 A 
BRANCH  38  40
HETATM   40  O7  UNL     1       2.112  54.842 -21.779  1.00  0.00    -0.361 OA
HETATM   41  H49 UNL     1       2.455  55.079 -22.657  1.00  0.00     0.217 HD
ENDBRANCH  38  40
ENDBRANCH  33  34
ENDBRANCH  32  33
ENDBRANCH  19  32
BRANCH   4  42
HETATM   42  O3  UNL     1      -1.790  47.653 -18.496  1.00  0.00    -0.384 OA
HETATM   43  H23 UNL     1      -0.962  47.232 -18.207  1.00  0.00     0.211 HD
ENDBRANCH   4  42
BRANCH  12  44
HETATM   44  O6  UNL     1       1.277  48.592 -12.862  1.00  0.00    -0.393 OA
HETATM   45  H31 UNL     1       1.392  47.726 -13.292  1.00  0.00     0.210 HD
ENDBRANCH  12  44
BRANCH  11  46
HETATM   46  O5  UNL     1       0.157  50.903 -12.067  1.00  0.00    -0.393 OA
HETATM   47  H29 UNL     1       0.428  50.068 -11.630  1.00  0.00     0.210 HD
ENDBRANCH  11  46
TORSDOF 12
ENDMDL
MODEL 2
REMARK minimizedAffinity -8.23252583
REMARK CNNscore 0.755640984
REMARK CNNaffinity 7.62028885
REMARK  12 active torsions:
REMARK  status: ('A' for Active; 'I' for Inactive)
REMARK    1  A    between atoms: C2_2  and  C4_4 
REMARK    2  A    between atoms: C4_4  and  C6_6 
REMARK    3  A    between atoms: C7_8  and  C8_9 
REMARK    4  A    between atoms: C8_9  and  O2_11 
REMARK    5  A    between atoms: C8_9  and  C10_12 
REMARK    6  A    between atoms: C13_15  and  O3_16 
REMARK    7  A    between atoms: C19_23  and  O5_24 
REMARK    8  A    between atoms: C20_25  and  O6_26 
REMARK    9  A    between atoms: C27_33  and  C28_34 
REMARK   10  A    between atoms: C28_34  and  C29_35 
REMARK   11  A    between atoms: C29_35  and  C30_36 
REMARK   12  A    between atoms: C34_40  and  O7_41 
ROOT
HETATM    1  C10 UNL     1      -2.316  48.968 -14.832  1.00  0.00     0.034 C 
HETATM    2  C11 UNL     1      -1.281  47.873 -14.444  1.00  0.00     0.012 C 
HETATM    3  C12 UNL     1      -0.621  48.334 -13.127  1.00  0.00     0.044 C 
HETATM    4  C13 UNL     1      -1.530  49.462 -12.633  1.00  0.00     0.090 C 
HETATM    5  C14 UNL     1      -1.100  50.450 -11.575  1.00  0.00    -0.037 C 
HETATM    6  C15 UNL     1       0.143  50.495 -11.073  1.00  0.00     0.057 C 
HETATM    7  C16 UNL     1       0.572  51.604 -10.197  1.00  0.00     0.154 C 
HETATM    8  O4  UNL     1       1.659  51.508  -9.632  1.00  0.00    -0.293 OA
HETATM    9  C17 UNL     1      -0.343  52.823 -10.074  1.00  0.00     0.071 C 
HETATM   10  C18 UNL     1       0.081  53.703  -8.879  1.00  0.00     0.047 C 
HETATM   11  C19 UNL     1      -0.395  53.182  -7.518  1.00  0.00     0.147 C 
HETATM   12  C20 UNL     1      -1.009  51.779  -7.564  1.00  0.00     0.147 C 
HETATM   13  C21 UNL     1      -2.080  51.608  -8.652  1.00  0.00     0.044 C 
HETATM   14  C22 UNL     1      -1.824  52.383  -9.991  1.00  0.00    -0.023 C 
HETATM   15  C23 UNL     1      -2.745  53.631  -9.988  1.00  0.00     0.016 C 
HETATM   16  C24 UNL     1      -2.199  51.456 -11.213  1.00  0.00     0.027 C 
HETATM   17  C25 UNL     1      -2.660  52.178 -12.508  1.00  0.00     0.011 C 
HETATM   18  C26 UNL     1      -3.050  51.196 -13.639  1.00  0.00     0.014 C 
HETATM   19  C27 UNL     1      -1.899  50.216 -13.974  1.00  0.00     0.002 C 
ENDROOT
BRANCH   1  20
HETATM   20  C8  UNL     1      -2.643  49.046 -16.350  1.00  0.00     0.087 C 
HETATM   21  C9  UNL     1      -2.670  47.615 -16.922  1.00  0.00     0.049 C 
BRANCH  20  22
HETATM   22  C7  UNL     1      -1.706  49.951 -17.133  1.00  0.00     0.185 A 
HETATM   23  C6  UNL     1      -1.757  50.164 -18.640  1.00  0.00     0.158 A 
HETATM   24  O1  UNL     1      -2.370  51.085 -17.734  1.00  0.00    -0.372 OA
BRANCH  23  25
HETATM   25  C4  UNL     1      -0.593  50.700 -19.448  1.00  0.00     0.017 C 
HETATM   26  C5  UNL     1      -0.675  52.199 -19.756  1.00  0.00     0.013 C 
BRANCH  25  27
HETATM   27  C2  UNL     1      -0.370  49.823 -20.717  1.00  0.00    -0.016 C 
HETATM   28  C1  UNL     1      -0.893  50.505 -21.985  1.00  0.00     0.010 C 
HETATM   29  C3  UNL     1      -0.967  48.418 -20.601  1.00  0.00     0.010 C 
ENDBRANCH  25  27
ENDBRANCH  23  25
ENDBRANCH  20  22
BRANCH  20  30
HETATM   30  O2  UNL     1      -3.972  49.549 -16.503  1.00  0.00    -0.387 OA
HETATM   31  H17 UNL     1      -4.081  49.740 -17.453  1.00  0.00     0.210 HD
ENDBRANCH  20  30
ENDBRANCH   1  20
BRANCH  19  32
HETATM   32  C28 UNL     1      -0.648  50.987 -14.545  1.00  0.00     0.018 C 
BRANCH  32  33
HETATM   33  C29 UNL     1       0.717  50.276 -14.504  1.00  0.00     0.039 C 
BRANCH  33  34
HETATM   34  C30 UNL     1       1.777  51.114 -15.184  1.00  0.00    -0.056 A 
HETATM   35  C31 UNL     1       3.067  51.217 -14.648  1.00  0.00     0.007 A 
HETATM   36  C32 UNL     1       4.028  52.025 -15.263  1.00  0.00     0.003 A 
HETATM   37  C33 UNL     1       3.710  52.736 -16.420  1.00  0.00     0.036 A 
HETATM   38  C34 UNL     1       2.430  52.628 -16.957  1.00  0.00     0.066 A 
HETATM   39  C35 UNL     1       1.468  51.827 -16.352  1.00  0.00     0.043 A 
BRANCH  38  40
HETATM   40  O7  UNL     1       2.072  53.304 -18.086  1.00  0.00    -0.361 OA
HETATM   41  H49 UNL     1       2.817  53.864 -18.361  1.00  0.00     0.217 HD
ENDBRANCH  38  40
ENDBRANCH  33  34
ENDBRANCH  32  33
ENDBRANCH  19  32
BRANCH   4  42
HETATM   42  O3  UNL     1      -2.681  48.799 -12.077  1.00  0.00    -0.384 OA
HETATM   43  H23 UNL     1      -2.390  48.345 -11.268  1.00  0.00     0.211 HD
ENDBRANCH   4  42
BRANCH  12  44
HETATM   44  O6  UNL     1      -1.600  51.504  -6.286  1.00  0.00    -0.393 OA
HETATM   45  H31 UNL     1      -1.876  50.570  -6.295  1.00  0.00     0.210 HD
ENDBRANCH  12  44
BRANCH  11  46
HETATM   46  O5  UNL     1      -1.365  54.090  -6.982  1.00  0.00    -0.393 OA
HETATM   47  H29 UNL     1      -1.779  53.599  -6.242  1.00  0.00     0.210 HD
ENDBRANCH  11  46
TORSDOF 12
ENDMDL
MODEL 3
REMARK minimizedAffinity -8.18161201
REMARK CNNscore 0.668463469
REMARK CNNaffinity 6.26982498
REMARK  12 active torsions:
REMARK  status: ('A' for Active; 'I' for Inactive)
REMARK    1  A    between atoms: C2_2  and  C4_4 
REMARK    2  A    between atoms: C4_4  and  C6_6 
REMARK    3  A    between atoms: C7_8  and  C8_9 
REMARK    4  A    between atoms: C8_9  and  O2_11 
REMARK    5  A    between atoms: C8_9  and  C10_12 
REMARK    6  A    between atoms: C13_15  and  O3_16 
REMARK    7  A    between atoms: C19_23  and  O5_24 
REMARK    8  A    between atoms: C20_25  and  O6_26 
REMARK    9  A    between atoms: C27_33  and  C28_34 
REMARK   10  A    between atoms: C28_34  and  C29_35 
REMARK   11  A    between atoms: C29_35  and  C30_36 
REMARK   12  A    between atoms: C34_40  and  O7_41 
ROOT
HETATM    1  C10 UNL     1     -12.325  45.867 -26.484  1.00  0.00     0.034 C 
HETATM    2  C11 UNL     1     -12.145  45.253 -25.065  1.00  0.00     0.012 C 
HETATM    3  C12 UNL     1     -13.385  44.372 -24.803  1.00  0.00     0.044 C 
HETATM    4  C13 UNL     1     -14.035  44.229 -26.182  1.00  0.00     0.090 C 
HETATM    5  C14 UNL     1     -15.457  43.756 -26.365  1.00  0.00    -0.037 C 
HETATM    6  C15 UNL     1     -16.298  43.538 -25.344  1.00  0.00     0.057 C 
HETATM    7  C16 UNL     1     -17.732  43.276 -25.578  1.00  0.00     0.154 C 
HETATM    8  O4  UNL     1     -18.419  42.917 -24.624  1.00  0.00    -0.293 OA
HETATM    9  C17 UNL     1     -18.288  43.502 -26.985  1.00  0.00     0.071 C 
HETATM   10  C18 UNL     1     -19.684  42.860 -27.128  1.00  0.00     0.047 C 
HETATM   11  C19 UNL     1     -19.655  41.345 -27.361  1.00  0.00     0.147 C 
HETATM   12  C20 UNL     1     -18.271  40.711 -27.189  1.00  0.00     0.147 C 
HETATM   13  C21 UNL     1     -17.159  41.433 -27.964  1.00  0.00     0.044 C 
HETATM   14  C22 UNL     1     -17.288  42.993 -28.051  1.00  0.00    -0.023 C 
HETATM   15  C23 UNL     1     -17.810  43.338 -29.470  1.00  0.00     0.016 C 
HETATM   16  C24 UNL     1     -15.867  43.649 -27.840  1.00  0.00     0.027 C 
HETATM   17  C25 UNL     1     -15.636  45.025 -28.521  1.00  0.00     0.011 C 
HETATM   18  C26 UNL     1     -14.206  45.574 -28.301  1.00  0.00     0.014 C 
HETATM   19  C27 UNL     1     -13.853  45.676 -26.797  1.00  0.00     0.002 C 
ENDROOT
BRANCH   1  20
HETATM   20  C8  UNL     1     -11.567  47.204 -26.715  1.00  0.00     0.087 C 
HETATM   21  C9  UNL     1     -12.517  48.192 -27.422  1.00  0.00     0.049 C 
BRANCH  20  22
HETATM   22  C7  UNL     1     -10.256  47.044 -27.467  1.00  0.00     0.185 A 
HETATM   23  C6  UNL     1      -9.162  48.101 -27.548  1.00  0.00     0.158 A 
HETATM   24  O1  UNL     1      -9.097  47.028 -26.605  1.00  0.00    -0.372 OA
BRANCH  23  25
HETATM   25  C4  UNL     1      -8.090  48.113 -28.618  1.00  0.00     0.017 C 
HETATM   26  C5  UNL     1      -8.625  47.988 -30.049  1.00  0.00     0.013 C 
BRANCH  25  27
HETATM   27  C2  UNL     1      -6.982  47.071 -28.282  1.00  0.00    -0.016 C 
HETATM   28  C1  UNL     1      -5.599  47.719 -28.170  1.00  0.00     0.010 C 
HETATM   29  C3  UNL     1      -6.926  45.900 -29.268  1.00  0.00     0.010 C 
ENDBRANCH  25  27
ENDBRANCH  23  25
ENDBRANCH  20  22
BRANCH  20  30
HETATM   30  O2  UNL     1     -11.278  47.788 -25.444  1.00  0.00    -0.387 OA
HETATM   31  H17 UNL     1     -10.666  48.528 -25.619  1.00  0.00     0.210 HD
ENDBRANCH  20  30
ENDBRANCH   1  20
BRANCH  19  32
HETATM   32  C28 UNL     1     -14.783  46.717 -26.066  1.00  0.00     0.018 C 
BRANCH  32  33
HETATM   33  C29 UNL     1     -14.754  46.754 -24.527  1.00  0.00     0.039 C 
BRANCH  33  34
HETATM   34  C30 UNL     1     -16.155  46.665 -23.963  1.00  0.00    -0.056 A 
HETATM   35  C31 UNL     1     -16.370  46.341 -22.617  1.00  0.00     0.007 A 
HETATM   36  C32 UNL     1     -17.669  46.224 -22.115  1.00  0.00     0.003 A 
HETATM   37  C33 UNL     1     -18.766  46.429 -22.951  1.00  0.00     0.036 A 
HETATM   38  C34 UNL     1     -18.553  46.757 -24.288  1.00  0.00     0.066 A 
HETATM   39  C35 UNL     1     -17.264  46.877 -24.796  1.00  0.00     0.043 A 
BRANCH  38  40
HETATM   40  O7  UNL     1     -19.592  46.966 -25.145  1.00  0.00    -0.361 OA
HETATM   41  H49 UNL     1     -20.423  46.791 -24.672  1.00  0.00     0.217 HD
ENDBRANCH  38  40
ENDBRANCH  33  34
ENDBRANCH  32  33
ENDBRANCH  19  32
BRANCH   4  42
HETATM   42  O3  UNL     1     -13.228  43.263 -26.879  1.00  0.00    -0.384 OA
HETATM   43  H23 UNL     1     -13.371  42.402 -26.448  1.00  0.00     0.211 HD
ENDBRANCH   4  42
BRANCH  12  44
HETATM   44  O6  UNL     1     -18.340  39.350 -27.639  1.00  0.00    -0.393 OA
HETATM   45  H31 UNL     1     -17.491  38.932 -27.411  1.00  0.00     0.210 HD
ENDBRANCH  12  44
BRANCH  11  46
HETATM   46  O5  UNL     1     -20.127  41.065 -28.685  1.00  0.00    -0.393 OA
HETATM   47  H29 UNL     1     -19.878  40.130 -28.841  1.00  0.00     0.210 HD
ENDBRANCH  11  46
TORSDOF 12
ENDMDL
MODEL 4
REMARK minimizedAffinity -8.05071831
REMARK CNNscore 0.661013544
REMARK CNNaffinity 6.97151136
REMARK  12 active torsions:
REMARK  status: ('A' for Active; 'I' for Inactive)
REMARK    1  A    between atoms: C2_2  and  C4_4 
REMARK    2  A    between atoms: C4_4  and  C6_6 
REMARK    3  A    between atoms: C7_8  and  C8_9 
REMARK    4  A    between atoms: C8_9  and  O2_11 
REMARK    5  A    between atoms: C8_9  and  C10_12 
REMARK    6  A    between atoms: C13_15  and  O3_16 
REMARK    7  A    between atoms: C19_23  and  O5_24 
REMARK    8  A    between atoms: C20_25  and  O6_26 
REMARK    9  A    between atoms: C27_33  and  C28_34 
REMARK   10  A    between atoms: C28_34  and  C29_35 
REMARK   11  A    between atoms: C29_35  and  C30_36 
REMARK   12  A    between atoms: C34_40  and  O7_41 
ROOT
HETATM    1  C10 UNL     1      -1.273  52.337 -10.342  1.00  0.00     0.034 C 
HETATM    2  C11 UNL     1      -0.806  50.857 -10.236  1.00  0.00     0.012 C 
HETATM    3  C12 UNL     1       0.693  50.891  -9.868  1.00  0.00     0.044 C 
HETATM    4  C13 UNL     1       0.934  52.339  -9.434  1.00  0.00     0.090 C 
HETATM    5  C14 UNL     1       2.317  52.936  -9.326  1.00  0.00    -0.037 C 
HETATM    6  C15 UNL     1       3.428  52.293  -9.710  1.00  0.00     0.057 C 
HETATM    7  C16 UNL     1       4.729  52.990  -9.778  1.00  0.00     0.154 C 
HETATM    8  O4  UNL     1       5.738  52.315  -9.972  1.00  0.00    -0.293 OA
HETATM    9  C17 UNL     1       4.741  54.512  -9.641  1.00  0.00     0.071 C 
HETATM   10  C18 UNL     1       6.174  55.025  -9.388  1.00  0.00     0.047 C 
HETATM   11  C19 UNL     1       6.648  54.870  -7.938  1.00  0.00     0.147 C 
HETATM   12  C20 UNL     1       5.708  54.040  -7.057  1.00  0.00     0.147 C 
HETATM   13  C21 UNL     1       4.238  54.476  -7.138  1.00  0.00     0.044 C 
HETATM   14  C22 UNL     1       3.746  54.966  -8.545  1.00  0.00    -0.023 C 
HETATM   15  C23 UNL     1       3.681  56.515  -8.501  1.00  0.00     0.016 C 
HETATM   16  C24 UNL     1       2.304  54.387  -8.827  1.00  0.00     0.027 C 
HETATM   17  C25 UNL     1       1.396  55.228  -9.764  1.00  0.00     0.011 C 
HETATM   18  C26 UNL     1      -0.011  54.612  -9.951  1.00  0.00     0.014 C 
HETATM   19  C27 UNL     1       0.061  53.156 -10.471  1.00  0.00     0.002 C 
ENDROOT
BRANCH   1  20
HETATM   20  C8  UNL     1      -2.507  52.565 -11.261  1.00  0.00     0.087 C 
HETATM   21  C9  UNL     1      -3.182  53.892 -10.858  1.00  0.00     0.049 C 
BRANCH  20  22
HETATM   22  C7  UNL     1      -3.492  51.408 -11.263  1.00  0.00     0.185 A 
HETATM   23  C6  UNL     1      -4.085  50.765 -10.017  1.00  0.00     0.158 A 
HETATM   24  O1  UNL     1      -4.797  51.762 -10.754  1.00  0.00    -0.372 OA
BRANCH  23  25
HETATM   25  C4  UNL     1      -4.700  49.380 -10.003  1.00  0.00     0.017 C 
HETATM   26  C5  UNL     1      -6.214  49.365  -9.765  1.00  0.00     0.013 C 
BRANCH  25  27
HETATM   27  C2  UNL     1      -3.915  48.452  -9.028  1.00  0.00    -0.016 C 
HETATM   28  C1  UNL     1      -4.850  47.553  -8.213  1.00  0.00     0.010 C 
HETATM   29  C3  UNL     1      -2.975  49.210  -8.087  1.00  0.00     0.010 C 
ENDBRANCH  25  27
ENDBRANCH  23  25
ENDBRANCH  20  22
BRANCH  20  30
HETATM   30  O2  UNL     1      -2.047  52.756 -12.600  1.00  0.00    -0.387 OA
HETATM   31  H17 UNL     1      -2.842  52.729 -13.165  1.00  0.00     0.210 HD
ENDBRANCH  20  30
ENDBRANCH   1  20
BRANCH  19  32
HETATM   32  C28 UNL     1       0.702  53.100 -11.910  1.00  0.00     0.018 C 
BRANCH  32  33
HETATM   33  C29 UNL     1       1.029  51.716 -12.500  1.00  0.00     0.039 C 
BRANCH  33  34
HETATM   34  C30 UNL     1       1.776  51.855 -13.808  1.00  0.00    -0.056 A 
HETATM   35  C31 UNL     1       3.152  51.601 -13.882  1.00  0.00     0.007 A 
HETATM   36  C32 UNL     1       3.840  51.769 -15.087  1.00  0.00     0.003 A 
HETATM   37  C33 UNL     1       3.161  52.193 -16.229  1.00  0.00     0.036 A 
HETATM   38  C34 UNL     1       1.793  52.439 -16.158  1.00  0.00     0.066 A 
HETATM   39  C35 UNL     1       1.100  52.273 -14.963  1.00  0.00     0.043 A 
BRANCH  38  40
HETATM   40  O7  UNL     1       1.085  52.855 -17.247  1.00  0.00    -0.361 OA
HETATM   41  H49 UNL     1       1.703  52.985 -17.986  1.00  0.00     0.217 HD
ENDBRANCH  38  40
ENDBRANCH  33  34
ENDBRANCH  32  33
ENDBRANCH  19  32
BRANCH   4  42
HETATM   42  O3  UNL     1       0.384  52.430  -8.107  1.00  0.00    -0.384 OA
HETATM   43  H23 UNL     1       0.952  51.899  -7.522  1.00  0.00     0.211 HD
ENDBRANCH   4  42
BRANCH  12  44
HETATM   44  O6  UNL     1       6.149  54.152  -5.696  1.00  0.00    -0.393 OA
HETATM   45  H31 UNL     1       5.618  53.527  -5.172  1.00  0.00     0.210 HD
ENDBRANCH  12  44
BRANCH  11  46
HETATM   46  O5  UNL     1       6.797  56.169  -7.352  1.00  0.00    -0.393 OA
HETATM   47  H29 UNL     1       6.882  55.997  -6.391  1.00  0.00     0.210 HD
ENDBRANCH  11  46
TORSDOF 12
ENDMDL
MODEL 5
REMARK minimizedAffinity -8.53649139
REMARK CNNscore 0.644581258
REMARK CNNaffinity 7.40518379
REMARK  12 active torsions:
REMARK  status: ('A' for Active; 'I' for Inactive)
REMARK    1  A    between atoms: C2_2  and  C4_4 
REMARK    2  A    between atoms: C4_4  and  C6_6 
REMARK    3  A    between atoms: C7_8  and  C8_9 
REMARK    4  A    between atoms: C8_9  and  O2_11 
REMARK    5  A    between atoms: C8_9  and  C10_12 
REMARK    6  A    between atoms: C13_15  and  O3_16 
REMARK    7  A    between atoms: C19_23  and  O5_24 
REMARK    8  A    between atoms: C20_25  and  O6_26 
REMARK    9  A    between atoms: C27_33  and  C28_34 
REMARK   10  A    between atoms: C28_34  and  C29_35 
REMARK   11  A    between atoms: C29_35  and  C30_36 
REMARK   12  A    between atoms: C34_40  and  O7_41 
ROOT
HETATM    1  C10 UNL     1      -2.985  48.857 -20.631  1.00  0.00     0.034 C 
HETATM    2  C11 UNL     1      -1.574  48.491 -21.177  1.00  0.00     0.012 C 
HETATM    3  C12 UNL     1      -0.570  48.782 -20.041  1.00  0.00     0.044 C 
HETATM    4  C13 UNL     1      -1.454  48.954 -18.803  1.00  0.00     0.090 C 
HETATM    5  C14 UNL     1      -0.956  49.598 -17.531  1.00  0.00    -0.037 C 
HETATM    6  C15 UNL     1       0.251  50.173 -17.421  1.00  0.00     0.057 C 
HETATM    7  C16 UNL     1       0.612  50.967 -16.229  1.00  0.00     0.154 C 
HETATM    8  O4  UNL     1       1.781  51.327 -16.106  1.00  0.00    -0.293 OA
HETATM    9  C17 UNL     1      -0.495  51.327 -15.238  1.00  0.00     0.071 C 
HETATM   10  C18 UNL     1       0.107  51.840 -13.912  1.00  0.00     0.047 C 
HETATM   11  C19 UNL     1       0.609  50.730 -12.982  1.00  0.00     0.147 C 
HETATM   12  C20 UNL     1       0.627  49.337 -13.620  1.00  0.00     0.147 C 
HETATM   13  C21 UNL     1      -0.691  48.956 -14.311  1.00  0.00     0.044 C 
HETATM   14  C22 UNL     1      -1.449  50.126 -15.030  1.00  0.00    -0.023 C 
HETATM   15  C23 UNL     1      -2.631  50.543 -14.118  1.00  0.00     0.016 C 
HETATM   16  C24 UNL     1      -2.008  49.614 -16.416  1.00  0.00     0.027 C 
HETATM   17  C25 UNL     1      -3.285  50.322 -16.946  1.00  0.00     0.011 C 
HETATM   18  C26 UNL     1      -3.790  49.730 -18.284  1.00  0.00     0.014 C 
HETATM   19  C27 UNL     1      -2.693  49.755 -19.376  1.00  0.00     0.002 C 
ENDROOT
BRANCH   1  20
HETATM   20  C8  UNL     1      -4.028  49.228 -21.722  1.00  0.00     0.087 C 
HETATM   21  C9  UNL     1      -3.892  50.730 -22.043  1.00  0.00     0.049 C 
BRANCH  20  22
HETATM   22  C7  UNL     1      -5.456  48.854 -21.357  1.00  0.00     0.185 A 
HETATM   23  C6  UNL     1      -6.199  47.633 -21.882  1.00  0.00     0.158 A 
HETATM   24  O1  UNL     1      -5.555  47.625 -20.605  1.00  0.00    -0.372 OA
BRANCH  23  25
HETATM   25  C4  UNL     1      -7.708  47.503 -21.866  1.00  0.00     0.017 C 
HETATM   26  C5  UNL     1      -8.246  46.510 -20.831  1.00  0.00     0.013 C 
BRANCH  25  27
HETATM   27  C2  UNL     1      -8.240  47.237 -23.307  1.00  0.00    -0.016 C 
HETATM   28  C1  UNL     1      -9.002  45.911 -23.402  1.00  0.00     0.010 C 
HETATM   29  C3  UNL     1      -7.148  47.285 -24.379  1.00  0.00     0.010 C 
ENDBRANCH  25  27
ENDBRANCH  23  25
ENDBRANCH  20  22
BRANCH  20  30
HETATM   30  O2  UNL     1      -3.688  48.542 -22.928  1.00  0.00    -0.387 OA
HETATM   31  H17 UNL     1      -4.445  48.664 -23.532  1.00  0.00     0.210 HD
ENDBRANCH  20  30
ENDBRANCH   1  20
BRANCH  19  32
HETATM   32  C28 UNL     1      -2.287  51.234 -19.736  1.00  0.00     0.018 C 
BRANCH  32  33
HETATM   33  C29 UNL     1      -0.809  51.636 -19.573  1.00  0.00     0.039 C 
BRANCH  33  34
HETATM   34  C30 UNL     1      -0.286  52.276 -20.840  1.00  0.00    -0.056 A 
HETATM   35  C31 UNL     1      -0.694  51.819 -22.100  1.00  0.00     0.007 A 
HETATM   36  C32 UNL     1      -0.175  52.393 -23.264  1.00  0.00     0.003 A 
HETATM   37  C33 UNL     1       0.756  53.428 -23.181  1.00  0.00     0.036 A 
HETATM   38  C34 UNL     1       1.157  53.887 -21.929  1.00  0.00     0.066 A 
HETATM   39  C35 UNL     1       0.645  53.323 -20.766  1.00  0.00     0.043 A 
BRANCH  38  40
HETATM   40  O7  UNL     1       2.065  54.896 -21.797  1.00  0.00    -0.361 OA
HETATM   41  H49 UNL     1       2.377  55.149 -22.682  1.00  0.00     0.217 HD
ENDBRANCH  38  40
ENDBRANCH  33  34
ENDBRANCH  32  33
ENDBRANCH  19  32
BRANCH   4  42
HETATM   42  O3  UNL     1      -1.830  47.618 -18.421  1.00  0.00    -0.384 OA
HETATM   43  H23 UNL     1      -1.028  47.175 -18.093  1.00  0.00     0.211 HD
ENDBRANCH   4  42
BRANCH  12  44
HETATM   44  O6  UNL     1       0.906  48.374 -12.593  1.00  0.00    -0.393 OA
HETATM   45  H31 UNL     1       1.032  47.516 -13.035  1.00  0.00     0.210 HD
ENDBRANCH  12  44
BRANCH  11  46
HETATM   46  O5  UNL     1      -0.219  50.688 -11.813  1.00  0.00    -0.393 OA
HETATM   47  H29 UNL     1       0.009  49.839 -11.380  1.00  0.00     0.210 HD
ENDBRANCH  11  46
TORSDOF 12
ENDMDL
MODEL 6
REMARK minimizedAffinity -9.76512623
REMARK CNNscore 0.590450764
REMARK CNNaffinity 7.47158432
REMARK  12 active torsions:
REMARK  status: ('A' for Active; 'I' for Inactive)
REMARK    1  A    between atoms: C2_2  and  C4_4 
REMARK    2  A    between atoms: C4_4  and  C6_6 
REMARK    3  A    between atoms: C7_8  and  C8_9 
REMARK    4  A    between atoms: C8_9  and  O2_11 
REMARK    5  A    between atoms: C8_9  and  C10_12 
REMARK    6  A    between atoms: C13_15  and  O3_16 
REMARK    7  A    between atoms: C19_23  and  O5_24 
REMARK    8  A    between atoms: C20_25  and  O6_26 
REMARK    9  A    between atoms: C27_33  and  C28_34 
REMARK   10  A    between atoms: C28_34  and  C29_35 
REMARK   11  A    between atoms: C29_35  and  C30_36 
REMARK   12  A    between atoms: C34_40  and  O7_41 
ROOT
HETATM    1  C10 UNL     1      -3.434  50.280 -23.427  1.00  0.00     0.034 C 
HETATM    2  C11 UNL     1      -2.411  49.163 -23.784  1.00  0.00     0.012 C 
HETATM    3  C12 UNL     1      -2.557  48.068 -22.707  1.00  0.00     0.044 C 
HETATM    4  C13 UNL     1      -3.869  48.418 -22.000  1.00  0.00     0.090 C 
HETATM    5  C14 UNL     1      -4.246  47.846 -20.654  1.00  0.00    -0.037 C 
HETATM    6  C15 UNL     1      -3.420  47.085 -19.921  1.00  0.00     0.057 C 
HETATM    7  C16 UNL     1      -3.753  46.721 -18.529  1.00  0.00     0.154 C 
HETATM    8  O4  UNL     1      -3.047  45.889 -17.963  1.00  0.00    -0.293 OA
HETATM    9  C17 UNL     1      -4.932  47.427 -17.859  1.00  0.00     0.071 C 
HETATM   10  C18 UNL     1      -5.345  46.692 -16.566  1.00  0.00     0.047 C 
HETATM   11  C19 UNL     1      -6.200  45.442 -16.804  1.00  0.00     0.147 C 
HETATM   12  C20 UNL     1      -6.307  45.025 -18.274  1.00  0.00     0.147 C 
HETATM   13  C21 UNL     1      -6.693  46.174 -19.217  1.00  0.00     0.044 C 
HETATM   14  C22 UNL     1      -6.107  47.583 -18.854  1.00  0.00    -0.023 C 
HETATM   15  C23 UNL     1      -7.247  48.405 -18.200  1.00  0.00     0.016 C 
HETATM   16  C24 UNL     1      -5.628  48.306 -20.174  1.00  0.00     0.027 C 
HETATM   17  C25 UNL     1      -5.656  49.859 -20.156  1.00  0.00     0.011 C 
HETATM   18  C26 UNL     1      -5.214  50.485 -21.501  1.00  0.00     0.014 C 
HETATM   19  C27 UNL     1      -3.808  49.998 -21.928  1.00  0.00     0.002 C 
ENDROOT
BRANCH   1  20
HETATM   20  C8  UNL     1      -3.068  51.693 -23.964  1.00  0.00     0.087 C 
HETATM   21  C9  UNL     1      -4.053  52.062 -25.092  1.00  0.00     0.049 C 
BRANCH  20  22
HETATM   22  C7  UNL     1      -1.622  51.823 -24.412  1.00  0.00     0.185 A 
HETATM   23  C6  UNL     1      -1.157  51.857 -25.862  1.00  0.00     0.158 A 
HETATM   24  O1  UNL     1      -1.344  53.058 -25.110  1.00  0.00    -0.372 OA
BRANCH  23  25
HETATM   25  C4  UNL     1       0.263  51.554 -26.292  1.00  0.00     0.017 C 
HETATM   26  C5  UNL     1       1.340  52.195 -25.409  1.00  0.00     0.013 C 
BRANCH  25  27
HETATM   27  C2  UNL     1       0.445  51.866 -27.808  1.00  0.00    -0.016 C 
HETATM   28  C1  UNL     1       1.913  51.782 -28.239  1.00  0.00     0.010 C 
HETATM   29  C3  UNL     1      -0.142  53.216 -28.228  1.00  0.00     0.010 C 
ENDBRANCH  25  27
ENDBRANCH  23  25
ENDBRANCH  20  22
BRANCH  20  30
HETATM   30  O2  UNL     1      -3.296  52.647 -22.925  1.00  0.00    -0.387 OA
HETATM   31  H17 UNL     1      -2.903  53.484 -23.236  1.00  0.00     0.210 HD
ENDBRANCH  20  30
ENDBRANCH   1  20
BRANCH  19  32
HETATM   32  C28 UNL     1      -2.709  50.470 -20.902  1.00  0.00     0.018 C 
BRANCH  32  33
HETATM   33  C29 UNL     1      -1.234  50.195 -21.247  1.00  0.00     0.039 C 
BRANCH  33  34
HETATM   34  C30 UNL     1      -0.369  51.382 -20.885  1.00  0.00    -0.056 A 
HETATM   35  C31 UNL     1       0.254  52.149 -21.879  1.00  0.00     0.007 A 
HETATM   36  C32 UNL     1       1.081  53.220 -21.532  1.00  0.00     0.003 A 
HETATM   37  C33 UNL     1       1.295  53.537 -20.191  1.00  0.00     0.036 A 
HETATM   38  C34 UNL     1       0.671  52.780 -19.204  1.00  0.00     0.066 A 
HETATM   39  C35 UNL     1      -0.155  51.712 -19.539  1.00  0.00     0.043 A 
BRANCH  38  40
HETATM   40  O7  UNL     1       0.849  53.050 -17.879  1.00  0.00    -0.361 OA
HETATM   41  H49 UNL     1       1.491  53.775 -17.795  1.00  0.00     0.217 HD
ENDBRANCH  38  40
ENDBRANCH  33  34
ENDBRANCH  32  33
ENDBRANCH  19  32
BRANCH   4  42
HETATM   42  O3  UNL     1      -4.906  47.979 -22.896  1.00  0.00    -0.384 OA
HETATM   43  H23 UNL     1      -4.885  47.006 -22.908  1.00  0.00     0.211 HD
ENDBRANCH   4  42
BRANCH  12  44
HETATM   44  O6  UNL     1      -7.294  43.989 -18.379  1.00  0.00    -0.393 OA
HETATM   45  H31 UNL     1      -7.261  43.655 -19.293  1.00  0.00     0.210 HD
ENDBRANCH  12  44
BRANCH  11  46
HETATM   46  O5  UNL     1      -7.521  45.675 -16.297  1.00  0.00    -0.393 OA
HETATM   47  H29 UNL     1      -8.059  44.946 -16.670  1.00  0.00     0.210 HD
ENDBRANCH  11  46
TORSDOF 12
ENDMDL
MODEL 7
REMARK minimizedAffinity -9.16248322
REMARK CNNscore 0.546005726
REMARK CNNaffinity 7.17179489
REMARK  12 active torsions:
REMARK  status: ('A' for Active; 'I' for Inactive)
REMARK    1  A    between atoms: C2_2  and  C4_4 
REMARK    2  A    between atoms: C4_4  and  C6_6 
REMARK    3  A    between atoms: C7_8  and  C8_9 
REMARK    4  A    between atoms: C8_9  and  O2_11 
REMARK    5  A    between atoms: C8_9  and  C10_12 
REMARK    6  A    between atoms: C13_15  and  O3_16 
REMARK    7  A    between atoms: C19_23  and  O5_24 
REMARK    8  A    between atoms: C20_25  and  O6_26 
REMARK    9  A    between atoms: C27_33  and  C28_34 
REMARK   10  A    between atoms: C28_34  and  C29_35 
REMARK   11  A    between atoms: C29_35  and  C30_36 
REMARK   12  A    between atoms: C34_40  and  O7_41 
ROOT
HETATM    1  C10 UNL     1      -2.015  49.369 -16.807  1.00  0.00     0.034 C 
HETATM    2  C11 UNL     1      -2.706  50.716 -16.448  1.00  0.00     0.012 C 
HETATM    3  C12 UNL     1      -3.250  51.301 -17.768  1.00  0.00     0.044 C 
HETATM    4  C13 UNL     1      -3.172  50.130 -18.751  1.00  0.00     0.090 C 
HETATM    5  C14 UNL     1      -3.259  50.316 -20.247  1.00  0.00    -0.037 C 
HETATM    6  C15 UNL     1      -3.293  51.520 -20.838  1.00  0.00     0.057 C 
HETATM    7  C16 UNL     1      -3.171  51.654 -22.304  1.00  0.00     0.154 C 
HETATM    8  O4  UNL     1      -3.377  52.758 -22.803  1.00  0.00    -0.293 OA
HETATM    9  C17 UNL     1      -2.759  50.422 -23.110  1.00  0.00     0.071 C 
HETATM   10  C18 UNL     1      -3.017  50.645 -24.616  1.00  0.00     0.047 C 
HETATM   11  C19 UNL     1      -4.480  50.457 -25.034  1.00  0.00     0.147 C 
HETATM   12  C20 UNL     1      -5.453  50.300 -23.861  1.00  0.00     0.147 C 
HETATM   13  C21 UNL     1      -5.010  49.253 -22.826  1.00  0.00     0.044 C 
HETATM   14  C22 UNL     1      -3.467  49.157 -22.568  1.00  0.00    -0.023 C 
HETATM   15  C23 UNL     1      -2.948  47.901 -23.316  1.00  0.00     0.016 C 
HETATM   16  C24 UNL     1      -3.204  48.992 -21.019  1.00  0.00     0.027 C 
HETATM   17  C25 UNL     1      -1.908  48.236 -20.618  1.00  0.00     0.011 C 
HETATM   18  C26 UNL     1      -1.751  48.081 -19.087  1.00  0.00     0.014 C 
HETATM   19  C27 UNL     1      -1.798  49.448 -18.361  1.00  0.00     0.002 C 
ENDROOT
BRANCH   1  20
HETATM   20  C8  UNL     1      -0.908  48.919 -15.813  1.00  0.00     0.087 C 
HETATM   21  C9  UNL     1      -1.506  48.888 -14.392  1.00  0.00     0.049 C 
BRANCH  20  22
HETATM   22  C7  UNL     1       0.353  49.765 -15.876  1.00  0.00     0.185 A 
HETATM   23  C6  UNL     1       0.664  50.938 -14.956  1.00  0.00     0.158 A 
HETATM   24  O1  UNL     1       1.195  49.633 -14.709  1.00  0.00    -0.372 OA
BRANCH  23  25
HETATM   25  C4  UNL     1       1.676  52.016 -15.289  1.00  0.00     0.017 C 
HETATM   26  C5  UNL     1       1.602  52.528 -16.731  1.00  0.00     0.013 C 
BRANCH  25  27
HETATM   27  C2  UNL     1       3.106  51.559 -14.871  1.00  0.00    -0.016 C 
HETATM   28  C1  UNL     1       3.381  51.817 -13.386  1.00  0.00     0.010 C 
HETATM   29  C3  UNL     1       4.218  52.181 -15.720  1.00  0.00     0.010 C 
ENDBRANCH  25  27
ENDBRANCH  23  25
ENDBRANCH  20  22
BRANCH  20  30
HETATM   30  O2  UNL     1      -0.550  47.569 -16.112  1.00  0.00    -0.387 OA
HETATM   31  H17 UNL     1       0.251  47.379 -15.587  1.00  0.00     0.210 HD
ENDBRANCH  20  30
ENDBRANCH   1  20
BRANCH  19  32
HETATM   32  C28 UNL     1      -0.582  50.355 -18.785  1.00  0.00     0.018 C 
BRANCH  32  33
HETATM   33  C29 UNL     1      -0.062  50.236 -20.229  1.00  0.00     0.039 C 
BRANCH  33  34
HETATM   34  C30 UNL     1       0.335  51.592 -20.769  1.00  0.00    -0.056 A 
HETATM   35  C31 UNL     1       0.581  52.668 -19.905  1.00  0.00     0.007 A 
HETATM   36  C32 UNL     1       0.909  53.926 -20.417  1.00  0.00     0.003 A 
HETATM   37  C33 UNL     1       0.995  54.124 -21.795  1.00  0.00     0.036 A 
HETATM   38  C34 UNL     1       0.756  53.054 -22.653  1.00  0.00     0.066 A 
HETATM   39  C35 UNL     1       0.430  51.798 -22.154  1.00  0.00     0.043 A 
BRANCH  38  40
HETATM   40  O7  UNL     1       0.827  53.197 -24.007  1.00  0.00    -0.361 OA
HETATM   41  H49 UNL     1       1.002  54.132 -24.211  1.00  0.00     0.217 HD
ENDBRANCH  38  40
ENDBRANCH  33  34
ENDBRANCH  32  33
ENDBRANCH  19  32
BRANCH   4  42
HETATM   42  O3  UNL     1      -4.286  49.283 -18.415  1.00  0.00    -0.384 OA
HETATM   43  H23 UNL     1      -5.097  49.760 -18.664  1.00  0.00     0.211 HD
ENDBRANCH   4  42
BRANCH  12  44
HETATM   44  O6  UNL     1      -6.733  49.919 -24.385  1.00  0.00    -0.393 OA
HETATM   45  H31 UNL     1      -7.362  49.942 -23.642  1.00  0.00     0.210 HD
ENDBRANCH  12  44
BRANCH  11  46
HETATM   46  O5  UNL     1      -4.582  49.298 -25.872  1.00  0.00    -0.393 OA
HETATM   47  H29 UNL     1      -5.543  49.112 -25.918  1.00  0.00     0.210 HD
ENDBRANCH  11  46
TORSDOF 12
ENDMDL
MODEL 8
REMARK minimizedAffinity -9.71270561
REMARK CNNscore 0.522161305
REMARK CNNaffinity 7.54558945
REMARK  12 active torsions:
REMARK  status: ('A' for Active; 'I' for Inactive)
REMARK    1  A    between atoms: C2_2  and  C4_4 
REMARK    2  A    between atoms: C4_4  and  C6_6 
REMARK    3  A    between atoms: C7_8  and  C8_9 
REMARK    4  A    between atoms: C8_9  and  O2_11 
REMARK    5  A    between atoms: C8_9  and  C10_12 
REMARK    6  A    between atoms: C13_15  and  O3_16 
REMARK    7  A    between atoms: C19_23  and  O5_24 
REMARK    8  A    between atoms: C20_25  and  O6_26 
REMARK    9  A    between atoms: C27_33  and  C28_34 
REMARK   10  A    between atoms: C28_34  and  C29_35 
REMARK   11  A    between atoms: C29_35  and  C30_36 
REMARK   12  A    between atoms: C34_40  and  O7_41 
ROOT
HETATM    1  C10 UNL     1      -2.064  51.090 -21.169  1.00  0.00     0.034 C 
HETATM    2  C11 UNL     1      -3.249  51.899 -21.773  1.00  0.00     0.012 C 
HETATM    3  C12 UNL     1      -4.452  50.934 -21.845  1.00  0.00     0.044 C 
HETATM    4  C13 UNL     1      -4.030  49.750 -20.971  1.00  0.00     0.090 C 
HETATM    5  C14 UNL     1      -4.725  48.411 -21.025  1.00  0.00    -0.037 C 
HETATM    6  C15 UNL     1      -5.682  48.114 -21.915  1.00  0.00     0.057 C 
HETATM    7  C16 UNL     1      -6.186  46.733 -22.062  1.00  0.00     0.154 C 
HETATM    8  O4  UNL     1      -7.175  46.550 -22.769  1.00  0.00    -0.293 OA
HETATM    9  C17 UNL     1      -5.426  45.608 -21.359  1.00  0.00     0.071 C 
HETATM   10  C18 UNL     1      -6.270  44.316 -21.331  1.00  0.00     0.047 C 
HETATM   11  C19 UNL     1      -7.349  44.297 -20.242  1.00  0.00     0.147 C 
HETATM   12  C20 UNL     1      -7.543  45.638 -19.528  1.00  0.00     0.147 C 
HETATM   13  C21 UNL     1      -6.234  46.269 -19.029  1.00  0.00     0.044 C 
HETATM   14  C22 UNL     1      -4.980  46.056 -19.946  1.00  0.00    -0.023 C 
HETATM   15  C23 UNL     1      -4.109  44.951 -19.294  1.00  0.00     0.016 C 
HETATM   16  C24 UNL     1      -4.153  47.400 -20.023  1.00  0.00     0.027 C 
HETATM   17  C25 UNL     1      -2.628  47.255 -20.277  1.00  0.00     0.011 C 
HETATM   18  C26 UNL     1      -1.889  48.615 -20.294  1.00  0.00     0.014 C 
HETATM   19  C27 UNL     1      -2.497  49.589 -21.332  1.00  0.00     0.002 C 
ENDROOT
BRANCH   1  20
HETATM   20  C8  UNL     1      -0.654  51.619 -21.553  1.00  0.00     0.087 C 
HETATM   21  C9  UNL     1      -0.249  52.717 -20.549  1.00  0.00     0.049 C 
BRANCH  20  22
HETATM   22  C7  UNL     1      -0.550  52.101 -22.991  1.00  0.00     0.185 A 
HETATM   23  C6  UNL     1       0.671  51.925 -23.884  1.00  0.00     0.158 A 
HETATM   24  O1  UNL     1      -0.440  51.027 -23.952  1.00  0.00    -0.372 OA
BRANCH  23  25
HETATM   25  C4  UNL     1       0.929  52.760 -25.121  1.00  0.00     0.017 C 
HETATM   26  C5  UNL     1      -0.062  53.911 -25.324  1.00  0.00     0.013 C 
BRANCH  25  27
HETATM   27  C2  UNL     1       1.068  51.841 -26.371  1.00  0.00    -0.016 C 
HETATM   28  C1  UNL     1       2.528  51.468 -26.651  1.00  0.00     0.010 C 
HETATM   29  C3  UNL     1       0.432  52.428 -27.634  1.00  0.00     0.010 C 
ENDBRANCH  25  27
ENDBRANCH  23  25
ENDBRANCH  20  22
BRANCH  20  30
HETATM   30  O2  UNL     1       0.291  50.562 -21.373  1.00  0.00    -0.387 OA
HETATM   31  H17 UNL     1       1.124  50.873 -21.776  1.00  0.00     0.210 HD
ENDBRANCH  20  30
ENDBRANCH   1  20
BRANCH  19  32
HETATM   32  C28 UNL     1      -2.322  49.036 -22.797  1.00  0.00     0.018 C 
BRANCH  32  33
HETATM   33  C29 UNL     1      -3.592  48.787 -23.631  1.00  0.00     0.039 C 
BRANCH  33  34
HETATM   34  C30 UNL     1      -3.434  49.345 -25.028  1.00  0.00    -0.056 A 
HETATM   35  C31 UNL     1      -3.361  48.494 -26.139  1.00  0.00     0.007 A 
HETATM   36  C32 UNL     1      -3.176  49.018 -27.422  1.00  0.00     0.003 A 
HETATM   37  C33 UNL     1      -3.061  50.396 -27.607  1.00  0.00     0.036 A 
HETATM   38  C34 UNL     1      -3.139  51.242 -26.504  1.00  0.00     0.066 A 
HETATM   39  C35 UNL     1      -3.325  50.730 -25.225  1.00  0.00     0.043 A 
BRANCH  38  40
HETATM   40  O7  UNL     1      -3.033  52.595 -26.635  1.00  0.00    -0.361 OA
HETATM   41  H49 UNL     1      -2.848  52.802 -27.566  1.00  0.00     0.217 HD
ENDBRANCH  38  40
ENDBRANCH  33  34
ENDBRANCH  32  33
ENDBRANCH  19  32
BRANCH   4  42
HETATM   42  O3  UNL     1      -4.199  50.205 -19.616  1.00  0.00    -0.384 OA
HETATM   43  H23 UNL     1      -5.155  50.298 -19.460  1.00  0.00     0.211 HD
ENDBRANCH   4  42
BRANCH  12  44
HETATM   44  O6  UNL     1      -8.413  45.430 -18.406  1.00  0.00    -0.393 OA
HETATM   45  H31 UNL     1      -8.619  46.308 -18.039  1.00  0.00     0.210 HD
ENDBRANCH  12  44
BRANCH  11  46
HETATM   46  O5  UNL     1      -7.013  43.303 -19.267  1.00  0.00    -0.393 OA
HETATM   47  H29 UNL     1      -7.605  43.492 -18.509  1.00  0.00     0.210 HD
ENDBRANCH  11  46
TORSDOF 12
ENDMDL
MODEL 9
REMARK minimizedAffinity -10.0953331
REMARK CNNscore 0.506560385
REMARK CNNaffinity 7.34583282
REMARK  12 active torsions:
REMARK  status: ('A' for Active; 'I' for Inactive)
REMARK    1  A    between atoms: C2_2  and  C4_4 
REMARK    2  A    between atoms: C4_4  and  C6_6 
REMARK    3  A    between atoms: C7_8  and  C8_9 
REMARK    4  A    between atoms: C8_9  and  O2_11 
REMARK    5  A    between atoms: C8_9  and  C10_12 
REMARK    6  A    between atoms: C13_15  and  O3_16 
REMARK    7  A    between atoms: C19_23  and  O5_24 
REMARK    8  A    between atoms: C20_25  and  O6_26 
REMARK    9  A    between atoms: C27_33  and  C28_34 
REMARK   10  A    between atoms: C28_34  and  C29_35 
REMARK   11  A    between atoms: C29_35  and  C30_36 
REMARK   12  A    between atoms: C34_40  and  O7_41 
ROOT
HETATM    1  C10 UNL     1      -4.626  49.536 -20.775  1.00  0.00     0.034 C 
HETATM    2  C11 UNL     1      -4.626  50.970 -20.171  1.00  0.00     0.012 C 
HETATM    3  C12 UNL     1      -3.801  51.854 -21.130  1.00  0.00     0.044 C 
HETATM    4  C13 UNL     1      -3.668  51.002 -22.395  1.00  0.00     0.090 C 
HETATM    5  C14 UNL     1      -2.650  51.297 -23.471  1.00  0.00    -0.037 C 
HETATM    6  C15 UNL     1      -1.710  52.246 -23.354  1.00  0.00     0.057 C 
HETATM    7  C16 UNL     1      -0.614  52.359 -24.338  1.00  0.00     0.154 C 
HETATM    8  O4  UNL     1       0.119  53.344 -24.277  1.00  0.00    -0.293 OA
HETATM    9  C17 UNL     1      -0.430  51.227 -25.349  1.00  0.00     0.071 C 
HETATM   10  C18 UNL     1       0.511  51.664 -26.491  1.00  0.00     0.047 C 
HETATM   11  C19 UNL     1      -0.162  52.536 -27.557  1.00  0.00     0.147 C 
HETATM   12  C20 UNL     1      -1.576  52.997 -27.189  1.00  0.00     0.147 C 
HETATM   13  C21 UNL     1      -2.493  51.860 -26.712  1.00  0.00     0.044 C 
HETATM   14  C22 UNL     1      -1.803  50.734 -25.867  1.00  0.00    -0.023 C 
HETATM   15  C23 UNL     1      -1.607  49.509 -26.797  1.00  0.00     0.016 C 
HETATM   16  C24 UNL     1      -2.742  50.334 -24.662  1.00  0.00     0.027 C 
HETATM   17  C25 UNL     1      -2.606  48.879 -24.137  1.00  0.00     0.011 C 
HETATM   18  C26 UNL     1      -3.591  48.558 -22.987  1.00  0.00     0.014 C 
HETATM   19  C27 UNL     1      -3.443  49.550 -21.808  1.00  0.00     0.002 C 
ENDROOT
BRANCH   1  20
HETATM   20  C8  UNL     1      -4.843  48.394 -19.741  1.00  0.00     0.087 C 
HETATM   21  C9  UNL     1      -6.289  47.875 -19.877  1.00  0.00     0.049 C 
BRANCH  20  22
HETATM   22  C7  UNL     1      -4.517  48.792 -18.311  1.00  0.00     0.185 A 
HETATM   23  C6  UNL     1      -3.159  48.612 -17.644  1.00  0.00     0.158 A 
HETATM   24  O1  UNL     1      -3.550  49.863 -18.217  1.00  0.00    -0.372 OA
BRANCH  23  25
HETATM   25  C4  UNL     1      -2.961  48.602 -16.142  1.00  0.00     0.017 C 
HETATM   26  C5  UNL     1      -2.835  49.993 -15.512  1.00  0.00     0.013 C 
BRANCH  25  27
HETATM   27  C2  UNL     1      -1.793  47.645 -15.760  1.00  0.00    -0.016 C 
HETATM   28  C1  UNL     1      -2.001  47.006 -14.383  1.00  0.00     0.010 C 
HETATM   29  C3  UNL     1      -0.415  48.310 -15.819  1.00  0.00     0.010 C 
ENDBRANCH  25  27
ENDBRANCH  23  25
ENDBRANCH  20  22
BRANCH  20  30
HETATM   30  O2  UNL     1      -4.003  47.295 -20.096  1.00  0.00    -0.387 OA
HETATM   31  H17 UNL     1      -4.039  46.674 -19.344  1.00  0.00     0.210 HD
ENDBRANCH  20  30
ENDBRANCH   1  20
BRANCH  19  32
HETATM   32  C28 UNL     1      -2.020  49.429 -21.142  1.00  0.00     0.018 C 
BRANCH  32  33
HETATM   33  C29 UNL     1      -0.925  50.411 -21.598  1.00  0.00     0.039 C 
BRANCH  33  34
HETATM   34  C30 UNL     1      -0.319  51.126 -20.411  1.00  0.00    -0.056 A 
HETATM   35  C31 UNL     1      -0.445  50.606 -19.116  1.00  0.00     0.007 A 
HETATM   36  C32 UNL     1       0.086  51.294 -18.021  1.00  0.00     0.003 A 
HETATM   37  C33 UNL     1       0.748  52.507 -18.209  1.00  0.00     0.036 A 
HETATM   38  C34 UNL     1       0.879  53.021 -19.496  1.00  0.00     0.066 A 
HETATM   39  C35 UNL     1       0.355  52.343 -20.591  1.00  0.00     0.043 A 
BRANCH  38  40
HETATM   40  O7  UNL     1       1.517  54.203 -19.730  1.00  0.00    -0.361 OA
HETATM   41  H49 UNL     1       1.775  54.590 -18.876  1.00  0.00     0.217 HD
ENDBRANCH  38  40
ENDBRANCH  33  34
ENDBRANCH  32  33
ENDBRANCH  19  32
BRANCH   4  42
HETATM   42  O3  UNL     1      -4.945  51.105 -23.052  1.00  0.00    -0.384 OA
HETATM   43  H23 UNL     1      -5.030  52.018 -23.377  1.00  0.00     0.211 HD
ENDBRANCH   4  42
BRANCH  12  44
HETATM   44  O6  UNL     1      -2.165  53.612 -28.344  1.00  0.00    -0.393 OA
HETATM   45  H31 UNL     1      -3.009  54.003 -28.059  1.00  0.00     0.210 HD
ENDBRANCH  12  44
BRANCH  11  46
HETATM   46  O5  UNL     1      -0.224  51.805 -28.789  1.00  0.00    -0.393 OA
HETATM   47  H29 UNL     1      -0.846  52.317 -29.347  1.00  0.00     0.210 HD
ENDBRANCH  11  46
TORSDOF 12
ENDMDL
