MODEL 1
REMARK minimizedAffinity -9.59623909
REMARK  4 active torsions:
REMARK  status: ('A' for Active; 'I' for Inactive)
REMARK    1  A    between atoms: C4_4  and  C5_5 
REMARK    2  A    between atoms: C5_5  and  C6_6 
REMARK    3  A    between atoms: C6_6  and  C7_7 
REMARK    4  A    between atoms: C7_7  and  C9_9 
ROOT
HETATM    1  C9  UNL     1      -0.486  52.399 -21.899  1.00  0.00    -0.002 C 
HETATM    2  C10 UNL     1       0.936  53.007 -21.966  1.00  0.00     0.007 C 
HETATM    3  C11 UNL     1       1.495  52.982 -20.524  1.00  0.00     0.015 C 
HETATM    4  C12 UNL     1       0.267  52.701 -19.625  1.00  0.00    -0.013 C 
HETATM    5  C13 UNL     1      -0.435  54.081 -19.406  1.00  0.00     0.021 C 
HETATM    6  C14 UNL     1       0.457  52.130 -18.223  1.00  0.00    -0.070 C 
HETATM    7  C15 UNL     1       1.637  52.178 -17.583  1.00  0.00    -0.022 C 
HETATM    8  C16 UNL     1       1.833  51.821 -16.143  1.00  0.00     0.035 C 
HETATM    9  C17 UNL     1       0.510  51.668 -15.345  1.00  0.00     0.032 C 
HETATM   10  C18 UNL     1       0.765  51.303 -13.825  1.00  0.00     0.068 C 
HETATM   11  C19 UNL     1       2.141  51.739 -13.276  1.00  0.00     0.047 C 
HETATM   12  C20 UNL     1      -0.270  52.025 -12.930  1.00  0.00     0.047 C 
HETATM   13  O1  UNL     1       0.572  49.901 -13.559  1.00  0.00    -0.310 OA
HETATM   14  C21 UNL     1       1.267  49.052 -14.353  1.00  0.00     0.259 C 
HETATM   15  O2  UNL     1       2.471  48.863 -14.295  1.00  0.00    -0.265 OA
HETATM   16  C22 UNL     1       0.339  48.423 -15.342  1.00  0.00     0.112 C 
HETATM   17  C23 UNL     1       0.060  49.358 -16.516  1.00  0.00     0.020 C 
HETATM   18  C24 UNL     1      -0.516  50.781 -16.186  1.00  0.00    -0.029 C 
HETATM   19  C25 UNL     1      -1.866  50.606 -15.452  1.00  0.00     0.016 C 
HETATM   20  C26 UNL     1      -0.813  51.602 -17.536  1.00  0.00     0.024 C 
HETATM   21  C27 UNL     1      -1.808  50.880 -18.502  1.00  0.00     0.010 C 
HETATM   22  C28 UNL     1      -1.903  51.445 -19.929  1.00  0.00     0.011 C 
HETATM   23  C29 UNL     1      -0.506  51.670 -20.524  1.00  0.00    -0.029 C 
HETATM   24  C30 UNL     1       0.231  50.301 -20.592  1.00  0.00     0.016 C 
ENDROOT
BRANCH   1  25
HETATM   25  C7  UNL     1      -1.058  51.747 -23.188  1.00  0.00    -0.014 C 
HETATM   26  C8  UNL     1      -1.993  50.585 -22.805  1.00  0.00     0.010 C 
BRANCH  25  27
HETATM   27  C6  UNL     1      -1.670  52.599 -24.324  1.00  0.00     0.008 C 
BRANCH  27  28
HETATM   28  C5  UNL     1      -0.851  52.955 -25.572  1.00  0.00     0.028 C 
BRANCH  28  29
HETATM   29  C4  UNL     1       0.535  52.374 -25.594  1.00  0.00    -0.025 C 
HETATM   30  C2  UNL     1       1.184  51.808 -26.631  1.00  0.00    -0.091 C 
HETATM   31  C1  UNL     1       0.645  51.671 -28.028  1.00  0.00     0.042 C 
HETATM   32  C3  UNL     1       2.575  51.255 -26.452  1.00  0.00     0.042 C 
ENDBRANCH  28  29
ENDBRANCH  27  28
ENDBRANCH  25  27
ENDBRANCH   1  25
TORSDOF 4
ENDMDL
MODEL 2
REMARK minimizedAffinity -9.32776451
REMARK  4 active torsions:
REMARK  status: ('A' for Active; 'I' for Inactive)
REMARK    1  A    between atoms: C4_4  and  C5_5 
REMARK    2  A    between atoms: C5_5  and  C6_6 
REMARK    3  A    between atoms: C6_6  and  C7_7 
REMARK    4  A    between atoms: C7_7  and  C9_9 
ROOT
HETATM    1  C9  UNL     1      -0.632  52.229 -21.800  1.00  0.00    -0.002 C 
HETATM    2  C10 UNL     1       0.793  52.811 -21.963  1.00  0.00     0.007 C 
HETATM    3  C11 UNL     1       1.423  52.836 -20.551  1.00  0.00     0.015 C 
HETATM    4  C12 UNL     1       0.239  52.613 -19.582  1.00  0.00    -0.013 C 
HETATM    5  C13 UNL     1      -0.432  54.011 -19.386  1.00  0.00     0.021 C 
HETATM    6  C14 UNL     1       0.492  52.097 -18.168  1.00  0.00    -0.070 C 
HETATM    7  C15 UNL     1       1.703  52.153 -17.590  1.00  0.00    -0.022 C 
HETATM    8  C16 UNL     1       1.966  51.852 -16.148  1.00  0.00     0.035 C 
HETATM    9  C17 UNL     1       0.683  51.753 -15.279  1.00  0.00     0.032 C 
HETATM   10  C18 UNL     1       1.010  51.447 -13.760  1.00  0.00     0.068 C 
HETATM   11  C19 UNL     1       2.417  51.883 -13.299  1.00  0.00     0.047 C 
HETATM   12  C20 UNL     1       0.031  52.222 -12.845  1.00  0.00     0.047 C 
HETATM   13  O1  UNL     1       0.811  50.060 -13.426  1.00  0.00    -0.310 OA
HETATM   14  C21 UNL     1       1.453  49.168 -14.218  1.00  0.00     0.259 C 
HETATM   15  O2  UNL     1       2.657  48.963 -14.212  1.00  0.00    -0.265 OA
HETATM   16  C22 UNL     1       0.469  48.514 -15.132  1.00  0.00     0.112 C 
HETATM   17  C23 UNL     1       0.144  49.404 -16.329  1.00  0.00     0.020 C 
HETATM   18  C24 UNL     1      -0.396  50.849 -16.030  1.00  0.00    -0.029 C 
HETATM   19  C25 UNL     1      -1.709  50.725 -15.224  1.00  0.00     0.016 C 
HETATM   20  C26 UNL     1      -0.749  51.618 -17.397  1.00  0.00     0.024 C 
HETATM   21  C27 UNL     1      -1.801  50.872 -18.281  1.00  0.00     0.010 C 
HETATM   22  C28 UNL     1      -1.960  51.380 -19.724  1.00  0.00     0.011 C 
HETATM   23  C29 UNL     1      -0.592  51.558 -20.397  1.00  0.00    -0.029 C 
HETATM   24  C30 UNL     1       0.122  50.175 -20.444  1.00  0.00     0.016 C 
ENDROOT
BRANCH   1  25
HETATM   25  C7  UNL     1      -1.277  51.534 -23.031  1.00  0.00    -0.014 C 
HETATM   26  C8  UNL     1      -0.535  51.960 -24.310  1.00  0.00     0.010 C 
BRANCH  25  27
HETATM   27  C6  UNL     1      -1.574  50.016 -23.042  1.00  0.00     0.008 C 
BRANCH  27  28
HETATM   28  C5  UNL     1      -2.889  49.473 -23.617  1.00  0.00     0.028 C 
BRANCH  28  29
HETATM   29  C4  UNL     1      -2.845  49.163 -25.087  1.00  0.00    -0.025 C 
HETATM   30  C2  UNL     1      -3.823  48.651 -25.859  1.00  0.00    -0.091 C 
HETATM   31  C1  UNL     1      -5.212  48.308 -25.394  1.00  0.00     0.042 C 
HETATM   32  C3  UNL     1      -3.582  48.383 -27.323  1.00  0.00     0.042 C 
ENDBRANCH  28  29
ENDBRANCH  27  28
ENDBRANCH  25  27
ENDBRANCH   1  25
TORSDOF 4
ENDMDL
MODEL 3
REMARK minimizedAffinity -9.17712212
REMARK  4 active torsions:
REMARK  status: ('A' for Active; 'I' for Inactive)
REMARK    1  A    between atoms: C4_4  and  C5_5 
REMARK    2  A    between atoms: C5_5  and  C6_6 
REMARK    3  A    between atoms: C6_6  and  C7_7 
REMARK    4  A    between atoms: C7_7  and  C9_9 
ROOT
HETATM    1  C9  UNL     1      -1.338  51.381 -26.320  1.00  0.00    -0.002 C 
HETATM    2  C10 UNL     1      -2.407  51.357 -27.439  1.00  0.00     0.007 C 
HETATM    3  C11 UNL     1      -3.564  50.469 -26.924  1.00  0.00     0.015 C 
HETATM    4  C12 UNL     1      -2.982  49.726 -25.698  1.00  0.00    -0.013 C 
HETATM    5  C13 UNL     1      -2.197  48.499 -26.267  1.00  0.00     0.021 C 
HETATM    6  C14 UNL     1      -3.914  49.141 -24.641  1.00  0.00    -0.070 C 
HETATM    7  C15 UNL     1      -5.218  48.923 -24.877  1.00  0.00    -0.022 C 
HETATM    8  C16 UNL     1      -6.129  48.171 -23.958  1.00  0.00     0.035 C 
HETATM    9  C17 UNL     1      -5.392  47.394 -22.835  1.00  0.00     0.032 C 
HETATM   10  C18 UNL     1      -6.393  46.604 -21.896  1.00  0.00     0.068 C 
HETATM   11  C19 UNL     1      -7.744  46.241 -22.549  1.00  0.00     0.047 C 
HETATM   12  C20 UNL     1      -5.770  45.248 -21.486  1.00  0.00     0.047 C 
HETATM   13  O1  UNL     1      -6.637  47.291 -20.654  1.00  0.00    -0.310 OA
HETATM   14  C21 UNL     1      -7.039  48.579 -20.766  1.00  0.00     0.259 C 
HETATM   15  O2  UNL     1      -8.143  48.940 -21.143  1.00  0.00    -0.265 OA
HETATM   16  C22 UNL     1      -5.909  49.488 -20.404  1.00  0.00     0.112 C 
HETATM   17  C23 UNL     1      -4.932  49.650 -21.566  1.00  0.00     0.020 C 
HETATM   18  C24 UNL     1      -4.298  48.343 -22.165  1.00  0.00    -0.029 C 
HETATM   19  C25 UNL     1      -3.512  47.622 -21.046  1.00  0.00     0.016 C 
HETATM   20  C26 UNL     1      -3.247  48.702 -23.327  1.00  0.00     0.024 C 
HETATM   21  C27 UNL     1      -2.089  49.641 -22.856  1.00  0.00     0.010 C 
HETATM   22  C28 UNL     1      -1.228  50.270 -23.964  1.00  0.00     0.011 C 
HETATM   23  C29 UNL     1      -2.108  50.870 -25.069  1.00  0.00    -0.029 C 
HETATM   24  C30 UNL     1      -2.992  51.991 -24.445  1.00  0.00     0.016 C 
ENDROOT
BRANCH   1  25
HETATM   25  C7  UNL     1      -0.378  52.602 -26.259  1.00  0.00    -0.014 C 
HETATM   26  C8  UNL     1      -0.450  53.379 -27.586  1.00  0.00     0.010 C 
BRANCH  25  27
HETATM   27  C6  UNL     1      -0.371  53.567 -25.051  1.00  0.00     0.008 C 
BRANCH  27  28
HETATM   28  C5  UNL     1       0.724  53.481 -23.979  1.00  0.00     0.028 C 
BRANCH  28  29
HETATM   29  C4  UNL     1       0.343  52.684 -22.762  1.00  0.00    -0.025 C 
HETATM   30  C2  UNL     1       0.619  52.952 -21.471  1.00  0.00    -0.091 C 
HETATM   31  C1  UNL     1       1.359  54.162 -20.971  1.00  0.00     0.042 C 
HETATM   32  C3  UNL     1       0.171  52.012 -20.382  1.00  0.00     0.042 C 
ENDBRANCH  28  29
ENDBRANCH  27  28
ENDBRANCH  25  27
ENDBRANCH   1  25
TORSDOF 4
ENDMDL
MODEL 4
REMARK minimizedAffinity -9.11107445
REMARK  4 active torsions:
REMARK  status: ('A' for Active; 'I' for Inactive)
REMARK    1  A    between atoms: C4_4  and  C5_5 
REMARK    2  A    between atoms: C5_5  and  C6_6 
REMARK    3  A    between atoms: C6_6  and  C7_7 
REMARK    4  A    between atoms: C7_7  and  C9_9 
ROOT
HETATM    1  C9  UNL     1      -0.941  51.728 -21.218  1.00  0.00    -0.002 C 
HETATM    2  C10 UNL     1      -0.317  50.742 -20.201  1.00  0.00     0.007 C 
HETATM    3  C11 UNL     1      -1.422  49.723 -19.839  1.00  0.00     0.015 C 
HETATM    4  C12 UNL     1      -2.732  50.352 -20.368  1.00  0.00    -0.013 C 
HETATM    5  C13 UNL     1      -3.203  51.361 -19.271  1.00  0.00     0.021 C 
HETATM    6  C14 UNL     1      -3.950  49.473 -20.641  1.00  0.00    -0.070 C 
HETATM    7  C15 UNL     1      -4.073  48.239 -20.125  1.00  0.00    -0.022 C 
HETATM    8  C16 UNL     1      -5.322  47.416 -20.191  1.00  0.00     0.035 C 
HETATM    9  C17 UNL     1      -6.577  48.209 -20.645  1.00  0.00     0.032 C 
HETATM   10  C18 UNL     1      -7.875  47.303 -20.687  1.00  0.00     0.068 C 
HETATM   11  C19 UNL     1      -7.836  46.071 -19.758  1.00  0.00     0.047 C 
HETATM   12  C20 UNL     1      -9.102  48.120 -20.216  1.00  0.00     0.047 C 
HETATM   13  O1  UNL     1      -8.203  46.878 -22.023  1.00  0.00    -0.310 OA
HETATM   14  C21 UNL     1      -7.204  46.272 -22.708  1.00  0.00     0.259 C 
HETATM   15  O2  UNL     1      -6.784  45.147 -22.490  1.00  0.00    -0.265 OA
HETATM   16  C22 UNL     1      -6.664  47.212 -23.737  1.00  0.00     0.112 C 
HETATM   17  C23 UNL     1      -5.689  48.213 -23.120  1.00  0.00     0.020 C 
HETATM   18  C24 UNL     1      -6.212  49.089 -21.925  1.00  0.00    -0.029 C 
HETATM   19  C25 UNL     1      -7.419  49.920 -22.419  1.00  0.00     0.016 C 
HETATM   20  C26 UNL     1      -5.084  50.128 -21.445  1.00  0.00     0.024 C 
HETATM   21  C27 UNL     1      -4.591  51.085 -22.580  1.00  0.00     0.010 C 
HETATM   22  C28 UNL     1      -3.314  51.890 -22.285  1.00  0.00     0.011 C 
HETATM   23  C29 UNL     1      -2.216  50.985 -21.710  1.00  0.00    -0.029 C 
HETATM   24  C30 UNL     1      -1.870  49.892 -22.765  1.00  0.00     0.016 C 
ENDROOT
BRANCH   1  25
HETATM   25  C7  UNL     1       0.016  52.465 -22.197  1.00  0.00    -0.014 C 
HETATM   26  C8  UNL     1       1.443  52.464 -21.619  1.00  0.00     0.010 C 
BRANCH  25  27
HETATM   27  C6  UNL     1       0.031  52.146 -23.710  1.00  0.00     0.008 C 
BRANCH  27  28
HETATM   28  C5  UNL     1       0.441  53.210 -24.737  1.00  0.00     0.028 C 
BRANCH  28  29
HETATM   29  C4  UNL     1       0.291  52.783 -26.170  1.00  0.00    -0.025 C 
HETATM   30  C2  UNL     1       1.130  52.029 -26.907  1.00  0.00    -0.091 C 
HETATM   31  C1  UNL     1       2.412  51.417 -26.414  1.00  0.00     0.042 C 
HETATM   32  C3  UNL     1       0.819  51.724 -28.350  1.00  0.00     0.042 C 
ENDBRANCH  28  29
ENDBRANCH  27  28
ENDBRANCH  25  27
ENDBRANCH   1  25
TORSDOF 4
ENDMDL
MODEL 5
REMARK minimizedAffinity -9.05891705
REMARK  4 active torsions:
REMARK  status: ('A' for Active; 'I' for Inactive)
REMARK    1  A    between atoms: C4_4  and  C5_5 
REMARK    2  A    between atoms: C5_5  and  C6_6 
REMARK    3  A    between atoms: C6_6  and  C7_7 
REMARK    4  A    between atoms: C7_7  and  C9_9 
ROOT
HETATM    1  C9  UNL     1      -1.873  51.393 -23.585  1.00  0.00    -0.002 C 
HETATM    2  C10 UNL     1      -2.821  52.319 -24.386  1.00  0.00     0.007 C 
HETATM    3  C11 UNL     1      -4.201  51.623 -24.412  1.00  0.00     0.015 C 
HETATM    4  C12 UNL     1      -3.925  50.173 -23.948  1.00  0.00    -0.013 C 
HETATM    5  C13 UNL     1      -3.430  49.399 -25.213  1.00  0.00     0.021 C 
HETATM    6  C14 UNL     1      -5.057  49.319 -23.383  1.00  0.00    -0.070 C 
HETATM    7  C15 UNL     1      -6.350  49.621 -23.582  1.00  0.00    -0.022 C 
HETATM    8  C16 UNL     1      -7.492  48.720 -23.229  1.00  0.00     0.035 C 
HETATM    9  C17 UNL     1      -7.067  47.269 -22.881  1.00  0.00     0.032 C 
HETATM   10  C18 UNL     1      -8.307  46.349 -22.527  1.00  0.00     0.068 C 
HETATM   11  C19 UNL     1      -9.648  46.807 -23.139  1.00  0.00     0.047 C 
HETATM   12  C20 UNL     1      -8.080  44.923 -23.083  1.00  0.00     0.047 C 
HETATM   13  O1  UNL     1      -8.470  46.173 -21.107  1.00  0.00    -0.310 OA
HETATM   14  C21 UNL     1      -8.526  47.312 -20.377  1.00  0.00     0.259 C 
HETATM   15  O2  UNL     1      -9.470  48.086 -20.355  1.00  0.00    -0.265 OA
HETATM   16  C22 UNL     1      -7.238  47.498 -19.643  1.00  0.00     0.112 C 
HETATM   17  C23 UNL     1      -6.160  48.085 -20.552  1.00  0.00     0.020 C 
HETATM   18  C24 UNL     1      -5.828  47.307 -21.876  1.00  0.00    -0.029 C 
HETATM   19  C25 UNL     1      -5.342  45.888 -21.502  1.00  0.00     0.016 C 
HETATM   20  C26 UNL     1      -4.630  48.025 -22.672  1.00  0.00     0.024 C 
HETATM   21  C27 UNL     1      -3.315  48.159 -21.837  1.00  0.00     0.010 C 
HETATM   22  C28 UNL     1      -2.237  49.095 -22.409  1.00  0.00     0.011 C 
HETATM   23  C29 UNL     1      -2.846  50.438 -22.836  1.00  0.00    -0.029 C 
HETATM   24  C30 UNL     1      -3.468  51.122 -21.583  1.00  0.00     0.016 C 
ENDROOT
BRANCH   1  25
HETATM   25  C7  UNL     1      -0.647  52.039 -22.884  1.00  0.00    -0.014 C 
HETATM   26  C8  UNL     1      -0.301  51.241 -21.614  1.00  0.00     0.010 C 
BRANCH  25  27
HETATM   27  C6  UNL     1       0.632  52.412 -23.669  1.00  0.00     0.008 C 
BRANCH  27  28
HETATM   28  C5  UNL     1       0.595  53.469 -24.782  1.00  0.00     0.028 C 
BRANCH  28  29
HETATM   29  C4  UNL     1       0.314  52.920 -26.153  1.00  0.00    -0.025 C 
HETATM   30  C2  UNL     1       1.086  52.104 -26.898  1.00  0.00    -0.091 C 
HETATM   31  C1  UNL     1       2.413  51.535 -26.476  1.00  0.00     0.042 C 
HETATM   32  C3  UNL     1       0.643  51.677 -28.273  1.00  0.00     0.042 C 
ENDBRANCH  28  29
ENDBRANCH  27  28
ENDBRANCH  25  27
ENDBRANCH   1  25
TORSDOF 4
ENDMDL
MODEL 6
REMARK minimizedAffinity -8.95857811
REMARK  4 active torsions:
REMARK  status: ('A' for Active; 'I' for Inactive)
REMARK    1  A    between atoms: C4_4  and  C5_5 
REMARK    2  A    between atoms: C5_5  and  C6_6 
REMARK    3  A    between atoms: C6_6  and  C7_7 
REMARK    4  A    between atoms: C7_7  and  C9_9 
ROOT
HETATM    1  C9  UNL     1      -4.230  49.904 -21.132  1.00  0.00    -0.002 C 
HETATM    2  C10 UNL     1      -5.323  49.571 -22.176  1.00  0.00     0.007 C 
HETATM    3  C11 UNL     1      -4.883  50.235 -23.502  1.00  0.00     0.015 C 
HETATM    4  C12 UNL     1      -3.757  51.216 -23.101  1.00  0.00    -0.013 C 
HETATM    5  C13 UNL     1      -4.470  52.515 -22.604  1.00  0.00     0.021 C 
HETATM    6  C14 UNL     1      -2.750  51.696 -24.143  1.00  0.00    -0.070 C 
HETATM    7  C15 UNL     1      -2.981  51.596 -25.463  1.00  0.00    -0.022 C 
HETATM    8  C16 UNL     1      -2.130  52.226 -26.520  1.00  0.00     0.035 C 
HETATM    9  C17 UNL     1      -1.112  53.263 -25.975  1.00  0.00     0.032 C 
HETATM   10  C18 UNL     1      -0.243  53.913 -27.129  1.00  0.00     0.068 C 
HETATM   11  C19 UNL     1      -0.903  53.898 -28.525  1.00  0.00     0.047 C 
HETATM   12  C20 UNL     1       0.006  55.409 -26.821  1.00  0.00     0.047 C 
HETATM   13  O1  UNL     1       1.070  53.329 -27.221  1.00  0.00    -0.310 OA
HETATM   14  C21 UNL     1       1.106  51.980 -27.330  1.00  0.00     0.259 C 
HETATM   15  O2  UNL     1       0.793  51.347 -28.326  1.00  0.00    -0.265 OA
HETATM   16  C22 UNL     1       1.540  51.386 -26.029  1.00  0.00     0.112 C 
HETATM   17  C23 UNL     1       0.383  51.315 -25.036  1.00  0.00     0.020 C 
HETATM   18  C24 UNL     1      -0.366  52.656 -24.703  1.00  0.00    -0.029 C 
HETATM   19  C25 UNL     1       0.652  53.650 -24.099  1.00  0.00     0.016 C 
HETATM   20  C26 UNL     1      -1.505  52.411 -23.594  1.00  0.00     0.024 C 
HETATM   21  C27 UNL     1      -0.959  51.806 -22.259  1.00  0.00     0.010 C 
HETATM   22  C28 UNL     1      -2.011  51.263 -21.277  1.00  0.00     0.011 C 
HETATM   23  C29 UNL     1      -3.026  50.367 -22.000  1.00  0.00    -0.029 C 
HETATM   24  C30 UNL     1      -2.267  49.156 -22.618  1.00  0.00     0.016 C 
ENDROOT
BRANCH   1  25
HETATM   25  C7  UNL     1      -4.058  48.937 -19.928  1.00  0.00    -0.014 C 
HETATM   26  C8  UNL     1      -3.893  47.496 -20.445  1.00  0.00     0.010 C 
BRANCH  25  27
HETATM   27  C6  UNL     1      -3.058  49.234 -18.786  1.00  0.00     0.008 C 
BRANCH  27  28
HETATM   28  C5  UNL     1      -1.636  48.657 -18.813  1.00  0.00     0.028 C 
BRANCH  28  29
HETATM   29  C4  UNL     1      -0.806  48.991 -17.605  1.00  0.00    -0.025 C 
HETATM   30  C2  UNL     1      -0.114  50.121 -17.356  1.00  0.00    -0.091 C 
HETATM   31  C1  UNL     1      -0.062  51.326 -18.254  1.00  0.00     0.042 C 
HETATM   32  C3  UNL     1       0.688  50.264 -16.088  1.00  0.00     0.042 C 
ENDBRANCH  28  29
ENDBRANCH  27  28
ENDBRANCH  25  27
ENDBRANCH   1  25
TORSDOF 4
ENDMDL
MODEL 7
REMARK minimizedAffinity -8.93014336
REMARK  4 active torsions:
REMARK  status: ('A' for Active; 'I' for Inactive)
REMARK    1  A    between atoms: C4_4  and  C5_5 
REMARK    2  A    between atoms: C5_5  and  C6_6 
REMARK    3  A    between atoms: C6_6  and  C7_7 
REMARK    4  A    between atoms: C7_7  and  C9_9 
ROOT
HETATM    1  C9  UNL     1      -1.302  51.348 -24.039  1.00  0.00    -0.002 C 
HETATM    2  C10 UNL     1      -2.236  52.098 -25.019  1.00  0.00     0.007 C 
HETATM    3  C11 UNL     1      -3.597  51.364 -24.979  1.00  0.00     0.015 C 
HETATM    4  C12 UNL     1      -3.306  50.022 -24.268  1.00  0.00    -0.013 C 
HETATM    5  C13 UNL     1      -2.739  49.063 -25.366  1.00  0.00     0.021 C 
HETATM    6  C14 UNL     1      -4.439  49.239 -23.611  1.00  0.00    -0.070 C 
HETATM    7  C15 UNL     1      -5.730  49.463 -23.907  1.00  0.00    -0.022 C 
HETATM    8  C16 UNL     1      -6.864  48.599 -23.452  1.00  0.00     0.035 C 
HETATM    9  C17 UNL     1      -6.419  47.240 -22.848  1.00  0.00     0.032 C 
HETATM   10  C18 UNL     1      -7.650  46.354 -22.392  1.00  0.00     0.068 C 
HETATM   11  C19 UNL     1      -8.975  46.661 -23.123  1.00  0.00     0.047 C 
HETATM   12  C20 UNL     1      -7.364  44.863 -22.691  1.00  0.00     0.047 C 
HETATM   13  O1  UNL     1      -7.869  46.412 -20.970  1.00  0.00    -0.310 OA
HETATM   14  C21 UNL     1      -7.984  47.655 -20.444  1.00  0.00     0.259 C 
HETATM   15  O2  UNL     1      -8.946  48.392 -20.588  1.00  0.00    -0.265 OA
HETATM   16  C22 UNL     1      -6.732  48.000 -19.704  1.00  0.00     0.112 C 
HETATM   17  C23 UNL     1      -5.631  48.461 -20.657  1.00  0.00     0.020 C 
HETATM   18  C24 UNL     1      -5.225  47.484 -21.818  1.00  0.00    -0.029 C 
HETATM   19  C25 UNL     1      -4.720  46.163 -21.193  1.00  0.00     0.016 C 
HETATM   20  C26 UNL     1      -4.012  48.095 -22.678  1.00  0.00     0.024 C 
HETATM   21  C27 UNL     1      -2.737  48.408 -21.828  1.00  0.00     0.010 C 
HETATM   22  C28 UNL     1      -1.659  49.268 -22.508  1.00  0.00     0.011 C 
HETATM   23  C29 UNL     1      -2.282  50.501 -23.177  1.00  0.00    -0.029 C 
HETATM   24  C30 UNL     1      -2.973  51.365 -22.081  1.00  0.00     0.016 C 
ENDROOT
BRANCH   1  25
HETATM   25  C7  UNL     1      -0.122  52.140 -23.411  1.00  0.00    -0.014 C 
HETATM   26  C8  UNL     1       0.209  53.356 -24.295  1.00  0.00     0.010 C 
BRANCH  25  27
HETATM   27  C6  UNL     1      -0.110  52.524 -21.913  1.00  0.00     0.008 C 
BRANCH  27  28
HETATM   28  C5  UNL     1       0.960  53.468 -21.349  1.00  0.00     0.028 C 
BRANCH  28  29
HETATM   29  C4  UNL     1       1.358  53.181 -19.928  1.00  0.00    -0.025 C 
HETATM   30  C2  UNL     1       0.593  52.697 -18.930  1.00  0.00    -0.091 C 
HETATM   31  C1  UNL     1      -0.853  52.303 -19.054  1.00  0.00     0.042 C 
HETATM   32  C3  UNL     1       1.168  52.497 -17.552  1.00  0.00     0.042 C 
ENDBRANCH  28  29
ENDBRANCH  27  28
ENDBRANCH  25  27
ENDBRANCH   1  25
TORSDOF 4
ENDMDL
MODEL 8
REMARK minimizedAffinity -8.75994301
REMARK  4 active torsions:
REMARK  status: ('A' for Active; 'I' for Inactive)
REMARK    1  A    between atoms: C4_4  and  C5_5 
REMARK    2  A    between atoms: C5_5  and  C6_6 
REMARK    3  A    between atoms: C6_6  and  C7_7 
REMARK    4  A    between atoms: C7_7  and  C9_9 
ROOT
HETATM    1  C9  UNL     1      -2.375  50.707 -24.653  1.00  0.00    -0.002 C 
HETATM    2  C10 UNL     1      -3.435  51.754 -25.071  1.00  0.00     0.007 C 
HETATM    3  C11 UNL     1      -4.761  51.333 -24.396  1.00  0.00     0.015 C 
HETATM    4  C12 UNL     1      -4.520  49.883 -23.913  1.00  0.00    -0.013 C 
HETATM    5  C13 UNL     1      -4.775  48.964 -25.152  1.00  0.00     0.021 C 
HETATM    6  C14 UNL     1      -5.382  49.291 -22.801  1.00  0.00    -0.070 C 
HETATM    7  C15 UNL     1      -6.564  49.823 -22.451  1.00  0.00    -0.022 C 
HETATM    8  C16 UNL     1      -7.539  49.175 -21.517  1.00  0.00     0.035 C 
HETATM    9  C17 UNL     1      -7.219  47.689 -21.202  1.00  0.00     0.032 C 
HETATM   10  C18 UNL     1      -8.282  47.043 -20.222  1.00  0.00     0.068 C 
HETATM   11  C19 UNL     1      -9.671  47.715 -20.237  1.00  0.00     0.047 C 
HETATM   12  C20 UNL     1      -8.544  45.572 -20.626  1.00  0.00     0.047 C 
HETATM   13  O1  UNL     1      -7.804  46.975 -18.865  1.00  0.00    -0.310 OA
HETATM   14  C21 UNL     1      -7.354  48.140 -18.342  1.00  0.00     0.259 C 
HETATM   15  O2  UNL     1      -8.059  49.080 -18.011  1.00  0.00    -0.265 OA
HETATM   16  C22 UNL     1      -5.861  48.115 -18.280  1.00  0.00     0.112 C 
HETATM   17  C23 UNL     1      -5.242  48.438 -19.638  1.00  0.00     0.020 C 
HETATM   18  C24 UNL     1      -5.668  47.543 -20.857  1.00  0.00    -0.029 C 
HETATM   19  C25 UNL     1      -5.278  46.079 -20.551  1.00  0.00     0.016 C 
HETATM   20  C26 UNL     1      -4.873  47.977 -22.186  1.00  0.00     0.024 C 
HETATM   21  C27 UNL     1      -3.318  47.902 -22.038  1.00  0.00     0.010 C 
HETATM   22  C28 UNL     1      -2.495  48.584 -23.144  1.00  0.00     0.011 C 
HETATM   23  C29 UNL     1      -3.028  49.994 -23.434  1.00  0.00    -0.029 C 
HETATM   24  C30 UNL     1      -2.903  50.848 -22.138  1.00  0.00     0.016 C 
ENDROOT
BRANCH   1  25
HETATM   25  C7  UNL     1      -0.884  51.143 -24.653  1.00  0.00    -0.014 C 
HETATM   26  C8  UNL     1      -0.269  50.872 -26.039  1.00  0.00     0.010 C 
BRANCH  25  27
HETATM   27  C6  UNL     1      -0.443  52.523 -24.112  1.00  0.00     0.008 C 
BRANCH  27  28
HETATM   28  C5  UNL     1       0.672  52.640 -23.064  1.00  0.00     0.028 C 
BRANCH  28  29
HETATM   29  C4  UNL     1       0.333  52.047 -21.725  1.00  0.00    -0.025 C 
HETATM   30  C2  UNL     1       0.348  52.649 -20.520  1.00  0.00    -0.091 C 
HETATM   31  C1  UNL     1       0.687  54.093 -20.271  1.00  0.00     0.042 C 
HETATM   32  C3  UNL     1      -0.003  51.877 -19.274  1.00  0.00     0.042 C 
ENDBRANCH  28  29
ENDBRANCH  27  28
ENDBRANCH  25  27
ENDBRANCH   1  25
TORSDOF 4
ENDMDL
MODEL 9
REMARK minimizedAffinity -8.55992031
REMARK  4 active torsions:
REMARK  status: ('A' for Active; 'I' for Inactive)
REMARK    1  A    between atoms: C4_4  and  C5_5 
REMARK    2  A    between atoms: C5_5  and  C6_6 
REMARK    3  A    between atoms: C6_6  and  C7_7 
REMARK    4  A    between atoms: C7_7  and  C9_9 
ROOT
HETATM    1  C9  UNL     1      -2.544  49.843 -22.747  1.00  0.00    -0.002 C 
HETATM    2  C10 UNL     1      -3.513  48.637 -22.690  1.00  0.00     0.007 C 
HETATM    3  C11 UNL     1      -3.377  48.028 -21.275  1.00  0.00     0.015 C 
HETATM    4  C12 UNL     1      -2.094  48.663 -20.689  1.00  0.00    -0.013 C 
HETATM    5  C13 UNL     1      -0.900  47.821 -21.245  1.00  0.00     0.021 C 
HETATM    6  C14 UNL     1      -1.878  48.703 -19.179  1.00  0.00    -0.070 C 
HETATM    7  C15 UNL     1      -2.563  47.913 -18.336  1.00  0.00    -0.022 C 
HETATM    8  C16 UNL     1      -2.254  47.763 -16.879  1.00  0.00     0.035 C 
HETATM    9  C17 UNL     1      -0.886  48.364 -16.458  1.00  0.00     0.032 C 
HETATM   10  C18 UNL     1      -0.596  48.171 -14.914  1.00  0.00     0.068 C 
HETATM   11  C19 UNL     1      -1.333  46.983 -14.259  1.00  0.00     0.047 C 
HETATM   12  C20 UNL     1       0.908  47.879 -14.693  1.00  0.00     0.047 C 
HETATM   13  O1  UNL     1      -0.857  49.366 -14.154  1.00  0.00    -0.310 OA
HETATM   14  C21 UNL     1      -2.085  49.911 -14.321  1.00  0.00     0.259 C 
HETATM   15  O2  UNL     1      -3.125  49.446 -13.882  1.00  0.00    -0.265 OA
HETATM   16  C22 UNL     1      -1.975  51.140 -15.165  1.00  0.00     0.112 C 
HETATM   17  C23 UNL     1      -1.885  50.789 -16.648  1.00  0.00     0.020 C 
HETATM   18  C24 UNL     1      -0.731  49.820 -17.093  1.00  0.00    -0.029 C 
HETATM   19  C25 UNL     1       0.624  50.470 -16.726  1.00  0.00     0.016 C 
HETATM   20  C26 UNL     1      -0.742  49.615 -18.687  1.00  0.00     0.024 C 
HETATM   21  C27 UNL     1      -0.603  50.949 -19.491  1.00  0.00     0.010 C 
HETATM   22  C28 UNL     1      -0.910  50.873 -20.996  1.00  0.00     0.011 C 
HETATM   23  C29 UNL     1      -2.226  50.125 -21.250  1.00  0.00    -0.029 C 
HETATM   24  C30 UNL     1      -3.382  50.904 -20.557  1.00  0.00     0.016 C 
ENDROOT
BRANCH   1  25
HETATM   25  C7  UNL     1      -2.862  50.983 -23.753  1.00  0.00    -0.014 C 
HETATM   26  C8  UNL     1      -3.682  52.078 -23.048  1.00  0.00     0.010 C 
BRANCH  25  27
HETATM   27  C6  UNL     1      -1.765  51.603 -24.648  1.00  0.00     0.008 C 
BRANCH  27  28
HETATM   28  C5  UNL     1      -1.078  50.775 -25.743  1.00  0.00     0.028 C 
BRANCH  28  29
HETATM   29  C4  UNL     1       0.401  51.015 -25.870  1.00  0.00    -0.025 C 
HETATM   30  C2  UNL     1       1.083  51.459 -26.944  1.00  0.00    -0.091 C 
HETATM   31  C1  UNL     1       0.475  51.851 -28.263  1.00  0.00     0.042 C 
HETATM   32  C3  UNL     1       2.581  51.614 -26.888  1.00  0.00     0.042 C 
ENDBRANCH  28  29
ENDBRANCH  27  28
ENDBRANCH  25  27
ENDBRANCH   1  25
TORSDOF 4
ENDMDL
