MODEL 1
REMARK minimizedAffinity -8.22835636
REMARK CNNscore 0.524539471
REMARK CNNaffinity 6.43420172
REMARK  20 active torsions:
REMARK  status: ('A' for Active; 'I' for Inactive)
REMARK    1  A    between atoms: C2_2  and  C3_3 
REMARK    2  A    between atoms: C2_2  and  C28_35 
REMARK    3  A    between atoms: C4_4  and  C5_5 
REMARK    4  A    between atoms: C6_6  and  C7_7 
REMARK    5  A    between atoms: C6_6  and  C11_14 
REMARK    6  A    between atoms: C7_7  and  O1_8 
REMARK    7  A    between atoms: O1_8  and  C8_9 
REMARK    8  A    between atoms: C8_9  and  C9_10 
REMARK    9  A    between atoms: C9_10  and  O2_11 
REMARK   10  A    between atoms: C9_10  and  C10_12 
REMARK   11  A    between atoms: C10_12  and  O3_13 
REMARK   12  A    between atoms: C15_18  and  O4_19 
REMARK   13  A    between atoms: C16_20  and  C17_21 
REMARK   14  A    between atoms: C17_21  and  C18_22 
REMARK   15  A    between atoms: C18_22  and  C19_23 
REMARK   16  A    between atoms: C19_23  and  O5_24 
REMARK   17  A    between atoms: C21_26  and  C23_28 
REMARK   18  A    between atoms: C26_32  and  O7_34 
REMARK   19  A    between atoms: C28_35  and  C29_36 
REMARK   20  A    between atoms: C29_36  and  C30_37 
ROOT
HETATM    1  C11 UNL     1      -7.476  46.845 -27.984  1.00  0.00     0.046 C 
HETATM    2  C12 UNL     1      -8.492  46.012 -28.779  1.00  0.00     0.013 C 
HETATM    3  C13 UNL     1      -9.555  45.685 -27.741  1.00  0.00     0.017 C 
HETATM    4  C14 UNL     1      -9.723  46.976 -26.875  1.00  0.00     0.024 C 
HETATM    5  C15 UNL     1      -8.433  47.811 -27.241  1.00  0.00     0.138 C 
HETATM    6  C16 UNL     1      -9.648  46.562 -25.337  1.00  0.00     0.029 C 
HETATM    7  C20 UNL     1     -10.858  45.685 -24.978  1.00  0.00    -0.066 C 
HETATM    8  C21 UNL     1     -10.813  44.411 -24.511  1.00  0.00    -0.021 C 
HETATM    9  C22 UNL     1     -12.027  43.571 -24.199  1.00  0.00     0.052 C 
HETATM   10  C24 UNL     1     -12.162  46.431 -25.197  1.00  0.00     0.038 C 
HETATM   11  C25 UNL     1     -12.305  46.868 -26.649  1.00  0.00     0.042 C 
HETATM   12  C26 UNL     1     -11.103  47.675 -27.203  1.00  0.00     0.065 C 
HETATM   13  C27 UNL     1     -11.398  47.906 -28.705  1.00  0.00     0.047 C 
ENDROOT
BRANCH   1  14
HETATM   14  C6  UNL     1      -6.273  47.350 -28.794  1.00  0.00    -0.050 C 
HETATM   15  C5  UNL     1      -5.156  47.982 -28.361  1.00  0.00     0.005 C 
BRANCH  15  16
HETATM   16  C4  UNL     1      -4.738  48.287 -27.010  1.00  0.00     0.001 C 
HETATM   17  C3  UNL     1      -3.548  48.831 -26.707  1.00  0.00     0.006 C 
BRANCH  17  18
HETATM   18  C2  UNL     1      -3.053  49.128 -25.364  1.00  0.00    -0.067 C 
HETATM   19  C1  UNL     1      -3.515  48.418 -24.321  1.00  0.00     0.019 C 
BRANCH  18  20
HETATM   20  C28 UNL     1      -2.002  50.207 -25.145  1.00  0.00     0.041 C 
BRANCH  20  21
HETATM   21  C29 UNL     1      -1.277  50.666 -26.421  1.00  0.00     0.032 C 
BRANCH  21  22
HETATM   22  C30 UNL     1       0.209  50.831 -26.229  1.00  0.00    -0.024 C 
HETATM   23  C31 UNL     1       1.097  51.399 -27.067  1.00  0.00    -0.091 C 
HETATM   24  C32 UNL     1       2.552  51.500 -26.687  1.00  0.00     0.042 C 
HETATM   25  C33 UNL     1       0.775  51.969 -28.421  1.00  0.00     0.042 C 
ENDBRANCH  21  22
ENDBRANCH  20  21
ENDBRANCH  18  20
ENDBRANCH  17  18
ENDBRANCH  15  16
BRANCH  14  26
HETATM   26  C7  UNL     1      -6.317  46.995 -30.274  1.00  0.00     0.202 C 
BRANCH  26  27
HETATM   27  O1  UNL     1      -6.133  48.166 -31.077  1.00  0.00    -0.384 OA
BRANCH  27  28
HETATM   28  C8  UNL     1      -4.977  48.087 -31.922  1.00  0.00     0.201 C 
BRANCH  28  29
HETATM   29  C9  UNL     1      -5.379  47.453 -33.262  1.00  0.00     0.165 C 
BRANCH  29  30
HETATM   30  O2  UNL     1      -4.786  46.149 -33.364  1.00  0.00    -0.391 OA
HETATM   31  H11 UNL     1      -3.965  46.207 -32.831  1.00  0.00     0.210 HD
ENDBRANCH  29  30
BRANCH  29  32
HETATM   32  C10 UNL     1      -4.961  48.280 -34.487  1.00  0.00     0.198 C 
BRANCH  32  33
HETATM   33  O3  UNL     1      -3.720  48.953 -34.290  1.00  0.00    -0.398 OA
HETATM   34  H14 UNL     1      -3.097  48.256 -34.007  1.00  0.00     0.209 HD
ENDBRANCH  32  33
ENDBRANCH  29  32
ENDBRANCH  28  29
ENDBRANCH  27  28
ENDBRANCH  26  27
ENDBRANCH  14  26
ENDBRANCH   1  14
BRANCH   5  35
HETATM   35  O4  UNL     1      -8.730  48.952 -28.031  1.00  0.00    -0.394 OA
HETATM   36  H21 UNL     1      -9.364  49.482 -27.506  1.00  0.00     0.210 HD
ENDBRANCH   5  35
BRANCH   6  37
HETATM   37  C17 UNL     1      -9.506  47.731 -24.312  1.00  0.00     0.012 C 
BRANCH  37  38
HETATM   38  C18 UNL     1      -8.219  47.642 -23.482  1.00  0.00     0.027 C 
BRANCH  38  39
HETATM   39  C19 UNL     1      -7.553  49.006 -23.341  1.00  0.00     0.164 C 
BRANCH  39  40
HETATM   40  O5  UNL     1      -7.910  49.834 -24.440  1.00  0.00    -0.401 OA
HETATM   41  H29 UNL     1      -7.652  49.371 -25.256  1.00  0.00     0.209 HD
ENDBRANCH  39  40
ENDBRANCH  38  39
ENDBRANCH  37  38
ENDBRANCH   6  37
BRANCH  12  42
HETATM   42  O7  UNL     1     -11.096  48.973 -26.585  1.00  0.00    -0.389 OA
HETATM   43  H41 UNL     1     -11.954  49.396 -26.772  1.00  0.00     0.210 HD
ENDBRANCH  12  42
BRANCH   8  44
HETATM   44  C23 UNL     1      -9.524  43.686 -24.245  1.00  0.00     0.265 C 
HETATM   45  O6  UNL     1      -8.911  43.801 -23.189  1.00  0.00    -0.302 OA
ENDBRANCH   8  44
TORSDOF 20
ENDMDL
MODEL 2
REMARK minimizedAffinity -7.41723585
REMARK CNNscore 0.375379771
REMARK CNNaffinity 7.11220551
REMARK  20 active torsions:
REMARK  status: ('A' for Active; 'I' for Inactive)
REMARK    1  A    between atoms: C2_2  and  C3_3 
REMARK    2  A    between atoms: C2_2  and  C28_35 
REMARK    3  A    between atoms: C4_4  and  C5_5 
REMARK    4  A    between atoms: C6_6  and  C7_7 
REMARK    5  A    between atoms: C6_6  and  C11_14 
REMARK    6  A    between atoms: C7_7  and  O1_8 
REMARK    7  A    between atoms: O1_8  and  C8_9 
REMARK    8  A    between atoms: C8_9  and  C9_10 
REMARK    9  A    between atoms: C9_10  and  O2_11 
REMARK   10  A    between atoms: C9_10  and  C10_12 
REMARK   11  A    between atoms: C10_12  and  O3_13 
REMARK   12  A    between atoms: C15_18  and  O4_19 
REMARK   13  A    between atoms: C16_20  and  C17_21 
REMARK   14  A    between atoms: C17_21  and  C18_22 
REMARK   15  A    between atoms: C18_22  and  C19_23 
REMARK   16  A    between atoms: C19_23  and  O5_24 
REMARK   17  A    between atoms: C21_26  and  C23_28 
REMARK   18  A    between atoms: C26_32  and  O7_34 
REMARK   19  A    between atoms: C28_35  and  C29_36 
REMARK   20  A    between atoms: C29_36  and  C30_37 
ROOT
HETATM    1  C11 UNL     1      -1.952  49.015 -19.120  1.00  0.00     0.046 C 
HETATM    2  C12 UNL     1      -1.363  48.255 -20.317  1.00  0.00     0.013 C 
HETATM    3  C13 UNL     1      -2.573  47.538 -20.898  1.00  0.00     0.017 C 
HETATM    4  C14 UNL     1      -3.762  48.548 -20.794  1.00  0.00     0.024 C 
HETATM    5  C15 UNL     1      -3.217  49.626 -19.776  1.00  0.00     0.138 C 
HETATM    6  C16 UNL     1      -5.002  47.796 -20.130  1.00  0.00     0.029 C 
HETATM    7  C20 UNL     1      -5.502  46.691 -21.074  1.00  0.00    -0.066 C 
HETATM    8  C21 UNL     1      -5.555  45.363 -20.796  1.00  0.00    -0.021 C 
HETATM    9  C22 UNL     1      -6.025  44.304 -21.762  1.00  0.00     0.052 C 
HETATM   10  C24 UNL     1      -5.963  47.268 -22.400  1.00  0.00     0.038 C 
HETATM   11  C25 UNL     1      -4.831  48.011 -23.096  1.00  0.00     0.042 C 
HETATM   12  C26 UNL     1      -4.139  49.095 -22.229  1.00  0.00     0.065 C 
HETATM   13  C27 UNL     1      -2.958  49.630 -23.075  1.00  0.00     0.047 C 
ENDROOT
BRANCH   1  14
HETATM   14  C6  UNL     1      -0.948  49.869 -18.332  1.00  0.00    -0.050 C 
HETATM   15  C5  UNL     1      -0.028  50.749 -18.794  1.00  0.00     0.005 C 
BRANCH  15  16
HETATM   16  C4  UNL     1       0.218  51.196 -20.147  1.00  0.00     0.001 C 
HETATM   17  C3  UNL     1       0.378  52.486 -20.484  1.00  0.00     0.006 C 
BRANCH  17  18
HETATM   18  C2  UNL     1       0.591  53.005 -21.835  1.00  0.00    -0.067 C 
HETATM   19  C1  UNL     1       1.302  54.133 -22.001  1.00  0.00     0.019 C 
BRANCH  18  20
HETATM   20  C28 UNL     1       0.045  52.264 -23.046  1.00  0.00     0.041 C 
BRANCH  20  21
HETATM   21  C29 UNL     1       0.063  53.073 -24.355  1.00  0.00     0.032 C 
BRANCH  21  22
HETATM   22  C30 UNL     1       1.213  52.709 -25.258  1.00  0.00    -0.024 C 
HETATM   23  C31 UNL     1       1.260  51.741 -26.194  1.00  0.00    -0.091 C 
HETATM   24  C32 UNL     1       2.499  51.543 -27.028  1.00  0.00     0.042 C 
HETATM   25  C33 UNL     1       0.147  50.779 -26.507  1.00  0.00     0.042 C 
ENDBRANCH  21  22
ENDBRANCH  20  21
ENDBRANCH  18  20
ENDBRANCH  17  18
ENDBRANCH  15  16
BRANCH  14  26
HETATM   26  C7  UNL     1      -1.090  49.772 -16.819  1.00  0.00     0.202 C 
BRANCH  26  27
HETATM   27  O1  UNL     1      -0.996  51.069 -16.221  1.00  0.00    -0.384 OA
BRANCH  27  28
HETATM   28  C8  UNL     1      -0.214  51.074 -15.019  1.00  0.00     0.201 C 
BRANCH  28  29
HETATM   29  C9  UNL     1       1.241  50.724 -15.367  1.00  0.00     0.165 C 
BRANCH  29  30
HETATM   30  O2  UNL     1       1.846  50.054 -14.250  1.00  0.00    -0.391 OA
HETATM   31  H11 UNL     1       1.375  50.405 -13.465  1.00  0.00     0.210 HD
ENDBRANCH  29  30
BRANCH  29  32
HETATM   32  C10 UNL     1       2.099  51.944 -15.732  1.00  0.00     0.198 C 
BRANCH  32  33
HETATM   33  O3  UNL     1       1.311  53.106 -15.983  1.00  0.00    -0.398 OA
HETATM   34  H14 UNL     1       0.741  53.199 -15.196  1.00  0.00     0.209 HD
ENDBRANCH  32  33
ENDBRANCH  29  32
ENDBRANCH  28  29
ENDBRANCH  27  28
ENDBRANCH  26  27
ENDBRANCH  14  26
ENDBRANCH   1  14
BRANCH   5  35
HETATM   35  O4  UNL     1      -2.924  50.865 -20.403  1.00  0.00    -0.394 OA
HETATM   36  H21 UNL     1      -3.761  51.157 -20.820  1.00  0.00     0.210 HD
ENDBRANCH   5  35
BRANCH   6  37
HETATM   37  C17 UNL     1      -6.193  48.695 -19.673  1.00  0.00     0.012 C 
BRANCH  37  38
HETATM   38  C18 UNL     1      -7.374  47.885 -19.121  1.00  0.00     0.027 C 
BRANCH  38  39
HETATM   39  C19 UNL     1      -8.231  48.724 -18.180  1.00  0.00     0.164 C 
BRANCH  39  40
HETATM   40  O5  UNL     1      -8.145  48.208 -16.859  1.00  0.00    -0.401 OA
HETATM   41  H29 UNL     1      -8.417  47.274 -16.886  1.00  0.00     0.209 HD
ENDBRANCH  39  40
ENDBRANCH  38  39
ENDBRANCH  37  38
ENDBRANCH   6  37
BRANCH  12  42
HETATM   42  O7  UNL     1      -5.048  50.195 -22.056  1.00  0.00    -0.389 OA
HETATM   43  H41 UNL     1      -5.294  50.520 -22.941  1.00  0.00     0.210 HD
ENDBRANCH  12  42
BRANCH   8  44
HETATM   44  C23 UNL     1      -5.148  44.793 -19.466  1.00  0.00     0.265 C 
HETATM   45  O6  UNL     1      -5.923  44.715 -18.519  1.00  0.00    -0.302 OA
ENDBRANCH   8  44
TORSDOF 20
ENDMDL
MODEL 3
REMARK minimizedAffinity -8.04687309
REMARK CNNscore 0.344739348
REMARK CNNaffinity 7.13742447
REMARK  20 active torsions:
REMARK  status: ('A' for Active; 'I' for Inactive)
REMARK    1  A    between atoms: C2_2  and  C3_3 
REMARK    2  A    between atoms: C2_2  and  C28_35 
REMARK    3  A    between atoms: C4_4  and  C5_5 
REMARK    4  A    between atoms: C6_6  and  C7_7 
REMARK    5  A    between atoms: C6_6  and  C11_14 
REMARK    6  A    between atoms: C7_7  and  O1_8 
REMARK    7  A    between atoms: O1_8  and  C8_9 
REMARK    8  A    between atoms: C8_9  and  C9_10 
REMARK    9  A    between atoms: C9_10  and  O2_11 
REMARK   10  A    between atoms: C9_10  and  C10_12 
REMARK   11  A    between atoms: C10_12  and  O3_13 
REMARK   12  A    between atoms: C15_18  and  O4_19 
REMARK   13  A    between atoms: C16_20  and  C17_21 
REMARK   14  A    between atoms: C17_21  and  C18_22 
REMARK   15  A    between atoms: C18_22  and  C19_23 
REMARK   16  A    between atoms: C19_23  and  O5_24 
REMARK   17  A    between atoms: C21_26  and  C23_28 
REMARK   18  A    between atoms: C26_32  and  O7_34 
REMARK   19  A    between atoms: C28_35  and  C29_36 
REMARK   20  A    between atoms: C29_36  and  C30_37 
ROOT
HETATM    1  C11 UNL     1      -3.788  49.087 -25.132  1.00  0.00     0.046 C 
HETATM    2  C12 UNL     1      -4.920  48.140 -24.708  1.00  0.00     0.013 C 
HETATM    3  C13 UNL     1      -4.847  48.177 -23.188  1.00  0.00     0.017 C 
HETATM    4  C14 UNL     1      -4.539  49.662 -22.808  1.00  0.00     0.024 C 
HETATM    5  C15 UNL     1      -4.053  50.279 -24.178  1.00  0.00     0.138 C 
HETATM    6  C16 UNL     1      -3.321  49.674 -21.778  1.00  0.00     0.029 C 
HETATM    7  C20 UNL     1      -3.750  49.009 -20.462  1.00  0.00    -0.066 C 
HETATM    8  C21 UNL     1      -3.189  47.908 -19.899  1.00  0.00    -0.021 C 
HETATM    9  C22 UNL     1      -3.660  47.266 -18.618  1.00  0.00     0.052 C 
HETATM   10  C24 UNL     1      -4.908  49.754 -19.822  1.00  0.00     0.038 C 
HETATM   11  C25 UNL     1      -6.114  49.791 -20.750  1.00  0.00     0.042 C 
HETATM   12  C26 UNL     1      -5.819  50.337 -22.171  1.00  0.00     0.065 C 
HETATM   13  C27 UNL     1      -7.133  50.174 -22.973  1.00  0.00     0.047 C 
ENDROOT
BRANCH   1  14
HETATM   14  C6  UNL     1      -3.629  49.274 -26.648  1.00  0.00    -0.050 C 
HETATM   15  C5  UNL     1      -2.790  50.094 -27.324  1.00  0.00     0.005 C 
BRANCH  15  16
HETATM   16  C4  UNL     1      -1.751  50.964 -26.820  1.00  0.00     0.001 C 
HETATM   17  C3  UNL     1      -0.467  50.590 -26.698  1.00  0.00     0.006 C 
BRANCH  17  18
HETATM   18  C2  UNL     1       0.622  51.408 -26.163  1.00  0.00    -0.067 C 
HETATM   19  C1  UNL     1       1.890  51.111 -26.493  1.00  0.00     0.019 C 
BRANCH  18  20
HETATM   20  C28 UNL     1       0.328  52.601 -25.266  1.00  0.00     0.041 C 
BRANCH  20  21
HETATM   21  C29 UNL     1      -0.134  52.237 -23.844  1.00  0.00     0.032 C 
BRANCH  21  22
HETATM   22  C30 UNL     1       0.237  53.279 -22.819  1.00  0.00    -0.024 C 
HETATM   23  C31 UNL     1       1.033  53.137 -21.741  1.00  0.00    -0.091 C 
HETATM   24  C32 UNL     1       1.313  54.310 -20.838  1.00  0.00     0.042 C 
HETATM   25  C33 UNL     1       1.702  51.859 -21.315  1.00  0.00     0.042 C 
ENDBRANCH  21  22
ENDBRANCH  20  21
ENDBRANCH  18  20
ENDBRANCH  17  18
ENDBRANCH  15  16
BRANCH  14  26
HETATM   26  C7  UNL     1      -4.473  48.326 -27.490  1.00  0.00     0.202 C 
BRANCH  26  27
HETATM   27  O1  UNL     1      -4.183  48.498 -28.881  1.00  0.00    -0.384 OA
BRANCH  27  28
HETATM   28  C8  UNL     1      -5.084  47.774 -29.732  1.00  0.00     0.201 C 
BRANCH  28  29
HETATM   29  C9  UNL     1      -5.491  48.674 -30.909  1.00  0.00     0.165 C 
BRANCH  29  30
HETATM   30  O2  UNL     1      -6.881  49.013 -30.785  1.00  0.00    -0.391 OA
HETATM   31  H11 UNL     1      -7.280  48.255 -30.307  1.00  0.00     0.210 HD
ENDBRANCH  29  30
BRANCH  29  32
HETATM   32  C10 UNL     1      -5.262  48.032 -32.285  1.00  0.00     0.198 C 
BRANCH  32  33
HETATM   33  O3  UNL     1      -3.936  48.239 -32.767  1.00  0.00    -0.398 OA
HETATM   34  H14 UNL     1      -3.355  47.933 -32.045  1.00  0.00     0.209 HD
ENDBRANCH  32  33
ENDBRANCH  29  32
ENDBRANCH  28  29
ENDBRANCH  27  28
ENDBRANCH  26  27
ENDBRANCH  14  26
ENDBRANCH   1  14
BRANCH   5  35
HETATM   35  O4  UNL     1      -4.998  51.182 -24.732  1.00  0.00    -0.394 OA
HETATM   36  H21 UNL     1      -5.133  51.875 -24.054  1.00  0.00     0.210 HD
ENDBRANCH   5  35
BRANCH   6  37
HETATM   37  C17 UNL     1      -2.669  51.063 -21.494  1.00  0.00     0.012 C 
BRANCH  37  38
HETATM   38  C18 UNL     1      -1.527  50.987 -20.472  1.00  0.00     0.027 C 
BRANCH  38  39
HETATM   39  C19 UNL     1      -1.861  51.768 -19.206  1.00  0.00     0.164 C 
BRANCH  39  40
HETATM   40  O5  UNL     1      -0.686  52.382 -18.692  1.00  0.00    -0.401 OA
HETATM   41  H29 UNL     1      -0.028  51.682 -18.541  1.00  0.00     0.209 HD
ENDBRANCH  39  40
ENDBRANCH  38  39
ENDBRANCH  37  38
ENDBRANCH   6  37
BRANCH  12  42
HETATM   42  O7  UNL     1      -5.571  51.751 -22.079  1.00  0.00    -0.389 OA
HETATM   43  H41 UNL     1      -6.353  52.163 -21.670  1.00  0.00     0.210 HD
ENDBRANCH  12  42
BRANCH   8  44
HETATM   44  C23 UNL     1      -2.010  47.197 -20.503  1.00  0.00     0.265 C 
HETATM   45  O6  UNL     1      -2.006  46.798 -21.663  1.00  0.00    -0.302 OA
ENDBRANCH   8  44
TORSDOF 20
ENDMDL
MODEL 4
REMARK minimizedAffinity -6.60576105
REMARK CNNscore 0.330444574
REMARK CNNaffinity 5.84617376
REMARK  20 active torsions:
REMARK  status: ('A' for Active; 'I' for Inactive)
REMARK    1  A    between atoms: C2_2  and  C3_3 
REMARK    2  A    between atoms: C2_2  and  C28_35 
REMARK    3  A    between atoms: C4_4  and  C5_5 
REMARK    4  A    between atoms: C6_6  and  C7_7 
REMARK    5  A    between atoms: C6_6  and  C11_14 
REMARK    6  A    between atoms: C7_7  and  O1_8 
REMARK    7  A    between atoms: O1_8  and  C8_9 
REMARK    8  A    between atoms: C8_9  and  C9_10 
REMARK    9  A    between atoms: C9_10  and  O2_11 
REMARK   10  A    between atoms: C9_10  and  C10_12 
REMARK   11  A    between atoms: C10_12  and  O3_13 
REMARK   12  A    between atoms: C15_18  and  O4_19 
REMARK   13  A    between atoms: C16_20  and  C17_21 
REMARK   14  A    between atoms: C17_21  and  C18_22 
REMARK   15  A    between atoms: C18_22  and  C19_23 
REMARK   16  A    between atoms: C19_23  and  O5_24 
REMARK   17  A    between atoms: C21_26  and  C23_28 
REMARK   18  A    between atoms: C26_32  and  O7_34 
REMARK   19  A    between atoms: C28_35  and  C29_36 
REMARK   20  A    between atoms: C29_36  and  C30_37 
ROOT
HETATM    1  C11 UNL     1      -9.218  47.064 -27.439  1.00  0.00     0.046 C 
HETATM    2  C12 UNL     1      -7.826  46.506 -27.106  1.00  0.00     0.013 C 
HETATM    3  C13 UNL     1      -7.396  45.855 -28.413  1.00  0.00     0.017 C 
HETATM    4  C14 UNL     1      -7.887  46.809 -29.551  1.00  0.00     0.024 C 
HETATM    5  C15 UNL     1      -8.927  47.735 -28.805  1.00  0.00     0.138 C 
HETATM    6  C16 UNL     1      -8.663  45.936 -30.637  1.00  0.00     0.029 C 
HETATM    7  C20 UNL     1      -7.682  44.973 -31.323  1.00  0.00    -0.066 C 
HETATM    8  C21 UNL     1      -7.761  43.617 -31.327  1.00  0.00    -0.021 C 
HETATM    9  C22 UNL     1      -6.758  42.704 -31.989  1.00  0.00     0.052 C 
HETATM   10  C24 UNL     1      -6.577  45.730 -32.037  1.00  0.00     0.038 C 
HETATM   11  C25 UNL     1      -5.790  46.597 -31.063  1.00  0.00     0.042 C 
HETATM   12  C26 UNL     1      -6.656  47.555 -30.205  1.00  0.00     0.065 C 
HETATM   13  C27 UNL     1      -5.683  48.239 -29.214  1.00  0.00     0.047 C 
ENDROOT
BRANCH   1  14
HETATM   14  C6  UNL     1      -9.909  47.815 -26.291  1.00  0.00    -0.050 C 
HETATM   15  C5  UNL     1     -11.169  47.675 -25.815  1.00  0.00     0.005 C 
BRANCH  15  16
HETATM   16  C4  UNL     1     -12.194  46.726 -26.193  1.00  0.00     0.001 C 
HETATM   17  C3  UNL     1     -13.401  47.086 -26.659  1.00  0.00     0.006 C 
BRANCH  17  18
HETATM   18  C2  UNL     1     -14.490  46.180 -27.021  1.00  0.00    -0.067 C 
HETATM   19  C1  UNL     1     -14.616  45.782 -28.299  1.00  0.00     0.019 C 
BRANCH  18  20
HETATM   20  C28 UNL     1     -15.456  45.665 -25.965  1.00  0.00     0.041 C 
BRANCH  20  21
HETATM   21  C29 UNL     1     -15.883  46.711 -24.920  1.00  0.00     0.032 C 
BRANCH  21  22
HETATM   22  C30 UNL     1     -17.360  46.675 -24.618  1.00  0.00    -0.024 C 
HETATM   23  C31 UNL     1     -18.326  46.009 -25.280  1.00  0.00    -0.091 C 
HETATM   24  C32 UNL     1     -19.756  46.069 -24.809  1.00  0.00     0.042 C 
HETATM   25  C33 UNL     1     -18.120  45.173 -26.513  1.00  0.00     0.042 C 
ENDBRANCH  21  22
ENDBRANCH  20  21
ENDBRANCH  18  20
ENDBRANCH  17  18
ENDBRANCH  15  16
BRANCH  14  26
HETATM   26  C7  UNL     1      -9.004  48.778 -25.534  1.00  0.00     0.202 C 
BRANCH  26  27
HETATM   27  O1  UNL     1      -8.581  48.200 -24.295  1.00  0.00    -0.384 OA
BRANCH  27  28
HETATM   28  C8  UNL     1      -7.159  48.243 -24.116  1.00  0.00     0.201 C 
BRANCH  28  29
HETATM   29  C9  UNL     1      -6.846  48.865 -22.746  1.00  0.00     0.165 C 
BRANCH  29  30
HETATM   30  O2  UNL     1      -8.063  48.985 -21.993  1.00  0.00    -0.391 OA
HETATM   31  H11 UNL     1      -8.764  49.090 -22.670  1.00  0.00     0.210 HD
ENDBRANCH  29  30
BRANCH  29  32
HETATM   32  C10 UNL     1      -6.183  50.247 -22.833  1.00  0.00     0.198 C 
BRANCH  32  33
HETATM   33  O3  UNL     1      -6.209  50.781 -24.155  1.00  0.00    -0.398 OA
HETATM   34  H14 UNL     1      -7.145  50.732 -24.428  1.00  0.00     0.209 HD
ENDBRANCH  32  33
ENDBRANCH  29  32
ENDBRANCH  28  29
ENDBRANCH  27  28
ENDBRANCH  26  27
ENDBRANCH  14  26
ENDBRANCH   1  14
BRANCH   5  35
HETATM   35  O4  UNL     1      -8.450  49.061 -28.637  1.00  0.00    -0.394 OA
HETATM   36  H21 UNL     1      -8.258  49.391 -29.539  1.00  0.00     0.210 HD
ENDBRANCH   5  35
BRANCH   6  37
HETATM   37  C17 UNL     1      -9.479  46.727 -31.706  1.00  0.00     0.012 C 
BRANCH  37  38
HETATM   38  C18 UNL     1     -10.956  46.313 -31.755  1.00  0.00     0.027 C 
BRANCH  38  39
HETATM   39  C19 UNL     1     -11.170  45.125 -32.685  1.00  0.00     0.164 C 
BRANCH  39  40
HETATM   40  O5  UNL     1     -12.012  45.502 -33.766  1.00  0.00    -0.401 OA
HETATM   41  H29 UNL     1     -12.843  45.841 -33.390  1.00  0.00     0.209 HD
ENDBRANCH  39  40
ENDBRANCH  38  39
ENDBRANCH  37  38
ENDBRANCH   6  37
BRANCH  12  42
HETATM   42  O7  UNL     1      -7.172  48.594 -31.054  1.00  0.00    -0.389 OA
HETATM   43  H41 UNL     1      -6.413  49.042 -31.470  1.00  0.00     0.210 HD
ENDBRANCH  12  42
BRANCH   8  44
HETATM   44  C23 UNL     1      -8.880  42.865 -30.665  1.00  0.00     0.265 C 
HETATM   45  O6  UNL     1      -9.635  43.389 -29.853  1.00  0.00    -0.302 OA
ENDBRANCH   8  44
TORSDOF 20
ENDMDL
MODEL 5
REMARK minimizedAffinity -8.57518768
REMARK CNNscore 0.313210517
REMARK CNNaffinity 6.84257126
REMARK  20 active torsions:
REMARK  status: ('A' for Active; 'I' for Inactive)
REMARK    1  A    between atoms: C2_2  and  C3_3 
REMARK    2  A    between atoms: C2_2  and  C28_35 
REMARK    3  A    between atoms: C4_4  and  C5_5 
REMARK    4  A    between atoms: C6_6  and  C7_7 
REMARK    5  A    between atoms: C6_6  and  C11_14 
REMARK    6  A    between atoms: C7_7  and  O1_8 
REMARK    7  A    between atoms: O1_8  and  C8_9 
REMARK    8  A    between atoms: C8_9  and  C9_10 
REMARK    9  A    between atoms: C9_10  and  O2_11 
REMARK   10  A    between atoms: C9_10  and  C10_12 
REMARK   11  A    between atoms: C10_12  and  O3_13 
REMARK   12  A    between atoms: C15_18  and  O4_19 
REMARK   13  A    between atoms: C16_20  and  C17_21 
REMARK   14  A    between atoms: C17_21  and  C18_22 
REMARK   15  A    between atoms: C18_22  and  C19_23 
REMARK   16  A    between atoms: C19_23  and  O5_24 
REMARK   17  A    between atoms: C21_26  and  C23_28 
REMARK   18  A    between atoms: C26_32  and  O7_34 
REMARK   19  A    between atoms: C28_35  and  C29_36 
REMARK   20  A    between atoms: C29_36  and  C30_37 
ROOT
HETATM    1  C11 UNL     1      -1.844  49.234 -21.933  1.00  0.00     0.046 C 
HETATM    2  C12 UNL     1      -1.669  50.749 -21.749  1.00  0.00     0.013 C 
HETATM    3  C13 UNL     1      -1.680  51.271 -23.178  1.00  0.00     0.017 C 
HETATM    4  C14 UNL     1      -2.766  50.436 -23.933  1.00  0.00     0.024 C 
HETATM    5  C15 UNL     1      -3.002  49.213 -22.962  1.00  0.00     0.138 C 
HETATM    6  C16 UNL     1      -2.129  49.898 -25.292  1.00  0.00     0.029 C 
HETATM    7  C20 UNL     1      -1.821  51.081 -26.223  1.00  0.00    -0.066 C 
HETATM    8  C21 UNL     1      -0.599  51.424 -26.706  1.00  0.00    -0.021 C 
HETATM    9  C22 UNL     1      -0.333  52.614 -27.595  1.00  0.00     0.052 C 
HETATM   10  C24 UNL     1      -3.083  51.848 -26.572  1.00  0.00     0.038 C 
HETATM   11  C25 UNL     1      -3.757  52.392 -25.320  1.00  0.00     0.042 C 
HETATM   12  C26 UNL     1      -4.036  51.332 -24.224  1.00  0.00     0.065 C 
HETATM   13  C27 UNL     1      -4.601  52.109 -23.010  1.00  0.00     0.047 C 
ENDROOT
BRANCH   1  14
HETATM   14  C6  UNL     1      -1.895  48.422 -20.630  1.00  0.00    -0.050 C 
HETATM   15  C5  UNL     1      -1.364  48.715 -19.420  1.00  0.00     0.005 C 
BRANCH  15  16
HETATM   16  C4  UNL     1      -0.671  49.907 -18.984  1.00  0.00     0.001 C 
HETATM   17  C3  UNL     1      -0.256  50.104 -17.722  1.00  0.00     0.006 C 
BRANCH  17  18
HETATM   18  C2  UNL     1       0.415  51.299 -17.212  1.00  0.00    -0.067 C 
HETATM   19  C1  UNL     1       0.559  51.455 -15.884  1.00  0.00     0.019 C 
BRANCH  18  20
HETATM   20  C28 UNL     1       0.973  52.344 -18.166  1.00  0.00     0.041 C 
BRANCH  20  21
HETATM   21  C29 UNL     1      -0.088  53.085 -18.999  1.00  0.00     0.032 C 
BRANCH  21  22
HETATM   22  C30 UNL     1       0.510  53.972 -20.061  1.00  0.00    -0.024 C 
HETATM   23  C31 UNL     1       1.144  53.602 -21.191  1.00  0.00    -0.091 C 
HETATM   24  C32 UNL     1       1.654  54.640 -22.157  1.00  0.00     0.042 C 
HETATM   25  C33 UNL     1       1.421  52.184 -21.610  1.00  0.00     0.042 C 
ENDBRANCH  21  22
ENDBRANCH  20  21
ENDBRANCH  18  20
ENDBRANCH  17  18
ENDBRANCH  15  16
BRANCH  14  26
HETATM   26  C7  UNL     1      -2.748  47.162 -20.707  1.00  0.00     0.202 C 
BRANCH  26  27
HETATM   27  O1  UNL     1      -4.095  47.444 -20.315  1.00  0.00    -0.384 OA
BRANCH  27  28
HETATM   28  C8  UNL     1      -4.729  46.336 -19.661  1.00  0.00     0.201 C 
BRANCH  28  29
HETATM   29  C9  UNL     1      -3.651  45.341 -19.206  1.00  0.00     0.165 C 
BRANCH  29  30
HETATM   30  O2  UNL     1      -3.863  44.081 -19.861  1.00  0.00    -0.391 OA
HETATM   31  H11 UNL     1      -4.829  44.046 -20.024  1.00  0.00     0.210 HD
ENDBRANCH  29  30
BRANCH  29  32
HETATM   32  C10 UNL     1      -3.627  45.108 -17.688  1.00  0.00     0.198 C 
BRANCH  32  33
HETATM   33  O3  UNL     1      -2.373  44.603 -17.235  1.00  0.00    -0.398 OA
HETATM   34  H14 UNL     1      -1.708  45.225 -17.588  1.00  0.00     0.209 HD
ENDBRANCH  32  33
ENDBRANCH  29  32
ENDBRANCH  28  29
ENDBRANCH  27  28
ENDBRANCH  26  27
ENDBRANCH  14  26
ENDBRANCH   1  14
BRANCH   5  35
HETATM   35  O4  UNL     1      -4.266  49.268 -22.318  1.00  0.00    -0.394 OA
HETATM   36  H21 UNL     1      -4.930  49.289 -23.036  1.00  0.00     0.210 HD
ENDBRANCH   5  35
BRANCH   6  37
HETATM   37  C17 UNL     1      -2.946  48.809 -26.056  1.00  0.00     0.012 C 
BRANCH  37  38
HETATM   38  C18 UNL     1      -3.282  49.217 -27.496  1.00  0.00     0.027 C 
BRANCH  38  39
HETATM   39  C19 UNL     1      -4.487  48.448 -28.025  1.00  0.00     0.164 C 
BRANCH  39  40
HETATM   40  O5  UNL     1      -4.765  48.844 -29.361  1.00  0.00    -0.401 OA
HETATM   41  H29 UNL     1      -4.902  49.807 -29.363  1.00  0.00     0.209 HD
ENDBRANCH  39  40
ENDBRANCH  38  39
ENDBRANCH  37  38
ENDBRANCH   6  37
BRANCH  12  42
HETATM   42  O7  UNL     1      -5.090  50.466 -24.679  1.00  0.00    -0.389 OA
HETATM   43  H41 UNL     1      -5.866  51.021 -24.875  1.00  0.00     0.210 HD
ENDBRANCH  12  42
BRANCH   8  44
HETATM   44  C23 UNL     1       0.646  50.637 -26.403  1.00  0.00     0.265 C 
HETATM   45  O6  UNL     1       1.758  51.152 -26.375  1.00  0.00    -0.302 OA
ENDBRANCH   8  44
TORSDOF 20
ENDMDL
MODEL 6
REMARK minimizedAffinity -8.54178524
REMARK CNNscore 0.313018054
REMARK CNNaffinity 7.18557215
REMARK  20 active torsions:
REMARK  status: ('A' for Active; 'I' for Inactive)
REMARK    1  A    between atoms: C2_2  and  C3_3 
REMARK    2  A    between atoms: C2_2  and  C28_35 
REMARK    3  A    between atoms: C4_4  and  C5_5 
REMARK    4  A    between atoms: C6_6  and  C7_7 
REMARK    5  A    between atoms: C6_6  and  C11_14 
REMARK    6  A    between atoms: C7_7  and  O1_8 
REMARK    7  A    between atoms: O1_8  and  C8_9 
REMARK    8  A    between atoms: C8_9  and  C9_10 
REMARK    9  A    between atoms: C9_10  and  O2_11 
REMARK   10  A    between atoms: C9_10  and  C10_12 
REMARK   11  A    between atoms: C10_12  and  O3_13 
REMARK   12  A    between atoms: C15_18  and  O4_19 
REMARK   13  A    between atoms: C16_20  and  C17_21 
REMARK   14  A    between atoms: C17_21  and  C18_22 
REMARK   15  A    between atoms: C18_22  and  C19_23 
REMARK   16  A    between atoms: C19_23  and  O5_24 
REMARK   17  A    between atoms: C21_26  and  C23_28 
REMARK   18  A    between atoms: C26_32  and  O7_34 
REMARK   19  A    between atoms: C28_35  and  C29_36 
REMARK   20  A    between atoms: C29_36  and  C30_37 
ROOT
HETATM    1  C11 UNL     1      -1.145  52.068 -23.834  1.00  0.00     0.046 C 
HETATM    2  C12 UNL     1      -2.249  52.807 -24.603  1.00  0.00     0.013 C 
HETATM    3  C13 UNL     1      -3.293  51.723 -24.831  1.00  0.00     0.017 C 
HETATM    4  C14 UNL     1      -3.332  50.879 -23.515  1.00  0.00     0.024 C 
HETATM    5  C15 UNL     1      -1.998  51.309 -22.787  1.00  0.00     0.138 C 
HETATM    6  C16 UNL     1      -3.228  49.336 -23.907  1.00  0.00     0.029 C 
HETATM    7  C20 UNL     1      -4.484  48.915 -24.684  1.00  0.00    -0.066 C 
HETATM    8  C21 UNL     1      -4.517  48.424 -25.950  1.00  0.00    -0.021 C 
HETATM    9  C22 UNL     1      -5.777  48.050 -26.691  1.00  0.00     0.052 C 
HETATM   10  C24 UNL     1      -5.737  49.101 -23.847  1.00  0.00     0.038 C 
HETATM   11  C25 UNL     1      -5.904  50.555 -23.427  1.00  0.00     0.042 C 
HETATM   12  C26 UNL     1      -4.667  51.169 -22.721  1.00  0.00     0.065 C 
HETATM   13  C27 UNL     1      -5.002  52.663 -22.496  1.00  0.00     0.047 C 
ENDROOT
BRANCH   1  14
HETATM   14  C6  UNL     1       0.060  52.932 -23.434  1.00  0.00    -0.050 C 
HETATM   15  C5  UNL     1       0.718  52.986 -22.252  1.00  0.00     0.005 C 
BRANCH  15  16
HETATM   16  C4  UNL     1       0.528  52.193 -21.058  1.00  0.00     0.001 C 
HETATM   17  C3  UNL     1       0.522  52.709 -19.818  1.00  0.00     0.006 C 
BRANCH  17  18
HETATM   18  C2  UNL     1       0.373  51.958 -18.572  1.00  0.00    -0.067 C 
HETATM   19  C1  UNL     1      -0.225  50.755 -18.597  1.00  0.00     0.019 C 
BRANCH  18  20
HETATM   20  C28 UNL     1       0.915  52.511 -17.263  1.00  0.00     0.041 C 
BRANCH  20  21
HETATM   21  C29 UNL     1       2.389  52.170 -16.982  1.00  0.00     0.032 C 
BRANCH  21  22
HETATM   22  C30 UNL     1       2.729  52.190 -15.513  1.00  0.00    -0.024 C 
HETATM   23  C31 UNL     1       2.394  51.289 -14.570  1.00  0.00    -0.091 C 
HETATM   24  C32 UNL     1       2.854  51.463 -13.146  1.00  0.00     0.042 C 
HETATM   25  C33 UNL     1       1.555  50.061 -14.799  1.00  0.00     0.042 C 
ENDBRANCH  21  22
ENDBRANCH  20  21
ENDBRANCH  18  20
ENDBRANCH  17  18
ENDBRANCH  15  16
BRANCH  14  26
HETATM   26  C7  UNL     1       0.642  53.764 -24.570  1.00  0.00     0.202 C 
BRANCH  26  27
HETATM   27  O1  UNL     1       0.697  52.997 -25.777  1.00  0.00    -0.384 OA
BRANCH  27  28
HETATM   28  C8  UNL     1       1.677  51.950 -25.729  1.00  0.00     0.201 C 
BRANCH  28  29
HETATM   29  C9  UNL     1       1.923  51.430 -27.153  1.00  0.00     0.165 C 
BRANCH  29  30
HETATM   30  O2  UNL     1       3.318  51.564 -27.471  1.00  0.00    -0.391 OA
HETATM   31  H11 UNL     1       3.620  52.330 -26.938  1.00  0.00     0.210 HD
ENDBRANCH  29  30
BRANCH  29  32
HETATM   32  C10 UNL     1       1.102  52.159 -28.227  1.00  0.00     0.198 C 
BRANCH  32  33
HETATM   33  O3  UNL     1      -0.266  51.758 -28.230  1.00  0.00    -0.398 OA
HETATM   34  H14 UNL     1      -0.564  51.871 -27.307  1.00  0.00     0.209 HD
ENDBRANCH  32  33
ENDBRANCH  29  32
ENDBRANCH  28  29
ENDBRANCH  27  28
ENDBRANCH  26  27
ENDBRANCH  14  26
ENDBRANCH   1  14
BRANCH   5  35
HETATM   35  O4  UNL     1      -2.240  52.111 -21.641  1.00  0.00    -0.394 OA
HETATM   36  H21 UNL     1      -2.812  51.573 -21.055  1.00  0.00     0.210 HD
ENDBRANCH   5  35
BRANCH   6  37
HETATM   37  C17 UNL     1      -2.961  48.341 -22.734  1.00  0.00     0.012 C 
BRANCH  37  38
HETATM   38  C18 UNL     1      -1.684  48.675 -21.950  1.00  0.00     0.027 C 
BRANCH  38  39
HETATM   39  C19 UNL     1      -1.159  47.456 -21.200  1.00  0.00     0.164 C 
BRANCH  39  40
HETATM   40  O5  UNL     1      -1.209  47.692 -19.800  1.00  0.00    -0.401 OA
HETATM   41  H29 UNL     1      -0.696  48.498 -19.616  1.00  0.00     0.209 HD
ENDBRANCH  39  40
ENDBRANCH  38  39
ENDBRANCH  37  38
ENDBRANCH   6  37
BRANCH  12  42
HETATM   42  O7  UNL     1      -4.541  50.578 -21.417  1.00  0.00    -0.389 OA
HETATM   43  H41 UNL     1      -5.371  50.742 -20.934  1.00  0.00     0.210 HD
ENDBRANCH  12  42
BRANCH   8  44
HETATM   44  C23 UNL     1      -3.276  48.191 -26.765  1.00  0.00     0.265 C 
HETATM   45  O6  UNL     1      -3.294  48.132 -27.989  1.00  0.00    -0.302 OA
ENDBRANCH   8  44
TORSDOF 20
ENDMDL
MODEL 7
REMARK minimizedAffinity -7.72849083
REMARK CNNscore 0.303866446
REMARK CNNaffinity 6.07500792
REMARK  20 active torsions:
REMARK  status: ('A' for Active; 'I' for Inactive)
REMARK    1  A    between atoms: C2_2  and  C3_3 
REMARK    2  A    between atoms: C2_2  and  C28_35 
REMARK    3  A    between atoms: C4_4  and  C5_5 
REMARK    4  A    between atoms: C6_6  and  C7_7 
REMARK    5  A    between atoms: C6_6  and  C11_14 
REMARK    6  A    between atoms: C7_7  and  O1_8 
REMARK    7  A    between atoms: O1_8  and  C8_9 
REMARK    8  A    between atoms: C8_9  and  C9_10 
REMARK    9  A    between atoms: C9_10  and  O2_11 
REMARK   10  A    between atoms: C9_10  and  C10_12 
REMARK   11  A    between atoms: C10_12  and  O3_13 
REMARK   12  A    between atoms: C15_18  and  O4_19 
REMARK   13  A    between atoms: C16_20  and  C17_21 
REMARK   14  A    between atoms: C17_21  and  C18_22 
REMARK   15  A    between atoms: C18_22  and  C19_23 
REMARK   16  A    between atoms: C19_23  and  O5_24 
REMARK   17  A    between atoms: C21_26  and  C23_28 
REMARK   18  A    between atoms: C26_32  and  O7_34 
REMARK   19  A    between atoms: C28_35  and  C29_36 
REMARK   20  A    between atoms: C29_36  and  C30_37 
ROOT
HETATM    1  C11 UNL     1      -7.819  46.632 -28.103  1.00  0.00     0.046 C 
HETATM    2  C12 UNL     1      -8.992  45.799 -28.641  1.00  0.00     0.013 C 
HETATM    3  C13 UNL     1      -9.874  45.616 -27.415  1.00  0.00     0.017 C 
HETATM    4  C14 UNL     1      -9.835  46.978 -26.649  1.00  0.00     0.024 C 
HETATM    5  C15 UNL     1      -8.591  47.706 -27.296  1.00  0.00     0.138 C 
HETATM    6  C16 UNL     1      -9.515  46.681 -25.114  1.00  0.00     0.029 C 
HETATM    7  C20 UNL     1     -10.681  45.906 -24.484  1.00  0.00    -0.066 C 
HETATM    8  C21 UNL     1     -10.613  44.671 -23.922  1.00  0.00    -0.021 C 
HETATM    9  C22 UNL     1     -11.791  43.929 -23.340  1.00  0.00     0.052 C 
HETATM   10  C24 UNL     1     -11.970  46.706 -24.545  1.00  0.00     0.038 C 
HETATM   11  C25 UNL     1     -12.342  47.036 -25.984  1.00  0.00     0.042 C 
HETATM   12  C26 UNL     1     -11.218  47.728 -26.799  1.00  0.00     0.065 C 
HETATM   13  C27 UNL     1     -11.757  47.857 -28.245  1.00  0.00     0.047 C 
ENDROOT
BRANCH   1  14
HETATM   14  C6  UNL     1      -6.752  47.003 -29.143  1.00  0.00    -0.050 C 
HETATM   15  C5  UNL     1      -5.619  47.727 -28.984  1.00  0.00     0.005 C 
BRANCH  15  16
HETATM   16  C4  UNL     1      -5.047  48.286 -27.779  1.00  0.00     0.001 C 
HETATM   17  C3  UNL     1      -3.728  48.309 -27.526  1.00  0.00     0.006 C 
BRANCH  17  18
HETATM   18  C2  UNL     1      -3.092  48.824 -26.314  1.00  0.00    -0.067 C 
HETATM   19  C1  UNL     1      -2.033  49.644 -26.425  1.00  0.00     0.019 C 
BRANCH  18  20
HETATM   20  C28 UNL     1      -3.636  48.467 -24.939  1.00  0.00     0.041 C 
BRANCH  20  21
HETATM   21  C29 UNL     1      -3.104  49.342 -23.791  1.00  0.00     0.032 C 
BRANCH  21  22
HETATM   22  C30 UNL     1      -2.465  48.540 -22.685  1.00  0.00    -0.024 C 
HETATM   23  C31 UNL     1      -1.550  48.948 -21.786  1.00  0.00    -0.091 C 
HETATM   24  C32 UNL     1      -1.044  48.004 -20.726  1.00  0.00     0.042 C 
HETATM   25  C33 UNL     1      -0.937  50.321 -21.729  1.00  0.00     0.042 C 
ENDBRANCH  21  22
ENDBRANCH  20  21
ENDBRANCH  18  20
ENDBRANCH  17  18
ENDBRANCH  15  16
BRANCH  14  26
HETATM   26  C7  UNL     1      -6.968  46.379 -30.516  1.00  0.00     0.202 C 
BRANCH  26  27
HETATM   27  O1  UNL     1      -5.837  45.585 -30.890  1.00  0.00    -0.384 OA
BRANCH  27  28
HETATM   28  C8  UNL     1      -5.696  45.450 -32.311  1.00  0.00     0.201 C 
BRANCH  28  29
HETATM   29  C9  UNL     1      -4.460  46.240 -32.767  1.00  0.00     0.165 C 
BRANCH  29  30
HETATM   30  O2  UNL     1      -3.637  46.531 -31.627  1.00  0.00    -0.391 OA
HETATM   31  H11 UNL     1      -4.264  46.577 -30.874  1.00  0.00     0.210 HD
ENDBRANCH  29  30
BRANCH  29  32
HETATM   32  C10 UNL     1      -4.798  47.558 -33.479  1.00  0.00     0.198 C 
BRANCH  32  33
HETATM   33  O3  UNL     1      -4.002  48.646 -33.014  1.00  0.00    -0.398 OA
HETATM   34  H14 UNL     1      -3.080  48.336 -33.094  1.00  0.00     0.209 HD
ENDBRANCH  32  33
ENDBRANCH  29  32
ENDBRANCH  28  29
ENDBRANCH  27  28
ENDBRANCH  26  27
ENDBRANCH  14  26
ENDBRANCH   1  14
BRANCH   5  35
HETATM   35  O4  UNL     1      -8.970  48.797 -28.121  1.00  0.00    -0.394 OA
HETATM   36  H21 UNL     1      -9.480  49.403 -27.544  1.00  0.00     0.210 HD
ENDBRANCH   5  35
BRANCH   6  37
HETATM   37  C17 UNL     1      -9.148  47.916 -24.233  1.00  0.00     0.012 C 
BRANCH  37  38
HETATM   38  C18 UNL     1      -7.674  48.324 -24.362  1.00  0.00     0.027 C 
BRANCH  38  39
HETATM   39  C19 UNL     1      -7.323  49.450 -23.397  1.00  0.00     0.164 C 
BRANCH  39  40
HETATM   40  O5  UNL     1      -6.508  50.412 -24.052  1.00  0.00    -0.401 OA
HETATM   41  H29 UNL     1      -5.724  49.952 -24.397  1.00  0.00     0.209 HD
ENDBRANCH  39  40
ENDBRANCH  38  39
ENDBRANCH  37  38
ENDBRANCH   6  37
BRANCH  12  42
HETATM   42  O7  UNL     1     -11.049  49.067 -26.305  1.00  0.00    -0.389 OA
HETATM   43  H41 UNL     1     -11.907  49.523 -26.382  1.00  0.00     0.210 HD
ENDBRANCH  12  42
BRANCH   8  44
HETATM   44  C23 UNL     1      -9.330  43.897 -23.814  1.00  0.00     0.265 C 
HETATM   45  O6  UNL     1      -8.487  44.136 -22.956  1.00  0.00    -0.302 OA
ENDBRANCH   8  44
TORSDOF 20
ENDMDL
MODEL 8
REMARK minimizedAffinity -8.19402122
REMARK CNNscore 0.294923544
REMARK CNNaffinity 6.72613144
REMARK  20 active torsions:
REMARK  status: ('A' for Active; 'I' for Inactive)
REMARK    1  A    between atoms: C2_2  and  C3_3 
REMARK    2  A    between atoms: C2_2  and  C28_35 
REMARK    3  A    between atoms: C4_4  and  C5_5 
REMARK    4  A    between atoms: C6_6  and  C7_7 
REMARK    5  A    between atoms: C6_6  and  C11_14 
REMARK    6  A    between atoms: C7_7  and  O1_8 
REMARK    7  A    between atoms: O1_8  and  C8_9 
REMARK    8  A    between atoms: C8_9  and  C9_10 
REMARK    9  A    between atoms: C9_10  and  O2_11 
REMARK   10  A    between atoms: C9_10  and  C10_12 
REMARK   11  A    between atoms: C10_12  and  O3_13 
REMARK   12  A    between atoms: C15_18  and  O4_19 
REMARK   13  A    between atoms: C16_20  and  C17_21 
REMARK   14  A    between atoms: C17_21  and  C18_22 
REMARK   15  A    between atoms: C18_22  and  C19_23 
REMARK   16  A    between atoms: C19_23  and  O5_24 
REMARK   17  A    between atoms: C21_26  and  C23_28 
REMARK   18  A    between atoms: C26_32  and  O7_34 
REMARK   19  A    between atoms: C28_35  and  C29_36 
REMARK   20  A    between atoms: C29_36  and  C30_37 
ROOT
HETATM    1  C11 UNL     1      -1.556  49.161 -22.231  1.00  0.00     0.046 C 
HETATM    2  C12 UNL     1      -1.525  50.667 -21.935  1.00  0.00     0.013 C 
HETATM    3  C13 UNL     1      -1.487  51.289 -23.323  1.00  0.00     0.017 C 
HETATM    4  C14 UNL     1      -2.444  50.425 -24.208  1.00  0.00     0.024 C 
HETATM    5  C15 UNL     1      -2.637  49.120 -23.341  1.00  0.00     0.138 C 
HETATM    6  C16 UNL     1      -1.673  50.041 -25.551  1.00  0.00     0.029 C 
HETATM    7  C20 UNL     1      -1.409  51.309 -26.376  1.00  0.00    -0.066 C 
HETATM    8  C21 UNL     1      -0.192  51.786 -26.745  1.00  0.00    -0.021 C 
HETATM    9  C22 UNL     1       0.028  53.055 -27.531  1.00  0.00     0.052 C 
HETATM   10  C24 UNL     1      -2.707  51.994 -26.764  1.00  0.00     0.038 C 
HETATM   11  C25 UNL     1      -3.507  52.389 -25.530  1.00  0.00     0.042 C 
HETATM   12  C26 UNL     1      -3.765  51.232 -24.530  1.00  0.00     0.065 C 
HETATM   13  C27 UNL     1      -4.474  51.870 -23.311  1.00  0.00     0.047 C 
ENDROOT
BRANCH   1  14
HETATM   14  C6  UNL     1      -1.622  48.254 -20.993  1.00  0.00    -0.050 C 
HETATM   15  C5  UNL     1      -1.263  48.526 -19.716  1.00  0.00     0.005 C 
BRANCH  15  16
HETATM   16  C4  UNL     1      -0.795  49.765 -19.137  1.00  0.00     0.001 C 
HETATM   17  C3  UNL     1      -0.331  49.868 -17.880  1.00  0.00     0.006 C 
BRANCH  17  18
HETATM   18  C2  UNL     1       0.120  51.094 -17.225  1.00  0.00    -0.067 C 
HETATM   19  C1  UNL     1       0.711  52.053 -17.960  1.00  0.00     0.019 C 
BRANCH  18  20
HETATM   20  C28 UNL     1      -0.099  51.305 -15.734  1.00  0.00     0.041 C 
BRANCH  20  21
HETATM   21  C29 UNL     1       1.010  52.104 -15.029  1.00  0.00     0.032 C 
BRANCH  21  22
HETATM   22  C30 UNL     1       2.105  51.229 -14.473  1.00  0.00    -0.024 C 
HETATM   23  C31 UNL     1       3.419  51.253 -14.771  1.00  0.00    -0.091 C 
HETATM   24  C32 UNL     1       4.376  50.313 -14.086  1.00  0.00     0.042 C 
HETATM   25  C33 UNL     1       4.067  52.165 -15.776  1.00  0.00     0.042 C 
ENDBRANCH  21  22
ENDBRANCH  20  21
ENDBRANCH  18  20
ENDBRANCH  17  18
ENDBRANCH  15  16
BRANCH  14  26
HETATM   26  C7  UNL     1      -2.275  46.901 -21.239  1.00  0.00     0.202 C 
BRANCH  26  27
HETATM   27  O1  UNL     1      -3.170  46.574 -20.171  1.00  0.00    -0.384 OA
BRANCH  27  28
HETATM   28  C8  UNL     1      -4.274  45.763 -20.597  1.00  0.00     0.201 C 
BRANCH  28  29
HETATM   29  C9  UNL     1      -4.602  44.746 -19.493  1.00  0.00     0.165 C 
BRANCH  29  30
HETATM   30  O2  UNL     1      -3.784  43.578 -19.668  1.00  0.00    -0.391 OA
HETATM   31  H11 UNL     1      -3.610  43.540 -20.633  1.00  0.00     0.210 HD
ENDBRANCH  29  30
BRANCH  29  32
HETATM   32  C10 UNL     1      -6.076  44.315 -19.469  1.00  0.00     0.198 C 
BRANCH  32  33
HETATM   33  O3  UNL     1      -6.917  45.289 -18.857  1.00  0.00    -0.398 OA
HETATM   34  H14 UNL     1      -6.718  46.123 -19.324  1.00  0.00     0.209 HD
ENDBRANCH  32  33
ENDBRANCH  29  32
ENDBRANCH  28  29
ENDBRANCH  27  28
ENDBRANCH  26  27
ENDBRANCH  14  26
ENDBRANCH   1  14
BRANCH   5  35
HETATM   35  O4  UNL     1      -3.940  49.024 -22.787  1.00  0.00    -0.394 OA
HETATM   36  H21 UNL     1      -4.555  49.042 -23.549  1.00  0.00     0.210 HD
ENDBRANCH   5  35
BRANCH   6  37
HETATM   37  C17 UNL     1      -2.340  48.947 -26.443  1.00  0.00     0.012 C 
BRANCH  37  38
HETATM   38  C18 UNL     1      -3.827  48.740 -26.120  1.00  0.00     0.027 C 
BRANCH  38  39
HETATM   39  C19 UNL     1      -4.616  48.349 -27.364  1.00  0.00     0.164 C 
BRANCH  39  40
HETATM   40  O5  UNL     1      -4.225  49.164 -28.460  1.00  0.00    -0.401 OA
HETATM   41  H29 UNL     1      -4.360  50.092 -28.204  1.00  0.00     0.209 HD
ENDBRANCH  39  40
ENDBRANCH  38  39
ENDBRANCH  37  38
ENDBRANCH   6  37
BRANCH  12  42
HETATM   42  O7  UNL     1      -4.707  50.318 -25.117  1.00  0.00    -0.389 OA
HETATM   43  H41 UNL     1      -5.514  50.820 -25.331  1.00  0.00     0.210 HD
ENDBRANCH  12  42
BRANCH   8  44
HETATM   44  C23 UNL     1       1.094  51.085 -26.407  1.00  0.00     0.265 C 
HETATM   45  O6  UNL     1       2.188  51.627 -26.520  1.00  0.00    -0.302 OA
ENDBRANCH   8  44
TORSDOF 20
ENDMDL
MODEL 9
REMARK minimizedAffinity -8.63909531
REMARK CNNscore 0.286616951
REMARK CNNaffinity 6.82597208
REMARK  20 active torsions:
REMARK  status: ('A' for Active; 'I' for Inactive)
REMARK    1  A    between atoms: C2_2  and  C3_3 
REMARK    2  A    between atoms: C2_2  and  C28_35 
REMARK    3  A    between atoms: C4_4  and  C5_5 
REMARK    4  A    between atoms: C6_6  and  C7_7 
REMARK    5  A    between atoms: C6_6  and  C11_14 
REMARK    6  A    between atoms: C7_7  and  O1_8 
REMARK    7  A    between atoms: O1_8  and  C8_9 
REMARK    8  A    between atoms: C8_9  and  C9_10 
REMARK    9  A    between atoms: C9_10  and  O2_11 
REMARK   10  A    between atoms: C9_10  and  C10_12 
REMARK   11  A    between atoms: C10_12  and  O3_13 
REMARK   12  A    between atoms: C15_18  and  O4_19 
REMARK   13  A    between atoms: C16_20  and  C17_21 
REMARK   14  A    between atoms: C17_21  and  C18_22 
REMARK   15  A    between atoms: C18_22  and  C19_23 
REMARK   16  A    between atoms: C19_23  and  O5_24 
REMARK   17  A    between atoms: C21_26  and  C23_28 
REMARK   18  A    between atoms: C26_32  and  O7_34 
REMARK   19  A    between atoms: C28_35  and  C29_36 
REMARK   20  A    between atoms: C29_36  and  C30_37 
ROOT
HETATM    1  C11 UNL     1      -1.698  49.209 -21.919  1.00  0.00     0.046 C 
HETATM    2  C12 UNL     1      -1.541  50.725 -21.728  1.00  0.00     0.013 C 
HETATM    3  C13 UNL     1      -1.585  51.256 -23.154  1.00  0.00     0.017 C 
HETATM    4  C14 UNL     1      -2.671  50.410 -23.896  1.00  0.00     0.024 C 
HETATM    5  C15 UNL     1      -2.873  49.178 -22.929  1.00  0.00     0.138 C 
HETATM    6  C16 UNL     1      -2.048  49.889 -25.269  1.00  0.00     0.029 C 
HETATM    7  C20 UNL     1      -1.774  51.082 -26.197  1.00  0.00    -0.066 C 
HETATM    8  C21 UNL     1      -0.565  51.446 -26.698  1.00  0.00    -0.021 C 
HETATM    9  C22 UNL     1      -0.331  52.645 -27.584  1.00  0.00     0.052 C 
HETATM   10  C24 UNL     1      -3.053  51.833 -26.520  1.00  0.00     0.038 C 
HETATM   11  C25 UNL     1      -3.713  52.360 -25.253  1.00  0.00     0.042 C 
HETATM   12  C26 UNL     1      -3.958  51.288 -24.159  1.00  0.00     0.065 C 
HETATM   13  C27 UNL     1      -4.514  52.050 -22.932  1.00  0.00     0.047 C 
ENDROOT
BRANCH   1  14
HETATM   14  C6  UNL     1      -1.715  48.388 -20.621  1.00  0.00    -0.050 C 
HETATM   15  C5  UNL     1      -1.196  48.696 -19.409  1.00  0.00     0.005 C 
BRANCH  15  16
HETATM   16  C4  UNL     1      -0.553  49.914 -18.967  1.00  0.00     0.001 C 
HETATM   17  C3  UNL     1      -0.163  50.128 -17.699  1.00  0.00     0.006 C 
BRANCH  17  18
HETATM   18  C2  UNL     1       0.456  51.348 -17.182  1.00  0.00    -0.067 C 
HETATM   19  C1  UNL     1       0.598  51.501 -15.854  1.00  0.00     0.019 C 
BRANCH  18  20
HETATM   20  C28 UNL     1       0.965  52.423 -18.131  1.00  0.00     0.041 C 
BRANCH  20  21
HETATM   21  C29 UNL     1      -0.122  53.075 -19.004  1.00  0.00     0.032 C 
BRANCH  21  22
HETATM   22  C30 UNL     1       0.444  53.958 -20.087  1.00  0.00    -0.024 C 
HETATM   23  C31 UNL     1       1.133  53.589 -21.184  1.00  0.00    -0.091 C 
HETATM   24  C32 UNL     1       1.598  54.620 -22.179  1.00  0.00     0.042 C 
HETATM   25  C33 UNL     1       1.519  52.178 -21.536  1.00  0.00     0.042 C 
ENDBRANCH  21  22
ENDBRANCH  20  21
ENDBRANCH  18  20
ENDBRANCH  17  18
ENDBRANCH  15  16
BRANCH  14  26
HETATM   26  C7  UNL     1      -2.515  47.095 -20.705  1.00  0.00     0.202 C 
BRANCH  26  27
HETATM   27  O1  UNL     1      -3.878  47.323 -20.331  1.00  0.00    -0.384 OA
BRANCH  27  28
HETATM   28  C8  UNL     1      -4.091  47.229 -18.916  1.00  0.00     0.201 C 
BRANCH  28  29
HETATM   29  C9  UNL     1      -4.846  48.479 -18.440  1.00  0.00     0.165 C 
BRANCH  29  30
HETATM   30  O2  UNL     1      -4.459  48.779 -17.090  1.00  0.00    -0.391 OA
HETATM   31  H11 UNL     1      -4.220  47.911 -16.702  1.00  0.00     0.210 HD
ENDBRANCH  29  30
BRANCH  29  32
HETATM   32  C10 UNL     1      -6.374  48.336 -18.494  1.00  0.00     0.198 C 
BRANCH  32  33
HETATM   33  O3  UNL     1      -6.974  49.257 -19.402  1.00  0.00    -0.398 OA
HETATM   34  H14 UNL     1      -6.498  49.128 -20.244  1.00  0.00     0.209 HD
ENDBRANCH  32  33
ENDBRANCH  29  32
ENDBRANCH  28  29
ENDBRANCH  27  28
ENDBRANCH  26  27
ENDBRANCH  14  26
ENDBRANCH   1  14
BRANCH   5  35
HETATM   35  O4  UNL     1      -4.126  49.210 -22.263  1.00  0.00    -0.394 OA
HETATM   36  H21 UNL     1      -4.803  49.226 -22.970  1.00  0.00     0.210 HD
ENDBRANCH   5  35
BRANCH   6  37
HETATM   37  C17 UNL     1      -2.862  48.793 -26.026  1.00  0.00     0.012 C 
BRANCH  37  38
HETATM   38  C18 UNL     1      -3.237  49.210 -27.454  1.00  0.00     0.027 C 
BRANCH  38  39
HETATM   39  C19 UNL     1      -4.483  48.475 -27.938  1.00  0.00     0.164 C 
BRANCH  39  40
HETATM   40  O5  UNL     1      -4.791  48.870 -29.268  1.00  0.00    -0.401 OA
HETATM   41  H29 UNL     1      -4.897  49.837 -29.273  1.00  0.00     0.209 HD
ENDBRANCH  39  40
ENDBRANCH  38  39
ENDBRANCH  37  38
ENDBRANCH   6  37
BRANCH  12  42
HETATM   42  O7  UNL     1      -5.007  50.410 -24.603  1.00  0.00    -0.389 OA
HETATM   43  H41 UNL     1      -5.795  50.954 -24.782  1.00  0.00     0.210 HD
ENDBRANCH  12  42
BRANCH   8  44
HETATM   44  C23 UNL     1       0.696  50.677 -26.422  1.00  0.00     0.265 C 
HETATM   45  O6  UNL     1       1.791  51.220 -26.328  1.00  0.00    -0.302 OA
ENDBRANCH   8  44
TORSDOF 20
ENDMDL
