MODEL 1
REMARK minimizedAffinity -6.83321142
REMARK CNNscore 0.604948759
REMARK CNNaffinity 6.21679688
REMARK  2 active torsions:
REMARK  status: ('A' for Active; 'I' for Inactive)
REMARK       I    between atoms: C1_2  and  N1_3 
REMARK    1  A    between atoms: C1_2  and  C14_18 
REMARK    2  A    between atoms: N1_3  and  C2_4 
ROOT
HETATM    1  C2  UNL     1       0.278  56.264  -7.635  1.00  0.00     0.135 C 
HETATM    2  C3  UNL     1       0.102  56.493  -6.114  1.00  0.00     0.032 C 
HETATM    3  C4  UNL     1       1.238  57.336  -5.507  1.00  0.00     0.007 C 
HETATM    4  C5  UNL     1       2.613  56.665  -5.689  1.00  0.00     0.042 C 
HETATM    5  C6  UNL     1       2.784  56.182  -7.091  1.00  0.00    -0.021 A 
HETATM    6  C7  UNL     1       1.713  55.999  -7.942  1.00  0.00     0.040 A 
HETATM    7  N2  UNL     1       2.197  55.601  -9.158  1.00  0.00    -0.355 N 
HETATM    8  C8  UNL     1       3.567  55.463  -9.094  1.00  0.00     0.065 A 
HETATM    9  C9  UNL     1       4.487  55.057 -10.068  1.00  0.00     0.061 A 
HETATM   10 CL1  UNL     1       3.973  54.612 -11.647  1.00  0.00    -0.082 Cl
HETATM   11  C10 UNL     1       5.840  55.019  -9.728  1.00  0.00     0.026 A 
HETATM   12  C11 UNL     1       6.261  55.379  -8.449  1.00  0.00     0.003 A 
HETATM   13  C12 UNL     1       5.335  55.785  -7.480  1.00  0.00     0.014 A 
HETATM   14  C13 UNL     1       3.963  55.827  -7.803  1.00  0.00     0.001 A 
HETATM   15  H9  UNL     1       1.638  55.425  -9.984  1.00  0.00     0.166 HD
ENDROOT
BRANCH   1  16
HETATM   16  N1  UNL     1      -0.487  55.119  -8.073  1.00  0.00    -0.347 N 
HETATM   17  C1  UNL     1      -1.109  55.102  -9.302  1.00  0.00     0.252 C 
HETATM   18  O1  UNL     1      -0.952  55.973 -10.148  1.00  0.00    -0.268 OA
HETATM   19  H1  UNL     1      -0.670  54.393  -7.396  1.00  0.00     0.163 HD
BRANCH  17  20
HETATM   20  C14 UNL     1      -1.985  53.929  -9.585  1.00  0.00     0.034 A 
HETATM   21  C15 UNL     1      -3.011  54.093 -10.522  1.00  0.00     0.018 A 
HETATM   22  C16 UNL     1      -3.869  53.032 -10.841  1.00  0.00     0.015 A 
HETATM   23  C17 UNL     1      -3.697  51.792 -10.198  1.00  0.00    -0.008 A 
HETATM   24  C18 UNL     1      -4.368  50.539 -10.276  1.00  0.00     0.030 A 
HETATM   25  C20 UNL     1      -2.680  51.655  -9.254  1.00  0.00     0.043 A 
HETATM   26  C19 UNL     1      -3.759  49.682  -9.389  1.00  0.00     0.089 A 
HETATM   27  N3  UNL     1      -2.744  50.366  -8.773  1.00  0.00    -0.365 N 
HETATM   28  H17 UNL     1      -2.130  49.982  -8.068  1.00  0.00     0.165 HD
HETATM   29  C21 UNL     1      -1.809  52.703  -8.921  1.00  0.00     0.047 A 
ENDBRANCH  17  20
ENDBRANCH   1  16
TORSDOF 2
ENDMDL
MODEL 2
REMARK minimizedAffinity -10.0567379
REMARK CNNscore 0.532860577
REMARK CNNaffinity 6.82852697
REMARK  2 active torsions:
REMARK  status: ('A' for Active; 'I' for Inactive)
REMARK       I    between atoms: C1_2  and  N1_3 
REMARK    1  A    between atoms: C1_2  and  C14_18 
REMARK    2  A    between atoms: N1_3  and  C2_4 
ROOT
HETATM    1  C2  UNL     1      -0.653  52.356 -23.795  1.00  0.00     0.135 C 
HETATM    2  C3  UNL     1       0.752  52.257 -24.436  1.00  0.00     0.032 C 
HETATM    3  C4  UNL     1       0.694  52.039 -25.959  1.00  0.00     0.007 C 
HETATM    4  C5  UNL     1      -0.044  50.737 -26.326  1.00  0.00     0.042 C 
HETATM    5  C6  UNL     1      -1.320  50.619 -25.562  1.00  0.00    -0.021 A 
HETATM    6  C7  UNL     1      -1.564  51.352 -24.418  1.00  0.00     0.040 A 
HETATM    7  N2  UNL     1      -2.826  51.059 -23.984  1.00  0.00    -0.355 N 
HETATM    8  C8  UNL     1      -3.390  50.098 -24.796  1.00  0.00     0.065 A 
HETATM    9  C9  UNL     1      -4.640  49.472 -24.731  1.00  0.00     0.061 A 
HETATM   10 CL1  UNL     1      -5.760  49.847 -23.483  1.00  0.00    -0.082 Cl
HETATM   11  C10 UNL     1      -4.959  48.527 -25.708  1.00  0.00     0.026 A 
HETATM   12  C11 UNL     1      -4.054  48.220 -26.722  1.00  0.00     0.003 A 
HETATM   13  C12 UNL     1      -2.806  48.852 -26.780  1.00  0.00     0.014 A 
HETATM   14  C13 UNL     1      -2.463  49.806 -25.802  1.00  0.00     0.001 A 
HETATM   15  H9  UNL     1      -3.285  51.477 -23.182  1.00  0.00     0.166 HD
ENDROOT
BRANCH   1  16
HETATM   16  N1  UNL     1      -0.591  52.077 -22.379  1.00  0.00    -0.347 N 
HETATM   17  C1  UNL     1       0.274  52.761 -21.552  1.00  0.00     0.252 C 
HETATM   18  O1  UNL     1       0.937  53.723 -21.919  1.00  0.00    -0.268 OA
HETATM   19  H1  UNL     1      -1.095  51.271 -22.038  1.00  0.00     0.163 HD
BRANCH  17  20
HETATM   20  C14 UNL     1       0.351  52.291 -20.139  1.00  0.00     0.034 A 
HETATM   21  C15 UNL     1      -0.266  51.076 -19.821  1.00  0.00     0.018 A 
HETATM   22  C16 UNL     1      -0.230  50.572 -18.515  1.00  0.00     0.015 A 
HETATM   23  C17 UNL     1       0.428  51.308 -17.511  1.00  0.00    -0.008 A 
HETATM   24  C18 UNL     1       0.649  51.102 -16.121  1.00  0.00     0.030 A 
HETATM   25  C20 UNL     1       1.020  52.526 -17.846  1.00  0.00     0.043 A 
HETATM   26  C19 UNL     1       1.355  52.182 -15.645  1.00  0.00     0.089 A 
HETATM   27  N3  UNL     1       1.570  53.039 -16.691  1.00  0.00    -0.365 N 
HETATM   28  H17 UNL     1       2.061  53.920 -16.629  1.00  0.00     0.165 HD
HETATM   29  C21 UNL     1       0.997  53.048 -19.148  1.00  0.00     0.047 A 
ENDBRANCH  17  20
ENDBRANCH   1  16
TORSDOF 2
ENDMDL
MODEL 3
REMARK minimizedAffinity -6.69628716
REMARK CNNscore 0.523838758
REMARK CNNaffinity 5.91158628
REMARK  2 active torsions:
REMARK  status: ('A' for Active; 'I' for Inactive)
REMARK       I    between atoms: C1_2  and  N1_3 
REMARK    1  A    between atoms: C1_2  and  C14_18 
REMARK    2  A    between atoms: N1_3  and  C2_4 
ROOT
HETATM    1  C2  UNL     1      -1.341  52.782 -10.504  1.00  0.00     0.135 C 
HETATM    2  C3  UNL     1      -2.300  53.975 -10.276  1.00  0.00     0.032 C 
HETATM    3  C4  UNL     1      -3.738  53.675 -10.736  1.00  0.00     0.007 C 
HETATM    4  C5  UNL     1      -3.804  53.346 -12.240  1.00  0.00     0.042 C 
HETATM    5  C6  UNL     1      -2.741  52.369 -12.615  1.00  0.00    -0.021 A 
HETATM    6  C7  UNL     1      -1.635  52.142 -11.819  1.00  0.00     0.040 A 
HETATM    7  N2  UNL     1      -0.880  51.166 -12.406  1.00  0.00    -0.355 N 
HETATM    8  C8  UNL     1      -1.446  50.793 -13.606  1.00  0.00     0.065 A 
HETATM    9  C9  UNL     1      -1.023  49.861 -14.561  1.00  0.00     0.061 A 
HETATM   10 CL1  UNL     1       0.429  48.966 -14.350  1.00  0.00    -0.082 Cl
HETATM   11  C10 UNL     1      -1.810  49.673 -15.699  1.00  0.00     0.026 A 
HETATM   12  C11 UNL     1      -2.989  50.396 -15.874  1.00  0.00     0.003 A 
HETATM   13  C12 UNL     1      -3.405  51.326 -14.914  1.00  0.00     0.014 A 
HETATM   14  C13 UNL     1      -2.623  51.533 -13.760  1.00  0.00     0.001 A 
HETATM   15  H9  UNL     1      -0.026  50.774 -12.026  1.00  0.00     0.166 HD
ENDROOT
BRANCH   1  16
HETATM   16  N1  UNL     1       0.034  53.226 -10.527  1.00  0.00    -0.347 N 
HETATM   17  C1  UNL     1       0.817  53.186  -9.394  1.00  0.00     0.252 C 
HETATM   18  O1  UNL     1       0.461  52.657  -8.348  1.00  0.00    -0.268 OA
HETATM   19  H1  UNL     1       0.358  53.699 -11.357  1.00  0.00     0.163 HD
BRANCH  17  20
HETATM   20  C14 UNL     1       2.171  53.800  -9.502  1.00  0.00     0.034 A 
HETATM   21  C15 UNL     1       2.265  55.074 -10.073  1.00  0.00     0.018 A 
HETATM   22  C16 UNL     1       3.505  55.714 -10.203  1.00  0.00     0.015 A 
HETATM   23  C17 UNL     1       4.668  55.055  -9.762  1.00  0.00    -0.008 A 
HETATM   24  C18 UNL     1       6.049  55.398  -9.743  1.00  0.00     0.030 A 
HETATM   25  C20 UNL     1       4.554  53.778  -9.213  1.00  0.00     0.043 A 
HETATM   26  C19 UNL     1       6.736  54.339  -9.198  1.00  0.00     0.089 A 
HETATM   27  N3  UNL     1       5.826  53.364  -8.886  1.00  0.00    -0.365 N 
HETATM   28  H17 UNL     1       6.053  52.469  -8.474  1.00  0.00     0.165 HD
HETATM   29  C21 UNL     1       3.323  53.120  -9.072  1.00  0.00     0.047 A 
ENDBRANCH  17  20
ENDBRANCH   1  16
TORSDOF 2
ENDMDL
MODEL 4
REMARK minimizedAffinity -7.56429148
REMARK CNNscore 0.496166945
REMARK CNNaffinity 5.52663946
REMARK  2 active torsions:
REMARK  status: ('A' for Active; 'I' for Inactive)
REMARK       I    between atoms: C1_2  and  N1_3 
REMARK    1  A    between atoms: C1_2  and  C14_18 
REMARK    2  A    between atoms: N1_3  and  C2_4 
ROOT
HETATM    1  C2  UNL     1       1.080  57.170  -7.085  1.00  0.00     0.135 C 
HETATM    2  C3  UNL     1       0.968  57.126  -5.541  1.00  0.00     0.032 C 
HETATM    3  C4  UNL     1       2.269  57.557  -4.841  1.00  0.00     0.007 C 
HETATM    4  C5  UNL     1       3.453  56.645  -5.216  1.00  0.00     0.042 C 
HETATM    5  C6  UNL     1       3.503  56.424  -6.691  1.00  0.00    -0.021 A 
HETATM    6  C7  UNL     1       2.415  56.657  -7.508  1.00  0.00     0.040 A 
HETATM    7  N2  UNL     1       2.790  56.410  -8.799  1.00  0.00    -0.355 N 
HETATM    8  C8  UNL     1       4.092  55.960  -8.831  1.00  0.00     0.065 A 
HETATM    9  C9  UNL     1       4.891  55.560  -9.909  1.00  0.00     0.061 A 
HETATM   10 CL1  UNL     1       4.282  55.563 -11.516  1.00  0.00    -0.082 Cl
HETATM   11  C10 UNL     1       6.201  55.153  -9.650  1.00  0.00     0.026 A 
HETATM   12  C11 UNL     1       6.699  55.150  -8.348  1.00  0.00     0.003 A 
HETATM   13  C12 UNL     1       5.894  55.553  -7.275  1.00  0.00     0.014 A 
HETATM   14  C13 UNL     1       4.567  55.963  -7.515  1.00  0.00     0.001 A 
HETATM   15  H9  UNL     1       2.203  56.531  -9.616  1.00  0.00     0.166 HD
ENDROOT
BRANCH   1  16
HETATM   16  N1  UNL     1       0.072  56.335  -7.696  1.00  0.00    -0.347 N 
HETATM   17  C1  UNL     1       0.119  54.963  -7.590  1.00  0.00     0.252 C 
HETATM   18  O1  UNL     1       0.917  54.370  -6.874  1.00  0.00    -0.268 OA
HETATM   19  H1  UNL     1      -0.585  56.778  -8.322  1.00  0.00     0.163 HD
BRANCH  17  20
HETATM   20  C14 UNL     1      -0.892  54.201  -8.379  1.00  0.00     0.034 A 
HETATM   21  C15 UNL     1      -1.240  52.923  -7.930  1.00  0.00     0.018 A 
HETATM   22  C16 UNL     1      -2.186  52.153  -8.619  1.00  0.00     0.015 A 
HETATM   23  C17 UNL     1      -2.780  52.673  -9.784  1.00  0.00    -0.008 A 
HETATM   24  C18 UNL     1      -3.745  52.179 -10.705  1.00  0.00     0.030 A 
HETATM   25  C20 UNL     1      -2.404  53.942 -10.225  1.00  0.00     0.043 A 
HETATM   26  C19 UNL     1      -3.930  53.138 -11.673  1.00  0.00     0.089 A 
HETATM   27  N3  UNL     1      -3.113  54.196 -11.378  1.00  0.00    -0.365 N 
HETATM   28  H17 UNL     1      -3.039  55.043 -11.925  1.00  0.00     0.165 HD
HETATM   29  C21 UNL     1      -1.461  54.731  -9.549  1.00  0.00     0.047 A 
ENDBRANCH  17  20
ENDBRANCH   1  16
TORSDOF 2
ENDMDL
MODEL 5
REMARK minimizedAffinity -7.17714119
REMARK CNNscore 0.480182439
REMARK CNNaffinity 5.76004362
REMARK  2 active torsions:
REMARK  status: ('A' for Active; 'I' for Inactive)
REMARK       I    between atoms: C1_2  and  N1_3 
REMARK    1  A    between atoms: C1_2  and  C14_18 
REMARK    2  A    between atoms: N1_3  and  C2_4 
ROOT
HETATM    1  C2  UNL     1       2.433  50.209 -10.554  1.00  0.00     0.135 C 
HETATM    2  C3  UNL     1       3.230  48.888 -10.425  1.00  0.00     0.032 C 
HETATM    3  C4  UNL     1       4.237  48.916  -9.261  1.00  0.00     0.007 C 
HETATM    4  C5  UNL     1       5.280  50.038  -9.429  1.00  0.00     0.042 C 
HETATM    5  C6  UNL     1       4.619  51.323  -9.801  1.00  0.00    -0.021 A 
HETATM    6  C7  UNL     1       3.339  51.370 -10.317  1.00  0.00     0.040 A 
HETATM    7  N2  UNL     1       3.004  52.681 -10.508  1.00  0.00    -0.355 N 
HETATM    8  C8  UNL     1       4.070  53.490 -10.180  1.00  0.00     0.065 A 
HETATM    9  C9  UNL     1       4.208  54.882 -10.237  1.00  0.00     0.061 A 
HETATM   10 CL1  UNL     1       2.928  55.881 -10.800  1.00  0.00    -0.082 Cl
HETATM   11  C10 UNL     1       5.417  55.447  -9.826  1.00  0.00     0.026 A 
HETATM   12  C11 UNL     1       6.458  54.641  -9.368  1.00  0.00     0.003 A 
HETATM   13  C12 UNL     1       6.312  53.249  -9.313  1.00  0.00     0.014 A 
HETATM   14  C13 UNL     1       5.100  52.659  -9.727  1.00  0.00     0.001 A 
HETATM   15  H9  UNL     1       2.109  53.017 -10.846  1.00  0.00     0.166 HD
ENDROOT
BRANCH   1  16
HETATM   16  N1  UNL     1       1.878  50.345 -11.881  1.00  0.00    -0.347 N 
HETATM   17  C1  UNL     1       2.671  50.241 -13.003  1.00  0.00     0.252 C 
HETATM   18  O1  UNL     1       3.846  49.897 -12.967  1.00  0.00    -0.268 OA
HETATM   19  H1  UNL     1       0.922  50.661 -11.958  1.00  0.00     0.163 HD
BRANCH  17  20
HETATM   20  C14 UNL     1       2.016  50.540 -14.308  1.00  0.00     0.034 A 
HETATM   21  C15 UNL     1       1.118  49.595 -14.818  1.00  0.00     0.018 A 
HETATM   22  C16 UNL     1       0.463  49.812 -16.037  1.00  0.00     0.015 A 
HETATM   23  C17 UNL     1       0.726  50.991 -16.759  1.00  0.00    -0.008 A 
HETATM   24  C18 UNL     1       0.255  51.517 -17.994  1.00  0.00     0.030 A 
HETATM   25  C20 UNL     1       1.638  51.911 -16.242  1.00  0.00     0.043 A 
HETATM   26  C19 UNL     1       0.883  52.723 -18.203  1.00  0.00     0.089 A 
HETATM   27  N3  UNL     1       1.720  52.950 -17.143  1.00  0.00    -0.365 N 
HETATM   28  H17 UNL     1       2.313  53.761 -17.034  1.00  0.00     0.165 HD
HETATM   29  C21 UNL     1       2.304  51.715 -15.023  1.00  0.00     0.047 A 
ENDBRANCH  17  20
ENDBRANCH   1  16
TORSDOF 2
ENDMDL
MODEL 6
REMARK minimizedAffinity -9.1008749
REMARK CNNscore 0.460745245
REMARK CNNaffinity 6.78348207
REMARK  2 active torsions:
REMARK  status: ('A' for Active; 'I' for Inactive)
REMARK       I    between atoms: C1_2  and  N1_3 
REMARK    1  A    between atoms: C1_2  and  C14_18 
REMARK    2  A    between atoms: N1_3  and  C2_4 
ROOT
HETATM    1  C2  UNL     1      -2.389  49.626 -21.812  1.00  0.00     0.135 C 
HETATM    2  C3  UNL     1      -2.701  48.111 -21.743  1.00  0.00     0.032 C 
HETATM    3  C4  UNL     1      -3.071  47.648 -20.322  1.00  0.00     0.007 C 
HETATM    4  C5  UNL     1      -1.930  47.902 -19.319  1.00  0.00     0.042 C 
HETATM    5  C6  UNL     1      -1.387  49.283 -19.475  1.00  0.00    -0.021 A 
HETATM    6  C7  UNL     1      -1.599  50.033 -20.614  1.00  0.00     0.040 A 
HETATM    7  N2  UNL     1      -1.022  51.259 -20.432  1.00  0.00    -0.355 N 
HETATM    8  C8  UNL     1      -0.382  51.299 -19.212  1.00  0.00     0.065 A 
HETATM    9  C9  UNL     1       0.361  52.320 -18.607  1.00  0.00     0.061 A 
HETATM   10 CL1  UNL     1       0.616  53.824 -19.398  1.00  0.00    -0.082 Cl
HETATM   11  C10 UNL     1       0.895  52.089 -17.338  1.00  0.00     0.026 A 
HETATM   12  C11 UNL     1       0.690  50.871 -16.692  1.00  0.00     0.003 A 
HETATM   13  C12 UNL     1      -0.056  49.855 -17.304  1.00  0.00     0.014 A 
HETATM   14  C13 UNL     1      -0.601  50.067 -18.586  1.00  0.00     0.001 A 
HETATM   15  H9  UNL     1      -1.049  52.027 -21.093  1.00  0.00     0.166 HD
ENDROOT
BRANCH   1  16
HETATM   16  N1  UNL     1      -1.605  49.935 -22.985  1.00  0.00    -0.347 N 
HETATM   17  C1  UNL     1      -1.786  51.112 -23.678  1.00  0.00     0.252 C 
HETATM   18  O1  UNL     1      -2.507  52.021 -23.284  1.00  0.00    -0.268 OA
HETATM   19  H1  UNL     1      -1.023  49.202 -23.364  1.00  0.00     0.163 HD
BRANCH  17  20
HETATM   20  C14 UNL     1      -1.021  51.257 -24.949  1.00  0.00     0.034 A 
HETATM   21  C15 UNL     1      -1.713  51.071 -26.151  1.00  0.00     0.018 A 
HETATM   22  C16 UNL     1      -1.059  51.196 -27.383  1.00  0.00     0.015 A 
HETATM   23  C17 UNL     1       0.314  51.502 -27.406  1.00  0.00    -0.008 A 
HETATM   24  C18 UNL     1       1.266  51.695 -28.446  1.00  0.00     0.030 A 
HETATM   25  C20 UNL     1       0.990  51.665 -26.196  1.00  0.00     0.043 A 
HETATM   26  C19 UNL     1       2.480  51.961 -27.859  1.00  0.00     0.089 A 
HETATM   27  N3  UNL     1       2.305  51.937 -26.500  1.00  0.00    -0.365 N 
HETATM   28  H17 UNL     1       3.034  52.095 -25.818  1.00  0.00     0.165 HD
HETATM   29  C21 UNL     1       0.354  51.546 -24.951  1.00  0.00     0.047 A 
ENDBRANCH  17  20
ENDBRANCH   1  16
TORSDOF 2
ENDMDL
MODEL 7
REMARK minimizedAffinity -7.93496037
REMARK CNNscore 0.309021294
REMARK CNNaffinity 6.00624704
REMARK  2 active torsions:
REMARK  status: ('A' for Active; 'I' for Inactive)
REMARK       I    between atoms: C1_2  and  N1_3 
REMARK    1  A    between atoms: C1_2  and  C14_18 
REMARK    2  A    between atoms: N1_3  and  C2_4 
ROOT
HETATM    1  C2  UNL     1      -1.120  48.825 -19.117  1.00  0.00     0.135 C 
HETATM    2  C3  UNL     1      -2.201  47.799 -19.535  1.00  0.00     0.032 C 
HETATM    3  C4  UNL     1      -2.027  47.315 -20.986  1.00  0.00     0.007 C 
HETATM    4  C5  UNL     1      -2.119  48.476 -21.994  1.00  0.00     0.042 C 
HETATM    5  C6  UNL     1      -1.286  49.631 -21.547  1.00  0.00    -0.021 A 
HETATM    6  C7  UNL     1      -0.860  49.770 -20.242  1.00  0.00     0.040 A 
HETATM    7  N2  UNL     1      -0.084  50.892 -20.162  1.00  0.00    -0.355 N 
HETATM    8  C8  UNL     1      -0.047  51.524 -21.387  1.00  0.00     0.065 A 
HETATM    9  C9  UNL     1       0.589  52.707 -21.783  1.00  0.00     0.061 A 
HETATM   10 CL1  UNL     1       1.498  53.644 -20.666  1.00  0.00    -0.082 Cl
HETATM   11  C10 UNL     1       0.466  53.113 -23.112  1.00  0.00     0.026 A 
HETATM   12  C11 UNL     1      -0.270  52.356 -24.022  1.00  0.00     0.003 A 
HETATM   13  C12 UNL     1      -0.902  51.173 -23.619  1.00  0.00     0.014 A 
HETATM   14  C13 UNL     1      -0.793  50.747 -22.280  1.00  0.00     0.001 A 
HETATM   15  H9  UNL     1       0.391  51.222 -19.331  1.00  0.00     0.166 HD
ENDROOT
BRANCH   1  16
HETATM   16  N1  UNL     1      -1.562  49.601 -17.981  1.00  0.00    -0.347 N 
HETATM   17  C1  UNL     1      -0.741  49.813 -16.896  1.00  0.00     0.252 C 
HETATM   18  O1  UNL     1       0.440  49.487 -16.871  1.00  0.00    -0.268 OA
HETATM   19  H1  UNL     1      -2.537  49.862 -17.944  1.00  0.00     0.163 HD
BRANCH  17  20
HETATM   20  C14 UNL     1      -1.353  50.507 -15.726  1.00  0.00     0.034 A 
HETATM   21  C15 UNL     1      -2.732  50.739 -15.754  1.00  0.00     0.018 A 
HETATM   22  C16 UNL     1      -3.375  51.381 -14.689  1.00  0.00     0.015 A 
HETATM   23  C17 UNL     1      -2.615  51.807 -13.583  1.00  0.00    -0.008 A 
HETATM   24  C18 UNL     1      -2.930  52.473 -12.366  1.00  0.00     0.030 A 
HETATM   25  C20 UNL     1      -1.238  51.583 -13.584  1.00  0.00     0.043 A 
HETATM   26  C19 UNL     1      -1.759  52.643 -11.665  1.00  0.00     0.089 A 
HETATM   27  N3  UNL     1      -0.742  52.107 -12.410  1.00  0.00    -0.365 N 
HETATM   28  H17 UNL     1       0.232  52.096 -12.140  1.00  0.00     0.165 HD
HETATM   29  C21 UNL     1      -0.575  50.940 -14.640  1.00  0.00     0.047 A 
ENDBRANCH  17  20
ENDBRANCH   1  16
TORSDOF 2
ENDMDL
MODEL 8
REMARK minimizedAffinity -6.96774769
REMARK CNNscore 0.304309666
REMARK CNNaffinity 5.03923798
REMARK  2 active torsions:
REMARK  status: ('A' for Active; 'I' for Inactive)
REMARK       I    between atoms: C1_2  and  N1_3 
REMARK    1  A    between atoms: C1_2  and  C14_18 
REMARK    2  A    between atoms: N1_3  and  C2_4 
ROOT
HETATM    1  C2  UNL     1      -1.238  52.496 -12.576  1.00  0.00     0.135 C 
HETATM    2  C3  UNL     1      -2.678  52.123 -12.145  1.00  0.00     0.032 C 
HETATM    3  C4  UNL     1      -3.428  53.304 -11.504  1.00  0.00     0.007 C 
HETATM    4  C5  UNL     1      -2.716  53.819 -10.238  1.00  0.00     0.042 C 
HETATM    5  C6  UNL     1      -1.254  53.982 -10.484  1.00  0.00    -0.021 A 
HETATM    6  C7  UNL     1      -0.611  53.365 -11.538  1.00  0.00     0.040 A 
HETATM    7  N2  UNL     1       0.702  53.746 -11.521  1.00  0.00    -0.355 N 
HETATM    8  C8  UNL     1       0.939  54.558 -10.432  1.00  0.00     0.065 A 
HETATM    9  C9  UNL     1       2.121  55.162  -9.988  1.00  0.00     0.061 A 
HETATM   10 CL1  UNL     1       3.605  54.938 -10.826  1.00  0.00    -0.082 Cl
HETATM   11  C10 UNL     1       2.070  55.956  -8.841  1.00  0.00     0.026 A 
HETATM   12  C11 UNL     1       0.869  56.142  -8.158  1.00  0.00     0.003 A 
HETATM   13  C12 UNL     1      -0.310  55.534  -8.609  1.00  0.00     0.014 A 
HETATM   14  C13 UNL     1      -0.278  54.726  -9.764  1.00  0.00     0.001 A 
HETATM   15  H9  UNL     1       1.404  53.473 -12.198  1.00  0.00     0.166 HD
ENDROOT
BRANCH   1  16
HETATM   16  N1  UNL     1      -0.421  51.313 -12.714  1.00  0.00    -0.347 N 
HETATM   17  C1  UNL     1       0.416  51.144 -13.795  1.00  0.00     0.252 C 
HETATM   18  O1  UNL     1       0.630  52.019 -14.625  1.00  0.00    -0.268 OA
HETATM   19  H1  UNL     1      -0.589  50.552 -12.073  1.00  0.00     0.163 HD
BRANCH  17  20
HETATM   20  C14 UNL     1       1.101  49.824 -13.903  1.00  0.00     0.034 A 
HETATM   21  C15 UNL     1       2.464  49.769 -13.590  1.00  0.00     0.018 A 
HETATM   22  C16 UNL     1       3.171  48.562 -13.666  1.00  0.00     0.015 A 
HETATM   23  C17 UNL     1       2.497  47.395 -14.074  1.00  0.00    -0.008 A 
HETATM   24  C18 UNL     1       2.894  46.042 -14.259  1.00  0.00     0.030 A 
HETATM   25  C20 UNL     1       1.143  47.476 -14.400  1.00  0.00     0.043 A 
HETATM   26  C19 UNL     1       1.794  45.338 -14.692  1.00  0.00     0.089 A 
HETATM   27  N3  UNL     1       0.743  46.213 -14.778  1.00  0.00    -0.365 N 
HETATM   28  H17 UNL     1      -0.192  45.970 -15.076  1.00  0.00     0.165 HD
HETATM   29  C21 UNL     1       0.417  48.674 -14.330  1.00  0.00     0.047 A 
ENDBRANCH  17  20
ENDBRANCH   1  16
TORSDOF 2
ENDMDL
MODEL 9
REMARK minimizedAffinity -9.5843277
REMARK CNNscore 0.253904372
REMARK CNNaffinity 6.5175004
REMARK  2 active torsions:
REMARK  status: ('A' for Active; 'I' for Inactive)
REMARK       I    between atoms: C1_2  and  N1_3 
REMARK    1  A    between atoms: C1_2  and  C14_18 
REMARK    2  A    between atoms: N1_3  and  C2_4 
ROOT
HETATM    1  C2  UNL     1      -0.722  52.280 -22.989  1.00  0.00     0.135 C 
HETATM    2  C3  UNL     1       0.679  52.402 -23.636  1.00  0.00     0.032 C 
HETATM    3  C4  UNL     1       0.621  52.421 -25.174  1.00  0.00     0.007 C 
HETATM    4  C5  UNL     1      -0.009  51.134 -25.742  1.00  0.00     0.042 C 
HETATM    5  C6  UNL     1      -1.262  50.791 -25.007  1.00  0.00    -0.021 A 
HETATM    6  C7  UNL     1      -1.552  51.313 -23.763  1.00  0.00     0.040 A 
HETATM    7  N2  UNL     1      -2.781  50.849 -23.382  1.00  0.00    -0.355 N 
HETATM    8  C8  UNL     1      -3.272  49.983 -24.335  1.00  0.00     0.065 A 
HETATM    9  C9  UNL     1      -4.464  49.250 -24.372  1.00  0.00     0.061 A 
HETATM   10 CL1  UNL     1      -5.597  49.329 -23.082  1.00  0.00    -0.082 Cl
HETATM   11  C10 UNL     1      -4.714  48.446 -25.485  1.00  0.00     0.026 A 
HETATM   12  C11 UNL     1      -3.799  48.379 -26.534  1.00  0.00     0.003 A 
HETATM   13  C12 UNL     1      -2.609  49.117 -26.490  1.00  0.00     0.014 A 
HETATM   14  C13 UNL     1      -2.335  49.932 -25.373  1.00  0.00     0.001 A 
HETATM   15  H9  UNL     1      -3.263  51.096 -22.525  1.00  0.00     0.166 HD
ENDROOT
BRANCH   1  16
HETATM   16  N1  UNL     1      -0.620  51.790 -21.634  1.00  0.00    -0.347 N 
HETATM   17  C1  UNL     1      -0.051  52.552 -20.638  1.00  0.00     0.252 C 
HETATM   18  O1  UNL     1       0.277  53.723 -20.790  1.00  0.00    -0.268 OA
HETATM   19  H1  UNL     1      -0.847  50.820 -21.469  1.00  0.00     0.163 HD
BRANCH  17  20
HETATM   20  C14 UNL     1       0.128  51.889 -19.314  1.00  0.00     0.034 A 
HETATM   21  C15 UNL     1       0.819  52.591 -18.321  1.00  0.00     0.018 A 
HETATM   22  C16 UNL     1       1.021  52.031 -17.053  1.00  0.00     0.015 A 
HETATM   23  C17 UNL     1       0.528  50.739 -16.785  1.00  0.00    -0.008 A 
HETATM   24  C18 UNL     1       0.555  49.891 -15.644  1.00  0.00     0.030 A 
HETATM   25  C20 UNL     1      -0.142  50.049 -17.796  1.00  0.00     0.043 A 
HETATM   26  C19 UNL     1      -0.083  48.719 -15.978  1.00  0.00     0.089 A 
HETATM   27  N3  UNL     1      -0.496  48.822 -17.280  1.00  0.00    -0.365 N 
HETATM   28  H17 UNL     1      -0.990  48.103 -17.791  1.00  0.00     0.165 HD
HETATM   29  C21 UNL     1      -0.355  50.592 -19.072  1.00  0.00     0.047 A 
ENDBRANCH  17  20
ENDBRANCH   1  16
TORSDOF 2
ENDMDL
