MODEL 1
REMARK minimizedAffinity -9.99038029
REMARK CNNscore 0.590548635
REMARK CNNaffinity 7.12176514
REMARK  8 active torsions:
REMARK  status: ('A' for Active; 'I' for Inactive)
REMARK    1  A    between atoms: C2_2  and  C3_3 
REMARK    2  A    between atoms: C2_2  and  C27_30 
REMARK    3  A    between atoms: C3_3  and  C4_4 
REMARK    4  A    between atoms: C4_4  and  C5_5 
REMARK    5  A    between atoms: C5_5  and  C7_7 
REMARK    6  A    between atoms: C26_28  and  O3_29 
REMARK    7  A    between atoms: C27_30  and  C29_32 
REMARK    8  A    between atoms: C29_32  and  O5_34 
ROOT
HETATM    1  C7  UNL     1      -0.085  50.417 -18.503  1.00  0.00    -0.002 C 
HETATM    2  C8  UNL     1      -1.020  49.256 -18.063  1.00  0.00     0.006 C 
HETATM    3  C9  UNL     1      -1.797  48.821 -19.314  1.00  0.00     0.010 C 
HETATM    4  C10 UNL     1      -1.084  49.535 -20.464  1.00  0.00     0.027 C 
HETATM    5  C11 UNL     1      -1.727  49.645 -21.828  1.00  0.00    -0.036 C 
HETATM    6  C12 UNL     1      -1.389  50.646 -22.679  1.00  0.00     0.002 C 
HETATM    7  C13 UNL     1      -0.391  51.692 -22.210  1.00  0.00     0.157 C 
HETATM    8  O1  UNL     1      -0.060  52.626 -22.940  1.00  0.00    -0.293 OA
HETATM    9  C14 UNL     1       0.232  51.576 -20.827  1.00  0.00     0.093 C 
HETATM   10  C15 UNL     1      -0.721  50.907 -19.838  1.00  0.00    -0.026 C 
HETATM   11  C16 UNL     1      -1.952  51.816 -19.612  1.00  0.00     0.016 C 
HETATM   12  C17 UNL     1      -1.979  50.789 -24.101  1.00  0.00    -0.008 C 
HETATM   13  C18 UNL     1      -2.998  51.960 -24.034  1.00  0.00     0.021 C 
HETATM   14  C19 UNL     1      -0.890  51.120 -25.172  1.00  0.00     0.022 C 
HETATM   15  C20 UNL     1      -1.143  50.566 -26.575  1.00  0.00     0.080 C 
HETATM   16  C21 UNL     1      -2.613  50.421 -26.871  1.00  0.00     0.131 C 
HETATM   17  O2  UNL     1      -3.111  50.883 -27.899  1.00  0.00    -0.298 OA
HETATM   18  C22 UNL     1      -3.439  49.608 -25.885  1.00  0.00     0.056 C 
HETATM   19  C23 UNL     1      -3.780  48.266 -26.533  1.00  0.00     0.018 C 
HETATM   20  C24 UNL     1      -2.669  49.452 -24.552  1.00  0.00     0.012 C 
HETATM   21  C25 UNL     1      -3.553  48.882 -23.435  1.00  0.00     0.042 C 
HETATM   22  C26 UNL     1      -2.712  48.564 -22.200  1.00  0.00     0.148 C 
ENDROOT
BRANCH   1  23
HETATM   23  C5  UNL     1       0.295  51.369 -17.335  1.00  0.00    -0.014 C 
HETATM   24  C6  UNL     1       1.127  52.604 -17.709  1.00  0.00     0.010 C 
BRANCH  23  25
HETATM   25  C4  UNL     1       0.972  50.680 -16.126  1.00  0.00     0.009 C 
BRANCH  25  26
HETATM   26  C3  UNL     1       1.445  51.598 -14.985  1.00  0.00     0.034 C 
BRANCH  26  27
HETATM   27  C2  UNL     1       2.931  51.666 -14.645  1.00  0.00    -0.075 C 
HETATM   28  C1  UNL     1       3.858  52.159 -15.488  1.00  0.00     0.015 C 
BRANCH  27  29
HETATM   29  C27 UNL     1       3.277  51.067 -13.275  1.00  0.00     0.107 C 
HETATM   30  C28 UNL     1       2.150  51.090 -12.238  1.00  0.00     0.026 C 
BRANCH  29  31
HETATM   31  C29 UNL     1       3.783  49.631 -13.414  1.00  0.00     0.147 C 
HETATM   32  O4  UNL     1       3.131  48.601 -13.471  1.00  0.00    -0.650 OA
BRANCH  31  33
HETATM   33  O5  UNL     1       5.133  49.571 -13.481  1.00  0.00    -0.776 OA
HETATM   34  H42 UNL     1       5.323  48.613 -13.561  1.00  0.00     0.167 HD
ENDBRANCH  31  33
ENDBRANCH  29  31
ENDBRANCH  27  29
ENDBRANCH  26  27
ENDBRANCH  25  26
ENDBRANCH  23  25
ENDBRANCH   1  23
BRANCH  22  35
HETATM   35  O3  UNL     1      -1.976  47.373 -22.467  1.00  0.00    -0.391 OA
HETATM   36  H37 UNL     1      -1.514  47.117 -21.651  1.00  0.00     0.210 HD
ENDBRANCH  22  35
TORSDOF 8
ENDMDL
MODEL 2
REMARK minimizedAffinity -7.50207567
REMARK CNNscore 0.449504733
REMARK CNNaffinity 6.06774759
REMARK  8 active torsions:
REMARK  status: ('A' for Active; 'I' for Inactive)
REMARK    1  A    between atoms: C2_2  and  C3_3 
REMARK    2  A    between atoms: C2_2  and  C27_30 
REMARK    3  A    between atoms: C3_3  and  C4_4 
REMARK    4  A    between atoms: C4_4  and  C5_5 
REMARK    5  A    between atoms: C5_5  and  C7_7 
REMARK    6  A    between atoms: C26_28  and  O3_29 
REMARK    7  A    between atoms: C27_30  and  C29_32 
REMARK    8  A    between atoms: C29_32  and  O5_34 
ROOT
HETATM    1  C7  UNL     1     -13.327  46.008 -27.316  1.00  0.00    -0.002 C 
HETATM    2  C8  UNL     1     -12.998  46.736 -25.982  1.00  0.00     0.006 C 
HETATM    3  C9  UNL     1     -11.538  47.199 -26.085  1.00  0.00     0.010 C 
HETATM    4  C10 UNL     1     -11.178  46.981 -27.556  1.00  0.00     0.027 C 
HETATM    5  C11 UNL     1      -9.738  46.997 -28.014  1.00  0.00    -0.036 C 
HETATM    6  C12 UNL     1      -9.357  46.341 -29.139  1.00  0.00     0.002 C 
HETATM    7  C13 UNL     1     -10.401  45.538 -29.900  1.00  0.00     0.157 C 
HETATM    8  O1  UNL     1     -10.104  44.917 -30.920  1.00  0.00    -0.293 OA
HETATM    9  C14 UNL     1     -11.842  45.520 -29.413  1.00  0.00     0.093 C 
HETATM   10  C15 UNL     1     -11.922  45.663 -27.895  1.00  0.00    -0.026 C 
HETATM   11  C16 UNL     1     -11.291  44.420 -27.224  1.00  0.00     0.016 C 
HETATM   12  C17 UNL     1      -7.909  46.352 -29.682  1.00  0.00    -0.008 C 
HETATM   13  C18 UNL     1      -7.309  44.958 -29.351  1.00  0.00     0.021 C 
HETATM   14  C19 UNL     1      -7.850  46.580 -31.227  1.00  0.00     0.022 C 
HETATM   15  C20 UNL     1      -6.624  47.333 -31.744  1.00  0.00     0.080 C 
HETATM   16  C21 UNL     1      -5.417  47.123 -30.867  1.00  0.00     0.131 C 
HETATM   17  O2  UNL     1      -4.332  46.777 -31.337  1.00  0.00    -0.298 OA
HETATM   18  C22 UNL     1      -5.576  47.438 -29.387  1.00  0.00     0.056 C 
HETATM   19  C23 UNL     1      -4.832  48.738 -29.087  1.00  0.00     0.018 C 
HETATM   20  C24 UNL     1      -7.078  47.508 -29.019  1.00  0.00     0.012 C 
HETATM   21  C25 UNL     1      -7.302  47.550 -27.501  1.00  0.00     0.042 C 
HETATM   22  C26 UNL     1      -8.775  47.813 -27.188  1.00  0.00     0.148 C 
ENDROOT
BRANCH   1  23
HETATM   23  C5  UNL     1     -14.473  44.968 -27.176  1.00  0.00    -0.014 C 
HETATM   24  C6  UNL     1     -15.650  45.119 -28.150  1.00  0.00     0.010 C 
BRANCH  23  25
HETATM   25  C4  UNL     1     -15.048  44.821 -25.746  1.00  0.00     0.009 C 
BRANCH  25  26
HETATM   26  C3  UNL     1     -16.551  45.103 -25.574  1.00  0.00     0.034 C 
BRANCH  26  27
HETATM   27  C2  UNL     1     -16.998  46.372 -24.855  1.00  0.00    -0.075 C 
HETATM   28  C1  UNL     1     -16.136  47.266 -24.334  1.00  0.00     0.015 C 
BRANCH  27  29
HETATM   29  C27 UNL     1     -18.523  46.505 -24.731  1.00  0.00     0.107 C 
HETATM   30  C28 UNL     1     -19.343  45.667 -25.716  1.00  0.00     0.026 C 
BRANCH  29  31
HETATM   31  C29 UNL     1     -18.989  46.186 -23.311  1.00  0.00     0.147 C 
HETATM   32  O4  UNL     1     -18.624  46.693 -22.262  1.00  0.00    -0.650 OA
BRANCH  31  33
HETATM   33  O5  UNL     1     -19.930  45.214 -23.290  1.00  0.00    -0.776 OA
HETATM   34  H42 UNL     1     -20.134  45.103 -22.338  1.00  0.00     0.167 HD
ENDBRANCH  31  33
ENDBRANCH  29  31
ENDBRANCH  27  29
ENDBRANCH  26  27
ENDBRANCH  25  26
ENDBRANCH  23  25
ENDBRANCH   1  23
BRANCH  22  35
HETATM   35  O3  UNL     1      -9.036  49.191 -27.443  1.00  0.00    -0.391 OA
HETATM   36  H37 UNL     1      -9.945  49.381 -27.155  1.00  0.00     0.210 HD
ENDBRANCH  22  35
TORSDOF 8
ENDMDL
MODEL 3
REMARK minimizedAffinity -8.84254456
REMARK CNNscore 0.408677965
REMARK CNNaffinity 6.69675255
REMARK  8 active torsions:
REMARK  status: ('A' for Active; 'I' for Inactive)
REMARK    1  A    between atoms: C2_2  and  C3_3 
REMARK    2  A    between atoms: C2_2  and  C27_30 
REMARK    3  A    between atoms: C3_3  and  C4_4 
REMARK    4  A    between atoms: C4_4  and  C5_5 
REMARK    5  A    between atoms: C5_5  and  C7_7 
REMARK    6  A    between atoms: C26_28  and  O3_29 
REMARK    7  A    between atoms: C27_30  and  C29_32 
REMARK    8  A    between atoms: C29_32  and  O5_34 
ROOT
HETATM    1  C7  UNL     1      -1.378  51.787 -20.710  1.00  0.00    -0.002 C 
HETATM    2  C8  UNL     1      -2.785  51.127 -20.708  1.00  0.00     0.006 C 
HETATM    3  C9  UNL     1      -3.062  50.690 -19.262  1.00  0.00     0.010 C 
HETATM    4  C10 UNL     1      -1.954  51.362 -18.449  1.00  0.00     0.027 C 
HETATM    5  C11 UNL     1      -1.660  50.930 -17.031  1.00  0.00    -0.036 C 
HETATM    6  C12 UNL     1      -0.434  51.125 -16.483  1.00  0.00     0.002 C 
HETATM    7  C13 UNL     1       0.658  51.735 -17.347  1.00  0.00     0.157 C 
HETATM    8  O1  UNL     1       1.790  51.922 -16.900  1.00  0.00    -0.293 OA
HETATM    9  C14 UNL     1       0.349  52.147 -18.778  1.00  0.00     0.093 C 
HETATM   10  C15 UNL     1      -0.730  51.258 -19.396  1.00  0.00    -0.026 C 
HETATM   11  C16 UNL     1      -0.191  49.815 -19.536  1.00  0.00     0.016 C 
HETATM   12  C17 UNL     1      -0.082  50.743 -15.027  1.00  0.00    -0.008 C 
HETATM   13  C18 UNL     1       0.788  49.459 -15.111  1.00  0.00     0.021 C 
HETATM   14  C19 UNL     1       0.726  51.861 -14.292  1.00  0.00     0.022 C 
HETATM   15  C20 UNL     1       0.486  51.977 -12.786  1.00  0.00     0.080 C 
HETATM   16  C21 UNL     1       0.102  50.658 -12.168  1.00  0.00     0.131 C 
HETATM   17  O2  UNL     1       0.680  50.223 -11.171  1.00  0.00    -0.298 OA
HETATM   18  C22 UNL     1      -1.084  49.929 -12.781  1.00  0.00     0.056 C 
HETATM   19  C23 UNL     1      -2.270  50.049 -11.825  1.00  0.00     0.018 C 
HETATM   20  C24 UNL     1      -1.388  50.499 -14.187  1.00  0.00     0.012 C 
HETATM   21  C25 UNL     1      -2.389  49.631 -14.962  1.00  0.00     0.042 C 
HETATM   22  C26 UNL     1      -2.806  50.326 -16.257  1.00  0.00     0.148 C 
ENDROOT
BRANCH   1  23
HETATM   23  C5  UNL     1      -0.677  51.724 -22.095  1.00  0.00    -0.014 C 
HETATM   24  C6  UNL     1       0.531  52.652 -22.289  1.00  0.00     0.010 C 
BRANCH  23  25
HETATM   25  C4  UNL     1      -1.619  51.901 -23.311  1.00  0.00     0.009 C 
BRANCH  25  26
HETATM   26  C3  UNL     1      -1.059  52.688 -24.509  1.00  0.00     0.034 C 
BRANCH  26  27
HETATM   27  C2  UNL     1      -0.556  51.929 -25.733  1.00  0.00    -0.075 C 
HETATM   28  C1  UNL     1      -0.982  50.696 -26.063  1.00  0.00     0.015 C 
BRANCH  27  29
HETATM   29  C27 UNL     1       0.526  52.682 -26.521  1.00  0.00     0.107 C 
HETATM   30  C28 UNL     1       1.407  51.817 -27.428  1.00  0.00     0.026 C 
BRANCH  29  31
HETATM   31  C29 UNL     1      -0.084  53.805 -27.360  1.00  0.00     0.147 C 
HETATM   32  O4  UNL     1      -0.154  54.994 -27.095  1.00  0.00    -0.650 OA
BRANCH  31  33
HETATM   33  O5  UNL     1      -0.584  53.351 -28.532  1.00  0.00    -0.776 OA
HETATM   34  H42 UNL     1      -0.944  54.155 -28.962  1.00  0.00     0.167 HD
ENDBRANCH  31  33
ENDBRANCH  29  31
ENDBRANCH  27  29
ENDBRANCH  26  27
ENDBRANCH  25  26
ENDBRANCH  23  25
ENDBRANCH   1  23
BRANCH  22  35
HETATM   35  O3  UNL     1      -3.708  51.375 -15.918  1.00  0.00    -0.391 OA
HETATM   36  H37 UNL     1      -4.048  51.757 -16.745  1.00  0.00     0.210 HD
ENDBRANCH  22  35
TORSDOF 8
ENDMDL
MODEL 4
REMARK minimizedAffinity -8.863904
REMARK CNNscore 0.401504129
REMARK CNNaffinity 6.57979059
REMARK  8 active torsions:
REMARK  status: ('A' for Active; 'I' for Inactive)
REMARK    1  A    between atoms: C2_2  and  C3_3 
REMARK    2  A    between atoms: C2_2  and  C27_30 
REMARK    3  A    between atoms: C3_3  and  C4_4 
REMARK    4  A    between atoms: C4_4  and  C5_5 
REMARK    5  A    between atoms: C5_5  and  C7_7 
REMARK    6  A    between atoms: C26_28  and  O3_29 
REMARK    7  A    between atoms: C27_30  and  C29_32 
REMARK    8  A    between atoms: C29_32  and  O5_34 
ROOT
HETATM    1  C7  UNL     1      -0.188  51.625 -15.580  1.00  0.00    -0.002 C 
HETATM    2  C8  UNL     1       1.259  52.189 -15.648  1.00  0.00     0.006 C 
HETATM    3  C9  UNL     1       1.554  52.459 -17.131  1.00  0.00     0.010 C 
HETATM    4  C10 UNL     1       0.193  52.318 -17.815  1.00  0.00     0.027 C 
HETATM    5  C11 UNL     1       0.089  52.179 -19.317  1.00  0.00    -0.036 C 
HETATM    6  C12 UNL     1      -0.982  51.573 -19.888  1.00  0.00     0.002 C 
HETATM    7  C13 UNL     1      -2.052  50.984 -18.982  1.00  0.00     0.157 C 
HETATM    8  O1  UNL     1      -3.037  50.416 -19.451  1.00  0.00    -0.293 OA
HETATM    9  C14 UNL     1      -1.921  51.118 -17.472  1.00  0.00     0.093 C 
HETATM   10  C15 UNL     1      -0.457  51.144 -17.037  1.00  0.00    -0.026 C 
HETATM   11  C16 UNL     1       0.198  49.777 -17.343  1.00  0.00     0.016 C 
HETATM   12  C17 UNL     1      -1.166  51.436 -21.417  1.00  0.00    -0.008 C 
HETATM   13  C18 UNL     1      -0.864  49.951 -21.761  1.00  0.00     0.021 C 
HETATM   14  C19 UNL     1      -2.619  51.782 -21.880  1.00  0.00     0.022 C 
HETATM   15  C20 UNL     1      -2.745  52.404 -23.271  1.00  0.00     0.080 C 
HETATM   16  C21 UNL     1      -1.640  51.962 -24.194  1.00  0.00     0.131 C 
HETATM   17  O2  UNL     1      -1.880  51.514 -25.316  1.00  0.00    -0.298 OA
HETATM   18  C22 UNL     1      -0.213  52.171 -23.710  1.00  0.00     0.056 C 
HETATM   19  C23 UNL     1       0.398  53.331 -24.496  1.00  0.00     0.018 C 
HETATM   20  C24 UNL     1      -0.201  52.411 -22.181  1.00  0.00     0.012 C 
HETATM   21  C25 UNL     1       1.217  52.357 -21.597  1.00  0.00     0.042 C 
HETATM   22  C26 UNL     1       1.205  52.788 -20.131  1.00  0.00     0.148 C 
ENDROOT
BRANCH   1  23
HETATM   23  C5  UNL     1      -0.438  50.740 -14.327  1.00  0.00    -0.014 C 
HETATM   24  C6  UNL     1      -1.452  49.599 -14.493  1.00  0.00     0.010 C 
BRANCH  23  25
HETATM   25  C4  UNL     1      -0.798  51.521 -13.039  1.00  0.00     0.009 C 
BRANCH  25  26
HETATM   26  C3  UNL     1       0.318  52.381 -12.420  1.00  0.00     0.034 C 
BRANCH  26  27
HETATM   27  C2  UNL     1       0.132  52.952 -11.017  1.00  0.00    -0.075 C 
HETATM   28  C1  UNL     1      -0.054  52.184  -9.927  1.00  0.00     0.015 C 
BRANCH  27  29
HETATM   29  C27 UNL     1       0.117  54.487 -10.975  1.00  0.00     0.107 C 
HETATM   30  C28 UNL     1      -1.101  55.119 -10.294  1.00  0.00     0.026 C 
BRANCH  29  31
HETATM   31  C29 UNL     1       1.384  55.031 -10.313  1.00  0.00     0.147 C 
HETATM   32  O4  UNL     1       1.519  55.463  -9.180  1.00  0.00    -0.650 OA
BRANCH  31  33
HETATM   33  O5  UNL     1       2.450  54.993 -11.145  1.00  0.00    -0.776 OA
HETATM   34  H42 UNL     1       3.180  55.368 -10.611  1.00  0.00     0.167 HD
ENDBRANCH  31  33
ENDBRANCH  29  31
ENDBRANCH  27  29
ENDBRANCH  26  27
ENDBRANCH  25  26
ENDBRANCH  23  25
ENDBRANCH   1  23
BRANCH  22  35
HETATM   35  O3  UNL     1       1.053  54.204 -20.093  1.00  0.00    -0.391 OA
HETATM   36  H37 UNL     1       1.140  54.490 -19.168  1.00  0.00     0.210 HD
ENDBRANCH  22  35
TORSDOF 8
ENDMDL
MODEL 5
REMARK minimizedAffinity -7.85692787
REMARK CNNscore 0.264137566
REMARK CNNaffinity 6.06464338
REMARK  8 active torsions:
REMARK  status: ('A' for Active; 'I' for Inactive)
REMARK    1  A    between atoms: C2_2  and  C3_3 
REMARK    2  A    between atoms: C2_2  and  C27_30 
REMARK    3  A    between atoms: C3_3  and  C4_4 
REMARK    4  A    between atoms: C4_4  and  C5_5 
REMARK    5  A    between atoms: C5_5  and  C7_7 
REMARK    6  A    between atoms: C26_28  and  O3_29 
REMARK    7  A    between atoms: C27_30  and  C29_32 
REMARK    8  A    between atoms: C29_32  and  O5_34 
ROOT
HETATM    1  C7  UNL     1      -7.778  48.705 -19.738  1.00  0.00    -0.002 C 
HETATM    2  C8  UNL     1      -7.022  48.408 -18.412  1.00  0.00     0.006 C 
HETATM    3  C9  UNL     1      -5.571  48.864 -18.624  1.00  0.00     0.010 C 
HETATM    4  C10 UNL     1      -5.614  49.657 -19.932  1.00  0.00     0.027 C 
HETATM    5  C11 UNL     1      -4.344  50.001 -20.674  1.00  0.00    -0.036 C 
HETATM    6  C12 UNL     1      -4.359  50.236 -22.011  1.00  0.00     0.002 C 
HETATM    7  C13 UNL     1      -5.675  50.089 -22.758  1.00  0.00     0.157 C 
HETATM    8  O1  UNL     1      -5.739  50.281 -23.972  1.00  0.00    -0.293 OA
HETATM    9  C14 UNL     1      -6.940  49.724 -21.997  1.00  0.00     0.093 C 
HETATM   10  C15 UNL     1      -6.631  48.851 -20.782  1.00  0.00    -0.026 C 
HETATM   11  C16 UNL     1      -6.079  47.485 -21.255  1.00  0.00     0.016 C 
HETATM   12  C17 UNL     1      -3.102  50.631 -22.820  1.00  0.00    -0.008 C 
HETATM   13  C18 UNL     1      -2.686  49.369 -23.623  1.00  0.00     0.021 C 
HETATM   14  C19 UNL     1      -3.375  51.805 -23.815  1.00  0.00     0.022 C 
HETATM   15  C20 UNL     1      -2.197  52.744 -24.078  1.00  0.00     0.080 C 
HETATM   16  C21 UNL     1      -0.870  52.047 -23.925  1.00  0.00     0.131 C 
HETATM   17  O2  UNL     1      -0.004  52.114 -24.798  1.00  0.00    -0.298 OA
HETATM   18  C22 UNL     1      -0.616  51.328 -22.608  1.00  0.00     0.056 C 
HETATM   19  C23 UNL     1       0.388  52.146 -21.797  1.00  0.00     0.018 C 
HETATM   20  C24 UNL     1      -1.953  51.107 -21.860  1.00  0.00     0.012 C 
HETATM   21  C25 UNL     1      -1.798  50.153 -20.667  1.00  0.00     0.042 C 
HETATM   22  C26 UNL     1      -3.087  50.115 -19.847  1.00  0.00     0.148 C 
ENDROOT
BRANCH   1  23
HETATM   23  C5  UNL     1      -9.017  47.792 -19.950  1.00  0.00    -0.014 C 
HETATM   24  C6  UNL     1      -9.318  47.380 -21.398  1.00  0.00     0.010 C 
BRANCH  23  25
HETATM   25  C4  UNL     1     -10.329  48.317 -19.317  1.00  0.00     0.009 C 
BRANCH  25  26
HETATM   26  C3  UNL     1     -11.193  47.288 -18.566  1.00  0.00     0.034 C 
BRANCH  26  27
HETATM   27  C2  UNL     1     -12.335  46.592 -19.299  1.00  0.00    -0.075 C 
HETATM   28  C1  UNL     1     -12.168  45.478 -20.036  1.00  0.00     0.015 C 
BRANCH  27  29
HETATM   29  C27 UNL     1     -13.684  47.314 -19.163  1.00  0.00     0.107 C 
HETATM   30  C28 UNL     1     -14.003  47.866 -17.771  1.00  0.00     0.026 C 
BRANCH  29  31
HETATM   31  C29 UNL     1     -13.804  48.451 -20.179  1.00  0.00     0.147 C 
HETATM   32  O4  UNL     1     -13.650  49.648 -19.996  1.00  0.00    -0.650 OA
BRANCH  31  33
HETATM   33  O5  UNL     1     -14.118  47.999 -21.414  1.00  0.00    -0.776 OA
HETATM   34  H42 UNL     1     -14.170  48.813 -21.957  1.00  0.00     0.167 HD
ENDBRANCH  31  33
ENDBRANCH  29  31
ENDBRANCH  27  29
ENDBRANCH  26  27
ENDBRANCH  25  26
ENDBRANCH  23  25
ENDBRANCH   1  23
BRANCH  22  35
HETATM   35  O3  UNL     1      -3.164  51.324 -19.096  1.00  0.00    -0.391 OA
HETATM   36  H37 UNL     1      -3.931  51.260 -18.504  1.00  0.00     0.210 HD
ENDBRANCH  22  35
TORSDOF 8
ENDMDL
MODEL 6
REMARK minimizedAffinity -10.0521955
REMARK CNNscore 0.262864232
REMARK CNNaffinity 6.48165274
REMARK  8 active torsions:
REMARK  status: ('A' for Active; 'I' for Inactive)
REMARK    1  A    between atoms: C2_2  and  C3_3 
REMARK    2  A    between atoms: C2_2  and  C27_30 
REMARK    3  A    between atoms: C3_3  and  C4_4 
REMARK    4  A    between atoms: C4_4  and  C5_5 
REMARK    5  A    between atoms: C5_5  and  C7_7 
REMARK    6  A    between atoms: C26_28  and  O3_29 
REMARK    7  A    between atoms: C27_30  and  C29_32 
REMARK    8  A    between atoms: C29_32  and  O5_34 
ROOT
HETATM    1  C7  UNL     1      -0.970  51.293 -25.163  1.00  0.00    -0.002 C 
HETATM    2  C8  UNL     1      -0.188  52.630 -25.298  1.00  0.00     0.006 C 
HETATM    3  C9  UNL     1       0.227  53.039 -23.877  1.00  0.00     0.010 C 
HETATM    4  C10 UNL     1      -0.072  51.802 -23.029  1.00  0.00     0.027 C 
HETATM    5  C11 UNL     1      -0.121  51.887 -21.520  1.00  0.00    -0.036 C 
HETATM    6  C12 UNL     1      -0.841  50.996 -20.794  1.00  0.00     0.002 C 
HETATM    7  C13 UNL     1      -1.649  49.942 -21.534  1.00  0.00     0.157 C 
HETATM    8  O1  UNL     1      -2.327  49.117 -20.922  1.00  0.00    -0.293 OA
HETATM    9  C14 UNL     1      -1.602  49.882 -23.054  1.00  0.00     0.093 C 
HETATM   10  C15 UNL     1      -1.383  51.267 -23.661  1.00  0.00    -0.026 C 
HETATM   11  C16 UNL     1      -2.610  52.161 -23.365  1.00  0.00     0.016 C 
HETATM   12  C17 UNL     1      -0.898  51.005 -19.249  1.00  0.00    -0.008 C 
HETATM   13  C18 UNL     1      -2.291  51.578 -18.868  1.00  0.00     0.021 C 
HETATM   14  C19 UNL     1      -0.747  49.576 -18.635  1.00  0.00     0.022 C 
HETATM   15  C20 UNL     1      -0.055  49.505 -17.273  1.00  0.00     0.080 C 
HETATM   16  C21 UNL     1      -0.257  50.762 -16.467  1.00  0.00     0.131 C 
HETATM   17  O2  UNL     1      -0.657  50.722 -15.303  1.00  0.00    -0.298 OA
HETATM   18  C22 UNL     1       0.133  52.075 -17.128  1.00  0.00     0.056 C 
HETATM   19  C23 UNL     1       1.425  52.575 -16.481  1.00  0.00     0.018 C 
HETATM   20  C24 UNL     1       0.265  51.880 -18.657  1.00  0.00     0.012 C 
HETATM   21  C25 UNL     1       0.387  53.216 -19.404  1.00  0.00     0.042 C 
HETATM   22  C26 UNL     1       0.707  52.973 -20.878  1.00  0.00     0.148 C 
ENDROOT
BRANCH   1  23
HETATM   23  C5  UNL     1      -1.968  51.052 -26.330  1.00  0.00    -0.014 C 
HETATM   24  C6  UNL     1      -3.288  51.834 -26.268  1.00  0.00     0.010 C 
BRANCH  23  25
HETATM   25  C4  UNL     1      -2.303  49.565 -26.604  1.00  0.00     0.009 C 
BRANCH  25  26
HETATM   26  C3  UNL     1      -3.653  49.276 -27.284  1.00  0.00     0.034 C 
BRANCH  26  27
HETATM   27  C2  UNL     1      -4.719  48.489 -26.528  1.00  0.00    -0.075 C 
HETATM   28  C1  UNL     1      -4.869  48.547 -25.192  1.00  0.00     0.015 C 
BRANCH  27  29
HETATM   29  C27 UNL     1      -5.567  47.579 -27.429  1.00  0.00     0.107 C 
HETATM   30  C28 UNL     1      -7.034  47.424 -27.019  1.00  0.00     0.026 C 
BRANCH  29  31
HETATM   31  C29 UNL     1      -5.513  48.042 -28.885  1.00  0.00     0.147 C 
HETATM   32  O4  UNL     1      -4.651  47.816 -29.719  1.00  0.00    -0.650 OA
BRANCH  31  33
HETATM   33  O5  UNL     1      -6.591  48.785 -29.224  1.00  0.00    -0.776 OA
HETATM   34  H42 UNL     1      -6.432  49.018 -30.162  1.00  0.00     0.167 HD
ENDBRANCH  31  33
ENDBRANCH  29  31
ENDBRANCH  27  29
ENDBRANCH  26  27
ENDBRANCH  25  26
ENDBRANCH  23  25
ENDBRANCH   1  23
BRANCH  22  35
HETATM   35  O3  UNL     1       2.078  52.594 -20.971  1.00  0.00    -0.391 OA
HETATM   36  H37 UNL     1       2.308  52.532 -21.913  1.00  0.00     0.210 HD
ENDBRANCH  22  35
TORSDOF 8
ENDMDL
MODEL 7
REMARK minimizedAffinity -9.12635803
REMARK CNNscore 0.255614877
REMARK CNNaffinity 6.04235268
REMARK  8 active torsions:
REMARK  status: ('A' for Active; 'I' for Inactive)
REMARK    1  A    between atoms: C2_2  and  C3_3 
REMARK    2  A    between atoms: C2_2  and  C27_30 
REMARK    3  A    between atoms: C3_3  and  C4_4 
REMARK    4  A    between atoms: C4_4  and  C5_5 
REMARK    5  A    between atoms: C5_5  and  C7_7 
REMARK    6  A    between atoms: C26_28  and  O3_29 
REMARK    7  A    between atoms: C27_30  and  C29_32 
REMARK    8  A    between atoms: C29_32  and  O5_34 
ROOT
HETATM    1  C7  UNL     1      -0.318  51.420 -15.585  1.00  0.00    -0.002 C 
HETATM    2  C8  UNL     1       1.125  51.997 -15.611  1.00  0.00     0.006 C 
HETATM    3  C9  UNL     1       1.440  52.323 -17.078  1.00  0.00     0.010 C 
HETATM    4  C10 UNL     1       0.090  52.198 -17.787  1.00  0.00     0.027 C 
HETATM    5  C11 UNL     1       0.009  52.113 -19.294  1.00  0.00    -0.036 C 
HETATM    6  C12 UNL     1      -1.049  51.522 -19.904  1.00  0.00     0.002 C 
HETATM    7  C13 UNL     1      -2.127  50.892 -19.036  1.00  0.00     0.157 C 
HETATM    8  O1  UNL     1      -3.101  50.335 -19.540  1.00  0.00    -0.293 OA
HETATM    9  C14 UNL     1      -2.020  50.971 -17.521  1.00  0.00     0.093 C 
HETATM   10  C15 UNL     1      -0.562  50.992 -17.063  1.00  0.00    -0.026 C 
HETATM   11  C16 UNL     1       0.107  49.641 -17.409  1.00  0.00     0.016 C 
HETATM   12  C17 UNL     1      -1.210  51.439 -21.439  1.00  0.00    -0.008 C 
HETATM   13  C18 UNL     1      -0.891  49.971 -21.833  1.00  0.00     0.021 C 
HETATM   14  C19 UNL     1      -2.658  51.792 -21.910  1.00  0.00     0.022 C 
HETATM   15  C20 UNL     1      -2.769  52.465 -23.279  1.00  0.00     0.080 C 
HETATM   16  C21 UNL     1      -1.647  52.065 -24.201  1.00  0.00     0.131 C 
HETATM   17  O2  UNL     1      -1.867  51.657 -25.342  1.00  0.00    -0.298 OA
HETATM   18  C22 UNL     1      -0.228  52.266 -23.689  1.00  0.00     0.056 C 
HETATM   19  C23 UNL     1       0.385  53.458 -24.423  1.00  0.00     0.018 C 
HETATM   20  C24 UNL     1      -0.241  52.450 -22.153  1.00  0.00     0.012 C 
HETATM   21  C25 UNL     1       1.169  52.383 -21.549  1.00  0.00     0.042 C 
HETATM   22  C26 UNL     1       1.132  52.760 -20.069  1.00  0.00     0.148 C 
ENDROOT
BRANCH   1  23
HETATM   23  C5  UNL     1      -0.580  50.488 -14.370  1.00  0.00    -0.014 C 
HETATM   24  C6  UNL     1       0.374  49.295 -14.210  1.00  0.00     0.010 C 
BRANCH  23  25
HETATM   25  C4  UNL     1      -2.031  49.963 -14.251  1.00  0.00     0.009 C 
BRANCH  25  26
HETATM   26  C3  UNL     1      -3.034  50.867 -13.513  1.00  0.00     0.034 C 
BRANCH  26  27
HETATM   27  C2  UNL     1      -3.581  50.429 -12.158  1.00  0.00    -0.075 C 
HETATM   28  C1  UNL     1      -3.743  49.139 -11.811  1.00  0.00     0.015 C 
BRANCH  27  29
HETATM   29  C27 UNL     1      -3.983  51.600 -11.249  1.00  0.00     0.107 C 
HETATM   30  C28 UNL     1      -3.397  51.571  -9.834  1.00  0.00     0.026 C 
BRANCH  29  31
HETATM   31  C29 UNL     1      -3.638  52.942 -11.894  1.00  0.00     0.147 C 
HETATM   32  O4  UNL     1      -4.308  53.602 -12.672  1.00  0.00    -0.650 OA
BRANCH  31  33
HETATM   33  O5  UNL     1      -2.426  53.398 -11.505  1.00  0.00    -0.776 OA
HETATM   34  H42 UNL     1      -2.326  54.245 -11.987  1.00  0.00     0.167 HD
ENDBRANCH  31  33
ENDBRANCH  29  31
ENDBRANCH  27  29
ENDBRANCH  26  27
ENDBRANCH  25  26
ENDBRANCH  23  25
ENDBRANCH   1  23
BRANCH  22  35
HETATM   35  O3  UNL     1       0.969  54.173 -19.981  1.00  0.00    -0.391 OA
HETATM   36  H37 UNL     1       1.041  54.425 -19.045  1.00  0.00     0.210 HD
ENDBRANCH  22  35
TORSDOF 8
ENDMDL
MODEL 8
REMARK minimizedAffinity -7.72693968
REMARK CNNscore 0.242968857
REMARK CNNaffinity 6.49200583
REMARK  8 active torsions:
REMARK  status: ('A' for Active; 'I' for Inactive)
REMARK    1  A    between atoms: C2_2  and  C3_3 
REMARK    2  A    between atoms: C2_2  and  C27_30 
REMARK    3  A    between atoms: C3_3  and  C4_4 
REMARK    4  A    between atoms: C4_4  and  C5_5 
REMARK    5  A    between atoms: C5_5  and  C7_7 
REMARK    6  A    between atoms: C26_28  and  O3_29 
REMARK    7  A    between atoms: C27_30  and  C29_32 
REMARK    8  A    between atoms: C29_32  and  O5_34 
ROOT
HETATM    1  C7  UNL     1      -3.381  50.349 -23.353  1.00  0.00    -0.002 C 
HETATM    2  C8  UNL     1      -3.774  48.879 -23.670  1.00  0.00     0.006 C 
HETATM    3  C9  UNL     1      -3.727  48.116 -22.339  1.00  0.00     0.010 C 
HETATM    4  C10 UNL     1      -3.595  49.214 -21.282  1.00  0.00     0.027 C 
HETATM    5  C11 UNL     1      -3.184  48.885 -19.865  1.00  0.00    -0.036 C 
HETATM    6  C12 UNL     1      -2.592  49.817 -19.077  1.00  0.00     0.002 C 
HETATM    7  C13 UNL     1      -2.296  51.186 -19.668  1.00  0.00     0.157 C 
HETATM    8  O1  UNL     1      -1.750  52.061 -18.997  1.00  0.00    -0.293 OA
HETATM    9  C14 UNL     1      -2.700  51.493 -21.102  1.00  0.00     0.093 C 
HETATM   10  C15 UNL     1      -2.662  50.241 -21.975  1.00  0.00    -0.026 C 
HETATM   11  C16 UNL     1      -1.202  49.745 -22.103  1.00  0.00     0.016 C 
HETATM   12  C17 UNL     1      -2.185  49.554 -17.608  1.00  0.00    -0.008 C 
HETATM   13  C18 UNL     1      -0.640  49.396 -17.605  1.00  0.00     0.021 C 
HETATM   14  C19 UNL     1      -2.581  50.730 -16.657  1.00  0.00     0.022 C 
HETATM   15  C20 UNL     1      -2.937  50.337 -15.223  1.00  0.00     0.080 C 
HETATM   16  C21 UNL     1      -2.220  49.088 -14.781  1.00  0.00     0.131 C 
HETATM   17  O2  UNL     1      -1.593  49.048 -13.721  1.00  0.00    -0.298 OA
HETATM   18  C22 UNL     1      -2.373  47.857 -15.661  1.00  0.00     0.056 C 
HETATM   19  C23 UNL     1      -3.295  46.867 -14.949  1.00  0.00     0.018 C 
HETATM   20  C24 UNL     1      -2.896  48.266 -17.058  1.00  0.00     0.012 C 
HETATM   21  C25 UNL     1      -2.812  47.114 -18.069  1.00  0.00     0.042 C 
HETATM   22  C26 UNL     1      -3.513  47.497 -19.372  1.00  0.00     0.148 C 
ENDROOT
BRANCH   1  23
HETATM   23  C5  UNL     1      -2.780  51.096 -24.576  1.00  0.00    -0.014 C 
HETATM   24  C6  UNL     1      -3.714  52.076 -25.300  1.00  0.00     0.010 C 
BRANCH  23  25
HETATM   25  C4  UNL     1      -2.122  50.183 -25.639  1.00  0.00     0.009 C 
BRANCH  25  26
HETATM   26  C3  UNL     1      -0.637  50.441 -25.947  1.00  0.00     0.034 C 
BRANCH  26  27
HETATM   27  C2  UNL     1      -0.015  51.781 -25.566  1.00  0.00    -0.075 C 
HETATM   28  C1  UNL     1       0.667  51.978 -24.421  1.00  0.00     0.015 C 
BRANCH  27  29
HETATM   29  C27 UNL     1      -0.288  52.898 -26.583  1.00  0.00     0.107 C 
HETATM   30  C28 UNL     1       0.079  54.314 -26.127  1.00  0.00     0.026 C 
BRANCH  29  31
HETATM   31  C29 UNL     1       0.411  52.616 -27.912  1.00  0.00     0.147 C 
HETATM   32  O4  UNL     1       1.440  51.989 -28.107  1.00  0.00    -0.650 OA
BRANCH  31  33
HETATM   33  O5  UNL     1      -0.251  53.155 -28.961  1.00  0.00    -0.776 OA
HETATM   34  H42 UNL     1       0.296  52.911 -29.737  1.00  0.00     0.167 HD
ENDBRANCH  31  33
ENDBRANCH  29  31
ENDBRANCH  27  29
ENDBRANCH  26  27
ENDBRANCH  25  26
ENDBRANCH  23  25
ENDBRANCH   1  23
BRANCH  22  35
HETATM   35  O3  UNL     1      -4.918  47.432 -19.148  1.00  0.00    -0.391 OA
HETATM   36  H37 UNL     1      -5.365  47.582 -19.998  1.00  0.00     0.210 HD
ENDBRANCH  22  35
TORSDOF 8
ENDMDL
MODEL 9
REMARK minimizedAffinity -9.66244507
REMARK CNNscore 0.242751807
REMARK CNNaffinity 6.38243866
REMARK  8 active torsions:
REMARK  status: ('A' for Active; 'I' for Inactive)
REMARK    1  A    between atoms: C2_2  and  C3_3 
REMARK    2  A    between atoms: C2_2  and  C27_30 
REMARK    3  A    between atoms: C3_3  and  C4_4 
REMARK    4  A    between atoms: C4_4  and  C5_5 
REMARK    5  A    between atoms: C5_5  and  C7_7 
REMARK    6  A    between atoms: C26_28  and  O3_29 
REMARK    7  A    between atoms: C27_30  and  C29_32 
REMARK    8  A    between atoms: C29_32  and  O5_34 
ROOT
HETATM    1  C7  UNL     1      -0.626  51.284 -21.903  1.00  0.00    -0.002 C 
HETATM    2  C8  UNL     1      -0.880  51.903 -20.500  1.00  0.00     0.006 C 
HETATM    3  C9  UNL     1      -2.292  51.470 -20.079  1.00  0.00     0.010 C 
HETATM    4  C10 UNL     1      -2.676  50.401 -21.104  1.00  0.00     0.027 C 
HETATM    5  C11 UNL     1      -4.111  49.949 -21.255  1.00  0.00    -0.036 C 
HETATM    6  C12 UNL     1      -4.555  49.417 -22.421  1.00  0.00     0.002 C 
HETATM    7  C13 UNL     1      -3.593  49.338 -23.596  1.00  0.00     0.157 C 
HETATM    8  O1  UNL     1      -3.950  48.874 -24.678  1.00  0.00    -0.293 OA
HETATM    9  C14 UNL     1      -2.158  49.815 -23.431  1.00  0.00     0.093 C 
HETATM   10  C15 UNL     1      -2.059  50.952 -22.416  1.00  0.00    -0.026 C 
HETATM   11  C16 UNL     1      -2.800  52.196 -22.960  1.00  0.00     0.016 C 
HETATM   12  C17 UNL     1      -5.997  48.899 -22.626  1.00  0.00    -0.008 C 
HETATM   13  C18 UNL     1      -6.723  49.962 -23.495  1.00  0.00     0.021 C 
HETATM   14  C19 UNL     1      -6.041  47.520 -23.361  1.00  0.00     0.022 C 
HETATM   15  C20 UNL     1      -7.195  46.594 -22.975  1.00  0.00     0.080 C 
HETATM   16  C21 UNL     1      -8.413  47.360 -22.526  1.00  0.00     0.131 C 
HETATM   17  O2  UNL     1      -9.526  47.132 -23.000  1.00  0.00    -0.298 OA
HETATM   18  C22 UNL     1      -8.219  48.368 -21.403  1.00  0.00     0.056 C 
HETATM   19  C23 UNL     1      -8.838  47.796 -20.129  1.00  0.00     0.018 C 
HETATM   20  C24 UNL     1      -6.715  48.699 -21.243  1.00  0.00     0.012 C 
HETATM   21  C25 UNL     1      -6.483  49.903 -20.320  1.00  0.00     0.042 C 
HETATM   22  C26 UNL     1      -4.991  50.075 -20.036  1.00  0.00     0.148 C 
ENDROOT
BRANCH   1  23
HETATM   23  C5  UNL     1       0.420  52.075 -22.737  1.00  0.00    -0.014 C 
HETATM   24  C6  UNL     1       0.959  53.366 -22.103  1.00  0.00     0.010 C 
BRANCH  23  25
HETATM   25  C4  UNL     1      -0.012  52.396 -24.189  1.00  0.00     0.009 C 
BRANCH  25  26
HETATM   26  C3  UNL     1       0.218  51.292 -25.236  1.00  0.00     0.034 C 
BRANCH  26  27
HETATM   27  C2  UNL     1       0.749  51.668 -26.616  1.00  0.00    -0.075 C 
HETATM   28  C1  UNL     1       2.062  51.752 -26.903  1.00  0.00     0.015 C 
BRANCH  27  29
HETATM   29  C27 UNL     1      -0.355  51.998 -27.632  1.00  0.00     0.107 C 
HETATM   30  C28 UNL     1      -1.637  51.169 -27.509  1.00  0.00     0.026 C 
BRANCH  29  31
HETATM   31  C29 UNL     1      -0.725  53.481 -27.580  1.00  0.00     0.147 C 
HETATM   32  O4  UNL     1      -0.099  54.399 -27.075  1.00  0.00    -0.650 OA
BRANCH  31  33
HETATM   33  O5  UNL     1      -1.902  53.734 -28.196  1.00  0.00    -0.776 OA
HETATM   34  H42 UNL     1      -2.023  54.700 -28.087  1.00  0.00     0.167 HD
ENDBRANCH  31  33
ENDBRANCH  29  31
ENDBRANCH  27  29
ENDBRANCH  26  27
ENDBRANCH  25  26
ENDBRANCH  23  25
ENDBRANCH   1  23
BRANCH  22  35
HETATM   35  O3  UNL     1      -4.604  49.065 -19.108  1.00  0.00    -0.391 OA
HETATM   36  H37 UNL     1      -3.680  49.230 -18.854  1.00  0.00     0.210 HD
ENDBRANCH  22  35
TORSDOF 8
ENDMDL
