MODEL 1
REMARK minimizedAffinity -7.11897612
REMARK CNNscore 0.879393339
REMARK CNNaffinity 6.76164198
REMARK  7 active torsions:
REMARK  status: ('A' for Active; 'I' for Inactive)
REMARK    1  A    between atoms: C2_2  and  C4_4 
REMARK    2  A    between atoms: C7_7  and  O1_9 
REMARK    3  A    between atoms: C9_10  and  C10_11 
REMARK    4  A    between atoms: C11_12  and  C12_13 
REMARK    5  A    between atoms: C14_15  and  C15_16 
REMARK    6  A    between atoms: C24_26  and  C26_28 
REMARK    7  A    between atoms: C29_32  and  O4_34 
ROOT
HETATM    1  C15 UNL     1     -16.303   0.185  28.348  1.00  0.00     0.149 C 
HETATM    2  C16 UNL     1     -16.058   0.528  26.883  1.00  0.00     0.054 C 
HETATM    3  C17 UNL     1     -15.381   1.916  26.910  1.00  0.00     0.050 C 
HETATM    4  C18 UNL     1     -14.557   1.722  28.212  1.00  0.00     0.272 C 
HETATM    5  O2  UNL     1     -13.367   0.956  28.045  1.00  0.00    -0.360 OA
HETATM    6  C19 UNL     1     -12.238   1.726  27.679  1.00  0.00     0.171 C 
HETATM    7  C20 UNL     1     -12.064   1.754  26.171  1.00  0.00     0.027 C 
HETATM    8  C21 UNL     1     -13.293   1.331  25.372  1.00  0.00     0.012 C 
HETATM    9  C22 UNL     1     -14.574   2.171  25.578  1.00  0.00     0.032 C 
HETATM   10  C23 UNL     1     -14.326   3.665  25.273  1.00  0.00    -0.066 C 
HETATM   11  C24 UNL     1     -14.111   4.176  24.034  1.00  0.00    -0.021 C 
HETATM   12  C25 UNL     1     -13.845   5.627  23.744  1.00  0.00     0.052 C 
HETATM   13  C27 UNL     1     -14.388   4.554  26.491  1.00  0.00     0.038 C 
HETATM   14  C28 UNL     1     -15.732   4.455  27.211  1.00  0.00     0.042 C 
HETATM   15  C29 UNL     1     -16.442   3.087  27.075  1.00  0.00     0.067 C 
HETATM   16  C30 UNL     1     -17.472   3.151  25.924  1.00  0.00     0.047 C 
HETATM   17  O5  UNL     1     -15.372   0.959  29.117  1.00  0.00    -0.351 OA
ENDROOT
BRANCH   1  18
HETATM   18  C14 UNL     1     -16.063  -1.267  28.650  1.00  0.00     0.011 C 
HETATM   19  C12 UNL     1     -16.458  -1.969  29.733  1.00  0.00    -0.064 C 
HETATM   20  C13 UNL     1     -17.290  -1.385  30.845  1.00  0.00     0.048 C 
BRANCH  19  21
HETATM   21  C11 UNL     1     -16.081  -3.380  29.822  1.00  0.00     0.003 C 
HETATM   22  C10 UNL     1     -14.852  -3.890  29.639  1.00  0.00    -0.018 C 
BRANCH  22  23
HETATM   23  C9  UNL     1     -14.440  -5.346  29.727  1.00  0.00     0.050 C 
HETATM   24  C4  UNL     1     -13.736  -6.005  28.498  1.00  0.00     0.024 C 
HETATM   25  C5  UNL     1     -12.966  -7.169  29.144  1.00  0.00     0.013 C 
HETATM   26  C6  UNL     1     -12.382  -6.548  30.402  1.00  0.00     0.039 C 
HETATM   27  C7  UNL     1     -13.518  -5.677  30.955  1.00  0.00     0.062 C 
HETATM   28  C8  UNL     1     -12.946  -4.489  31.727  1.00  0.00     0.046 C 
BRANCH  24  29
HETATM   29  C2  UNL     1     -14.666  -6.399  27.348  1.00  0.00    -0.088 C 
HETATM   30  C1  UNL     1     -15.760  -5.708  26.981  1.00  0.00     0.014 C 
HETATM   31  C3  UNL     1     -14.339  -7.684  26.629  1.00  0.00     0.043 C 
ENDBRANCH  24  29
BRANCH  27  32
HETATM   32  O1  UNL     1     -14.267  -6.449  31.908  1.00  0.00    -0.390 OA
HETATM   33  H14 UNL     1     -14.612  -7.238  31.458  1.00  0.00     0.210 HD
ENDBRANCH  27  32
ENDBRANCH  22  23
ENDBRANCH  19  21
ENDBRANCH   1  18
BRANCH  15  34
HETATM   34  O4  UNL     1     -17.225   2.921  28.262  1.00  0.00    -0.389 OA
HETATM   35  H44 UNL     1     -17.872   3.647  28.318  1.00  0.00     0.210 HD
ENDBRANCH  15  34
BRANCH  11  36
HETATM   36  C26 UNL     1     -14.117   3.330  22.800  1.00  0.00     0.265 C 
HETATM   37  O3  UNL     1     -13.843   3.748  21.684  1.00  0.00    -0.302 OA
ENDBRANCH  11  36
TORSDOF 7
ENDMDL
MODEL 2
REMARK minimizedAffinity -6.70794964
REMARK CNNscore 0.641284168
REMARK CNNaffinity 6.03441429
REMARK  7 active torsions:
REMARK  status: ('A' for Active; 'I' for Inactive)
REMARK    1  A    between atoms: C2_2  and  C4_4 
REMARK    2  A    between atoms: C7_7  and  O1_9 
REMARK    3  A    between atoms: C9_10  and  C10_11 
REMARK    4  A    between atoms: C11_12  and  C12_13 
REMARK    5  A    between atoms: C14_15  and  C15_16 
REMARK    6  A    between atoms: C24_26  and  C26_28 
REMARK    7  A    between atoms: C29_32  and  O4_34 
ROOT
HETATM    1  C15 UNL     1       3.538  11.601  15.856  1.00  0.00     0.149 C 
HETATM    2  C16 UNL     1       3.494  10.817  17.163  1.00  0.00     0.054 C 
HETATM    3  C17 UNL     1       3.280  11.886  18.257  1.00  0.00     0.050 C 
HETATM    4  C18 UNL     1       2.365  12.841  17.443  1.00  0.00     0.272 C 
HETATM    5  O2  UNL     1       1.007  12.418  17.352  1.00  0.00    -0.360 OA
HETATM    6  C19 UNL     1       0.196  12.868  18.419  1.00  0.00     0.171 C 
HETATM    7  C20 UNL     1       0.123  11.830  19.525  1.00  0.00     0.027 C 
HETATM    8  C21 UNL     1       1.202  10.753  19.469  1.00  0.00     0.012 C 
HETATM    9  C22 UNL     1       2.667  11.238  19.560  1.00  0.00     0.032 C 
HETATM   10  C23 UNL     1       2.912  12.062  20.843  1.00  0.00    -0.066 C 
HETATM   11  C24 UNL     1       2.936  11.548  22.099  1.00  0.00    -0.021 C 
HETATM   12  C25 UNL     1       3.151  12.358  23.348  1.00  0.00     0.052 C 
HETATM   13  C27 UNL     1       3.180  13.525  20.586  1.00  0.00     0.038 C 
HETATM   14  C28 UNL     1       4.384  13.740  19.671  1.00  0.00     0.042 C 
HETATM   15  C29 UNL     1       4.641  12.601  18.656  1.00  0.00     0.067 C 
HETATM   16  C30 UNL     1       5.703  11.632  19.225  1.00  0.00     0.047 C 
HETATM   17  O5  UNL     1       2.852  12.838  16.090  1.00  0.00    -0.351 OA
ENDROOT
BRANCH   1  18
HETATM   18  C14 UNL     1       2.842  10.889  14.730  1.00  0.00     0.011 C 
HETATM   19  C12 UNL     1       3.383  10.076  13.798  1.00  0.00    -0.064 C 
HETATM   20  C13 UNL     1       4.842   9.698  13.769  1.00  0.00     0.048 C 
BRANCH  19  21
HETATM   21  C11 UNL     1       2.504   9.512  12.773  1.00  0.00     0.003 C 
HETATM   22  C10 UNL     1       2.704   8.372  12.091  1.00  0.00    -0.018 C 
BRANCH  22  23
HETATM   23  C9  UNL     1       1.807   7.770  11.028  1.00  0.00     0.050 C 
HETATM   24  C4  UNL     1       0.434   8.452  10.727  1.00  0.00     0.024 C 
HETATM   25  C5  UNL     1       0.143   7.986   9.290  1.00  0.00     0.013 C 
HETATM   26  C6  UNL     1       1.488   8.124   8.597  1.00  0.00     0.039 C 
HETATM   27  C7  UNL     1       2.499   7.602   9.628  1.00  0.00     0.062 C 
HETATM   28  C8  UNL     1       3.850   8.291   9.439  1.00  0.00     0.046 C 
BRANCH  24  29
HETATM   29  C2  UNL     1      -0.674   8.161  11.742  1.00  0.00    -0.088 C 
HETATM   30  C1  UNL     1      -1.495   9.090  12.263  1.00  0.00     0.014 C 
HETATM   31  C3  UNL     1      -0.797   6.733  12.212  1.00  0.00     0.043 C 
ENDBRANCH  24  29
BRANCH  27  32
HETATM   32  O1  UNL     1       2.726   6.205   9.382  1.00  0.00    -0.390 OA
HETATM   33  H14 UNL     1       1.875   5.740   9.452  1.00  0.00     0.210 HD
ENDBRANCH  27  32
ENDBRANCH  22  23
ENDBRANCH  19  21
ENDBRANCH   1  18
BRANCH  15  34
HETATM   34  O4  UNL     1       5.267  13.207  17.521  1.00  0.00    -0.389 OA
HETATM   35  H44 UNL     1       6.103  13.620  17.803  1.00  0.00     0.210 HD
ENDBRANCH  15  34
BRANCH  11  36
HETATM   36  C26 UNL     1       2.748  10.091  22.379  1.00  0.00     0.265 C 
HETATM   37  O3  UNL     1       3.655   9.270  22.369  1.00  0.00    -0.302 OA
ENDBRANCH  11  36
TORSDOF 7
ENDMDL
MODEL 3
REMARK minimizedAffinity -7.31155539
REMARK CNNscore 0.402616262
REMARK CNNaffinity 6.48731041
REMARK  7 active torsions:
REMARK  status: ('A' for Active; 'I' for Inactive)
REMARK    1  A    between atoms: C2_2  and  C4_4 
REMARK    2  A    between atoms: C7_7  and  O1_9 
REMARK    3  A    between atoms: C9_10  and  C10_11 
REMARK    4  A    between atoms: C11_12  and  C12_13 
REMARK    5  A    between atoms: C14_15  and  C15_16 
REMARK    6  A    between atoms: C24_26  and  C26_28 
REMARK    7  A    between atoms: C29_32  and  O4_34 
ROOT
HETATM    1  C15 UNL     1     -11.792   7.735  15.328  1.00  0.00     0.149 C 
HETATM    2  C16 UNL     1     -13.116   7.183  14.811  1.00  0.00     0.054 C 
HETATM    3  C17 UNL     1     -14.122   8.342  14.987  1.00  0.00     0.050 C 
HETATM    4  C18 UNL     1     -13.150   9.513  14.677  1.00  0.00     0.272 C 
HETATM    5  O2  UNL     1     -12.899   9.715  13.288  1.00  0.00    -0.360 OA
HETATM    6  C19 UNL     1     -13.826  10.578  12.660  1.00  0.00     0.171 C 
HETATM    7  C20 UNL     1     -14.959   9.791  12.024  1.00  0.00     0.027 C 
HETATM    8  C21 UNL     1     -15.097   8.353  12.513  1.00  0.00     0.012 C 
HETATM    9  C22 UNL     1     -15.360   8.159  14.024  1.00  0.00     0.032 C 
HETATM   10  C23 UNL     1     -16.625   8.918  14.481  1.00  0.00    -0.066 C 
HETATM   11  C24 UNL     1     -17.895   8.574  14.150  1.00  0.00    -0.021 C 
HETATM   12  C25 UNL     1     -19.123   9.330  14.576  1.00  0.00     0.052 C 
HETATM   13  C27 UNL     1     -16.339  10.085  15.394  1.00  0.00     0.038 C 
HETATM   14  C28 UNL     1     -15.584   9.663  16.653  1.00  0.00     0.042 C 
HETATM   15  C29 UNL     1     -14.665   8.430  16.477  1.00  0.00     0.067 C 
HETATM   16  C30 UNL     1     -15.415   7.158  16.936  1.00  0.00     0.047 C 
HETATM   17  O5  UNL     1     -11.875   9.164  15.243  1.00  0.00    -0.351 OA
ENDROOT
BRANCH   1  18
HETATM   18  C14 UNL     1     -10.618   7.287  14.504  1.00  0.00     0.011 C 
HETATM   19  C12 UNL     1      -9.357   7.036  14.917  1.00  0.00    -0.064 C 
HETATM   20  C13 UNL     1      -8.921   7.123  16.357  1.00  0.00     0.048 C 
BRANCH  19  21
HETATM   21  C11 UNL     1      -8.366   6.633  13.920  1.00  0.00     0.003 C 
HETATM   22  C10 UNL     1      -7.203   6.005  14.160  1.00  0.00    -0.018 C 
BRANCH  22  23
HETATM   23  C9  UNL     1      -6.163   5.578  13.143  1.00  0.00     0.050 C 
HETATM   24  C4  UNL     1      -4.651   5.768  13.488  1.00  0.00     0.024 C 
HETATM   25  C5  UNL     1      -3.973   4.725  12.583  1.00  0.00     0.013 C 
HETATM   26  C6  UNL     1      -4.872   3.508  12.716  1.00  0.00     0.039 C 
HETATM   27  C7  UNL     1      -6.295   4.083  12.680  1.00  0.00     0.062 C 
HETATM   28  C8  UNL     1      -7.245   3.195  13.482  1.00  0.00     0.046 C 
BRANCH  24  29
HETATM   29  C2  UNL     1      -4.124   7.198  13.341  1.00  0.00    -0.088 C 
HETATM   30  C1  UNL     1      -4.899   8.281  13.153  1.00  0.00     0.014 C 
HETATM   31  C3  UNL     1      -2.625   7.367  13.359  1.00  0.00     0.043 C 
ENDBRANCH  24  29
BRANCH  27  32
HETATM   32  O1  UNL     1      -6.769   4.052  11.324  1.00  0.00    -0.390 OA
HETATM   33  H14 UNL     1      -6.160   4.576  10.776  1.00  0.00     0.210 HD
ENDBRANCH  27  32
ENDBRANCH  22  23
ENDBRANCH  19  21
ENDBRANCH   1  18
BRANCH  15  34
HETATM   34  O4  UNL     1     -13.596   8.587  17.415  1.00  0.00    -0.389 OA
HETATM   35  H44 UNL     1     -13.968   8.622  18.315  1.00  0.00     0.210 HD
ENDBRANCH  15  34
BRANCH  11  36
HETATM   36  C26 UNL     1     -18.214   7.379  13.308  1.00  0.00     0.265 C 
HETATM   37  O3  UNL     1     -18.329   6.243  13.748  1.00  0.00    -0.302 OA
ENDBRANCH  11  36
TORSDOF 7
ENDMDL
MODEL 4
REMARK minimizedAffinity -7.89112854
REMARK CNNscore 0.401653469
REMARK CNNaffinity 6.4214344
REMARK  7 active torsions:
REMARK  status: ('A' for Active; 'I' for Inactive)
REMARK    1  A    between atoms: C2_2  and  C4_4 
REMARK    2  A    between atoms: C7_7  and  O1_9 
REMARK    3  A    between atoms: C9_10  and  C10_11 
REMARK    4  A    between atoms: C11_12  and  C12_13 
REMARK    5  A    between atoms: C14_15  and  C15_16 
REMARK    6  A    between atoms: C24_26  and  C26_28 
REMARK    7  A    between atoms: C29_32  and  O4_34 
ROOT
HETATM    1  C15 UNL     1      -0.902   7.574  13.703  1.00  0.00     0.149 C 
HETATM    2  C16 UNL     1      -0.277   8.146  12.436  1.00  0.00     0.054 C 
HETATM    3  C17 UNL     1       1.192   7.668  12.470  1.00  0.00     0.050 C 
HETATM    4  C18 UNL     1       0.946   6.280  13.121  1.00  0.00     0.272 C 
HETATM    5  O2  UNL     1       0.466   5.286  12.219  1.00  0.00    -0.360 OA
HETATM    6  C19 UNL     1       1.491   4.574  11.554  1.00  0.00     0.171 C 
HETATM    7  C20 UNL     1       1.806   5.202  10.208  1.00  0.00     0.027 C 
HETATM    8  C21 UNL     1       1.291   6.627  10.026  1.00  0.00     0.012 C 
HETATM    9  C22 UNL     1       1.819   7.684  11.022  1.00  0.00     0.032 C 
HETATM   10  C23 UNL     1       3.362   7.753  11.009  1.00  0.00    -0.066 C 
HETATM   11  C24 UNL     1       4.107   8.248   9.988  1.00  0.00    -0.021 C 
HETATM   12  C25 UNL     1       5.609   8.290   9.970  1.00  0.00     0.052 C 
HETATM   13  C27 UNL     1       4.005   7.254  12.281  1.00  0.00     0.038 C 
HETATM   14  C28 UNL     1       3.526   8.024  13.511  1.00  0.00     0.042 C 
HETATM   15  C29 UNL     1       2.088   8.587  13.406  1.00  0.00     0.067 C 
HETATM   16  C30 UNL     1       2.144  10.063  12.950  1.00  0.00     0.047 C 
HETATM   17  O5  UNL     1      -0.103   6.448  14.090  1.00  0.00    -0.351 OA
ENDROOT
BRANCH   1  18
HETATM   18  C14 UNL     1      -2.310   7.094  13.488  1.00  0.00     0.011 C 
HETATM   19  C12 UNL     1      -3.310   7.012  14.391  1.00  0.00    -0.064 C 
HETATM   20  C13 UNL     1      -3.176   7.462  15.823  1.00  0.00     0.048 C 
BRANCH  19  21
HETATM   21  C11 UNL     1      -4.601   6.483  13.952  1.00  0.00     0.003 C 
HETATM   22  C10 UNL     1      -4.810   5.318  13.317  1.00  0.00    -0.018 C 
BRANCH  22  23
HETATM   23  C9  UNL     1      -6.138   4.750  12.855  1.00  0.00     0.050 C 
HETATM   24  C4  UNL     1      -6.276   3.203  12.686  1.00  0.00     0.024 C 
HETATM   25  C5  UNL     1      -7.794   2.991  12.825  1.00  0.00     0.013 C 
HETATM   26  C6  UNL     1      -8.170   3.896  13.986  1.00  0.00     0.039 C 
HETATM   27  C7  UNL     1      -7.361   5.178  13.742  1.00  0.00     0.062 C 
HETATM   28  C8  UNL     1      -7.043   5.863  15.070  1.00  0.00     0.046 C 
BRANCH  24  29
HETATM   29  C2  UNL     1      -5.654   2.628  11.411  1.00  0.00    -0.088 C 
HETATM   30  C1  UNL     1      -5.112   3.367  10.427  1.00  0.00     0.014 C 
HETATM   31  C3  UNL     1      -5.713   1.130  11.250  1.00  0.00     0.043 C 
ENDBRANCH  24  29
BRANCH  27  32
HETATM   32  O1  UNL     1      -8.176   6.102  13.003  1.00  0.00    -0.390 OA
HETATM   33  H14 UNL     1      -8.433   5.679  12.165  1.00  0.00     0.210 HD
ENDBRANCH  27  32
ENDBRANCH  22  23
ENDBRANCH  19  21
ENDBRANCH   1  18
BRANCH  15  34
HETATM   34  O4  UNL     1       1.576   8.632  14.742  1.00  0.00    -0.389 OA
HETATM   35  H44 UNL     1       2.142   9.216  15.278  1.00  0.00     0.210 HD
ENDBRANCH  15  34
BRANCH  11  36
HETATM   36  C26 UNL     1       3.495   8.817   8.747  1.00  0.00     0.265 C 
HETATM   37  O3  UNL     1       4.056   9.621   8.015  1.00  0.00    -0.302 OA
ENDBRANCH  11  36
TORSDOF 7
ENDMDL
MODEL 5
REMARK minimizedAffinity -6.59997559
REMARK CNNscore 0.39795056
REMARK CNNaffinity 6.22279119
REMARK  7 active torsions:
REMARK  status: ('A' for Active; 'I' for Inactive)
REMARK    1  A    between atoms: C2_2  and  C4_4 
REMARK    2  A    between atoms: C7_7  and  O1_9 
REMARK    3  A    between atoms: C9_10  and  C10_11 
REMARK    4  A    between atoms: C11_12  and  C12_13 
REMARK    5  A    between atoms: C14_15  and  C15_16 
REMARK    6  A    between atoms: C24_26  and  C26_28 
REMARK    7  A    between atoms: C29_32  and  O4_34 
ROOT
HETATM    1  C15 UNL     1     -14.458  -8.988  26.930  1.00  0.00     0.149 C 
HETATM    2  C16 UNL     1     -13.755  -7.894  27.725  1.00  0.00     0.054 C 
HETATM    3  C17 UNL     1     -14.775  -7.476  28.807  1.00  0.00     0.050 C 
HETATM    4  C18 UNL     1     -15.402  -8.875  29.057  1.00  0.00     0.272 C 
HETATM    5  O2  UNL     1     -14.618  -9.730  29.884  1.00  0.00    -0.360 OA
HETATM    6  C19 UNL     1     -14.878  -9.584  31.267  1.00  0.00     0.171 C 
HETATM    7  C20 UNL     1     -13.913  -8.598  31.902  1.00  0.00     0.027 C 
HETATM    8  C21 UNL     1     -13.174  -7.697  30.918  1.00  0.00     0.012 C 
HETATM    9  C22 UNL     1     -14.047  -6.786  30.026  1.00  0.00     0.032 C 
HETATM   10  C23 UNL     1     -14.966  -5.877  30.872  1.00  0.00    -0.066 C 
HETATM   11  C24 UNL     1     -14.539  -4.836  31.630  1.00  0.00    -0.021 C 
HETATM   12  C25 UNL     1     -15.435  -3.970  32.471  1.00  0.00     0.052 C 
HETATM   13  C27 UNL     1     -16.432  -6.215  30.753  1.00  0.00     0.038 C 
HETATM   14  C28 UNL     1     -16.927  -6.143  29.309  1.00  0.00     0.042 C 
HETATM   15  C29 UNL     1     -15.855  -6.460  28.238  1.00  0.00     0.067 C 
HETATM   16  C30 UNL     1     -15.243  -5.140  27.714  1.00  0.00     0.047 C 
HETATM   17  O5  UNL     1     -15.469  -9.540  27.784  1.00  0.00    -0.351 OA
ENDROOT
BRANCH   1  18
HETATM   18  C14 UNL     1     -13.529 -10.100  26.529  1.00  0.00     0.011 C 
HETATM   19  C12 UNL     1     -13.690 -11.004  25.540  1.00  0.00    -0.064 C 
HETATM   20  C13 UNL     1     -14.868 -11.009  24.600  1.00  0.00     0.048 C 
BRANCH  19  21
HETATM   21  C11 UNL     1     -12.655 -12.020  25.352  1.00  0.00     0.003 C 
HETATM   22  C10 UNL     1     -11.655 -12.307  26.202  1.00  0.00    -0.018 C 
BRANCH  22  23
HETATM   23  C9  UNL     1     -10.574 -13.355  26.028  1.00  0.00     0.050 C 
HETATM   24  C4  UNL     1      -9.095 -12.885  25.839  1.00  0.00     0.024 C 
HETATM   25  C5  UNL     1      -8.297 -14.115  26.306  1.00  0.00     0.013 C 
HETATM   26  C6  UNL     1      -9.041 -14.563  27.553  1.00  0.00     0.039 C 
HETATM   27  C7  UNL     1     -10.523 -14.420  27.181  1.00  0.00     0.062 C 
HETATM   28  C8  UNL     1     -11.356 -14.126  28.428  1.00  0.00     0.046 C 
BRANCH  24  29
HETATM   29  C2  UNL     1      -8.747 -12.378  24.438  1.00  0.00    -0.088 C 
HETATM   30  C1  UNL     1      -9.257 -12.875  23.297  1.00  0.00     0.014 C 
HETATM   31  C3  UNL     1      -7.718 -11.278  24.358  1.00  0.00     0.043 C 
ENDBRANCH  24  29
BRANCH  27  32
HETATM   32  O1  UNL     1     -10.994 -15.680  26.675  1.00  0.00    -0.390 OA
HETATM   33  H14 UNL     1     -10.455 -15.919  25.902  1.00  0.00     0.210 HD
ENDBRANCH  27  32
ENDBRANCH  22  23
ENDBRANCH  19  21
ENDBRANCH   1  18
BRANCH  15  34
HETATM   34  O4  UNL     1     -16.555  -7.012  27.119  1.00  0.00    -0.389 OA
HETATM   35  H44 UNL     1     -17.195  -6.355  26.791  1.00  0.00     0.210 HD
ENDBRANCH  15  34
BRANCH  11  36
HETATM   36  C26 UNL     1     -13.101  -4.431  31.709  1.00  0.00     0.265 C 
HETATM   37  O3  UNL     1     -12.654  -3.655  32.542  1.00  0.00    -0.302 OA
ENDBRANCH  11  36
TORSDOF 7
ENDMDL
MODEL 6
REMARK minimizedAffinity -7.3234973
REMARK CNNscore 0.378688335
REMARK CNNaffinity 5.74433088
REMARK  7 active torsions:
REMARK  status: ('A' for Active; 'I' for Inactive)
REMARK    1  A    between atoms: C2_2  and  C4_4 
REMARK    2  A    between atoms: C7_7  and  O1_9 
REMARK    3  A    between atoms: C9_10  and  C10_11 
REMARK    4  A    between atoms: C11_12  and  C12_13 
REMARK    5  A    between atoms: C14_15  and  C15_16 
REMARK    6  A    between atoms: C24_26  and  C26_28 
REMARK    7  A    between atoms: C29_32  and  O4_34 
ROOT
HETATM    1  C15 UNL     1      -0.938   9.119  15.032  1.00  0.00     0.149 C 
HETATM    2  C16 UNL     1      -1.528  10.522  14.961  1.00  0.00     0.054 C 
HETATM    3  C17 UNL     1      -1.882  10.876  16.422  1.00  0.00     0.050 C 
HETATM    4  C18 UNL     1      -0.695  10.146  17.108  1.00  0.00     0.272 C 
HETATM    5  O2  UNL     1       0.539  10.857  17.057  1.00  0.00    -0.360 OA
HETATM    6  C19 UNL     1       0.726  11.757  18.132  1.00  0.00     0.171 C 
HETATM    7  C20 UNL     1       0.261  13.154  17.761  1.00  0.00     0.027 C 
HETATM    8  C21 UNL     1      -0.646  13.226  16.536  1.00  0.00     0.012 C 
HETATM    9  C22 UNL     1      -1.974  12.440  16.613  1.00  0.00     0.032 C 
HETATM   10  C23 UNL     1      -2.819  12.873  17.831  1.00  0.00    -0.066 C 
HETATM   11  C24 UNL     1      -3.446  14.071  17.952  1.00  0.00    -0.021 C 
HETATM   12  C25 UNL     1      -4.247  14.497  19.151  1.00  0.00     0.052 C 
HETATM   13  C27 UNL     1      -2.940  11.811  18.897  1.00  0.00     0.038 C 
HETATM   14  C28 UNL     1      -3.550  10.518  18.359  1.00  0.00     0.042 C 
HETATM   15  C29 UNL     1      -3.272  10.243  16.861  1.00  0.00     0.067 C 
HETATM   16  C30 UNL     1      -4.468  10.735  16.015  1.00  0.00     0.047 C 
HETATM   17  O5  UNL     1      -0.463   8.934  16.372  1.00  0.00    -0.351 OA
ENDROOT
BRANCH   1  18
HETATM   18  C14 UNL     1       0.223   8.931  14.096  1.00  0.00     0.011 C 
HETATM   19  C12 UNL     1       0.192   8.648  12.776  1.00  0.00    -0.064 C 
HETATM   20  C13 UNL     1      -1.083   8.518  11.982  1.00  0.00     0.048 C 
BRANCH  19  21
HETATM   21  C11 UNL     1       1.463   8.482  12.071  1.00  0.00     0.003 C 
HETATM   22  C10 UNL     1       2.396   7.548  12.318  1.00  0.00    -0.018 C 
BRANCH  22  23
HETATM   23  C9  UNL     1       3.718   7.358  11.600  1.00  0.00     0.050 C 
HETATM   24  C4  UNL     1       3.976   8.150  10.278  1.00  0.00     0.024 C 
HETATM   25  C5  UNL     1       5.513   8.188  10.213  1.00  0.00     0.013 C 
HETATM   26  C6  UNL     1       5.917   8.496  11.645  1.00  0.00     0.039 C 
HETATM   27  C7  UNL     1       4.978   7.631  12.497  1.00  0.00     0.062 C 
HETATM   28  C8  UNL     1       4.730   8.295  13.851  1.00  0.00     0.046 C 
BRANCH  24  29
HETATM   29  C2  UNL     1       3.287   7.584   9.035  1.00  0.00    -0.088 C 
HETATM   30  C1  UNL     1       3.014   6.281   8.839  1.00  0.00     0.014 C 
HETATM   31  C3  UNL     1       2.948   8.571   7.946  1.00  0.00     0.043 C 
ENDBRANCH  24  29
BRANCH  27  32
HETATM   32  O1  UNL     1       5.632   6.383  12.779  1.00  0.00    -0.390 OA
HETATM   33  H14 UNL     1       5.843   5.952  11.933  1.00  0.00     0.210 HD
ENDBRANCH  27  32
ENDBRANCH  22  23
ENDBRANCH  19  21
ENDBRANCH   1  18
BRANCH  15  34
HETATM   34  O4  UNL     1      -3.271   8.820  16.707  1.00  0.00    -0.389 OA
HETATM   35  H44 UNL     1      -4.143   8.473  16.971  1.00  0.00     0.210 HD
ENDBRANCH  15  34
BRANCH  11  36
HETATM   36  C26 UNL     1      -3.406  15.113  16.881  1.00  0.00     0.265 C 
HETATM   37  O3  UNL     1      -2.646  16.072  16.888  1.00  0.00    -0.302 OA
ENDBRANCH  11  36
TORSDOF 7
ENDMDL
MODEL 7
REMARK minimizedAffinity -8.08877563
REMARK CNNscore 0.376968533
REMARK CNNaffinity 6.66744852
REMARK  7 active torsions:
REMARK  status: ('A' for Active; 'I' for Inactive)
REMARK    1  A    between atoms: C2_2  and  C4_4 
REMARK    2  A    between atoms: C7_7  and  O1_9 
REMARK    3  A    between atoms: C9_10  and  C10_11 
REMARK    4  A    between atoms: C11_12  and  C12_13 
REMARK    5  A    between atoms: C14_15  and  C15_16 
REMARK    6  A    between atoms: C24_26  and  C26_28 
REMARK    7  A    between atoms: C29_32  and  O4_34 
ROOT
HETATM    1  C15 UNL     1      -1.271   8.132  14.610  1.00  0.00     0.149 C 
HETATM    2  C16 UNL     1      -0.706   8.466  13.235  1.00  0.00     0.054 C 
HETATM    3  C17 UNL     1       0.705   7.836  13.224  1.00  0.00     0.050 C 
HETATM    4  C18 UNL     1       0.379   6.577  14.074  1.00  0.00     0.272 C 
HETATM    5  O2  UNL     1      -0.276   5.537  13.353  1.00  0.00    -0.360 OA
HETATM    6  C19 UNL     1       0.610   4.637  12.717  1.00  0.00     0.171 C 
HETATM    7  C20 UNL     1       0.867   5.050  11.278  1.00  0.00     0.027 C 
HETATM    8  C21 UNL     1       0.483   6.489  10.944  1.00  0.00     0.012 C 
HETATM    9  C22 UNL     1       1.200   7.599  11.745  1.00  0.00     0.032 C 
HETATM   10  C23 UNL     1       2.735   7.494  11.608  1.00  0.00    -0.066 C 
HETATM   11  C24 UNL     1       3.432   7.770  10.477  1.00  0.00    -0.021 C 
HETATM   12  C25 UNL     1       4.924   7.642  10.342  1.00  0.00     0.052 C 
HETATM   13  C27 UNL     1       3.434   7.092  12.884  1.00  0.00     0.038 C 
HETATM   14  C28 UNL     1       3.146   8.060  14.031  1.00  0.00     0.042 C 
HETATM   15  C29 UNL     1       1.768   8.761  13.958  1.00  0.00     0.067 C 
HETATM   16  C30 UNL     1       1.931  10.152  13.303  1.00  0.00     0.047 C 
HETATM   17  O5  UNL     1      -0.558   6.982  15.086  1.00  0.00    -0.351 OA
ENDROOT
BRANCH   1  18
HETATM   18  C14 UNL     1      -2.733   7.787  14.567  1.00  0.00     0.011 C 
HETATM   19  C12 UNL     1      -3.393   7.067  13.636  1.00  0.00    -0.064 C 
HETATM   20  C13 UNL     1      -2.718   6.419  12.454  1.00  0.00     0.048 C 
BRANCH  19  21
HETATM   21  C11 UNL     1      -4.836   6.883  13.792  1.00  0.00     0.003 C 
HETATM   22  C10 UNL     1      -5.473   5.718  13.998  1.00  0.00    -0.018 C 
BRANCH  22  23
HETATM   23  C9  UNL     1      -6.965   5.505  14.163  1.00  0.00     0.050 C 
HETATM   24  C4  UNL     1      -7.923   6.728  13.995  1.00  0.00     0.024 C 
HETATM   25  C5  UNL     1      -9.255   6.054  13.625  1.00  0.00     0.013 C 
HETATM   26  C6  UNL     1      -8.842   4.979  12.634  1.00  0.00     0.039 C 
HETATM   27  C7  UNL     1      -7.559   4.387  13.234  1.00  0.00     0.062 C 
HETATM   28  C8  UNL     1      -6.651   3.859  12.125  1.00  0.00     0.046 C 
BRANCH  24  29
HETATM   29  C2  UNL     1      -7.985   7.677  15.194  1.00  0.00    -0.088 C 
HETATM   30  C1  UNL     1      -7.497   8.931  15.202  1.00  0.00     0.014 C 
HETATM   31  C3  UNL     1      -8.593   7.123  16.459  1.00  0.00     0.043 C 
ENDBRANCH  24  29
BRANCH  27  32
HETATM   32  O1  UNL     1      -7.910   3.248  14.037  1.00  0.00    -0.390 OA
HETATM   33  H14 UNL     1      -8.524   3.542  14.732  1.00  0.00     0.210 HD
ENDBRANCH  27  32
ENDBRANCH  22  23
ENDBRANCH  19  21
ENDBRANCH   1  18
BRANCH  15  34
HETATM   34  O4  UNL     1       1.383   9.032  15.309  1.00  0.00    -0.389 OA
HETATM   35  H44 UNL     1       2.050   9.612  15.718  1.00  0.00     0.210 HD
ENDBRANCH  15  34
BRANCH  11  36
HETATM   36  C26 UNL     1       2.774   8.241   9.219  1.00  0.00     0.265 C 
HETATM   37  O3  UNL     1       3.384   8.626   8.231  1.00  0.00    -0.302 OA
ENDBRANCH  11  36
TORSDOF 7
ENDMDL
MODEL 8
REMARK minimizedAffinity -7.97728968
REMARK CNNscore 0.327013463
REMARK CNNaffinity 5.96480322
REMARK  7 active torsions:
REMARK  status: ('A' for Active; 'I' for Inactive)
REMARK    1  A    between atoms: C2_2  and  C4_4 
REMARK    2  A    between atoms: C7_7  and  O1_9 
REMARK    3  A    between atoms: C9_10  and  C10_11 
REMARK    4  A    between atoms: C11_12  and  C12_13 
REMARK    5  A    between atoms: C14_15  and  C15_16 
REMARK    6  A    between atoms: C24_26  and  C26_28 
REMARK    7  A    between atoms: C29_32  and  O4_34 
ROOT
HETATM    1  C15 UNL     1       7.221   7.811  12.725  1.00  0.00     0.149 C 
HETATM    2  C16 UNL     1       7.008   8.076  14.211  1.00  0.00     0.054 C 
HETATM    3  C17 UNL     1       7.892   9.304  14.523  1.00  0.00     0.050 C 
HETATM    4  C18 UNL     1       7.706  10.046  13.172  1.00  0.00     0.272 C 
HETATM    5  O2  UNL     1       6.472  10.750  13.054  1.00  0.00    -0.360 OA
HETATM    6  C19 UNL     1       6.520  12.074  13.549  1.00  0.00     0.171 C 
HETATM    7  C20 UNL     1       6.059  12.132  14.995  1.00  0.00     0.027 C 
HETATM    8  C21 UNL     1       6.038  10.789  15.718  1.00  0.00     0.012 C 
HETATM    9  C22 UNL     1       7.386  10.041  15.825  1.00  0.00     0.032 C 
HETATM   10  C23 UNL     1       8.463  10.909  16.511  1.00  0.00    -0.066 C 
HETATM   11  C24 UNL     1       8.468  11.239  17.827  1.00  0.00    -0.021 C 
HETATM   12  C25 UNL     1       9.505  12.106  18.486  1.00  0.00     0.052 C 
HETATM   13  C27 UNL     1       9.576  11.341  15.587  1.00  0.00     0.038 C 
HETATM   14  C28 UNL     1      10.291  10.153  14.948  1.00  0.00     0.042 C 
HETATM   15  C29 UNL     1       9.410   8.896  14.746  1.00  0.00     0.067 C 
HETATM   16  C30 UNL     1       9.620   7.924  15.930  1.00  0.00     0.047 C 
HETATM   17  O5  UNL     1       7.667   9.043  12.142  1.00  0.00    -0.351 OA
ENDROOT
BRANCH   1  18
HETATM   18  C14 UNL     1       5.958   7.395  12.024  1.00  0.00     0.011 C 
HETATM   19  C12 UNL     1       5.771   6.344  11.198  1.00  0.00    -0.064 C 
HETATM   20  C13 UNL     1       6.847   5.342  10.871  1.00  0.00     0.048 C 
BRANCH  19  21
HETATM   21  C11 UNL     1       4.447   6.152  10.607  1.00  0.00     0.003 C 
HETATM   22  C10 UNL     1       3.601   7.120  10.215  1.00  0.00    -0.018 C 
BRANCH  22  23
HETATM   23  C9  UNL     1       2.226   6.943   9.600  1.00  0.00     0.050 C 
HETATM   24  C4  UNL     1       0.967   7.267  10.467  1.00  0.00     0.024 C 
HETATM   25  C5  UNL     1      -0.100   7.565   9.399  1.00  0.00     0.013 C 
HETATM   26  C6  UNL     1       0.647   8.415   8.385  1.00  0.00     0.039 C 
HETATM   27  C7  UNL     1       2.018   7.736   8.260  1.00  0.00     0.062 C 
HETATM   28  C8  UNL     1       3.087   8.766   7.895  1.00  0.00     0.046 C 
BRANCH  24  29
HETATM   29  C2  UNL     1       0.585   6.191  11.486  1.00  0.00    -0.088 C 
HETATM   30  C1  UNL     1       1.181   6.024  12.680  1.00  0.00     0.014 C 
HETATM   31  C3  UNL     1      -0.504   5.231  11.074  1.00  0.00     0.043 C 
ENDBRANCH  24  29
BRANCH  27  32
HETATM   32  O1  UNL     1       1.973   6.805   7.167  1.00  0.00    -0.390 OA
HETATM   33  H14 UNL     1       1.271   6.157   7.347  1.00  0.00     0.210 HD
ENDBRANCH  27  32
ENDBRANCH  22  23
ENDBRANCH  19  21
ENDBRANCH   1  18
BRANCH  15  34
HETATM   34  O4  UNL     1       9.942   8.211  13.608  1.00  0.00    -0.389 OA
HETATM   35  H44 UNL     1      10.866   7.965  13.789  1.00  0.00     0.210 HD
ENDBRANCH  15  34
BRANCH  11  36
HETATM   36  C26 UNL     1       7.419  10.764  18.782  1.00  0.00     0.265 C 
HETATM   37  O3  UNL     1       6.312  11.274  18.891  1.00  0.00    -0.302 OA
ENDBRANCH  11  36
TORSDOF 7
ENDMDL
MODEL 9
REMARK minimizedAffinity -8.07243919
REMARK CNNscore 0.305373788
REMARK CNNaffinity 6.09848547
REMARK  7 active torsions:
REMARK  status: ('A' for Active; 'I' for Inactive)
REMARK    1  A    between atoms: C2_2  and  C4_4 
REMARK    2  A    between atoms: C7_7  and  O1_9 
REMARK    3  A    between atoms: C9_10  and  C10_11 
REMARK    4  A    between atoms: C11_12  and  C12_13 
REMARK    5  A    between atoms: C14_15  and  C15_16 
REMARK    6  A    between atoms: C24_26  and  C26_28 
REMARK    7  A    between atoms: C29_32  and  O4_34 
ROOT
HETATM    1  C15 UNL     1      -1.259   7.922  14.322  1.00  0.00     0.149 C 
HETATM    2  C16 UNL     1      -1.695   9.381  14.385  1.00  0.00     0.054 C 
HETATM    3  C17 UNL     1      -1.502   9.788  15.863  1.00  0.00     0.050 C 
HETATM    4  C18 UNL     1      -0.233   8.940  16.149  1.00  0.00     0.272 C 
HETATM    5  O2  UNL     1       0.977   9.511  15.658  1.00  0.00    -0.360 OA
HETATM    6  C19 UNL     1       1.602  10.396  16.566  1.00  0.00     0.171 C 
HETATM    7  C20 UNL     1       1.181  11.832  16.305  1.00  0.00     0.027 C 
HETATM    8  C21 UNL     1      -0.071  11.990  15.449  1.00  0.00     0.012 C 
HETATM    9  C22 UNL     1      -1.368  11.354  15.999  1.00  0.00     0.032 C 
HETATM   10  C23 UNL     1      -1.709  11.891  17.407  1.00  0.00    -0.066 C 
HETATM   11  C24 UNL     1      -2.137  13.152  17.672  1.00  0.00    -0.021 C 
HETATM   12  C25 UNL     1      -2.443  13.677  19.047  1.00  0.00     0.052 C 
HETATM   13  C27 UNL     1      -1.571  10.861  18.501  1.00  0.00     0.038 C 
HETATM   14  C28 UNL     1      -2.452   9.637  18.257  1.00  0.00     0.042 C 
HETATM   15  C29 UNL     1      -2.720   9.316  16.767  1.00  0.00     0.067 C 
HETATM   16  C30 UNL     1      -4.076   9.927  16.343  1.00  0.00     0.047 C 
HETATM   17  O5  UNL     1      -0.382   7.701  15.435  1.00  0.00    -0.351 OA
ENDROOT
BRANCH   1  18
HETATM   18  C14 UNL     1      -0.503   7.598  13.064  1.00  0.00     0.011 C 
HETATM   19  C12 UNL     1      -0.298   6.387  12.504  1.00  0.00    -0.064 C 
HETATM   20  C13 UNL     1      -0.868   5.106  13.059  1.00  0.00     0.048 C 
BRANCH  19  21
HETATM   21  C11 UNL     1       0.500   6.313  11.280  1.00  0.00     0.003 C 
HETATM   22  C10 UNL     1       1.188   7.319  10.715  1.00  0.00    -0.018 C 
BRANCH  22  23
HETATM   23  C9  UNL     1       2.021   7.264   9.449  1.00  0.00     0.050 C 
HETATM   24  C4  UNL     1       2.445   5.869   8.888  1.00  0.00     0.024 C 
HETATM   25  C5  UNL     1       2.690   6.174   7.400  1.00  0.00     0.013 C 
HETATM   26  C6  UNL     1       1.524   7.076   7.030  1.00  0.00     0.039 C 
HETATM   27  C7  UNL     1       1.383   8.022   8.231  1.00  0.00     0.062 C 
HETATM   28  C8  UNL     1      -0.070   8.471   8.382  1.00  0.00     0.046 C 
BRANCH  24  29
HETATM   29  C2  UNL     1       3.615   5.203   9.615  1.00  0.00    -0.088 C 
HETATM   30  C1  UNL     1       3.935   3.900   9.513  1.00  0.00     0.014 C 
HETATM   31  C3  UNL     1       4.415   6.079  10.547  1.00  0.00     0.043 C 
ENDBRANCH  24  29
BRANCH  27  32
HETATM   32  O1  UNL     1       2.143   9.213   7.969  1.00  0.00    -0.390 OA
HETATM   33  H14 UNL     1       3.070   8.957   7.825  1.00  0.00     0.210 HD
ENDBRANCH  27  32
ENDBRANCH  22  23
ENDBRANCH  19  21
ENDBRANCH   1  18
BRANCH  15  34
HETATM   34  O4  UNL     1      -2.913   7.900  16.689  1.00  0.00    -0.389 OA
HETATM   35  H44 UNL     1      -3.675   7.654  17.243  1.00  0.00     0.210 HD
ENDBRANCH  15  34
BRANCH  11  36
HETATM   36  C26 UNL     1      -2.354  14.172  16.600  1.00  0.00     0.265 C 
HETATM   37  O3  UNL     1      -1.563  15.068  16.338  1.00  0.00    -0.302 OA
ENDBRANCH  11  36
TORSDOF 7
ENDMDL
