MODEL 1
REMARK minimizedAffinity -7.5994854
REMARK CNNscore 0.283004194
REMARK CNNaffinity 5.81276464
REMARK  8 active torsions:
REMARK  status: ('A' for Active; 'I' for Inactive)
REMARK    1  A    between atoms: C3_3  and  O1_4 
REMARK    2  A    between atoms: N1_14  and  O2_16 
REMARK    3  A    between atoms: O2_16  and  C13_17 
REMARK    4  A    between atoms: C13_17  and  C14_18 
REMARK       I    between atoms: C14_18  and  N2_20 
REMARK    5  A    between atoms: N2_20  and  C15_21 
REMARK    6  A    between atoms: C15_21  and  C16_22 
REMARK    7  A    between atoms: C16_22  and  O4_23 
REMARK    8  A    between atoms: C16_22  and  C17_24 
ROOT
HETATM    1  C1  UNL     1      -0.373  51.271 -21.787  1.00  0.00     0.015 C 
HETATM    2  C2  UNL     1      -1.531  50.982 -21.928  1.00  0.00    -0.078 C 
HETATM    3  C3  UNL     1      -2.963  50.658 -22.067  1.00  0.00     0.128 C 
HETATM    4  C4  UNL     1      -3.762  51.860 -22.578  1.00  0.00     0.052 C 
HETATM    5  C5  UNL     1      -5.097  51.234 -22.952  1.00  0.00     0.010 C 
HETATM    6  C6  UNL     1      -4.748  49.871 -23.590  1.00  0.00     0.002 C 
HETATM    7  C7  UNL     1      -5.787  48.744 -23.353  1.00  0.00    -0.004 C 
HETATM    8  C8  UNL     1      -7.202  49.227 -23.711  1.00  0.00     0.010 C 
HETATM    9  C9  UNL     1      -8.257  48.164 -23.456  1.00  0.00     0.035 C 
HETATM   10  C10 UNL     1      -8.198  47.691 -22.021  1.00  0.00    -0.069 C 
HETATM   11  C11 UNL     1      -9.298  47.756 -21.244  1.00  0.00     0.030 C 
HETATM   12  C12 UNL     1      -9.296  47.223 -19.854  1.00  0.00     0.032 C 
HETATM   13  N1  UNL     1     -10.214  47.421 -18.959  1.00  0.00    -0.271 N 
ATOM     14  H1  UNL     1     -10.208  46.996 -18.032  1.00  0.00     0.194 HD
HETATM   15  C23 UNL     1      -8.133  46.333 -19.479  1.00  0.00     0.060 C 
HETATM   16  C24 UNL     1      -6.843  46.943 -20.009  1.00  0.00     0.020 C 
HETATM   17  C25 UNL     1      -6.847  47.146 -21.553  1.00  0.00    -0.016 C 
HETATM   18  C26 UNL     1      -6.640  45.777 -22.243  1.00  0.00     0.020 C 
HETATM   19  C27 UNL     1      -5.712  48.183 -21.912  1.00  0.00     0.002 C 
HETATM   20  C28 UNL     1      -4.292  47.664 -21.575  1.00  0.00     0.007 C 
HETATM   21  C29 UNL     1      -3.195  48.102 -22.545  1.00  0.00     0.014 C 
HETATM   22  C30 UNL     1      -3.298  49.536 -23.102  1.00  0.00     0.003 C 
HETATM   23  C31 UNL     1      -2.357  49.618 -24.339  1.00  0.00     0.020 C 
ENDROOT
BRANCH   3  24
HETATM   24  O1  UNL     1      -3.467  50.335 -20.772  1.00  0.00    -0.377 OA
HETATM   25  H2  UNL     1      -3.109  50.993 -20.151  1.00  0.00     0.211 HD
ENDBRANCH   3  24
BRANCH  13  26
HETATM   26  O2  UNL     1     -11.215  48.291 -19.423  1.00  0.00    -0.271 OA
BRANCH  26  27
HETATM   27  C13 UNL     1     -12.492  47.690 -19.237  1.00  0.00     0.303 C 
BRANCH  27  28
HETATM   28  C14 UNL     1     -13.286  47.577 -20.537  1.00  0.00     0.243 C 
HETATM   29  O3  UNL     1     -13.910  48.524 -21.019  1.00  0.00    -0.271 OA
HETATM   30  N2  UNL     1     -13.262  46.318 -21.105  1.00  0.00    -0.356 N 
HETATM   31  H16 UNL     1     -12.854  45.572 -20.535  1.00  0.00     0.162 HD
BRANCH  30  32
HETATM   32  C15 UNL     1     -14.095  45.982 -22.247  1.00  0.00     0.159 C 
BRANCH  32  33
HETATM   33  C16 UNL     1     -15.276  46.963 -22.455  1.00  0.00     0.170 C 
BRANCH  33  34
HETATM   34  O4  UNL     1     -15.080  47.791 -23.605  1.00  0.00    -0.389 OA
HETATM   35  H20 UNL     1     -15.324  47.273 -24.398  1.00  0.00     0.210 HD
ENDBRANCH  33  34
BRANCH  33  36
HETATM   36  C17 UNL     1     -16.616  46.277 -22.559  1.00  0.00    -0.013 A 
HETATM   37  C18 UNL     1     -17.564  46.605 -23.534  1.00  0.00     0.013 A 
HETATM   38  C19 UNL     1     -18.782  45.928 -23.577  1.00  0.00     0.025 A 
HETATM   39  C20 UNL     1     -19.038  44.941 -22.630  1.00  0.00     0.005 A 
HETATM   40  C21 UNL     1     -20.336  44.189 -22.661  1.00  0.00     0.068 C 
HETATM   41  N3  UNL     1     -18.150  44.619 -21.660  1.00  0.00    -0.369 N 
HETATM   42  C22 UNL     1     -16.976  45.294 -21.640  1.00  0.00     0.097 A 
ATOM     43  H3  UNL     1     -18.356  43.895 -20.972  1.00  0.00     0.165 HD
ENDBRANCH  33  36
ENDBRANCH  32  33
ENDBRANCH  30  32
ENDBRANCH  27  28
ENDBRANCH  26  27
ENDBRANCH  13  26
TORSDOF 8
ENDMDL
MODEL 2
REMARK minimizedAffinity -9.08551693
REMARK CNNscore 0.282637507
REMARK CNNaffinity 6.21451187
REMARK  8 active torsions:
REMARK  status: ('A' for Active; 'I' for Inactive)
REMARK    1  A    between atoms: C3_3  and  O1_4 
REMARK    2  A    between atoms: N1_14  and  O2_16 
REMARK    3  A    between atoms: O2_16  and  C13_17 
REMARK    4  A    between atoms: C13_17  and  C14_18 
REMARK       I    between atoms: C14_18  and  N2_20 
REMARK    5  A    between atoms: N2_20  and  C15_21 
REMARK    6  A    between atoms: C15_21  and  C16_22 
REMARK    7  A    between atoms: C16_22  and  O4_23 
REMARK    8  A    between atoms: C16_22  and  C17_24 
ROOT
HETATM    1  C1  UNL     1       0.636  53.723 -19.832  1.00  0.00     0.015 C 
HETATM    2  C2  UNL     1      -0.016  52.781 -20.194  1.00  0.00    -0.078 C 
HETATM    3  C3  UNL     1      -0.805  51.635 -20.682  1.00  0.00     0.128 C 
HETATM    4  C4  UNL     1       0.090  50.573 -21.325  1.00  0.00     0.052 C 
HETATM    5  C5  UNL     1      -0.849  49.382 -21.451  1.00  0.00     0.010 C 
HETATM    6  C6  UNL     1      -1.693  49.385 -20.156  1.00  0.00     0.002 C 
HETATM    7  C7  UNL     1      -3.146  48.864 -20.312  1.00  0.00    -0.004 C 
HETATM    8  C8  UNL     1      -3.160  47.505 -21.032  1.00  0.00     0.010 C 
HETATM    9  C9  UNL     1      -4.569  46.976 -21.240  1.00  0.00     0.035 C 
HETATM   10  C10 UNL     1      -5.411  47.987 -21.984  1.00  0.00    -0.069 C 
HETATM   11  C11 UNL     1      -6.026  47.638 -23.132  1.00  0.00     0.030 C 
HETATM   12  C12 UNL     1      -6.927  48.583 -23.845  1.00  0.00     0.032 C 
HETATM   13  N1  UNL     1      -7.395  48.434 -25.046  1.00  0.00    -0.271 N 
ATOM     14  H1  UNL     1      -8.055  49.075 -25.486  1.00  0.00     0.194 HD
HETATM   15  C23 UNL     1      -7.369  49.804 -23.069  1.00  0.00     0.060 C 
HETATM   16  C24 UNL     1      -6.174  50.384 -22.325  1.00  0.00     0.020 C 
HETATM   17  C25 UNL     1      -5.510  49.374 -21.344  1.00  0.00    -0.016 C 
HETATM   18  C26 UNL     1      -6.396  49.236 -20.084  1.00  0.00     0.020 C 
HETATM   19  C27 UNL     1      -4.060  49.900 -21.009  1.00  0.00     0.002 C 
HETATM   20  C28 UNL     1      -4.067  51.252 -20.255  1.00  0.00     0.007 C 
HETATM   21  C29 UNL     1      -2.957  51.423 -19.218  1.00  0.00     0.014 C 
HETATM   22  C30 UNL     1      -1.578  50.837 -19.582  1.00  0.00     0.003 C 
HETATM   23  C31 UNL     1      -0.751  50.756 -18.266  1.00  0.00     0.020 C 
ENDROOT
BRANCH   3  24
HETATM   24  O1  UNL     1      -1.691  52.111 -21.693  1.00  0.00    -0.377 OA
HETATM   25  H2  UNL     1      -1.180  52.712 -22.264  1.00  0.00     0.211 HD
ENDBRANCH   3  24
BRANCH  13  26
HETATM   26  O2  UNL     1      -6.881  47.282 -25.666  1.00  0.00    -0.271 OA
BRANCH  26  27
HETATM   27  C13 UNL     1      -7.954  46.442 -26.075  1.00  0.00     0.303 C 
BRANCH  27  28
HETATM   28  C14 UNL     1      -8.871  47.113 -27.097  1.00  0.00     0.243 C 
HETATM   29  O3  UNL     1      -8.572  48.163 -27.669  1.00  0.00    -0.271 OA
HETATM   30  N2  UNL     1     -10.069  46.455 -27.298  1.00  0.00    -0.356 N 
HETATM   31  H16 UNL     1     -10.280  45.691 -26.650  1.00  0.00     0.162 HD
BRANCH  30  32
HETATM   32  C15 UNL     1     -11.130  47.035 -28.103  1.00  0.00     0.159 C 
BRANCH  32  33
HETATM   33  C16 UNL     1     -12.301  47.599 -27.260  1.00  0.00     0.170 C 
BRANCH  33  34
HETATM   34  O4  UNL     1     -12.627  48.940 -27.639  1.00  0.00    -0.389 OA
HETATM   35  H20 UNL     1     -13.179  48.903 -28.446  1.00  0.00     0.210 HD
ENDBRANCH  33  34
BRANCH  33  36
HETATM   36  C17 UNL     1     -13.547  46.750 -27.318  1.00  0.00    -0.013 A 
HETATM   37  C18 UNL     1     -14.338  46.483 -26.194  1.00  0.00     0.013 A 
HETATM   38  C19 UNL     1     -15.479  45.694 -26.318  1.00  0.00     0.025 A 
HETATM   39  C20 UNL     1     -15.804  45.168 -27.565  1.00  0.00     0.005 A 
HETATM   40  C21 UNL     1     -17.034  44.325 -27.727  1.00  0.00     0.068 C 
HETATM   41  N3  UNL     1     -15.045  45.389 -28.664  1.00  0.00    -0.369 N 
HETATM   42  C22 UNL     1     -13.939  46.157 -28.515  1.00  0.00     0.097 A 
ATOM     43  H3  UNL     1     -15.296  44.992 -29.570  1.00  0.00     0.165 HD
ENDBRANCH  33  36
ENDBRANCH  32  33
ENDBRANCH  30  32
ENDBRANCH  27  28
ENDBRANCH  26  27
ENDBRANCH  13  26
TORSDOF 8
ENDMDL
MODEL 3
REMARK minimizedAffinity -8.40996265
REMARK CNNscore 0.279964209
REMARK CNNaffinity 6.13606119
REMARK  8 active torsions:
REMARK  status: ('A' for Active; 'I' for Inactive)
REMARK    1  A    between atoms: C3_3  and  O1_4 
REMARK    2  A    between atoms: N1_14  and  O2_16 
REMARK    3  A    between atoms: O2_16  and  C13_17 
REMARK    4  A    between atoms: C13_17  and  C14_18 
REMARK       I    between atoms: C14_18  and  N2_20 
REMARK    5  A    between atoms: N2_20  and  C15_21 
REMARK    6  A    between atoms: C15_21  and  C16_22 
REMARK    7  A    between atoms: C16_22  and  O4_23 
REMARK    8  A    between atoms: C16_22  and  C17_24 
ROOT
HETATM    1  C1  UNL     1      -0.149  54.534 -27.437  1.00  0.00     0.015 C 
HETATM    2  C2  UNL     1      -0.682  53.570 -26.956  1.00  0.00    -0.078 C 
HETATM    3  C3  UNL     1      -1.361  52.384 -26.405  1.00  0.00     0.128 C 
HETATM    4  C4  UNL     1      -0.998  51.118 -27.186  1.00  0.00     0.052 C 
HETATM    5  C5  UNL     1      -1.520  50.011 -26.282  1.00  0.00     0.010 C 
HETATM    6  C6  UNL     1      -1.200  50.471 -24.842  1.00  0.00     0.002 C 
HETATM    7  C7  UNL     1      -2.220  50.022 -23.762  1.00  0.00    -0.004 C 
HETATM    8  C8  UNL     1      -2.486  48.511 -23.862  1.00  0.00     0.010 C 
HETATM    9  C9  UNL     1      -3.510  48.036 -22.846  1.00  0.00     0.035 C 
HETATM   10  C10 UNL     1      -4.797  48.819 -22.984  1.00  0.00    -0.069 C 
HETATM   11  C11 UNL     1      -5.960  48.170 -23.192  1.00  0.00     0.030 C 
HETATM   12  C12 UNL     1      -7.255  48.903 -23.250  1.00  0.00     0.032 C 
HETATM   13  N1  UNL     1      -8.389  48.418 -23.650  1.00  0.00    -0.271 N 
ATOM     14  H1  UNL     1      -9.270  48.932 -23.626  1.00  0.00     0.194 HD
HETATM   15  C23 UNL     1      -7.241  50.330 -22.750  1.00  0.00     0.060 C 
HETATM   16  C24 UNL     1      -5.999  51.034 -23.281  1.00  0.00     0.020 C 
HETATM   17  C25 UNL     1      -4.670  50.339 -22.862  1.00  0.00    -0.016 C 
HETATM   18  C26 UNL     1      -4.380  50.657 -21.377  1.00  0.00     0.020 C 
HETATM   19  C27 UNL     1      -3.529  50.848 -23.825  1.00  0.00     0.002 C 
HETATM   20  C28 UNL     1      -3.253  52.365 -23.686  1.00  0.00     0.007 C 
HETATM   21  C29 UNL     1      -1.791  52.778 -23.860  1.00  0.00     0.014 C 
HETATM   22  C30 UNL     1      -0.983  52.019 -24.932  1.00  0.00     0.003 C 
HETATM   23  C31 UNL     1       0.523  52.299 -24.657  1.00  0.00     0.020 C 
ENDROOT
BRANCH   3  24
HETATM   24  O1  UNL     1      -2.767  52.578 -26.545  1.00  0.00    -0.377 OA
HETATM   25  H2  UNL     1      -2.921  52.936 -27.437  1.00  0.00     0.211 HD
ENDBRANCH   3  24
BRANCH  13  26
HETATM   26  O2  UNL     1      -8.257  47.100 -24.118  1.00  0.00    -0.271 OA
BRANCH  26  27
HETATM   27  C13 UNL     1      -8.694  47.028 -25.470  1.00  0.00     0.303 C 
BRANCH  27  28
HETATM   28  C14 UNL     1     -10.080  46.399 -25.610  1.00  0.00     0.243 C 
HETATM   29  O3  UNL     1     -10.718  46.426 -26.664  1.00  0.00    -0.271 OA
HETATM   30  N2  UNL     1     -10.559  45.826 -24.448  1.00  0.00    -0.356 N 
HETATM   31  H16 UNL     1     -10.020  46.008 -23.597  1.00  0.00     0.162 HD
BRANCH  30  32
HETATM   32  C15 UNL     1     -11.922  45.331 -24.349  1.00  0.00     0.159 C 
BRANCH  32  33
HETATM   33  C16 UNL     1     -12.775  45.629 -25.608  1.00  0.00     0.170 C 
BRANCH  33  34
HETATM   34  O4  UNL     1     -12.789  44.520 -26.511  1.00  0.00    -0.389 OA
HETATM   35  H20 UNL     1     -13.439  43.867 -26.182  1.00  0.00     0.210 HD
ENDBRANCH  33  34
BRANCH  33  36
HETATM   36  C17 UNL     1     -14.195  46.030 -25.290  1.00  0.00    -0.013 A 
HETATM   37  C18 UNL     1     -14.516  46.981 -24.314  1.00  0.00     0.013 A 
HETATM   38  C19 UNL     1     -15.849  47.309 -24.074  1.00  0.00     0.025 A 
HETATM   39  C20 UNL     1     -16.844  46.666 -24.805  1.00  0.00     0.005 A 
HETATM   40  C21 UNL     1     -18.285  47.009 -24.575  1.00  0.00     0.068 C 
HETATM   41  N3  UNL     1     -16.564  45.726 -25.739  1.00  0.00    -0.369 N 
HETATM   42  C22 UNL     1     -15.261  45.424 -25.950  1.00  0.00     0.097 A 
ATOM     43  H3  UNL     1     -17.307  45.262 -26.263  1.00  0.00     0.165 HD
ENDBRANCH  33  36
ENDBRANCH  32  33
ENDBRANCH  30  32
ENDBRANCH  27  28
ENDBRANCH  26  27
ENDBRANCH  13  26
TORSDOF 8
ENDMDL
MODEL 4
REMARK minimizedAffinity -9.02362823
REMARK CNNscore 0.279481828
REMARK CNNaffinity 6.26601601
REMARK  8 active torsions:
REMARK  status: ('A' for Active; 'I' for Inactive)
REMARK    1  A    between atoms: C3_3  and  O1_4 
REMARK    2  A    between atoms: N1_14  and  O2_16 
REMARK    3  A    between atoms: O2_16  and  C13_17 
REMARK    4  A    between atoms: C13_17  and  C14_18 
REMARK       I    between atoms: C14_18  and  N2_20 
REMARK    5  A    between atoms: N2_20  and  C15_21 
REMARK    6  A    between atoms: C15_21  and  C16_22 
REMARK    7  A    between atoms: C16_22  and  O4_23 
REMARK    8  A    between atoms: C16_22  and  C17_24 
ROOT
HETATM    1  C1  UNL     1       0.770  54.972 -24.872  1.00  0.00     0.015 C 
HETATM    2  C2  UNL     1       0.004  54.100 -25.183  1.00  0.00    -0.078 C 
HETATM    3  C3  UNL     1      -0.968  53.064 -25.576  1.00  0.00     0.128 C 
HETATM    4  C4  UNL     1      -1.276  53.124 -27.074  1.00  0.00     0.052 C 
HETATM    5  C5  UNL     1      -2.010  51.812 -27.314  1.00  0.00     0.010 C 
HETATM    6  C6  UNL     1      -1.275  50.766 -26.445  1.00  0.00     0.002 C 
HETATM    7  C7  UNL     1      -2.171  49.634 -25.876  1.00  0.00    -0.004 C 
HETATM    8  C8  UNL     1      -3.016  48.998 -26.992  1.00  0.00     0.010 C 
HETATM    9  C9  UNL     1      -3.936  47.908 -26.469  1.00  0.00     0.035 C 
HETATM   10  C10 UNL     1      -4.820  48.444 -25.365  1.00  0.00    -0.069 C 
HETATM   11  C11 UNL     1      -6.160  48.345 -25.466  1.00  0.00     0.030 C 
HETATM   12  C12 UNL     1      -7.055  48.788 -24.362  1.00  0.00     0.032 C 
HETATM   13  N1  UNL     1      -8.341  48.935 -24.434  1.00  0.00    -0.271 N 
ATOM     14  H1  UNL     1      -8.933  49.188 -23.642  1.00  0.00     0.194 HD
HETATM   15  C23 UNL     1      -6.395  49.041 -23.025  1.00  0.00     0.060 C 
HETATM   16  C24 UNL     1      -5.099  49.810 -23.244  1.00  0.00     0.020 C 
HETATM   17  C25 UNL     1      -4.092  49.069 -24.172  1.00  0.00    -0.016 C 
HETATM   18  C26 UNL     1      -3.431  47.916 -23.382  1.00  0.00     0.020 C 
HETATM   19  C27 UNL     1      -3.043  50.126 -24.695  1.00  0.00     0.002 C 
HETATM   20  C28 UNL     1      -2.178  50.730 -23.561  1.00  0.00     0.007 C 
HETATM   21  C29 UNL     1      -0.731  51.040 -23.943  1.00  0.00     0.014 C 
HETATM   22  C30 UNL     1      -0.495  51.588 -25.364  1.00  0.00     0.003 C 
HETATM   23  C31 UNL     1       1.024  51.439 -25.669  1.00  0.00     0.020 C 
ENDROOT
BRANCH   3  24
HETATM   24  O1  UNL     1      -2.188  53.320 -24.883  1.00  0.00    -0.377 OA
HETATM   25  H2  UNL     1      -2.353  54.278 -24.935  1.00  0.00     0.211 HD
ENDBRANCH   3  24
BRANCH  13  26
HETATM   26  O2  UNL     1      -8.821  48.703 -25.735  1.00  0.00    -0.271 OA
BRANCH  26  27
HETATM   27  C13 UNL     1      -9.683  47.572 -25.730  1.00  0.00     0.303 C 
BRANCH  27  28
HETATM   28  C14 UNL     1     -11.109  47.914 -26.161  1.00  0.00     0.243 C 
HETATM   29  O3  UNL     1     -11.453  49.058 -26.467  1.00  0.00    -0.271 OA
HETATM   30  N2  UNL     1     -11.976  46.839 -26.149  1.00  0.00    -0.356 N 
HETATM   31  H16 UNL     1     -11.624  45.979 -25.720  1.00  0.00     0.162 HD
BRANCH  30  32
HETATM   32  C15 UNL     1     -13.403  47.010 -26.366  1.00  0.00     0.159 C 
BRANCH  32  33
HETATM   33  C16 UNL     1     -14.196  45.681 -26.298  1.00  0.00     0.170 C 
BRANCH  33  34
HETATM   34  O4  UNL     1     -13.561  44.729 -25.440  1.00  0.00    -0.389 OA
HETATM   35  H20 UNL     1     -13.789  44.953 -24.515  1.00  0.00     0.210 HD
ENDBRANCH  33  34
BRANCH  33  36
HETATM   36  C17 UNL     1     -15.631  45.860 -25.867  1.00  0.00    -0.013 A 
HETATM   37  C18 UNL     1     -16.005  46.661 -24.782  1.00  0.00     0.013 A 
HETATM   38  C19 UNL     1     -17.350  46.787 -24.440  1.00  0.00     0.025 A 
HETATM   39  C20 UNL     1     -18.302  46.093 -25.181  1.00  0.00     0.005 A 
HETATM   40  C21 UNL     1     -19.757  46.221 -24.842  1.00  0.00     0.068 C 
HETATM   41  N3  UNL     1     -17.968  45.293 -26.221  1.00  0.00    -0.369 N 
HETATM   42  C22 UNL     1     -16.654  45.186 -26.530  1.00  0.00     0.097 A 
ATOM     43  H3  UNL     1     -18.679  44.789 -26.751  1.00  0.00     0.165 HD
ENDBRANCH  33  36
ENDBRANCH  32  33
ENDBRANCH  30  32
ENDBRANCH  27  28
ENDBRANCH  26  27
ENDBRANCH  13  26
TORSDOF 8
ENDMDL
MODEL 5
REMARK minimizedAffinity -7.86777353
REMARK CNNscore 0.278134972
REMARK CNNaffinity 6.03305101
REMARK  8 active torsions:
REMARK  status: ('A' for Active; 'I' for Inactive)
REMARK    1  A    between atoms: C3_3  and  O1_4 
REMARK    2  A    between atoms: N1_14  and  O2_16 
REMARK    3  A    between atoms: O2_16  and  C13_17 
REMARK    4  A    between atoms: C13_17  and  C14_18 
REMARK       I    between atoms: C14_18  and  N2_20 
REMARK    5  A    between atoms: N2_20  and  C15_21 
REMARK    6  A    between atoms: C15_21  and  C16_22 
REMARK    7  A    between atoms: C16_22  and  O4_23 
REMARK    8  A    between atoms: C16_22  and  C17_24 
ROOT
HETATM    1  C1  UNL     1      -2.313  43.494 -16.885  1.00  0.00     0.015 C 
HETATM    2  C2  UNL     1      -3.053  44.288 -17.400  1.00  0.00    -0.078 C 
HETATM    3  C3  UNL     1      -3.985  45.226 -18.051  1.00  0.00     0.128 C 
HETATM    4  C4  UNL     1      -5.399  45.099 -17.478  1.00  0.00     0.052 C 
HETATM    5  C5  UNL     1      -6.092  46.336 -18.031  1.00  0.00     0.010 C 
HETATM    6  C6  UNL     1      -5.038  47.464 -17.958  1.00  0.00     0.002 C 
HETATM    7  C7  UNL     1      -5.133  48.531 -19.082  1.00  0.00    -0.004 C 
HETATM    8  C8  UNL     1      -6.571  49.061 -19.206  1.00  0.00     0.010 C 
HETATM    9  C9  UNL     1      -6.715  50.082 -20.322  1.00  0.00     0.035 C 
HETATM   10  C10 UNL     1      -6.241  49.502 -21.636  1.00  0.00    -0.069 C 
HETATM   11  C11 UNL     1      -7.067  49.482 -22.701  1.00  0.00     0.030 C 
HETATM   12  C12 UNL     1      -6.605  48.995 -24.029  1.00  0.00     0.032 C 
HETATM   13  N1  UNL     1      -7.360  48.735 -25.052  1.00  0.00    -0.271 N 
ATOM     14  H1  UNL     1      -7.006  48.454 -25.966  1.00  0.00     0.194 HD
HETATM   15  C23 UNL     1      -5.112  48.835 -24.203  1.00  0.00     0.060 C 
HETATM   16  C24 UNL     1      -4.531  48.174 -22.961  1.00  0.00     0.020 C 
HETATM   17  C25 UNL     1      -4.805  48.974 -21.653  1.00  0.00    -0.016 C 
HETATM   18  C26 UNL     1      -3.864  50.201 -21.604  1.00  0.00     0.020 C 
HETATM   19  C27 UNL     1      -4.592  47.998 -20.431  1.00  0.00     0.002 C 
HETATM   20  C28 UNL     1      -3.131  47.501 -20.303  1.00  0.00     0.007 C 
HETATM   21  C29 UNL     1      -2.635  47.306 -18.870  1.00  0.00     0.014 C 
HETATM   22  C30 UNL     1      -3.653  46.742 -17.859  1.00  0.00     0.003 C 
HETATM   23  C31 UNL     1      -3.085  47.012 -16.435  1.00  0.00     0.020 C 
ENDROOT
BRANCH   3  24
HETATM   24  O1  UNL     1      -4.057  44.885 -19.434  1.00  0.00    -0.377 OA
HETATM   25  H2  UNL     1      -4.124  43.916 -19.488  1.00  0.00     0.211 HD
ENDBRANCH   3  24
BRANCH  13  26
HETATM   26  O2  UNL     1      -8.723  48.890 -24.747  1.00  0.00    -0.271 OA
BRANCH  26  27
HETATM   27  C13 UNL     1      -9.436  49.259 -25.922  1.00  0.00     0.303 C 
BRANCH  27  28
HETATM   28  C14 UNL     1      -9.333  48.210 -27.028  1.00  0.00     0.243 C 
HETATM   29  O3  UNL     1      -9.208  47.007 -26.793  1.00  0.00    -0.271 OA
HETATM   30  N2  UNL     1      -9.364  48.733 -28.306  1.00  0.00    -0.356 N 
HETATM   31  H16 UNL     1      -9.302  49.752 -28.380  1.00  0.00     0.162 HD
BRANCH  30  32
HETATM   32  C15 UNL     1      -9.110  47.906 -29.474  1.00  0.00     0.159 C 
BRANCH  32  33
HETATM   33  C16 UNL     1      -8.936  48.722 -30.778  1.00  0.00     0.170 C 
BRANCH  33  34
HETATM   34  O4  UNL     1      -8.900  50.129 -30.520  1.00  0.00    -0.389 OA
HETATM   35  H20 UNL     1      -7.999  50.360 -30.214  1.00  0.00     0.210 HD
ENDBRANCH  33  34
BRANCH  33  36
HETATM   36  C17 UNL     1      -7.715  48.331 -31.574  1.00  0.00    -0.013 A 
HETATM   37  C18 UNL     1      -7.775  47.946 -32.919  1.00  0.00     0.013 A 
HETATM   38  C19 UNL     1      -6.608  47.601 -33.597  1.00  0.00     0.025 A 
HETATM   39  C20 UNL     1      -5.396  47.630 -32.912  1.00  0.00     0.005 A 
HETATM   40  C21 UNL     1      -4.124  47.275 -33.621  1.00  0.00     0.068 C 
HETATM   41  N3  UNL     1      -5.311  47.975 -31.605  1.00  0.00    -0.369 N 
HETATM   42  C22 UNL     1      -6.461  48.303 -30.969  1.00  0.00     0.097 A 
ATOM     43  H3  UNL     1      -4.415  47.988 -31.118  1.00  0.00     0.165 HD
ENDBRANCH  33  36
ENDBRANCH  32  33
ENDBRANCH  30  32
ENDBRANCH  27  28
ENDBRANCH  26  27
ENDBRANCH  13  26
TORSDOF 8
ENDMDL
MODEL 6
REMARK minimizedAffinity -7.70963812
REMARK CNNscore 0.26448825
REMARK CNNaffinity 6.17893839
REMARK  8 active torsions:
REMARK  status: ('A' for Active; 'I' for Inactive)
REMARK    1  A    between atoms: C3_3  and  O1_4 
REMARK    2  A    between atoms: N1_14  and  O2_16 
REMARK    3  A    between atoms: O2_16  and  C13_17 
REMARK    4  A    between atoms: C13_17  and  C14_18 
REMARK       I    between atoms: C14_18  and  N2_20 
REMARK    5  A    between atoms: N2_20  and  C15_21 
REMARK    6  A    between atoms: C15_21  and  C16_22 
REMARK    7  A    between atoms: C16_22  and  O4_23 
REMARK    8  A    between atoms: C16_22  and  C17_24 
ROOT
HETATM    1  C1  UNL     1       0.579  53.415 -19.514  1.00  0.00     0.015 C 
HETATM    2  C2  UNL     1      -0.079  52.500 -19.931  1.00  0.00    -0.078 C 
HETATM    3  C3  UNL     1      -0.873  51.389 -20.486  1.00  0.00     0.128 C 
HETATM    4  C4  UNL     1       0.022  50.329 -21.133  1.00  0.00     0.052 C 
HETATM    5  C5  UNL     1      -0.937  49.164 -21.333  1.00  0.00     0.010 C 
HETATM    6  C6  UNL     1      -1.827  49.143 -20.070  1.00  0.00     0.002 C 
HETATM    7  C7  UNL     1      -3.284  48.660 -20.296  1.00  0.00    -0.004 C 
HETATM    8  C8  UNL     1      -3.300  47.326 -21.062  1.00  0.00     0.010 C 
HETATM    9  C9  UNL     1      -4.711  46.836 -21.338  1.00  0.00     0.035 C 
HETATM   10  C10 UNL     1      -5.504  47.890 -22.077  1.00  0.00    -0.069 C 
HETATM   11  C11 UNL     1      -6.083  47.593 -23.258  1.00  0.00     0.030 C 
HETATM   12  C12 UNL     1      -6.938  48.582 -23.971  1.00  0.00     0.032 C 
HETATM   13  N1  UNL     1      -7.364  48.483 -25.192  1.00  0.00    -0.271 N 
ATOM     14  H1  UNL     1      -7.993  49.153 -25.634  1.00  0.00     0.194 HD
HETATM   15  C23 UNL     1      -7.382  49.785 -23.170  1.00  0.00     0.060 C 
HETATM   16  C24 UNL     1      -6.203  50.313 -22.364  1.00  0.00     0.020 C 
HETATM   17  C25 UNL     1      -5.597  49.257 -21.394  1.00  0.00    -0.016 C 
HETATM   18  C26 UNL     1      -6.532  49.097 -20.173  1.00  0.00     0.020 C 
HETATM   19  C27 UNL     1      -4.150  49.739 -20.990  1.00  0.00     0.002 C 
HETATM   20  C28 UNL     1      -4.157  51.065 -20.191  1.00  0.00     0.007 C 
HETATM   21  C29 UNL     1      -3.082  51.177 -19.109  1.00  0.00     0.014 C 
HETATM   22  C30 UNL     1      -1.703  50.572 -19.443  1.00  0.00     0.003 C 
HETATM   23  C31 UNL     1      -0.927  50.429 -18.101  1.00  0.00     0.020 C 
ENDROOT
BRANCH   3  24
HETATM   24  O1  UNL     1      -1.711  51.918 -21.512  1.00  0.00    -0.377 OA
HETATM   25  H2  UNL     1      -1.167  52.526 -22.043  1.00  0.00     0.211 HD
ENDBRANCH   3  24
BRANCH  13  26
HETATM   26  O2  UNL     1      -6.852  47.341 -25.832  1.00  0.00    -0.271 OA
BRANCH  26  27
HETATM   27  C13 UNL     1      -6.724  47.593 -27.226  1.00  0.00     0.303 C 
BRANCH  27  28
HETATM   28  C14 UNL     1      -7.993  47.253 -28.006  1.00  0.00     0.243 C 
HETATM   29  O3  UNL     1      -9.029  46.874 -27.456  1.00  0.00    -0.271 OA
HETATM   30  N2  UNL     1      -7.866  47.383 -29.375  1.00  0.00    -0.356 N 
HETATM   31  H16 UNL     1      -6.919  47.541 -29.729  1.00  0.00     0.162 HD
BRANCH  30  32
HETATM   32  C15 UNL     1      -8.913  46.943 -30.282  1.00  0.00     0.159 C 
BRANCH  32  33
HETATM   33  C16 UNL     1      -8.423  45.914 -31.332  1.00  0.00     0.170 C 
BRANCH  33  34
HETATM   34  O4  UNL     1      -7.020  45.663 -31.211  1.00  0.00    -0.389 OA
HETATM   35  H20 UNL     1      -6.885  45.031 -30.476  1.00  0.00     0.210 HD
ENDBRANCH  33  34
BRANCH  33  36
HETATM   36  C17 UNL     1      -9.169  44.603 -31.282  1.00  0.00    -0.013 A 
HETATM   37  C18 UNL     1     -10.227  44.298 -32.145  1.00  0.00     0.013 A 
HETATM   38  C19 UNL     1     -10.871  43.066 -32.049  1.00  0.00     0.025 A 
HETATM   39  C20 UNL     1     -10.454  42.162 -31.076  1.00  0.00     0.005 A 
HETATM   40  C21 UNL     1     -11.122  40.824 -30.959  1.00  0.00     0.068 C 
HETATM   41  N3  UNL     1      -9.449  42.439 -30.212  1.00  0.00    -0.369 N 
HETATM   42  C22 UNL     1      -8.843  43.645 -30.326  1.00  0.00     0.097 A 
ATOM     43  H3  UNL     1      -9.159  41.765 -29.503  1.00  0.00     0.165 HD
ENDBRANCH  33  36
ENDBRANCH  32  33
ENDBRANCH  30  32
ENDBRANCH  27  28
ENDBRANCH  26  27
ENDBRANCH  13  26
TORSDOF 8
ENDMDL
MODEL 7
REMARK minimizedAffinity -8.89198875
REMARK CNNscore 0.26274547
REMARK CNNaffinity 6.28111506
REMARK  8 active torsions:
REMARK  status: ('A' for Active; 'I' for Inactive)
REMARK    1  A    between atoms: C3_3  and  O1_4 
REMARK    2  A    between atoms: N1_14  and  O2_16 
REMARK    3  A    between atoms: O2_16  and  C13_17 
REMARK    4  A    between atoms: C13_17  and  C14_18 
REMARK       I    between atoms: C14_18  and  N2_20 
REMARK    5  A    between atoms: N2_20  and  C15_21 
REMARK    6  A    between atoms: C15_21  and  C16_22 
REMARK    7  A    between atoms: C16_22  and  O4_23 
REMARK    8  A    between atoms: C16_22  and  C17_24 
ROOT
HETATM    1  C1  UNL     1      -0.501  54.083 -28.215  1.00  0.00     0.015 C 
HETATM    2  C2  UNL     1      -1.091  53.262 -27.566  1.00  0.00    -0.078 C 
HETATM    3  C3  UNL     1      -1.855  52.276 -26.780  1.00  0.00     0.128 C 
HETATM    4  C4  UNL     1      -2.777  51.441 -27.672  1.00  0.00     0.052 C 
HETATM    5  C5  UNL     1      -3.201  50.312 -26.744  1.00  0.00     0.010 C 
HETATM    6  C6  UNL     1      -1.938  49.953 -25.930  1.00  0.00     0.002 C 
HETATM    7  C7  UNL     1      -2.202  49.468 -24.480  1.00  0.00    -0.004 C 
HETATM    8  C8  UNL     1      -3.260  48.353 -24.465  1.00  0.00     0.010 C 
HETATM    9  C9  UNL     1      -3.577  47.875 -23.058  1.00  0.00     0.035 C 
HETATM   10  C10 UNL     1      -4.005  49.035 -22.188  1.00  0.00    -0.069 C 
HETATM   11  C11 UNL     1      -5.193  48.996 -21.552  1.00  0.00     0.030 C 
HETATM   12  C12 UNL     1      -5.610  50.083 -20.624  1.00  0.00     0.032 C 
HETATM   13  N1  UNL     1      -6.797  50.254 -20.132  1.00  0.00    -0.271 N 
ATOM     14  H1  UNL     1      -7.037  50.979 -19.455  1.00  0.00     0.194 HD
HETATM   15  C23 UNL     1      -4.526  51.042 -20.185  1.00  0.00     0.060 C 
HETATM   16  C24 UNL     1      -3.676  51.422 -21.390  1.00  0.00     0.020 C 
HETATM   17  C25 UNL     1      -3.014  50.196 -22.087  1.00  0.00    -0.016 C 
HETATM   18  C26 UNL     1      -1.822  49.710 -21.231  1.00  0.00     0.020 C 
HETATM   19  C27 UNL     1      -2.577  50.638 -23.538  1.00  0.00     0.002 C 
HETATM   20  C28 UNL     1      -1.487  51.737 -23.532  1.00  0.00     0.007 C 
HETATM   21  C29 UNL     1      -0.463  51.642 -24.663  1.00  0.00     0.014 C 
HETATM   22  C30 UNL     1      -0.996  51.199 -26.040  1.00  0.00     0.003 C 
HETATM   23  C31 UNL     1       0.235  50.782 -26.897  1.00  0.00     0.020 C 
ENDROOT
BRANCH   3  24
HETATM   24  O1  UNL     1      -2.684  52.992 -25.866  1.00  0.00    -0.377 OA
HETATM   25  H2  UNL     1      -3.082  53.732 -26.357  1.00  0.00     0.211 HD
ENDBRANCH   3  24
BRANCH  13  26
HETATM   26  O2  UNL     1      -7.714  49.320 -20.645  1.00  0.00    -0.271 OA
BRANCH  26  27
HETATM   27  C13 UNL     1      -7.987  48.330 -19.660  1.00  0.00     0.303 C 
BRANCH  27  28
HETATM   28  C14 UNL     1      -9.375  48.481 -19.041  1.00  0.00     0.243 C 
HETATM   29  O3  UNL     1      -9.547  48.875 -17.885  1.00  0.00    -0.271 OA
HETATM   30  N2  UNL     1     -10.410  48.114 -19.878  1.00  0.00    -0.356 N 
HETATM   31  H16 UNL     1     -10.144  47.647 -20.749  1.00  0.00     0.162 HD
BRANCH  30  32
HETATM   32  C15 UNL     1     -11.782  48.032 -19.403  1.00  0.00     0.159 C 
BRANCH  32  33
HETATM   33  C16 UNL     1     -12.403  46.622 -19.563  1.00  0.00     0.170 C 
BRANCH  33  34
HETATM   34  O4  UNL     1     -12.149  45.800 -18.421  1.00  0.00    -0.389 OA
HETATM   35  H20 UNL     1     -12.789  46.041 -17.722  1.00  0.00     0.210 HD
ENDBRANCH  33  34
BRANCH  33  36
HETATM   36  C17 UNL     1     -13.887  46.648 -19.837  1.00  0.00    -0.013 A 
HETATM   37  C18 UNL     1     -14.423  46.970 -21.089  1.00  0.00     0.013 A 
HETATM   38  C19 UNL     1     -15.804  46.970 -21.276  1.00  0.00     0.025 A 
HETATM   39  C20 UNL     1     -16.630  46.663 -20.198  1.00  0.00     0.005 A 
HETATM   40  C21 UNL     1     -18.120  46.644 -20.375  1.00  0.00     0.068 C 
HETATM   41  N3  UNL     1     -16.141  46.371 -18.970  1.00  0.00    -0.369 N 
HETATM   42  C22 UNL     1     -14.795  46.381 -18.816  1.00  0.00     0.097 A 
ATOM     43  H3  UNL     1     -16.761  46.151 -18.191  1.00  0.00     0.165 HD
ENDBRANCH  33  36
ENDBRANCH  32  33
ENDBRANCH  30  32
ENDBRANCH  27  28
ENDBRANCH  26  27
ENDBRANCH  13  26
TORSDOF 8
ENDMDL
MODEL 8
REMARK minimizedAffinity -7.7853384
REMARK CNNscore 0.252734065
REMARK CNNaffinity 4.60061216
REMARK  8 active torsions:
REMARK  status: ('A' for Active; 'I' for Inactive)
REMARK    1  A    between atoms: C3_3  and  O1_4 
REMARK    2  A    between atoms: N1_14  and  O2_16 
REMARK    3  A    between atoms: O2_16  and  C13_17 
REMARK    4  A    between atoms: C13_17  and  C14_18 
REMARK       I    between atoms: C14_18  and  N2_20 
REMARK    5  A    between atoms: N2_20  and  C15_21 
REMARK    6  A    between atoms: C15_21  and  C16_22 
REMARK    7  A    between atoms: C16_22  and  O4_23 
REMARK    8  A    between atoms: C16_22  and  C17_24 
ROOT
HETATM    1  C1  UNL     1     -20.415  40.366 -19.743  1.00  0.00     0.015 C 
HETATM    2  C2  UNL     1     -19.964  40.900 -20.721  1.00  0.00    -0.078 C 
HETATM    3  C3  UNL     1     -19.370  41.533 -21.912  1.00  0.00     0.128 C 
HETATM    4  C4  UNL     1     -19.030  40.497 -22.986  1.00  0.00     0.052 C 
HETATM    5  C5  UNL     1     -18.753  41.364 -24.206  1.00  0.00     0.010 C 
HETATM    6  C6  UNL     1     -19.801  42.498 -24.150  1.00  0.00     0.002 C 
HETATM    7  C7  UNL     1     -19.328  43.863 -24.716  1.00  0.00    -0.004 C 
HETATM    8  C8  UNL     1     -18.711  43.686 -26.114  1.00  0.00     0.010 C 
HETATM    9  C9  UNL     1     -18.199  44.996 -26.690  1.00  0.00     0.035 C 
HETATM   10  C10 UNL     1     -17.212  45.641 -25.744  1.00  0.00    -0.069 C 
HETATM   11  C11 UNL     1     -15.973  45.952 -26.174  1.00  0.00     0.030 C 
HETATM   12  C12 UNL     1     -15.004  46.662 -25.294  1.00  0.00     0.032 C 
HETATM   13  N1  UNL     1     -13.737  46.819 -25.523  1.00  0.00    -0.271 N 
ATOM     14  H1  UNL     1     -13.111  47.358 -24.925  1.00  0.00     0.194 HD
HETATM   15  C23 UNL     1     -15.572  47.293 -24.043  1.00  0.00     0.060 C 
HETATM   16  C24 UNL     1     -16.548  46.322 -23.391  1.00  0.00     0.020 C 
HETATM   17  C25 UNL     1     -17.722  45.908 -24.326  1.00  0.00    -0.016 C 
HETATM   18  C26 UNL     1     -18.733  47.074 -24.414  1.00  0.00     0.020 C 
HETATM   19  C27 UNL     1     -18.366  44.590 -23.745  1.00  0.00     0.002 C 
HETATM   20  C28 UNL     1     -19.011  44.796 -22.353  1.00  0.00     0.007 C 
HETATM   21  C29 UNL     1     -20.275  43.975 -22.094  1.00  0.00     0.014 C 
HETATM   22  C30 UNL     1     -20.295  42.543 -22.665  1.00  0.00     0.003 C 
HETATM   23  C31 UNL     1     -21.775  42.063 -22.650  1.00  0.00     0.020 C 
ENDROOT
BRANCH   3  24
HETATM   24  O1  UNL     1     -18.145  42.149 -21.517  1.00  0.00    -0.377 OA
HETATM   25  H2  UNL     1     -17.681  41.520 -20.938  1.00  0.00     0.211 HD
ENDBRANCH   3  24
BRANCH  13  26
HETATM   26  O2  UNL     1     -13.333  46.157 -26.695  1.00  0.00    -0.271 OA
BRANCH  26  27
HETATM   27  C13 UNL     1     -12.924  47.113 -27.666  1.00  0.00     0.303 C 
BRANCH  27  28
HETATM   28  C14 UNL     1     -11.487  46.898 -28.138  1.00  0.00     0.243 C 
HETATM   29  O3  UNL     1     -11.007  45.776 -28.314  1.00  0.00    -0.271 OA
HETATM   30  N2  UNL     1     -10.771  48.065 -28.320  1.00  0.00    -0.356 N 
HETATM   31  H16 UNL     1     -11.215  48.925 -27.984  1.00  0.00     0.162 HD
BRANCH  30  32
HETATM   32  C15 UNL     1      -9.346  48.048 -28.601  1.00  0.00     0.159 C 
BRANCH  32  33
HETATM   33  C16 UNL     1      -8.989  48.619 -29.996  1.00  0.00     0.170 C 
BRANCH  33  34
HETATM   34  O4  UNL     1      -8.898  50.046 -29.977  1.00  0.00    -0.389 OA
HETATM   35  H20 UNL     1      -8.023  50.291 -29.614  1.00  0.00     0.210 HD
ENDBRANCH  33  34
BRANCH  33  36
HETATM   36  C17 UNL     1      -7.717  48.047 -30.572  1.00  0.00    -0.013 A 
HETATM   37  C18 UNL     1      -6.654  47.605 -29.775  1.00  0.00     0.013 A 
HETATM   38  C19 UNL     1      -5.508  47.082 -30.372  1.00  0.00     0.025 A 
HETATM   39  C20 UNL     1      -5.436  47.026 -31.761  1.00  0.00     0.005 A 
HETATM   40  C21 UNL     1      -4.219  46.456 -32.427  1.00  0.00     0.068 C 
HETATM   41  N3  UNL     1      -6.439  47.468 -32.557  1.00  0.00    -0.369 N 
HETATM   42  C22 UNL     1      -7.540  47.973 -31.951  1.00  0.00     0.097 A 
ATOM     43  H3  UNL     1      -6.368  47.421 -33.573  1.00  0.00     0.165 HD
ENDBRANCH  33  36
ENDBRANCH  32  33
ENDBRANCH  30  32
ENDBRANCH  27  28
ENDBRANCH  26  27
ENDBRANCH  13  26
TORSDOF 8
ENDMDL
MODEL 9
REMARK minimizedAffinity -9.83076191
REMARK CNNscore 0.250168622
REMARK CNNaffinity 6.3363061
REMARK  8 active torsions:
REMARK  status: ('A' for Active; 'I' for Inactive)
REMARK    1  A    between atoms: C3_3  and  O1_4 
REMARK    2  A    between atoms: N1_14  and  O2_16 
REMARK    3  A    between atoms: O2_16  and  C13_17 
REMARK    4  A    between atoms: C13_17  and  C14_18 
REMARK       I    between atoms: C14_18  and  N2_20 
REMARK    5  A    between atoms: N2_20  and  C15_21 
REMARK    6  A    between atoms: C15_21  and  C16_22 
REMARK    7  A    between atoms: C16_22  and  O4_23 
REMARK    8  A    between atoms: C16_22  and  C17_24 
ROOT
HETATM    1  C1  UNL     1       1.329  51.843 -28.030  1.00  0.00     0.015 C 
HETATM    2  C2  UNL     1       0.508  51.797 -27.154  1.00  0.00    -0.078 C 
HETATM    3  C3  UNL     1      -0.464  51.742 -26.047  1.00  0.00     0.128 C 
HETATM    4  C4  UNL     1      -0.483  53.050 -25.252  1.00  0.00     0.052 C 
HETATM    5  C5  UNL     1      -1.738  52.904 -24.405  1.00  0.00     0.010 C 
HETATM    6  C6  UNL     1      -2.781  52.234 -25.328  1.00  0.00     0.002 C 
HETATM    7  C7  UNL     1      -3.787  51.293 -24.614  1.00  0.00    -0.004 C 
HETATM    8  C8  UNL     1      -4.423  51.997 -23.404  1.00  0.00     0.010 C 
HETATM    9  C9  UNL     1      -5.388  51.095 -22.653  1.00  0.00     0.035 C 
HETATM   10  C10 UNL     1      -4.700  49.817 -22.230  1.00  0.00    -0.069 C 
HETATM   11  C11 UNL     1      -4.688  49.456 -20.932  1.00  0.00     0.030 C 
HETATM   12  C12 UNL     1      -4.092  48.164 -20.493  1.00  0.00     0.032 C 
HETATM   13  N1  UNL     1      -3.837  47.817 -19.270  1.00  0.00    -0.271 N 
ATOM     14  H1  UNL     1      -3.478  46.902 -18.998  1.00  0.00     0.194 HD
HETATM   15  C23 UNL     1      -3.804  47.155 -21.581  1.00  0.00     0.060 C 
HETATM   16  C24 UNL     1      -3.169  47.865 -22.769  1.00  0.00     0.020 C 
HETATM   17  C25 UNL     1      -4.060  49.001 -23.355  1.00  0.00    -0.016 C 
HETATM   18  C26 UNL     1      -5.208  48.369 -24.176  1.00  0.00     0.020 C 
HETATM   19  C27 UNL     1      -3.139  49.942 -24.225  1.00  0.00     0.002 C 
HETATM   20  C28 UNL     1      -2.535  49.224 -25.457  1.00  0.00     0.007 C 
HETATM   21  C29 UNL     1      -2.381  50.095 -26.704  1.00  0.00     0.014 C 
HETATM   22  C30 UNL     1      -1.957  51.559 -26.475  1.00  0.00     0.003 C 
HETATM   23  C31 UNL     1      -2.260  52.337 -27.789  1.00  0.00     0.020 C 
ENDROOT
BRANCH   3  24
HETATM   24  O1  UNL     1      -0.053  50.709 -25.153  1.00  0.00    -0.377 OA
HETATM   25  H2  UNL     1       0.909  50.795 -25.037  1.00  0.00     0.211 HD
ENDBRANCH   3  24
BRANCH  13  26
HETATM   26  O2  UNL     1      -4.117  48.855 -18.364  1.00  0.00    -0.271 OA
BRANCH  26  27
HETATM   27  C13 UNL     1      -3.020  49.019 -17.473  1.00  0.00     0.303 C 
BRANCH  27  28
HETATM   28  C14 UNL     1      -3.035  50.370 -16.760  1.00  0.00     0.243 C 
HETATM   29  O3  UNL     1      -2.765  51.427 -17.335  1.00  0.00    -0.271 OA
HETATM   30  N2  UNL     1      -3.350  50.297 -15.417  1.00  0.00    -0.356 N 
HETATM   31  H16 UNL     1      -3.391  49.358 -15.013  1.00  0.00     0.162 HD
BRANCH  30  32
HETATM   32  C15 UNL     1      -3.248  51.457 -14.547  1.00  0.00     0.159 C 
BRANCH  32  33
HETATM   33  C16 UNL     1      -3.161  51.090 -13.045  1.00  0.00     0.170 C 
BRANCH  33  34
HETATM   34  O4  UNL     1      -2.284  49.983 -12.821  1.00  0.00    -0.389 OA
HETATM   35  H20 UNL     1      -1.364  50.316 -12.830  1.00  0.00     0.210 HD
ENDBRANCH  33  34
BRANCH  33  36
HETATM   36  C17 UNL     1      -2.739  52.244 -12.168  1.00  0.00    -0.013 A 
HETATM   37  C18 UNL     1      -3.649  53.009 -11.429  1.00  0.00     0.013 A 
HETATM   38  C19 UNL     1      -3.192  54.059 -10.635  1.00  0.00     0.025 A 
HETATM   39  C20 UNL     1      -1.828  54.338 -10.607  1.00  0.00     0.005 A 
HETATM   40  C21 UNL     1      -1.309  55.455  -9.751  1.00  0.00     0.068 C 
HETATM   41  N3  UNL     1      -0.928  53.631 -11.329  1.00  0.00    -0.369 N 
HETATM   42  C22 UNL     1      -1.400  52.618 -12.094  1.00  0.00     0.097 A 
ATOM     43  H3  UNL     1       0.067  53.852 -11.298  1.00  0.00     0.165 HD
ENDBRANCH  33  36
ENDBRANCH  32  33
ENDBRANCH  30  32
ENDBRANCH  27  28
ENDBRANCH  26  27
ENDBRANCH  13  26
TORSDOF 8
ENDMDL
