MODEL 1
REMARK minimizedAffinity -10.1221685
REMARK CNNscore 0.133897051
REMARK CNNaffinity 7.58946419
REMARK  9 active torsions:
REMARK  status: ('A' for Active; 'I' for Inactive)
REMARK    1  A    between atoms: C13_13  and  S1_14 
REMARK    2  A    between atoms: C22_26  and  C23_27 
REMARK    3  A    between atoms: C23_27  and  O4_28 
REMARK    4  A    between atoms: C29_34  and  O5_35 
REMARK    5  A    between atoms: C41_48  and  C42_49 
REMARK    6  A    between atoms: C41_48  and  N1_57 
REMARK    7  A    between atoms: C42_49  and  C43_50 
REMARK    8  A    between atoms: C43_50  and  C44_51 
REMARK    9  A    between atoms: C44_51  and  O7_52 
REMARK       I    between atoms: C49_59  and  N2_60 
REMARK       I    between atoms: C49_59  and  N3_61 
ROOT
HETATM    1  C1  UNL     1      -0.094  52.653 -22.566  1.00  0.00     0.010 C 
HETATM    2  C2  UNL     1      -0.964  51.401 -22.639  1.00  0.00    -0.010 C 
HETATM    3  C3  UNL     1      -2.333  51.807 -23.260  1.00  0.00     0.009 C 
HETATM    4  C4  UNL     1      -3.549  51.067 -22.699  1.00  0.00     0.039 C 
HETATM    5  C5  UNL     1      -3.214  49.638 -22.385  1.00  0.00    -0.049 C 
HETATM    6  C6  UNL     1      -4.146  48.621 -22.597  1.00  0.00     0.044 C 
HETATM    7  C7  UNL     1      -3.837  47.325 -22.200  1.00  0.00     0.072 C 
HETATM    8  C8  UNL     1      -2.534  46.997 -21.838  1.00  0.00     0.037 C 
HETATM    9  C9  UNL     1      -1.610  48.019 -21.597  1.00  0.00     0.011 C 
HETATM   10  C10 UNL     1      -1.975  49.359 -21.762  1.00  0.00    -0.047 C 
HETATM   11  C11 UNL     1      -1.155  50.587 -21.314  1.00  0.00     0.024 C 
HETATM   12  C12 UNL     1       0.133  50.306 -20.496  1.00  0.00     0.033 C 
HETATM   13  C13 UNL     1       0.210  50.772 -19.000  1.00  0.00     0.139 C 
HETATM   14  C14 UNL     1      -0.593  49.931 -17.939  1.00  0.00     0.038 C 
HETATM   15  C15 UNL     1       0.105  49.964 -16.580  1.00  0.00    -0.014 C 
HETATM   16  C16 UNL     1      -0.403  50.660 -15.542  1.00  0.00    -0.050 C 
HETATM   17  C17 UNL     1      -1.646  51.473 -15.760  1.00  0.00     0.042 C 
HETATM   18  C18 UNL     1      -2.642  50.464 -16.298  1.00  0.00     0.001 C 
HETATM   19  C19 UNL     1      -2.806  49.239 -15.314  1.00  0.00     0.037 C 
HETATM   20  C20 UNL     1      -2.350  49.457 -13.842  1.00  0.00     0.123 C 
HETATM   21  C21 UNL     1      -2.985  48.435 -12.860  1.00  0.00     0.039 C 
HETATM   22  C22 UNL     1      -2.368  47.021 -12.652  1.00  0.00     0.023 C 
HETATM   23  C24 UNL     1      -1.320  46.929 -11.506  1.00  0.00     0.101 C 
HETATM   24  C25 UNL     1      -0.053  47.617 -11.783  1.00  0.00    -0.101 C 
HETATM   25  C26 UNL     1       0.876  48.276 -12.168  1.00  0.00    -0.066 C 
HETATM   26  C27 UNL     1       1.805  49.153 -12.820  1.00  0.00     0.029 A 
HETATM   27  C28 UNL     1       3.165  48.999 -12.527  1.00  0.00     0.057 A 
HETATM   28  C29 UNL     1       4.107  49.823 -13.131  1.00  0.00     0.067 A 
HETATM   29  C30 UNL     1       3.717  50.813 -14.022  1.00  0.00     0.037 A 
HETATM   30  C31 UNL     1       2.362  50.977 -14.316  1.00  0.00     0.014 A 
HETATM   31  C32 UNL     1       1.377  50.140 -13.743  1.00  0.00    -0.006 A 
HETATM   32  C33 UNL     1      -0.093  50.417 -14.092  1.00  0.00     0.185 C 
HETATM   33  O6  UNL     1      -0.941  49.325 -13.711  1.00  0.00    -0.371 OA
HETATM   34  C34 UNL     1      -2.176  50.102 -17.769  1.00  0.00     0.032 C 
HETATM   35  C35 UNL     1      -3.043  48.950 -18.292  1.00  0.00    -0.055 C 
HETATM   36  C36 UNL     1      -2.662  47.606 -18.200  1.00  0.00     0.001 C 
HETATM   37  C37 UNL     1      -3.409  46.603 -18.825  1.00  0.00     0.096 A 
HETATM   38  C38 UNL     1      -4.554  46.920 -19.576  1.00  0.00     0.086 A 
HETATM   39  C39 UNL     1      -5.040  48.239 -19.493  1.00  0.00     0.004 C 
HETATM   40  C40 UNL     1      -4.284  49.241 -18.873  1.00  0.00     0.005 C 
HETATM   41  C41 UNL     1      -5.083  45.930 -20.661  1.00  0.00     0.167 C 
HETATM   42  O8  UNL     1      -4.894  46.464 -22.037  1.00  0.00    -0.318 OA
HETATM   43 NA1  UNL     1      -2.841  48.221 -18.077  1.00  0.00    -0.348 Na
ATOM     44 1HA1 UNL     1      -2.160  48.956 -17.885  1.00  0.00     0.104 HD
ATOM     45 2HA1 UNL     1      -2.574  48.833 -17.305  1.00  0.00     0.104 HD
ENDROOT
BRANCH  41  46
HETATM   46  C42 UNL     1      -6.633  45.783 -20.529  1.00  0.00     0.067 C 
BRANCH  46  47
HETATM   47  C43 UNL     1      -7.421  47.085 -20.754  1.00  0.00     0.042 C 
BRANCH  47  48
HETATM   48  C44 UNL     1      -8.565  47.285 -19.754  1.00  0.00     0.058 C 
HETATM   49  C45 UNL     1      -9.932  47.284 -20.447  1.00  0.00     0.038 C 
HETATM   50  C46 UNL     1     -10.870  47.985 -19.468  1.00  0.00     0.003 C 
HETATM   51  C47 UNL     1      -9.987  48.849 -18.570  1.00  0.00     0.003 C 
HETATM   52  C48 UNL     1      -8.550  48.643 -19.051  1.00  0.00     0.038 C 
BRANCH  48  53
HETATM   53  O7  UNL     1      -8.514  46.237 -18.787  1.00  0.00    -0.390 OA
HETATM   54  H46 UNL     1      -9.289  46.303 -18.206  1.00  0.00     0.210 HD
ENDBRANCH  48  53
ENDBRANCH  47  48
ENDBRANCH  46  47
ENDBRANCH  41  46
BRANCH  41  55
HETATM   55  N1  UNL     1      -4.530  44.569 -20.443  1.00  0.00    -0.338 N 
HETATM   56  C49 UNL     1      -4.996  43.807 -19.534  1.00  0.00     0.124 C 
HETATM   57  N2  UNL     1      -4.472  42.574 -19.352  1.00  0.00    -0.279 NA
HETATM   58  N3  UNL     1      -5.982  44.010 -18.630  1.00  0.00    -0.279 NA
HETATM   59  H55 UNL     1      -4.338  42.362 -18.372  1.00  0.00     0.126 HD
HETATM   60  H56 UNL     1      -3.606  42.481 -19.872  1.00  0.00     0.126 HD
HETATM   61  H57 UNL     1      -6.599  43.208 -18.567  1.00  0.00     0.126 HD
HETATM   62  H58 UNL     1      -6.533  44.839 -18.858  1.00  0.00     0.126 HD
ATOM     63  H1  UNL     1      -3.765  44.239 -21.031  1.00  0.00     0.164 HD
ENDBRANCH  41  55
BRANCH  13  64
HETATM   64  S1  UNL     1       0.187  52.566 -18.816  1.00  0.00     0.106 S 
HETATM   65  O1  UNL     1      -1.235  52.899 -18.869  1.00  0.00    -0.595 OA
HETATM   66  O2  UNL     1       0.920  53.085 -19.967  1.00  0.00    -0.595 OA
HETATM   67  O3  UNL     1       0.821  52.811 -17.523  1.00  0.00    -0.595 OA
ENDBRANCH  13  64
BRANCH  22  68
HETATM   68  C23 UNL     1      -1.900  46.334 -13.938  1.00  0.00     0.169 C 
BRANCH  68  69
HETATM   69  O4  UNL     1      -0.548  46.699 -14.221  1.00  0.00    -0.400 OA
HETATM   70  H29 UNL     1       0.010  46.225 -13.582  1.00  0.00     0.209 HD
ENDBRANCH  68  69
ENDBRANCH  22  68
BRANCH  28  71
HETATM   71  O5  UNL     1       5.422  49.631 -12.819  1.00  0.00    -0.361 OA
HETATM   72  H33 UNL     1       5.942  50.275 -13.329  1.00  0.00     0.217 HD
ENDBRANCH  28  71
TORSDOF 9
ENDMDL
MODEL 2
REMARK minimizedAffinity -7.51439762
REMARK CNNscore 0.111310676
REMARK CNNaffinity 6.18073225
REMARK  9 active torsions:
REMARK  status: ('A' for Active; 'I' for Inactive)
REMARK    1  A    between atoms: C13_13  and  S1_14 
REMARK    2  A    between atoms: C22_26  and  C23_27 
REMARK    3  A    between atoms: C23_27  and  O4_28 
REMARK    4  A    between atoms: C29_34  and  O5_35 
REMARK    5  A    between atoms: C41_48  and  C42_49 
REMARK    6  A    between atoms: C41_48  and  N1_57 
REMARK    7  A    between atoms: C42_49  and  C43_50 
REMARK    8  A    between atoms: C43_50  and  C44_51 
REMARK    9  A    between atoms: C44_51  and  O7_52 
REMARK       I    between atoms: C49_59  and  N2_60 
REMARK       I    between atoms: C49_59  and  N3_61 
ROOT
HETATM    1  C1  UNL     1       2.826  56.159  -9.975  1.00  0.00     0.010 C 
HETATM    2  C2  UNL     1       4.157  56.207  -9.229  1.00  0.00    -0.010 C 
HETATM    3  C3  UNL     1       4.999  54.975  -9.677  1.00  0.00     0.009 C 
HETATM    4  C4  UNL     1       5.870  54.349  -8.586  1.00  0.00     0.039 C 
HETATM    5  C5  UNL     1       6.428  55.399  -7.670  1.00  0.00    -0.049 C 
HETATM    6  C6  UNL     1       7.716  55.282  -7.147  1.00  0.00     0.044 C 
HETATM    7  C7  UNL     1       8.160  56.221  -6.223  1.00  0.00     0.072 C 
HETATM    8  C8  UNL     1       7.441  57.394  -6.019  1.00  0.00     0.037 C 
HETATM    9  C9  UNL     1       6.139  57.498  -6.519  1.00  0.00     0.011 C 
HETATM   10  C10 UNL     1       5.578  56.452  -7.258  1.00  0.00    -0.047 C 
HETATM   11  C11 UNL     1       4.096  56.321  -7.668  1.00  0.00     0.024 C 
HETATM   12  C12 UNL     1       3.118  57.383  -7.101  1.00  0.00     0.033 C 
HETATM   13  C13 UNL     1       1.999  56.938  -6.095  1.00  0.00     0.139 C 
HETATM   14  C14 UNL     1       2.439  56.621  -4.617  1.00  0.00     0.038 C 
HETATM   15  C15 UNL     1       1.315  56.946  -3.635  1.00  0.00    -0.014 C 
HETATM   16  C16 UNL     1       0.620  55.972  -3.011  1.00  0.00    -0.050 C 
HETATM   17  C17 UNL     1       0.921  54.542  -3.352  1.00  0.00     0.042 C 
HETATM   18  C18 UNL     1       2.410  54.420  -3.092  1.00  0.00     0.001 C 
HETATM   19  C19 UNL     1       2.773  54.848  -1.616  1.00  0.00     0.037 C 
HETATM   20  C20 UNL     1       1.609  54.854  -0.582  1.00  0.00     0.123 C 
HETATM   21  C21 UNL     1       2.111  54.789   0.885  1.00  0.00     0.039 C 
HETATM   22  C22 UNL     1       2.554  56.072   1.648  1.00  0.00     0.023 C 
HETATM   23  C24 UNL     1       1.421  56.782   2.443  1.00  0.00     0.101 C 
HETATM   24  C25 UNL     1       0.407  57.435   1.607  1.00  0.00    -0.101 C 
HETATM   25  C26 UNL     1      -0.342  57.852   0.763  1.00  0.00    -0.066 C 
HETATM   26  C27 UNL     1      -1.089  58.184  -0.415  1.00  0.00     0.029 A 
HETATM   27  C28 UNL     1      -1.917  59.313  -0.367  1.00  0.00     0.057 A 
HETATM   28  C29 UNL     1      -2.663  59.679  -1.481  1.00  0.00     0.067 A 
HETATM   29  C30 UNL     1      -2.609  58.931  -2.649  1.00  0.00     0.037 A 
HETATM   30  C31 UNL     1      -1.791  57.800  -2.703  1.00  0.00     0.014 A 
HETATM   31  C32 UNL     1      -0.995  57.413  -1.600  1.00  0.00    -0.006 A 
HETATM   32  C33 UNL     1      -0.156  56.134  -1.734  1.00  0.00     0.185 C 
HETATM   33  O6  UNL     1       0.824  56.034  -0.692  1.00  0.00    -0.371 OA
HETATM   34  C34 UNL     1       3.141  55.233  -4.240  1.00  0.00     0.032 C 
HETATM   35  C35 UNL     1       4.640  55.295  -3.922  1.00  0.00    -0.055 C 
HETATM   36  C36 UNL     1       5.233  56.367  -3.245  1.00  0.00     0.001 C 
HETATM   37  C37 UNL     1       6.622  56.454  -3.113  1.00  0.00     0.096 A 
HETATM   38  C38 UNL     1       7.461  55.474  -3.671  1.00  0.00     0.086 A 
HETATM   39  C39 UNL     1       6.853  54.305  -4.167  1.00  0.00     0.004 C 
HETATM   40  C40 UNL     1       5.463  54.227  -4.305  1.00  0.00     0.005 C 
HETATM   41  C41 UNL     1       8.958  55.799  -3.976  1.00  0.00     0.167 C 
HETATM   42  O8  UNL     1       9.226  55.854  -5.438  1.00  0.00    -0.318 OA
HETATM   43 NA1  UNL     1       4.879  55.847  -3.415  1.00  0.00    -0.348 Na
ATOM     44 1HA1 UNL     1       3.924  55.932  -3.763  1.00  0.00     0.104 HD
ATOM     45 2HA1 UNL     1       3.936  55.582  -3.130  1.00  0.00     0.104 HD
ENDROOT
BRANCH  41  46
HETATM   46  C42 UNL     1       9.863  54.628  -3.475  1.00  0.00     0.067 C 
BRANCH  46  47
HETATM   47  C43 UNL     1      11.341  55.005  -3.268  1.00  0.00     0.042 C 
BRANCH  47  48
HETATM   48  C44 UNL     1      12.255  54.534  -4.404  1.00  0.00     0.058 C 
HETATM   49  C45 UNL     1      11.988  53.072  -4.778  1.00  0.00     0.038 C 
HETATM   50  C46 UNL     1      13.253  52.614  -5.501  1.00  0.00     0.003 C 
HETATM   51  C47 UNL     1      14.373  53.543  -5.039  1.00  0.00     0.003 C 
HETATM   52  C48 UNL     1      13.742  54.519  -4.045  1.00  0.00     0.038 C 
BRANCH  48  53
HETATM   53  O7  UNL     1      12.038  55.371  -5.541  1.00  0.00    -0.390 OA
HETATM   54  H46 UNL     1      12.544  55.020  -6.292  1.00  0.00     0.210 HD
ENDBRANCH  48  53
ENDBRANCH  47  48
ENDBRANCH  46  47
ENDBRANCH  41  46
BRANCH  41  55
HETATM   55  N1  UNL     1       9.398  56.999  -3.219  1.00  0.00    -0.338 N 
HETATM   56  C49 UNL     1      10.162  57.869  -3.752  1.00  0.00     0.124 C 
HETATM   57  N2  UNL     1      10.554  58.950  -3.041  1.00  0.00    -0.279 NA
HETATM   58  N3  UNL     1      10.717  57.921  -4.984  1.00  0.00    -0.279 NA
HETATM   59  H55 UNL     1      11.537  59.147  -3.166  1.00  0.00     0.126 HD
HETATM   60  H56 UNL     1      10.323  58.827  -2.061  1.00  0.00     0.126 HD
HETATM   61  H57 UNL     1      10.632  58.846  -5.391  1.00  0.00     0.126 HD
HETATM   62  H58 UNL     1      10.294  57.238  -5.614  1.00  0.00     0.126 HD
ATOM     63  H1  UNL     1       9.085  57.128  -2.257  1.00  0.00     0.164 HD
ENDBRANCH  41  55
BRANCH  13  64
HETATM   64  S1  UNL     1       0.772  55.846  -6.840  1.00  0.00     0.106 S 
HETATM   65  O1  UNL     1       0.582  56.404  -8.177  1.00  0.00    -0.595 OA
HETATM   66  O2  UNL     1      -0.423  55.979  -6.010  1.00  0.00    -0.595 OA
HETATM   67  O3  UNL     1       1.392  54.525  -6.815  1.00  0.00    -0.595 OA
ENDBRANCH  13  64
BRANCH  22  68
HETATM   68  C23 UNL     1       3.395  57.048   0.819  1.00  0.00     0.169 C 
BRANCH  68  69
HETATM   69  O4  UNL     1       2.549  58.027   0.214  1.00  0.00    -0.400 OA
HETATM   70  H29 UNL     1       2.268  58.630   0.921  1.00  0.00     0.209 HD
ENDBRANCH  68  69
ENDBRANCH  22  68
BRANCH  28  71
HETATM   71  O5  UNL     1      -3.450  60.790  -1.389  1.00  0.00    -0.361 OA
HETATM   72  H33 UNL     1      -3.891  60.910  -2.248  1.00  0.00     0.217 HD
ENDBRANCH  28  71
TORSDOF 9
ENDMDL
MODEL 3
REMARK minimizedAffinity -7.64160109
REMARK CNNscore 0.109881461
REMARK CNNaffinity 6.25222826
REMARK  9 active torsions:
REMARK  status: ('A' for Active; 'I' for Inactive)
REMARK    1  A    between atoms: C13_13  and  S1_14 
REMARK    2  A    between atoms: C22_26  and  C23_27 
REMARK    3  A    between atoms: C23_27  and  O4_28 
REMARK    4  A    between atoms: C29_34  and  O5_35 
REMARK    5  A    between atoms: C41_48  and  C42_49 
REMARK    6  A    between atoms: C41_48  and  N1_57 
REMARK    7  A    between atoms: C42_49  and  C43_50 
REMARK    8  A    between atoms: C43_50  and  C44_51 
REMARK    9  A    between atoms: C44_51  and  O7_52 
REMARK       I    between atoms: C49_59  and  N2_60 
REMARK       I    between atoms: C49_59  and  N3_61 
ROOT
HETATM    1  C1  UNL     1       1.070  54.873 -10.616  1.00  0.00     0.010 C 
HETATM    2  C2  UNL     1       2.260  55.469  -9.869  1.00  0.00    -0.010 C 
HETATM    3  C3  UNL     1       3.535  54.687 -10.303  1.00  0.00     0.009 C 
HETATM    4  C4  UNL     1       4.580  54.482  -9.204  1.00  0.00     0.039 C 
HETATM    5  C5  UNL     1       4.653  55.678  -8.299  1.00  0.00    -0.049 C 
HETATM    6  C6  UNL     1       5.874  56.104  -7.772  1.00  0.00     0.044 C 
HETATM    7  C7  UNL     1       5.888  57.152  -6.859  1.00  0.00     0.072 C 
HETATM    8  C8  UNL     1       4.751  57.929  -6.668  1.00  0.00     0.037 C 
HETATM    9  C9  UNL     1       3.523  57.486  -7.171  1.00  0.00     0.011 C 
HETATM   10  C10 UNL     1       3.444  56.294  -7.899  1.00  0.00    -0.047 C 
HETATM   11  C11 UNL     1       2.148  55.563  -8.310  1.00  0.00     0.024 C 
HETATM   12  C12 UNL     1       0.817  56.137  -7.755  1.00  0.00     0.033 C 
HETATM   13  C13 UNL     1      -0.027  55.282  -6.746  1.00  0.00     0.139 C 
HETATM   14  C14 UNL     1       0.497  55.188  -5.264  1.00  0.00     0.038 C 
HETATM   15  C15 UNL     1      -0.667  55.033  -4.287  1.00  0.00    -0.014 C 
HETATM   16  C16 UNL     1      -0.906  53.866  -3.653  1.00  0.00    -0.050 C 
HETATM   17  C17 UNL     1      -0.043  52.681  -3.977  1.00  0.00     0.042 C 
HETATM   18  C18 UNL     1       1.364  53.183  -3.715  1.00  0.00     0.001 C 
HETATM   19  C19 UNL     1       1.511  53.737  -2.243  1.00  0.00     0.037 C 
HETATM   20  C20 UNL     1       0.441  53.275  -1.211  1.00  0.00     0.123 C 
HETATM   21  C21 UNL     1       0.917  53.435   0.258  1.00  0.00     0.039 C 
HETATM   22  C22 UNL     1       0.791  54.795   1.007  1.00  0.00     0.023 C 
HETATM   23  C24 UNL     1      -0.538  54.986   1.793  1.00  0.00     0.101 C 
HETATM   24  C25 UNL     1      -1.726  55.157   0.948  1.00  0.00    -0.101 C 
HETATM   25  C26 UNL     1      -2.574  55.223   0.099  1.00  0.00    -0.066 C 
HETATM   26  C27 UNL     1      -3.386  55.208  -1.084  1.00  0.00     0.029 A 
HETATM   27  C28 UNL     1      -4.604  55.899  -1.050  1.00  0.00     0.057 A 
HETATM   28  C29 UNL     1      -5.427  55.916  -2.168  1.00  0.00     0.067 A 
HETATM   29  C30 UNL     1      -5.065  55.245  -3.328  1.00  0.00     0.037 A 
HETATM   30  C31 UNL     1      -3.856  54.548  -3.368  1.00  0.00     0.014 A 
HETATM   31  C32 UNL     1      -2.977  54.531  -2.260  1.00  0.00    -0.006 A 
HETATM   32  C33 UNL     1      -1.687  53.708  -2.379  1.00  0.00     0.185 C 
HETATM   33  O6  UNL     1      -0.758  54.028  -1.335  1.00  0.00    -0.371 OA
HETATM   34  C34 UNL     1       1.704  54.213  -4.871  1.00  0.00     0.032 C 
HETATM   35  C35 UNL     1       3.044  54.887  -4.552  1.00  0.00    -0.055 C 
HETATM   36  C36 UNL     1       3.142  56.115  -3.886  1.00  0.00     0.001 C 
HETATM   37  C37 UNL     1       4.372  56.764  -3.753  1.00  0.00     0.096 A 
HETATM   38  C38 UNL     1       5.542  56.208  -4.299  1.00  0.00     0.086 A 
HETATM   39  C39 UNL     1       5.470  54.889  -4.783  1.00  0.00     0.004 C 
HETATM   40  C40 UNL     1       4.234  54.246  -4.921  1.00  0.00     0.005 C 
HETATM   41  C41 UNL     1       6.776  57.115  -4.606  1.00  0.00     0.167 C 
HETATM   42  O8  UNL     1       7.006  57.261  -6.068  1.00  0.00    -0.318 OA
HETATM   43 NA1  UNL     1       3.032  55.493  -4.051  1.00  0.00    -0.348 Na
ATOM     44 1HA1 UNL     1       2.128  55.176  -4.400  1.00  0.00     0.104 HD
ATOM     45 2HA1 UNL     1       2.279  54.868  -3.764  1.00  0.00     0.104 HD
ENDROOT
BRANCH  41  46
HETATM   46  C42 UNL     1       8.079  56.423  -4.092  1.00  0.00     0.067 C 
BRANCH  46  47
HETATM   47  C43 UNL     1       9.103  56.088  -5.191  1.00  0.00     0.042 C 
BRANCH  47  48
HETATM   48  C44 UNL     1      10.555  56.331  -4.765  1.00  0.00     0.058 C 
HETATM   49  C45 UNL     1      10.833  55.787  -3.359  1.00  0.00     0.038 C 
HETATM   50  C46 UNL     1      12.082  56.530  -2.891  1.00  0.00     0.003 C 
HETATM   51  C47 UNL     1      12.149  57.818  -3.709  1.00  0.00     0.003 C 
HETATM   52  C48 UNL     1      10.929  57.807  -4.632  1.00  0.00     0.038 C 
BRANCH  48  53
HETATM   53  O7  UNL     1      11.418  55.694  -5.708  1.00  0.00    -0.390 OA
HETATM   54  H46 UNL     1      12.335  55.763  -5.395  1.00  0.00     0.210 HD
ENDBRANCH  48  53
ENDBRANCH  47  48
ENDBRANCH  46  47
ENDBRANCH  41  46
BRANCH  41  55
HETATM   55  N1  UNL     1       6.682  58.398  -3.862  1.00  0.00    -0.338 N 
HETATM   56  C49 UNL     1       7.336  59.425  -4.237  1.00  0.00     0.124 C 
HETATM   57  N2  UNL     1       7.238  60.579  -3.541  1.00  0.00    -0.279 NA
HETATM   58  N3  UNL     1       8.192  59.600  -5.270  1.00  0.00    -0.279 NA
HETATM   59  H55 UNL     1       8.139  61.017  -3.407  1.00  0.00     0.126 HD
HETATM   60  H56 UNL     1       6.772  60.415  -2.654  1.00  0.00     0.126 HD
HETATM   61  H57 UNL     1       8.009  60.468  -5.762  1.00  0.00     0.126 HD
HETATM   62  H58 UNL     1       8.142  58.823  -5.932  1.00  0.00     0.126 HD
ATOM     63  H1  UNL     1       6.085  58.456  -3.038  1.00  0.00     0.164 HD
ENDBRANCH  41  55
BRANCH  13  64
HETATM   64  S1  UNL     1      -0.694  53.776  -7.480  1.00  0.00     0.106 S 
HETATM   65  O1  UNL     1       0.451  52.868  -7.501  1.00  0.00    -0.595 OA
HETATM   66  O2  UNL     1      -1.124  54.155  -8.823  1.00  0.00    -0.595 OA
HETATM   67  O3  UNL     1      -1.772  53.375  -6.580  1.00  0.00    -0.595 OA
ENDBRANCH  13  64
BRANCH  22  68
HETATM   68  C23 UNL     1       1.164  56.021   0.168  1.00  0.00     0.169 C 
BRANCH  68  69
HETATM   69  O4  UNL     1       2.585  56.156   0.110  1.00  0.00    -0.400 OA
HETATM   70  H29 UNL     1       2.909  55.460  -0.485  1.00  0.00     0.209 HD
ENDBRANCH  68  69
ENDBRANCH  22  68
BRANCH  28  71
HETATM   71  O5  UNL     1      -6.601  56.609  -2.090  1.00  0.00    -0.361 OA
HETATM   72  H33 UNL     1      -7.048  56.528  -2.950  1.00  0.00     0.217 HD
ENDBRANCH  28  71
TORSDOF 9
ENDMDL
MODEL 4
REMARK minimizedAffinity -7.79912376
REMARK CNNscore 0.102728337
REMARK CNNaffinity 6.33039045
REMARK  9 active torsions:
REMARK  status: ('A' for Active; 'I' for Inactive)
REMARK    1  A    between atoms: C13_13  and  S1_14 
REMARK    2  A    between atoms: C22_26  and  C23_27 
REMARK    3  A    between atoms: C23_27  and  O4_28 
REMARK    4  A    between atoms: C29_34  and  O5_35 
REMARK    5  A    between atoms: C41_48  and  C42_49 
REMARK    6  A    between atoms: C41_48  and  N1_57 
REMARK    7  A    between atoms: C42_49  and  C43_50 
REMARK    8  A    between atoms: C43_50  and  C44_51 
REMARK    9  A    between atoms: C44_51  and  O7_52 
REMARK       I    between atoms: C49_59  and  N2_60 
REMARK       I    between atoms: C49_59  and  N3_61 
ROOT
HETATM    1  C1  UNL     1       5.739  60.220  -0.465  1.00  0.00     0.010 C 
HETATM    2  C2  UNL     1       6.947  59.301  -0.627  1.00  0.00    -0.010 C 
HETATM    3  C3  UNL     1       8.210  60.198  -0.785  1.00  0.00     0.009 C 
HETATM    4  C4  UNL     1       9.279  59.658  -1.737  1.00  0.00     0.039 C 
HETATM    5  C5  UNL     1       9.375  58.162  -1.648  1.00  0.00    -0.049 C 
HETATM    6  C6  UNL     1      10.608  57.517  -1.754  1.00  0.00     0.044 C 
HETATM    7  C7  UNL     1      10.645  56.127  -1.769  1.00  0.00     0.072 C 
HETATM    8  C8  UNL     1       9.514  55.393  -1.428  1.00  0.00     0.037 C 
HETATM    9  C9  UNL     1       8.274  56.037  -1.352  1.00  0.00     0.011 C 
HETATM   10  C10 UNL     1       8.177  57.415  -1.572  1.00  0.00    -0.047 C 
HETATM   11  C11 UNL     1       6.870  58.217  -1.755  1.00  0.00     0.024 C 
HETATM   12  C12 UNL     1       5.553  57.399  -1.826  1.00  0.00     0.033 C 
HETATM   13  C13 UNL     1       4.731  57.382  -3.162  1.00  0.00     0.139 C 
HETATM   14  C14 UNL     1       5.287  56.501  -4.342  1.00  0.00     0.038 C 
HETATM   15  C15 UNL     1       4.145  55.966  -5.205  1.00  0.00    -0.014 C 
HETATM   16  C16 UNL     1       3.919  56.440  -6.448  1.00  0.00    -0.050 C 
HETATM   17  C17 UNL     1       4.772  57.566  -6.956  1.00  0.00     0.042 C 
HETATM   18  C18 UNL     1       6.186  57.037  -6.808  1.00  0.00     0.001 C 
HETATM   19  C19 UNL     1       6.366  55.663  -7.566  1.00  0.00     0.037 C 
HETATM   20  C20 UNL     1       5.319  55.328  -8.668  1.00  0.00     0.123 C 
HETATM   21  C21 UNL     1       5.829  54.261  -9.675  1.00  0.00     0.039 C 
HETATM   22  C22 UNL     1       5.722  52.739  -9.364  1.00  0.00     0.023 C 
HETATM   23  C24 UNL     1       4.412  52.063  -9.860  1.00  0.00     0.101 C 
HETATM   24  C25 UNL     1       3.206  52.461  -9.125  1.00  0.00    -0.101 C 
HETATM   25  C26 UNL     1       2.338  52.948  -8.450  1.00  0.00    -0.066 C 
HETATM   26  C27 UNL     1       1.500  53.713  -7.572  1.00  0.00     0.029 A 
HETATM   27  C28 UNL     1       0.285  53.145  -7.169  1.00  0.00     0.057 A 
HETATM   28  C29 UNL     1      -0.564  53.844  -6.320  1.00  0.00     0.067 A 
HETATM   29  C30 UNL     1      -0.230  55.113  -5.867  1.00  0.00     0.037 A 
HETATM   30  C31 UNL     1       0.978  55.688  -6.269  1.00  0.00     0.014 A 
HETATM   31  C32 UNL     1       1.881  54.997  -7.109  1.00  0.00    -0.006 A 
HETATM   32  C33 UNL     1       3.166  55.722  -7.533  1.00  0.00     0.185 C 
HETATM   33  O6  UNL     1       4.120  54.816  -8.104  1.00  0.00    -0.371 OA
HETATM   34  C34 UNL     1       6.501  57.008  -5.255  1.00  0.00     0.032 C 
HETATM   35  C35 UNL     1       7.850  56.309  -5.039  1.00  0.00    -0.055 C 
HETATM   36  C36 UNL     1       7.965  54.945  -4.747  1.00  0.00     0.001 C 
HETATM   37  C37 UNL     1       9.199  54.384  -4.407  1.00  0.00     0.096 A 
HETATM   38  C38 UNL     1      10.355  55.180  -4.334  1.00  0.00     0.086 A 
HETATM   39  C39 UNL     1      10.269  56.497  -4.823  1.00  0.00     0.004 C 
HETATM   40  C40 UNL     1       9.030  57.056  -5.154  1.00  0.00     0.005 C 
HETATM   41  C41 UNL     1      11.584  54.708  -3.493  1.00  0.00     0.167 C 
HETATM   42  O8  UNL     1      11.781  55.549  -2.281  1.00  0.00    -0.318 OA
HETATM   43 NA1  UNL     1       7.850  55.523  -5.027  1.00  0.00    -0.348 Na
ATOM     44 1HA1 UNL     1       6.938  55.976  -4.981  1.00  0.00     0.104 HD
ATOM     45 2HA1 UNL     1       7.103  55.800  -5.663  1.00  0.00     0.104 HD
ENDROOT
BRANCH  41  46
HETATM   46  C42 UNL     1      12.897  54.922  -4.312  1.00  0.00     0.067 C 
BRANCH  46  47
HETATM   47  C43 UNL     1      12.990  54.086  -5.601  1.00  0.00     0.042 C 
BRANCH  47  48
HETATM   48  C44 UNL     1      14.341  53.384  -5.775  1.00  0.00     0.058 C 
HETATM   49  C45 UNL     1      14.314  52.380  -6.933  1.00  0.00     0.038 C 
HETATM   50  C46 UNL     1      15.481  51.433  -6.659  1.00  0.00     0.003 C 
HETATM   51  C47 UNL     1      15.764  51.522  -5.161  1.00  0.00     0.003 C 
HETATM   52  C48 UNL     1      14.749  52.511  -4.587  1.00  0.00     0.038 C 
BRANCH  48  53
HETATM   53  O7  UNL     1      15.341  54.373  -6.017  1.00  0.00    -0.390 OA
HETATM   54  H46 UNL     1      16.182  53.930  -6.220  1.00  0.00     0.210 HD
ENDBRANCH  48  53
ENDBRANCH  47  48
ENDBRANCH  46  47
ENDBRANCH  41  46
BRANCH  41  55
HETATM   55  N1  UNL     1      11.509  53.248  -3.228  1.00  0.00    -0.338 N 
HETATM   56  C49 UNL     1      12.121  52.726  -2.240  1.00  0.00     0.124 C 
HETATM   57  N2  UNL     1      12.042  51.394  -2.024  1.00  0.00    -0.279 NA
HETATM   58  N3  UNL     1      12.914  53.285  -1.297  1.00  0.00    -0.279 NA
HETATM   59  H55 UNL     1      12.942  50.996  -1.791  1.00  0.00     0.126 HD
HETATM   60  H56 UNL     1      11.631  50.933  -2.828  1.00  0.00     0.126 HD
HETATM   61  H57 UNL     1      12.688  52.940  -0.370  1.00  0.00     0.126 HD
HETATM   62  H58 UNL     1      12.841  54.303  -1.303  1.00  0.00     0.126 HD
ATOM     63  H1  UNL     1      10.958  52.654  -3.848  1.00  0.00     0.164 HD
ENDBRANCH  41  55
BRANCH  13  64
HETATM   64  S1  UNL     1       4.044  58.993  -3.591  1.00  0.00     0.106 S 
HETATM   65  O1  UNL     1       5.172  59.697  -4.198  1.00  0.00    -0.595 OA
HETATM   66  O2  UNL     1       3.636  59.593  -2.323  1.00  0.00    -0.595 OA
HETATM   67  O3  UNL     1       2.949  58.694  -4.509  1.00  0.00    -0.595 OA
ENDBRANCH  13  64
BRANCH  22  68
HETATM   68  C23 UNL     1       6.078  52.355  -7.925  1.00  0.00     0.169 C 
BRANCH  68  69
HETATM   69  O4  UNL     1       5.949  50.942  -7.752  1.00  0.00    -0.400 OA
HETATM   70  H29 UNL     1       6.701  50.534  -8.210  1.00  0.00     0.209 HD
ENDBRANCH  68  69
ENDBRANCH  22  68
BRANCH  28  71
HETATM   71  O5  UNL     1      -1.735  53.247  -5.949  1.00  0.00    -0.361 OA
HETATM   72  H33 UNL     1      -2.201  53.859  -5.354  1.00  0.00     0.217 HD
ENDBRANCH  28  71
TORSDOF 9
ENDMDL
MODEL 5
REMARK minimizedAffinity -7.5606513
REMARK CNNscore 0.0941844285
REMARK CNNaffinity 5.79496717
REMARK  9 active torsions:
REMARK  status: ('A' for Active; 'I' for Inactive)
REMARK    1  A    between atoms: C13_13  and  S1_14 
REMARK    2  A    between atoms: C22_26  and  C23_27 
REMARK    3  A    between atoms: C23_27  and  O4_28 
REMARK    4  A    between atoms: C29_34  and  O5_35 
REMARK    5  A    between atoms: C41_48  and  C42_49 
REMARK    6  A    between atoms: C41_48  and  N1_57 
REMARK    7  A    between atoms: C42_49  and  C43_50 
REMARK    8  A    between atoms: C43_50  and  C44_51 
REMARK    9  A    between atoms: C44_51  and  O7_52 
REMARK       I    between atoms: C49_59  and  N2_60 
REMARK       I    between atoms: C49_59  and  N3_61 
ROOT
HETATM    1  C1  UNL     1     -12.081  39.469 -22.982  1.00  0.00     0.010 C 
HETATM    2  C2  UNL     1     -11.985  40.275 -24.274  1.00  0.00    -0.010 C 
HETATM    3  C3  UNL     1     -11.332  39.366 -25.356  1.00  0.00     0.009 C 
HETATM    4  C4  UNL     1     -10.409  40.085 -26.342  1.00  0.00     0.039 C 
HETATM    5  C5  UNL     1     -10.928  41.456 -26.667  1.00  0.00    -0.049 C 
HETATM    6  C6  UNL     1     -10.799  41.984 -27.952  1.00  0.00     0.044 C 
HETATM    7  C7  UNL     1     -11.200  43.294 -28.189  1.00  0.00     0.072 C 
HETATM    8  C8  UNL     1     -11.951  43.978 -27.239  1.00  0.00     0.037 C 
HETATM    9  C9  UNL     1     -12.054  43.462 -25.942  1.00  0.00     0.011 C 
HETATM   10  C10 UNL     1     -11.448  42.245 -25.614  1.00  0.00    -0.047 C 
HETATM   11  C11 UNL     1     -11.275  41.669 -24.193  1.00  0.00     0.024 C 
HETATM   12  C12 UNL     1     -11.701  42.583 -23.013  1.00  0.00     0.033 C 
HETATM   13  C13 UNL     1     -10.609  43.108 -22.016  1.00  0.00     0.139 C 
HETATM   14  C14 UNL     1      -9.671  44.269 -22.516  1.00  0.00     0.038 C 
HETATM   15  C15 UNL     1      -9.238  45.157 -21.351  1.00  0.00    -0.014 C 
HETATM   16  C16 UNL     1      -7.974  45.135 -20.879  1.00  0.00    -0.050 C 
HETATM   17  C17 UNL     1      -7.000  44.161 -21.475  1.00  0.00     0.042 C 
HETATM   18  C18 UNL     1      -7.038  44.482 -22.957  1.00  0.00     0.001 C 
HETATM   19  C19 UNL     1      -6.713  46.004 -23.223  1.00  0.00     0.037 C 
HETATM   20  C20 UNL     1      -5.978  46.773 -22.087  1.00  0.00     0.123 C 
HETATM   21  C21 UNL     1      -5.268  48.057 -22.594  1.00  0.00     0.039 C 
HETATM   22  C22 UNL     1      -6.040  49.400 -22.757  1.00  0.00     0.023 C 
HETATM   23  C24 UNL     1      -6.025  50.318 -21.501  1.00  0.00     0.101 C 
HETATM   24  C25 UNL     1      -6.813  49.815 -20.370  1.00  0.00    -0.101 C 
HETATM   25  C26 UNL     1      -7.457  49.218 -19.549  1.00  0.00    -0.066 C 
HETATM   26  C27 UNL     1      -8.199  48.290 -18.745  1.00  0.00     0.029 A 
HETATM   27  C28 UNL     1      -8.973  48.805 -17.698  1.00  0.00     0.057 A 
HETATM   28  C29 UNL     1      -9.711  47.950 -16.889  1.00  0.00     0.067 A 
HETATM   29  C30 UNL     1      -9.687  46.578 -17.098  1.00  0.00     0.037 A 
HETATM   30  C31 UNL     1      -8.913  46.056 -18.136  1.00  0.00     0.014 A 
HETATM   31  C32 UNL     1      -8.171  46.896 -18.998  1.00  0.00    -0.006 A 
HETATM   32  C33 UNL     1      -7.318  46.232 -20.089  1.00  0.00     0.185 C 
HETATM   33  O6  UNL     1      -6.883  47.183 -21.070  1.00  0.00    -0.371 OA
HETATM   34  C34 UNL     1      -8.440  43.977 -23.496  1.00  0.00     0.032 C 
HETATM   35  C35 UNL     1      -8.605  44.440 -24.949  1.00  0.00    -0.055 C 
HETATM   36  C36 UNL     1      -9.270  45.620 -25.304  1.00  0.00     0.001 C 
HETATM   37  C37 UNL     1      -9.530  45.924 -26.643  1.00  0.00     0.096 A 
HETATM   38  C38 UNL     1      -9.143  45.044 -27.669  1.00  0.00     0.086 A 
HETATM   39  C39 UNL     1      -8.303  43.971 -27.321  1.00  0.00     0.004 C 
HETATM   40  C40 UNL     1      -8.052  43.666 -25.979  1.00  0.00     0.005 C 
HETATM   41  C41 UNL     1      -9.846  45.103 -29.063  1.00  0.00     0.167 C 
HETATM   42  O8  UNL     1     -10.686  43.900 -29.310  1.00  0.00    -0.318 OA
HETATM   43 NA1  UNL     1      -8.855  45.177 -25.067  1.00  0.00    -0.348 Na
ATOM     44 1HA1 UNL     1      -8.928  44.818 -24.114  1.00  0.00     0.104 HD
ATOM     45 2HA1 UNL     1      -8.314  45.190 -24.202  1.00  0.00     0.104 HD
ENDROOT
BRANCH  41  46
HETATM   46  C42 UNL     1      -8.773  45.046 -30.196  1.00  0.00     0.067 C 
BRANCH  46  47
HETATM   47  C43 UNL     1      -8.523  43.641 -30.772  1.00  0.00     0.042 C 
BRANCH  47  48
HETATM   48  C44 UNL     1      -8.844  43.528 -32.266  1.00  0.00     0.058 C 
HETATM   49  C45 UNL     1      -9.544  42.206 -32.599  1.00  0.00     0.038 C 
HETATM   50  C46 UNL     1      -9.329  42.014 -34.098  1.00  0.00     0.003 C 
HETATM   51  C47 UNL     1      -8.097  42.840 -34.465  1.00  0.00     0.003 C 
HETATM   52  C48 UNL     1      -7.610  43.489 -33.169  1.00  0.00     0.038 C 
BRANCH  48  53
HETATM   53  O7  UNL     1      -9.681  44.624 -32.636  1.00  0.00    -0.390 OA
HETATM   54  H46 UNL     1      -9.965  44.509 -33.557  1.00  0.00     0.210 HD
ENDBRANCH  48  53
ENDBRANCH  47  48
ENDBRANCH  46  47
ENDBRANCH  41  46
BRANCH  41  55
HETATM   55  N1  UNL     1     -10.551  46.398 -29.241  1.00  0.00    -0.338 N 
HETATM   56  C49 UNL     1     -11.442  46.545 -30.140  1.00  0.00     0.124 C 
HETATM   57  N2  UNL     1     -12.065  47.735 -30.286  1.00  0.00    -0.279 NA
HETATM   58  N3  UNL     1     -11.915  45.677 -31.064  1.00  0.00    -0.279 NA
HETATM   59  H55 UNL     1     -12.151  47.999 -31.258  1.00  0.00     0.126 HD
HETATM   60  H56 UNL     1     -11.584  48.450 -29.750  1.00  0.00     0.126 HD
HETATM   61  H57 UNL     1     -12.927  45.710 -31.120  1.00  0.00     0.126 HD
HETATM   62  H58 UNL     1     -11.621  44.720 -30.864  1.00  0.00     0.126 HD
ATOM     63  H1  UNL     1     -10.317  47.184 -28.633  1.00  0.00     0.164 HD
ENDBRANCH  41  55
BRANCH  13  64
HETATM   64  S1  UNL     1      -9.846  41.794 -21.046  1.00  0.00     0.106 S 
HETATM   65  O1  UNL     1      -8.836  41.244 -21.948  1.00  0.00    -0.595 OA
HETATM   66  O2  UNL     1     -10.917  40.840 -20.769  1.00  0.00    -0.595 OA
HETATM   67  O3  UNL     1      -9.307  42.469 -19.869  1.00  0.00    -0.595 OA
ENDBRANCH  13  64
BRANCH  22  68
HETATM   68  C23 UNL     1      -7.436  49.262 -23.371  1.00  0.00     0.169 C 
BRANCH  68  69
HETATM   69  O4  UNL     1      -7.383  49.554 -24.769  1.00  0.00    -0.400 OA
HETATM   70  H29 UNL     1      -6.952  48.797 -25.198  1.00  0.00     0.209 HD
ENDBRANCH  68  69
ENDBRANCH  22  68
BRANCH  28  71
HETATM   71  O5  UNL     1     -10.455  48.499 -15.885  1.00  0.00    -0.361 OA
HETATM   72  H33 UNL     1     -10.912  47.773 -15.427  1.00  0.00     0.217 HD
ENDBRANCH  28  71
TORSDOF 9
ENDMDL
MODEL 6
REMARK minimizedAffinity -9.18384457
REMARK CNNscore 0.0926739797
REMARK CNNaffinity 6.20624304
REMARK  9 active torsions:
REMARK  status: ('A' for Active; 'I' for Inactive)
REMARK    1  A    between atoms: C13_13  and  S1_14 
REMARK    2  A    between atoms: C22_26  and  C23_27 
REMARK    3  A    between atoms: C23_27  and  O4_28 
REMARK    4  A    between atoms: C29_34  and  O5_35 
REMARK    5  A    between atoms: C41_48  and  C42_49 
REMARK    6  A    between atoms: C41_48  and  N1_57 
REMARK    7  A    between atoms: C42_49  and  C43_50 
REMARK    8  A    between atoms: C43_50  and  C44_51 
REMARK    9  A    between atoms: C44_51  and  O7_52 
REMARK       I    between atoms: C49_59  and  N2_60 
REMARK       I    between atoms: C49_59  and  N3_61 
ROOT
HETATM    1  C1  UNL     1       5.620  60.098  -3.396  1.00  0.00     0.010 C 
HETATM    2  C2  UNL     1       4.784  59.437  -4.489  1.00  0.00    -0.010 C 
HETATM    3  C3  UNL     1       3.313  59.363  -3.984  1.00  0.00     0.009 C 
HETATM    4  C4  UNL     1       2.538  58.116  -4.414  1.00  0.00     0.039 C 
HETATM    5  C5  UNL     1       2.921  57.694  -5.803  1.00  0.00    -0.049 C 
HETATM    6  C6  UNL     1       1.970  57.171  -6.681  1.00  0.00     0.044 C 
HETATM    7  C7  UNL     1       2.381  56.698  -7.922  1.00  0.00     0.072 C 
HETATM    8  C8  UNL     1       3.663  56.974  -8.385  1.00  0.00     0.037 C 
HETATM    9  C9  UNL     1       4.624  57.469  -7.496  1.00  0.00     0.011 C 
HETATM   10  C10 UNL     1       4.288  57.730  -6.164  1.00  0.00    -0.047 C 
HETATM   11  C11 UNL     1       5.277  58.049  -5.022  1.00  0.00     0.024 C 
HETATM   12  C12 UNL     1       6.788  57.947  -5.360  1.00  0.00     0.033 C 
HETATM   13  C13 UNL     1       7.658  56.843  -4.662  1.00  0.00     0.139 C 
HETATM   14  C14 UNL     1       7.491  55.362  -5.170  1.00  0.00     0.038 C 
HETATM   15  C15 UNL     1       8.798  54.585  -5.016  1.00  0.00    -0.014 C 
HETATM   16  C16 UNL     1       8.940  53.624  -4.080  1.00  0.00    -0.050 C 
HETATM   17  C17 UNL     1       7.806  53.370  -3.130  1.00  0.00     0.042 C 
HETATM   18  C18 UNL     1       6.630  53.089  -4.046  1.00  0.00     0.001 C 
HETATM   19  C19 UNL     1       6.949  51.905  -5.042  1.00  0.00     0.037 C 
HETATM   20  C20 UNL     1       8.117  50.954  -4.650  1.00  0.00     0.123 C 
HETATM   21  C21 UNL     1       8.043  49.583  -5.374  1.00  0.00     0.039 C 
HETATM   22  C22 UNL     1       8.612  49.394  -6.811  1.00  0.00     0.023 C 
HETATM   23  C24 UNL     1      10.099  48.942  -6.870  1.00  0.00     0.101 C 
HETATM   24  C25 UNL     1      11.064  49.965  -6.449  1.00  0.00    -0.101 C 
HETATM   25  C26 UNL     1      11.684  50.902  -6.021  1.00  0.00    -0.066 C 
HETATM   26  C27 UNL     1      12.173  52.112  -5.427  1.00  0.00     0.029 A 
HETATM   27  C28 UNL     1      13.478  52.514  -5.742  1.00  0.00     0.057 A 
HETATM   28  C29 UNL     1      14.001  53.678  -5.194  1.00  0.00     0.067 A 
HETATM   29  C30 UNL     1      13.248  54.454  -4.323  1.00  0.00     0.037 A 
HETATM   30  C31 UNL     1      11.949  54.057  -3.999  1.00  0.00     0.014 A 
HETATM   31  C32 UNL     1      11.372  52.894  -4.558  1.00  0.00    -0.006 A 
HETATM   32  C33 UNL     1       9.952  52.513  -4.116  1.00  0.00     0.185 C 
HETATM   33  O6  UNL     1       9.379  51.520  -4.978  1.00  0.00    -0.371 OA
HETATM   34  C34 UNL     1       6.241  54.467  -4.724  1.00  0.00     0.032 C 
HETATM   35  C35 UNL     1       5.176  54.206  -5.797  1.00  0.00    -0.055 C 
HETATM   36  C36 UNL     1       5.486  54.012  -7.148  1.00  0.00     0.001 C 
HETATM   37  C37 UNL     1       4.478  53.931  -8.112  1.00  0.00     0.096 A 
HETATM   38  C38 UNL     1       3.125  54.056  -7.751  1.00  0.00     0.086 A 
HETATM   39  C39 UNL     1       2.816  54.046  -6.378  1.00  0.00     0.004 C 
HETATM   40  C40 UNL     1       3.829  54.136  -5.417  1.00  0.00     0.005 C 
HETATM   41  C41 UNL     1       2.061  54.470  -8.817  1.00  0.00     0.167 C 
HETATM   42  O8  UNL     1       1.527  55.836  -8.564  1.00  0.00    -0.318 OA
HETATM   43 NA1  UNL     1       5.427  53.960  -6.501  1.00  0.00    -0.348 Na
ATOM     44 1HA1 UNL     1       6.141  54.310  -5.861  1.00  0.00     0.104 HD
ATOM     45 2HA1 UNL     1       6.086  53.590  -5.816  1.00  0.00     0.104 HD
ENDROOT
BRANCH  41  46
HETATM   46  C42 UNL     1       0.805  53.550  -8.692  1.00  0.00     0.067 C 
BRANCH  46  47
HETATM   47  C43 UNL     1      -0.541  54.277  -8.865  1.00  0.00     0.042 C 
BRANCH  47  48
HETATM   48  C44 UNL     1      -1.385  53.730 -10.021  1.00  0.00     0.058 C 
HETATM   49  C45 UNL     1      -2.719  54.473 -10.152  1.00  0.00     0.038 C 
HETATM   50  C46 UNL     1      -3.619  53.529 -10.945  1.00  0.00     0.003 C 
HETATM   51  C47 UNL     1      -3.047  52.126 -10.750  1.00  0.00     0.003 C 
HETATM   52  C48 UNL     1      -1.830  52.278  -9.838  1.00  0.00     0.038 C 
BRANCH  48  53
HETATM   53  O7  UNL     1      -0.638  53.860 -11.231  1.00  0.00    -0.390 OA
HETATM   54  H46 UNL     1      -1.202  53.602 -11.979  1.00  0.00     0.210 HD
ENDBRANCH  48  53
ENDBRANCH  47  48
ENDBRANCH  46  47
ENDBRANCH  41  46
BRANCH  41  55
HETATM   55  N1  UNL     1       2.583  54.254 -10.191  1.00  0.00    -0.338 N 
HETATM   56  C49 UNL     1       2.456  53.127 -10.773  1.00  0.00     0.124 C 
HETATM   57  N2  UNL     1       2.944  52.953 -12.021  1.00  0.00    -0.279 NA
HETATM   58  N3  UNL     1       1.898  51.971 -10.347  1.00  0.00    -0.279 NA
HETATM   59  H55 UNL     1       3.427  52.071 -12.118  1.00  0.00     0.126 HD
HETATM   60  H56 UNL     1       3.543  53.732 -12.275  1.00  0.00     0.126 HD
HETATM   61  H57 UNL     1       1.309  51.557 -11.062  1.00  0.00     0.126 HD
HETATM   62  H58 UNL     1       1.346  52.112  -9.500  1.00  0.00     0.126 HD
ATOM     63  H1  UNL     1       3.050  55.020 -10.676  1.00  0.00     0.164 HD
ENDBRANCH  41  55
BRANCH  13  64
HETATM   64  S1  UNL     1       7.818  57.088  -2.882  1.00  0.00     0.106 S 
HETATM   65  O1  UNL     1       6.582  56.522  -2.345  1.00  0.00    -0.595 OA
HETATM   66  O2  UNL     1       7.891  58.535  -2.693  1.00  0.00    -0.595 OA
HETATM   67  O3  UNL     1       9.029  56.359  -2.518  1.00  0.00    -0.595 OA
ENDBRANCH  13  64
BRANCH  22  68
HETATM   68  C23 UNL     1       8.305  50.545  -7.774  1.00  0.00     0.169 C 
BRANCH  68  69
HETATM   69  O4  UNL     1       8.186  50.044  -9.108  1.00  0.00    -0.400 OA
HETATM   70  H29 UNL     1       7.338  49.574  -9.156  1.00  0.00     0.209 HD
ENDBRANCH  68  69
ENDBRANCH  22  68
BRANCH  28  71
HETATM   71  O5  UNL     1      15.274  54.033  -5.536  1.00  0.00    -0.361 OA
HETATM   72  H33 UNL     1      15.480  54.866  -5.079  1.00  0.00     0.217 HD
ENDBRANCH  28  71
TORSDOF 9
ENDMDL
MODEL 7
REMARK minimizedAffinity -7.45025396
REMARK CNNscore 0.0921259597
REMARK CNNaffinity 5.39496469
REMARK  9 active torsions:
REMARK  status: ('A' for Active; 'I' for Inactive)
REMARK    1  A    between atoms: C13_13  and  S1_14 
REMARK    2  A    between atoms: C22_26  and  C23_27 
REMARK    3  A    between atoms: C23_27  and  O4_28 
REMARK    4  A    between atoms: C29_34  and  O5_35 
REMARK    5  A    between atoms: C41_48  and  C42_49 
REMARK    6  A    between atoms: C41_48  and  N1_57 
REMARK    7  A    between atoms: C42_49  and  C43_50 
REMARK    8  A    between atoms: C43_50  and  C44_51 
REMARK    9  A    between atoms: C44_51  and  O7_52 
REMARK       I    between atoms: C49_59  and  N2_60 
REMARK       I    between atoms: C49_59  and  N3_61 
ROOT
HETATM    1  C1  UNL     1      -7.293  44.719 -19.996  1.00  0.00     0.010 C 
HETATM    2  C2  UNL     1      -8.253  45.373 -20.986  1.00  0.00    -0.010 C 
HETATM    3  C3  UNL     1      -9.456  45.942 -20.177  1.00  0.00     0.009 C 
HETATM    4  C4  UNL     1     -10.813  45.858 -20.879  1.00  0.00     0.039 C 
HETATM    5  C5  UNL     1     -10.672  46.086 -22.356  1.00  0.00    -0.049 C 
HETATM    6  C6  UNL     1     -11.649  46.783 -23.069  1.00  0.00     0.044 C 
HETATM    7  C7  UNL     1     -11.535  46.886 -24.450  1.00  0.00     0.072 C 
HETATM    8  C8  UNL     1     -10.347  46.531 -25.082  1.00  0.00     0.037 C 
HETATM    9  C9  UNL     1      -9.382  45.806 -24.374  1.00  0.00     0.011 C 
HETATM   10  C10 UNL     1      -9.586  45.480 -23.029  1.00  0.00    -0.047 C 
HETATM   11  C11 UNL     1      -8.737  44.499 -22.193  1.00  0.00     0.024 C 
HETATM   12  C12 UNL     1      -7.635  43.710 -22.948  1.00  0.00     0.033 C 
HETATM   13  C13 UNL     1      -7.763  42.152 -23.085  1.00  0.00     0.139 C 
HETATM   14  C14 UNL     1      -8.807  41.602 -24.127  1.00  0.00     0.038 C 
HETATM   15  C15 UNL     1      -8.343  40.266 -24.705  1.00  0.00    -0.014 C 
HETATM   16  C16 UNL     1      -8.947  39.106 -24.373  1.00  0.00    -0.050 C 
HETATM   17  C17 UNL     1     -10.054  39.134 -23.359  1.00  0.00     0.042 C 
HETATM   18  C18 UNL     1     -11.039  40.134 -23.935  1.00  0.00     0.001 C 
HETATM   19  C19 UNL     1     -11.479  39.728 -25.397  1.00  0.00     0.037 C 
HETATM   20  C20 UNL     1     -11.254  38.244 -25.811  1.00  0.00     0.123 C 
HETATM   21  C21 UNL     1     -12.137  37.817 -27.014  1.00  0.00     0.039 C 
HETATM   22  C22 UNL     1     -11.700  38.104 -28.481  1.00  0.00     0.023 C 
HETATM   23  C24 UNL     1     -10.870  36.970 -29.147  1.00  0.00     0.101 C 
HETATM   24  C25 UNL     1      -9.515  36.809 -28.605  1.00  0.00    -0.101 C 
HETATM   25  C26 UNL     1      -8.477  36.796 -28.000  1.00  0.00    -0.066 C 
HETATM   26  C27 UNL     1      -7.373  36.945 -27.095  1.00  0.00     0.029 A 
HETATM   27  C28 UNL     1      -6.101  36.578 -27.550  1.00  0.00     0.057 A 
HETATM   28  C29 UNL     1      -4.998  36.701 -26.714  1.00  0.00     0.067 A 
HETATM   29  C30 UNL     1      -5.139  37.178 -25.418  1.00  0.00     0.037 A 
HETATM   30  C31 UNL     1      -6.406  37.540 -24.955  1.00  0.00     0.014 A 
HETATM   31  C32 UNL     1      -7.547  37.456 -25.784  1.00  0.00    -0.006 A 
HETATM   32  C33 UNL     1      -8.905  37.838 -25.179  1.00  0.00     0.185 C 
HETATM   33  O6  UNL     1      -9.905  38.012 -26.193  1.00  0.00    -0.371 OA
HETATM   34  C34 UNL     1     -10.372  41.564 -23.793  1.00  0.00     0.032 C 
HETATM   35  C35 UNL     1     -11.246  42.590 -24.526  1.00  0.00    -0.055 C 
HETATM   36  C36 UNL     1     -11.016  42.984 -25.849  1.00  0.00     0.001 C 
HETATM   37  C37 UNL     1     -11.741  44.031 -26.425  1.00  0.00     0.096 A 
HETATM   38  C38 UNL     1     -12.711  44.728 -25.683  1.00  0.00     0.086 A 
HETATM   39  C39 UNL     1     -13.075  44.197 -24.431  1.00  0.00     0.004 C 
HETATM   40  C40 UNL     1     -12.341  43.154 -23.856  1.00  0.00     0.005 C 
HETATM   41  C41 UNL     1     -13.145  46.166 -26.110  1.00  0.00     0.167 C 
HETATM   42  O8  UNL     1     -12.681  47.195 -25.140  1.00  0.00    -0.318 OA
HETATM   43 NA1  UNL     1     -11.153  42.653 -25.304  1.00  0.00    -0.348 Na
ATOM     44 1HA1 UNL     1     -10.446  42.114 -24.804  1.00  0.00     0.104 HD
ATOM     45 2HA1 UNL     1     -10.961  41.680 -25.069  1.00  0.00     0.104 HD
ENDROOT
BRANCH  41  46
HETATM   46  C42 UNL     1     -14.702  46.282 -26.059  1.00  0.00     0.067 C 
BRANCH  46  47
HETATM   47  C43 UNL     1     -15.252  46.989 -24.807  1.00  0.00     0.042 C 
BRANCH  47  48
HETATM   48  C44 UNL     1     -16.505  46.322 -24.232  1.00  0.00     0.058 C 
HETATM   49  C45 UNL     1     -17.785  47.034 -24.683  1.00  0.00     0.038 C 
HETATM   50  C46 UNL     1     -18.846  46.616 -23.667  1.00  0.00     0.003 C 
HETATM   51  C47 UNL     1     -18.092  46.197 -22.406  1.00  0.00     0.003 C 
HETATM   52  C48 UNL     1     -16.606  46.390 -22.707  1.00  0.00     0.038 C 
BRANCH  48  53
HETATM   53  O7  UNL     1     -16.534  44.960 -24.660  1.00  0.00    -0.390 OA
HETATM   54  H46 UNL     1     -17.372  44.557 -24.378  1.00  0.00     0.210 HD
ENDBRANCH  48  53
ENDBRANCH  47  48
ENDBRANCH  46  47
ENDBRANCH  41  46
BRANCH  41  55
HETATM   55  N1  UNL     1     -12.768  46.430 -27.522  1.00  0.00    -0.338 N 
HETATM   56  C49 UNL     1     -12.574  47.618 -27.940  1.00  0.00     0.124 C 
HETATM   57  N2  UNL     1     -12.237  47.834 -29.231  1.00  0.00    -0.279 NA
HETATM   58  N3  UNL     1     -12.661  48.806 -27.298  1.00  0.00    -0.279 NA
HETATM   59  H55 UNL     1     -12.747  48.610 -29.630  1.00  0.00     0.126 HD
HETATM   60  H56 UNL     1     -12.369  46.986 -29.773  1.00  0.00     0.126 HD
HETATM   61  H57 UNL     1     -11.873  49.405 -27.517  1.00  0.00     0.126 HD
HETATM   62  H58 UNL     1     -12.716  48.681 -26.286  1.00  0.00     0.126 HD
ATOM     63  H1  UNL     1     -12.663  45.648 -28.167  1.00  0.00     0.164 HD
ENDBRANCH  41  55
BRANCH  13  64
HETATM   64  S1  UNL     1      -7.645  41.291 -21.506  1.00  0.00     0.106 S 
HETATM   65  O1  UNL     1      -7.254  39.934 -21.882  1.00  0.00    -0.595 OA
HETATM   66  O2  UNL     1      -8.988  41.341 -20.933  1.00  0.00    -0.595 OA
HETATM   67  O3  UNL     1      -6.631  42.030 -20.758  1.00  0.00    -0.595 OA
ENDBRANCH  13  64
BRANCH  22  68
HETATM   68  C23 UNL     1     -11.094  39.492 -28.706  1.00  0.00     0.169 C 
BRANCH  68  69
HETATM   69  O4  UNL     1     -11.811  40.174 -29.737  1.00  0.00    -0.400 OA
HETATM   70  H29 UNL     1     -12.664  40.440 -29.357  1.00  0.00     0.209 HD
ENDBRANCH  68  69
ENDBRANCH  22  68
BRANCH  28  71
HETATM   71  O5  UNL     1      -3.777  36.338 -27.205  1.00  0.00    -0.361 OA
HETATM   72  H33 UNL     1      -3.121  36.493 -26.504  1.00  0.00     0.217 HD
ENDBRANCH  28  71
TORSDOF 9
ENDMDL
MODEL 8
REMARK minimizedAffinity -9.25139332
REMARK CNNscore 0.088612631
REMARK CNNaffinity 6.69280767
REMARK  9 active torsions:
REMARK  status: ('A' for Active; 'I' for Inactive)
REMARK    1  A    between atoms: C13_13  and  S1_14 
REMARK    2  A    between atoms: C22_26  and  C23_27 
REMARK    3  A    between atoms: C23_27  and  O4_28 
REMARK    4  A    between atoms: C29_34  and  O5_35 
REMARK    5  A    between atoms: C41_48  and  C42_49 
REMARK    6  A    between atoms: C41_48  and  N1_57 
REMARK    7  A    between atoms: C42_49  and  C43_50 
REMARK    8  A    between atoms: C43_50  and  C44_51 
REMARK    9  A    between atoms: C44_51  and  O7_52 
REMARK       I    between atoms: C49_59  and  N2_60 
REMARK       I    between atoms: C49_59  and  N3_61 
ROOT
HETATM    1  C1  UNL     1       3.749  58.519  -5.333  1.00  0.00     0.010 C 
HETATM    2  C2  UNL     1       3.223  57.838  -6.593  1.00  0.00    -0.010 C 
HETATM    3  C3  UNL     1       1.675  57.734  -6.469  1.00  0.00     0.009 C 
HETATM    4  C4  UNL     1       1.055  56.470  -7.068  1.00  0.00     0.039 C 
HETATM    5  C5  UNL     1       1.779  56.053  -8.315  1.00  0.00    -0.049 C 
HETATM    6  C6  UNL     1       1.086  55.508  -9.397  1.00  0.00     0.044 C 
HETATM    7  C7  UNL     1       1.802  55.040 -10.493  1.00  0.00     0.072 C 
HETATM    8  C8  UNL     1       3.154  55.340 -10.626  1.00  0.00     0.037 C 
HETATM    9  C9  UNL     1       3.854  55.858  -9.530  1.00  0.00     0.011 C 
HETATM   10  C10 UNL     1       3.192  56.117  -8.325  1.00  0.00    -0.047 C 
HETATM   11  C11 UNL     1       3.860  56.459  -6.976  1.00  0.00     0.024 C 
HETATM   12  C12 UNL     1       5.410  56.387  -6.927  1.00  0.00     0.033 C 
HETATM   13  C13 UNL     1       6.100  55.303  -6.026  1.00  0.00     0.139 C 
HETATM   14  C14 UNL     1       6.093  53.819  -6.548  1.00  0.00     0.038 C 
HETATM   15  C15 UNL     1       7.335  53.069  -6.068  1.00  0.00    -0.014 C 
HETATM   16  C16 UNL     1       7.259  52.114  -5.118  1.00  0.00    -0.050 C 
HETATM   17  C17 UNL     1       5.930  51.839  -4.478  1.00  0.00     0.042 C 
HETATM   18  C18 UNL     1       5.025  51.531  -5.655  1.00  0.00     0.001 C 
HETATM   19  C19 UNL     1       5.604  50.351  -6.531  1.00  0.00     0.037 C 
HETATM   20  C20 UNL     1       6.656  49.426  -5.853  1.00  0.00     0.123 C 
HETATM   21  C21 UNL     1       6.791  48.051  -6.562  1.00  0.00     0.039 C 
HETATM   22  C22 UNL     1       7.702  47.870  -7.812  1.00  0.00     0.023 C 
HETATM   23  C24 UNL     1       9.166  47.449  -7.495  1.00  0.00     0.101 C 
HETATM   24  C25 UNL     1       9.976  48.493  -6.856  1.00  0.00    -0.101 C 
HETATM   25  C26 UNL     1      10.452  49.444  -6.295  1.00  0.00    -0.066 C 
HETATM   26  C27 UNL     1      10.755  50.666  -5.608  1.00  0.00     0.029 A 
HETATM   27  C28 UNL     1      12.089  51.094  -5.592  1.00  0.00     0.057 A 
HETATM   28  C29 UNL     1      12.436  52.271  -4.941  1.00  0.00     0.067 A 
HETATM   29  C30 UNL     1      11.476  53.033  -4.290  1.00  0.00     0.037 A 
HETATM   30  C31 UNL     1      10.145  52.610  -4.296  1.00  0.00     0.014 A 
HETATM   31  C32 UNL     1       9.747  51.434  -4.972  1.00  0.00    -0.006 A 
HETATM   32  C33 UNL     1       8.270  51.024  -4.893  1.00  0.00     0.185 C 
HETATM   33  O6  UNL     1       7.948  50.017  -5.863  1.00  0.00    -0.371 OA
HETATM   34  C34 UNL     1       4.789  52.899  -6.419  1.00  0.00     0.032 C 
HETATM   35  C35 UNL     1       4.030  52.612  -7.721  1.00  0.00    -0.055 C 
HETATM   36  C36 UNL     1       4.670  52.421  -8.951  1.00  0.00     0.001 C 
HETATM   37  C37 UNL     1       3.934  52.316 -10.135  1.00  0.00     0.096 A 
HETATM   38  C38 UNL     1       2.532  52.414 -10.122  1.00  0.00     0.086 A 
HETATM   39  C39 UNL     1       1.891  52.402  -8.869  1.00  0.00     0.004 C 
HETATM   40  C40 UNL     1       2.632  52.515  -7.687  1.00  0.00     0.005 C 
HETATM   41  C41 UNL     1       1.758  52.803 -11.422  1.00  0.00     0.167 C 
HETATM   42  O8  UNL     1       1.151  54.158 -11.321  1.00  0.00    -0.318 OA
HETATM   43 NA1  UNL     1       4.452  52.370  -8.339  1.00  0.00    -0.348 Na
ATOM     44 1HA1 UNL     1       4.978  52.736  -7.545  1.00  0.00     0.104 HD
ATOM     45 2HA1 UNL     1       4.927  52.016  -7.508  1.00  0.00     0.104 HD
ENDROOT
BRANCH  41  46
HETATM   46  C42 UNL     1       0.528  51.857 -11.606  1.00  0.00     0.067 C 
BRANCH  46  47
HETATM   47  C43 UNL     1      -0.649  52.480 -12.378  1.00  0.00     0.042 C 
BRANCH  47  48
HETATM   48  C44 UNL     1      -1.871  52.766 -11.499  1.00  0.00     0.058 C 
HETATM   49  C45 UNL     1      -1.900  51.868 -10.257  1.00  0.00     0.038 C 
HETATM   50  C46 UNL     1      -3.353  51.889  -9.790  1.00  0.00     0.003 C 
HETATM   51  C47 UNL     1      -4.191  52.270 -11.009  1.00  0.00     0.003 C 
HETATM   52  C48 UNL     1      -3.210  52.451 -12.168  1.00  0.00     0.038 C 
BRANCH  48  53
HETATM   53  O7  UNL     1      -1.836  54.137 -11.102  1.00  0.00    -0.390 OA
HETATM   54  H46 UNL     1      -2.555  54.302 -10.470  1.00  0.00     0.210 HD
ENDBRANCH  48  53
ENDBRANCH  47  48
ENDBRANCH  46  47
ENDBRANCH  41  46
BRANCH  41  55
HETATM   55  N1  UNL     1       2.609  52.593 -12.621  1.00  0.00    -0.338 N 
HETATM   56  C49 UNL     1       2.798  51.427 -13.099  1.00  0.00     0.124 C 
HETATM   57  N2  UNL     1       3.581  51.261 -14.188  1.00  0.00    -0.279 NA
HETATM   58  N3  UNL     1       2.345  50.220 -12.687  1.00  0.00    -0.279 NA
HETATM   59  H55 UNL     1       4.206  50.473 -14.087  1.00  0.00     0.126 HD
HETATM   60  H56 UNL     1       4.092  52.115 -14.385  1.00  0.00     0.126 HD
HETATM   61  H57 UNL     1       2.010  49.664 -13.466  1.00  0.00     0.126 HD
HETATM   62  H58 UNL     1       1.599  50.316 -11.998  1.00  0.00     0.126 HD
ATOM     63  H1  UNL     1       3.049  53.396 -13.070  1.00  0.00     0.164 HD
ENDBRANCH  41  55
BRANCH  13  64
HETATM   64  S1  UNL     1       5.808  55.558  -4.265  1.00  0.00     0.106 S 
HETATM   65  O1  UNL     1       6.908  54.838  -3.627  1.00  0.00    -0.595 OA
HETATM   66  O2  UNL     1       4.512  54.941  -3.991  1.00  0.00    -0.595 OA
HETATM   67  O3  UNL     1       5.846  57.007  -4.091  1.00  0.00    -0.595 OA
ENDBRANCH  13  64
BRANCH  22  68
HETATM   68  C23 UNL     1       7.623  49.011  -8.830  1.00  0.00     0.169 C 
BRANCH  68  69
HETATM   69  O4  UNL     1       8.646  49.973  -8.564  1.00  0.00    -0.400 OA
HETATM   70  H29 UNL     1       9.485  49.575  -8.845  1.00  0.00     0.209 HD
ENDBRANCH  68  69
ENDBRANCH  22  68
BRANCH  28  71
HETATM   71  O5  UNL     1      13.747  52.650  -4.958  1.00  0.00    -0.361 OA
HETATM   72  H33 UNL     1      13.817  53.489  -4.472  1.00  0.00     0.217 HD
ENDBRANCH  28  71
TORSDOF 9
ENDMDL
MODEL 9
REMARK minimizedAffinity -8.56676102
REMARK CNNscore 0.0825496241
REMARK CNNaffinity 6.30201578
REMARK  9 active torsions:
REMARK  status: ('A' for Active; 'I' for Inactive)
REMARK    1  A    between atoms: C13_13  and  S1_14 
REMARK    2  A    between atoms: C22_26  and  C23_27 
REMARK    3  A    between atoms: C23_27  and  O4_28 
REMARK    4  A    between atoms: C29_34  and  O5_35 
REMARK    5  A    between atoms: C41_48  and  C42_49 
REMARK    6  A    between atoms: C41_48  and  N1_57 
REMARK    7  A    between atoms: C42_49  and  C43_50 
REMARK    8  A    between atoms: C43_50  and  C44_51 
REMARK    9  A    between atoms: C44_51  and  O7_52 
REMARK       I    between atoms: C49_59  and  N2_60 
REMARK       I    between atoms: C49_59  and  N3_61 
ROOT
HETATM    1  C1  UNL     1       2.317  58.449   0.330  1.00  0.00     0.010 C 
HETATM    2  C2  UNL     1       3.773  58.311  -0.108  1.00  0.00    -0.010 C 
HETATM    3  C3  UNL     1       4.454  59.702   0.055  1.00  0.00     0.009 C 
HETATM    4  C4  UNL     1       5.502  60.044  -1.006  1.00  0.00     0.039 C 
HETATM    5  C5  UNL     1       6.277  58.825  -1.413  1.00  0.00    -0.049 C 
HETATM    6  C6  UNL     1       7.639  58.908  -1.707  1.00  0.00     0.044 C 
HETATM    7  C7  UNL     1       8.301  57.779  -2.177  1.00  0.00     0.072 C 
HETATM    8  C8  UNL     1       7.688  56.532  -2.112  1.00  0.00     0.037 C 
HETATM    9  C9  UNL     1       6.316  56.453  -1.847  1.00  0.00     0.011 C 
HETATM   10  C10 UNL     1       5.574  57.613  -1.603  1.00  0.00    -0.047 C 
HETATM   11  C11 UNL     1       4.035  57.709  -1.531  1.00  0.00     0.024 C 
HETATM   12  C12 UNL     1       3.238  56.426  -1.885  1.00  0.00     0.033 C 
HETATM   13  C13 UNL     1       2.329  56.415  -3.164  1.00  0.00     0.139 C 
HETATM   14  C14 UNL     1       3.047  56.298  -4.560  1.00  0.00     0.038 C 
HETATM   15  C15 UNL     1       2.161  55.566  -5.567  1.00  0.00    -0.014 C 
HETATM   16  C16 UNL     1       1.567  56.218  -6.588  1.00  0.00    -0.050 C 
HETATM   17  C17 UNL     1       1.732  57.707  -6.686  1.00  0.00     0.042 C 
HETATM   18  C18 UNL     1       3.237  57.897  -6.700  1.00  0.00     0.001 C 
HETATM   19  C19 UNL     1       3.910  57.070  -7.865  1.00  0.00     0.037 C 
HETATM   20  C20 UNL     1       2.982  56.619  -9.030  1.00  0.00     0.123 C 
HETATM   21  C21 UNL     1       3.768  56.275 -10.324  1.00  0.00     0.039 C 
HETATM   22  C22 UNL     1       4.410  54.871 -10.532  1.00  0.00     0.023 C 
HETATM   23  C24 UNL     1       3.493  53.834 -11.241  1.00  0.00     0.101 C 
HETATM   24  C25 UNL     1       2.358  53.372 -10.433  1.00  0.00    -0.101 C 
HETATM   25  C26 UNL     1       1.472  53.163  -9.648  1.00  0.00    -0.066 C 
HETATM   26  C27 UNL     1       0.515  53.139  -8.580  1.00  0.00     0.029 A 
HETATM   27  C28 UNL     1      -0.238  51.971  -8.403  1.00  0.00     0.057 A 
HETATM   28  C29 UNL     1      -1.179  51.896  -7.383  1.00  0.00     0.067 A 
HETATM   29  C30 UNL     1      -1.395  52.972  -6.534  1.00  0.00     0.037 A 
HETATM   30  C31 UNL     1      -0.653  54.142  -6.708  1.00  0.00     0.014 A 
HETATM   31  C32 UNL     1       0.333  54.248  -7.715  1.00  0.00    -0.006 A 
HETATM   32  C33 UNL     1       1.074  55.585  -7.859  1.00  0.00     0.185 C 
HETATM   33  O6  UNL     1       2.241  55.457  -8.683  1.00  0.00    -0.371 OA
HETATM   34  C34 UNL     1       3.752  57.565  -5.238  1.00  0.00     0.032 C 
HETATM   35  C35 UNL     1       5.286  57.565  -5.245  1.00  0.00    -0.055 C 
HETATM   36  C36 UNL     1       6.049  56.403  -5.416  1.00  0.00     0.001 C 
HETATM   37  C37 UNL     1       7.438  56.426  -5.262  1.00  0.00     0.096 A 
HETATM   38  C38 UNL     1       8.104  57.614  -4.915  1.00  0.00     0.086 A 
HETATM   39  C39 UNL     1       7.360  58.808  -4.945  1.00  0.00     0.004 C 
HETATM   40  C40 UNL     1       5.968  58.779  -5.092  1.00  0.00     0.005 C 
HETATM   41  C41 UNL     1       9.520  57.560  -4.258  1.00  0.00     0.167 C 
HETATM   42  O8  UNL     1       9.487  57.992  -2.835  1.00  0.00    -0.318 OA
HETATM   43 NA1  UNL     1       5.645  56.910  -5.492  1.00  0.00    -0.348 Na
ATOM     44 1HA1 UNL     1       4.644  56.838  -5.312  1.00  0.00     0.104 HD
ATOM     45 2HA1 UNL     1       4.770  56.972  -6.012  1.00  0.00     0.104 HD
ENDROOT
BRANCH  41  46
HETATM   46  C42 UNL     1      10.459  58.604  -4.943  1.00  0.00     0.067 C 
BRANCH  46  47
HETATM   47  C43 UNL     1      10.882  59.775  -4.038  1.00  0.00     0.042 C 
BRANCH  47  48
HETATM   48  C44 UNL     1      10.358  61.134  -4.515  1.00  0.00     0.058 C 
HETATM   49  C45 UNL     1       9.859  61.074  -5.963  1.00  0.00     0.038 C 
HETATM   50  C46 UNL     1       9.869  62.523  -6.442  1.00  0.00     0.003 C 
HETATM   51  C47 UNL     1      10.864  63.264  -5.550  1.00  0.00     0.003 C 
HETATM   52  C48 UNL     1      11.424  62.229  -4.575  1.00  0.00     0.038 C 
BRANCH  48  53
HETATM   53  O7  UNL     1       9.293  61.539  -3.654  1.00  0.00    -0.390 OA
HETATM   54  H46 UNL     1       8.895  62.352  -4.005  1.00  0.00     0.210 HD
ENDBRANCH  48  53
ENDBRANCH  47  48
ENDBRANCH  46  47
ENDBRANCH  41  46
BRANCH  41  55
HETATM   55  N1  UNL     1      10.155  56.237  -4.489  1.00  0.00    -0.338 N 
HETATM   56  C49 UNL     1      11.405  56.137  -4.714  1.00  0.00     0.124 C 
HETATM   57  N2  UNL     1      11.958  54.922  -4.927  1.00  0.00    -0.279 NA
HETATM   58  N3  UNL     1      12.365  57.086  -4.807  1.00  0.00    -0.279 NA
HETATM   59  H55 UNL     1      12.612  54.935  -5.699  1.00  0.00     0.126 HD
HETATM   60  H56 UNL     1      11.233  54.227  -5.069  1.00  0.00     0.126 HD
HETATM   61  H57 UNL     1      13.200  56.820  -4.298  1.00  0.00     0.126 HD
HETATM   62  H58 UNL     1      12.034  57.987  -4.459  1.00  0.00     0.126 HD
ATOM     63  H1  UNL     1       9.580  55.394  -4.467  1.00  0.00     0.164 HD
ENDBRANCH  41  55
BRANCH  13  64
HETATM   64  S1  UNL     1       0.932  57.549  -3.049  1.00  0.00     0.106 S 
HETATM   65  O1  UNL     1      -0.005  57.042  -4.050  1.00  0.00    -0.595 OA
HETATM   66  O2  UNL     1       1.465  58.861  -3.406  1.00  0.00    -0.595 OA
HETATM   67  O3  UNL     1       0.472  57.428  -1.669  1.00  0.00    -0.595 OA
ENDBRANCH  13  64
BRANCH  22  68
HETATM   68  C23 UNL     1       5.105  54.298  -9.294  1.00  0.00     0.169 C 
BRANCH  68  69
HETATM   69  O4  UNL     1       6.477  54.699  -9.277  1.00  0.00    -0.400 OA
HETATM   70  H29 UNL     1       6.491  55.640  -9.039  1.00  0.00     0.209 HD
ENDBRANCH  68  69
ENDBRANCH  22  68
BRANCH  28  71
HETATM   71  O5  UNL     1      -1.884  50.735  -7.245  1.00  0.00    -0.361 OA
HETATM   72  H33 UNL     1      -2.485  50.844  -6.489  1.00  0.00     0.217 HD
ENDBRANCH  28  71
TORSDOF 9
ENDMDL
