MODEL 1
REMARK minimizedAffinity -7.39597464
REMARK CNNscore 0.52831322
REMARK CNNaffinity 6.56112909
REMARK  14 active torsions:
REMARK  status: ('A' for Active; 'I' for Inactive)
REMARK    1  A    between atoms: O1_2  and  C2_3 
REMARK    2  A    between atoms: C2_3  and  C5_6 
REMARK    3  A    between atoms: C6_7  and  C7_8 
REMARK    4  A    between atoms: C7_8  and  C8_9 
REMARK    5  A    between atoms: C8_9  and  C10_11 
REMARK    6  A    between atoms: C16_17  and  O2_18 
REMARK    7  A    between atoms: C22_24  and  O3_25 
REMARK    8  A    between atoms: O3_25  and  C23_26 
REMARK    9  A    between atoms: C24_28  and  C25_29 
REMARK   10  A    between atoms: C25_29  and  O5_30 
REMARK   11  A    between atoms: C26_31  and  O6_32 
REMARK   12  A    between atoms: C27_33  and  O7_34 
REMARK   13  A    between atoms: C28_35  and  O8_36 
REMARK   14  A    between atoms: C32_40  and  C33_41 
ROOT
HETATM    1  C10 UNL     1     -17.661   4.091  13.478  1.00  0.00    -0.002 C 
HETATM    2  C11 UNL     1     -18.903   3.354  12.951  1.00  0.00     0.006 C 
HETATM    3  C12 UNL     1     -18.698   1.930  13.441  1.00  0.00     0.011 C 
HETATM    4  C13 UNL     1     -18.225   2.096  14.904  1.00  0.00    -0.029 C 
HETATM    5  C14 UNL     1     -19.508   2.306  15.765  1.00  0.00     0.016 C 
HETATM    6  C15 UNL     1     -17.416   0.869  15.483  1.00  0.00     0.043 C 
HETATM    7  C16 UNL     1     -18.236  -0.416  15.772  1.00  0.00     0.147 C 
HETATM    8  C17 UNL     1     -18.259  -1.440  14.689  1.00  0.00     0.009 C 
HETATM    9  C18 UNL     1     -17.394  -1.504  13.660  1.00  0.00    -0.066 C 
HETATM   10  C19 UNL     1     -16.260  -0.495  13.534  1.00  0.00     0.031 C 
HETATM   11  C20 UNL     1     -14.945  -1.213  13.183  1.00  0.00     0.013 C 
HETATM   12  C21 UNL     1     -15.080  -2.029  11.903  1.00  0.00     0.034 C 
HETATM   13  C22 UNL     1     -16.164  -3.105  12.038  1.00  0.00     0.136 C 
HETATM   14  C29 UNL     1     -17.546  -2.507  12.491  1.00  0.00     0.002 C 
HETATM   15  C30 UNL     1     -18.466  -3.710  12.828  1.00  0.00     0.022 C 
HETATM   16  C31 UNL     1     -18.229  -1.756  11.323  1.00  0.00     0.022 C 
HETATM   17  C32 UNL     1     -16.090   0.535  14.717  1.00  0.00     0.027 C 
HETATM   18  C34 UNL     1     -15.420   1.819  14.148  1.00  0.00     0.018 C 
HETATM   19  C35 UNL     1     -15.799   3.071  14.932  1.00  0.00     0.011 C 
HETATM   20  C36 UNL     1     -17.321   3.423  14.875  1.00  0.00    -0.032 C 
HETATM   21  C37 UNL     1     -17.563   4.319  16.108  1.00  0.00     0.016 C 
ENDROOT
BRANCH  13  22
HETATM   22  O3  UNL     1     -16.382  -3.824  10.817  1.00  0.00    -0.352 OA
BRANCH  22  23
HETATM   23  C23 UNL     1     -15.217  -4.209  10.091  1.00  0.00     0.292 C 
HETATM   24  O4  UNL     1     -15.239  -3.571   8.811  1.00  0.00    -0.348 OA
HETATM   25  C24 UNL     1     -14.410  -4.152   7.800  1.00  0.00     0.179 C 
HETATM   26  C26 UNL     1     -13.433  -5.215   8.332  1.00  0.00     0.180 C 
HETATM   27  C27 UNL     1     -14.154  -6.315   9.108  1.00  0.00     0.183 C 
HETATM   28  C28 UNL     1     -15.284  -5.751   9.971  1.00  0.00     0.204 C 
BRANCH  25  29
HETATM   29  C25 UNL     1     -15.263  -4.574   6.582  1.00  0.00     0.198 C 
BRANCH  29  30
HETATM   30  O5  UNL     1     -14.868  -4.021   5.334  1.00  0.00    -0.398 OA
HETATM   31  H40 UNL     1     -14.661  -3.068   5.441  1.00  0.00     0.209 HD
ENDBRANCH  29  30
ENDBRANCH  25  29
BRANCH  26  32
HETATM   32  O6  UNL     1     -12.651  -5.779   7.280  1.00  0.00    -0.390 OA
HETATM   33  H42 UNL     1     -11.824  -6.093   7.687  1.00  0.00     0.210 HD
ENDBRANCH  26  32
BRANCH  27  34
HETATM   34  O7  UNL     1     -13.180  -6.976   9.934  1.00  0.00    -0.390 OA
HETATM   35  H44 UNL     1     -13.583  -7.814  10.223  1.00  0.00     0.210 HD
ENDBRANCH  27  34
BRANCH  28  36
HETATM   36  O8  UNL     1     -16.533  -6.136   9.368  1.00  0.00    -0.388 OA
HETATM   37  H46 UNL     1     -17.218  -5.596   9.815  1.00  0.00     0.210 HD
ENDBRANCH  28  36
ENDBRANCH  22  23
ENDBRANCH  13  22
BRANCH  17  38
HETATM   38  C33 UNL     1     -15.149  -0.078  15.774  1.00  0.00     0.241 C 
HETATM   39  O9  UNL     1     -14.189   0.497  16.281  1.00  0.00    -0.306 OA
ENDBRANCH  17  38
BRANCH   7  40
HETATM   40  O2  UNL     1     -17.680  -1.074  16.912  1.00  0.00    -0.391 OA
HETATM   41  H28 UNL     1     -18.314  -1.754  17.194  1.00  0.00     0.210 HD
ENDBRANCH   7  40
BRANCH   1  42
HETATM   42  C8  UNL     1     -17.757   5.636  13.274  1.00  0.00    -0.010 C 
HETATM   43  C9  UNL     1     -19.158   6.079  12.831  1.00  0.00     0.010 C 
BRANCH  42  44
HETATM   44  C7  UNL     1     -16.569   6.277  12.510  1.00  0.00     0.031 C 
BRANCH  44  45
HETATM   45  C6  UNL     1     -15.439   6.829  13.334  1.00  0.00    -0.027 C 
HETATM   46  C5  UNL     1     -14.201   7.029  12.843  1.00  0.00     0.006 C 
BRANCH  46  47
HETATM   47  C2  UNL     1     -12.967   7.552  13.554  1.00  0.00     0.070 C 
HETATM   48  C3  UNL     1     -13.342   8.742  14.452  1.00  0.00     0.050 C 
HETATM   49  C4  UNL     1     -12.280   6.497  14.436  1.00  0.00     0.050 C 
BRANCH  47  50
HETATM   50  O1  UNL     1     -11.974   7.912  12.579  1.00  0.00    -0.382 OA
HETATM   51  C1  UNL     1     -11.704   9.295  12.395  1.00  0.00     0.202 C 
ENDBRANCH  47  50
ENDBRANCH  46  47
ENDBRANCH  44  45
ENDBRANCH  42  44
ENDBRANCH   1  42
TORSDOF 14
ENDMDL
MODEL 2
REMARK minimizedAffinity -8.08486938
REMARK CNNscore 0.359792888
REMARK CNNaffinity 6.88055658
REMARK  14 active torsions:
REMARK  status: ('A' for Active; 'I' for Inactive)
REMARK    1  A    between atoms: O1_2  and  C2_3 
REMARK    2  A    between atoms: C2_3  and  C5_6 
REMARK    3  A    between atoms: C6_7  and  C7_8 
REMARK    4  A    between atoms: C7_8  and  C8_9 
REMARK    5  A    between atoms: C8_9  and  C10_11 
REMARK    6  A    between atoms: C16_17  and  O2_18 
REMARK    7  A    between atoms: C22_24  and  O3_25 
REMARK    8  A    between atoms: O3_25  and  C23_26 
REMARK    9  A    between atoms: C24_28  and  C25_29 
REMARK   10  A    between atoms: C25_29  and  O5_30 
REMARK   11  A    between atoms: C26_31  and  O6_32 
REMARK   12  A    between atoms: C27_33  and  O7_34 
REMARK   13  A    between atoms: C28_35  and  O8_36 
REMARK   14  A    between atoms: C32_40  and  C33_41 
ROOT
HETATM    1  C10 UNL     1      -3.751   6.547  13.799  1.00  0.00    -0.002 C 
HETATM    2  C11 UNL     1      -4.490   7.728  13.148  1.00  0.00     0.006 C 
HETATM    3  C12 UNL     1      -3.731   8.940  13.663  1.00  0.00     0.011 C 
HETATM    4  C13 UNL     1      -2.243   8.544  13.527  1.00  0.00    -0.029 C 
HETATM    5  C14 UNL     1      -1.846   8.810  12.044  1.00  0.00     0.016 C 
HETATM    6  C15 UNL     1      -1.257   9.338  14.471  1.00  0.00     0.043 C 
HETATM    7  C16 UNL     1      -1.013  10.827  14.108  1.00  0.00     0.147 C 
HETATM    8  C17 UNL     1      -1.869  11.824  14.811  1.00  0.00     0.009 C 
HETATM    9  C18 UNL     1      -2.572  11.593  15.934  1.00  0.00    -0.066 C 
HETATM   10  C19 UNL     1      -2.523  10.230  16.614  1.00  0.00     0.031 C 
HETATM   11  C20 UNL     1      -2.347  10.399  18.134  1.00  0.00     0.013 C 
HETATM   12  C21 UNL     1      -3.456  11.257  18.732  1.00  0.00     0.034 C 
HETATM   13  C22 UNL     1      -3.470  12.661  18.116  1.00  0.00     0.136 C 
HETATM   14  C29 UNL     1      -3.550  12.625  16.546  1.00  0.00     0.002 C 
HETATM   15  C30 UNL     1      -3.305  14.074  16.051  1.00  0.00     0.022 C 
HETATM   16  C31 UNL     1      -4.975  12.245  16.077  1.00  0.00     0.022 C 
HETATM   17  C32 UNL     1      -1.531   9.167  16.004  1.00  0.00     0.027 C 
HETATM   18  C34 UNL     1      -2.082   7.748  16.331  1.00  0.00     0.018 C 
HETATM   19  C35 UNL     1      -1.665   6.708  15.296  1.00  0.00     0.011 C 
HETATM   20  C36 UNL     1      -2.224   6.973  13.861  1.00  0.00    -0.032 C 
HETATM   21  C37 UNL     1      -1.285   6.190  12.922  1.00  0.00     0.016 C 
ENDROOT
BRANCH  13  22
HETATM   22  O3  UNL     1      -4.564  13.458  18.587  1.00  0.00    -0.352 OA
BRANCH  22  23
HETATM   23  C23 UNL     1      -4.607  13.711  19.990  1.00  0.00     0.292 C 
HETATM   24  O4  UNL     1      -5.952  13.550  20.448  1.00  0.00    -0.348 OA
HETATM   25  C24 UNL     1      -6.273  14.166  21.698  1.00  0.00     0.179 C 
HETATM   26  C26 UNL     1      -5.046  14.683  22.470  1.00  0.00     0.180 C 
HETATM   27  C27 UNL     1      -4.199  15.632  21.627  1.00  0.00     0.183 C 
HETATM   28  C28 UNL     1      -4.102  15.163  20.174  1.00  0.00     0.204 C 
BRANCH  25  29
HETATM   29  C25 UNL     1      -7.427  15.178  21.520  1.00  0.00     0.198 C 
BRANCH  29  30
HETATM   30  O5  UNL     1      -7.660  15.616  20.188  1.00  0.00    -0.398 OA
HETATM   31  H40 UNL     1      -6.806  15.812  19.746  1.00  0.00     0.209 HD
ENDBRANCH  29  30
ENDBRANCH  25  29
BRANCH  26  32
HETATM   32  O6  UNL     1      -5.425  15.309  23.695  1.00  0.00    -0.390 OA
HETATM   33  H42 UNL     1      -4.662  15.230  24.295  1.00  0.00     0.210 HD
ENDBRANCH  26  32
BRANCH  27  34
HETATM   34  O7  UNL     1      -2.890  15.691  22.219  1.00  0.00    -0.390 OA
HETATM   35  H44 UNL     1      -2.447  16.470  21.838  1.00  0.00     0.210 HD
ENDBRANCH  27  34
BRANCH  28  36
HETATM   36  O8  UNL     1      -4.894  16.057  19.369  1.00  0.00    -0.388 OA
HETATM   37  H46 UNL     1      -4.980  15.618  18.497  1.00  0.00     0.210 HD
ENDBRANCH  28  36
ENDBRANCH  22  23
ENDBRANCH  13  22
BRANCH  17  38
HETATM   38  C33 UNL     1      -0.157   9.324  16.688  1.00  0.00     0.241 C 
HETATM   39  O9  UNL     1       0.749   8.495  16.647  1.00  0.00    -0.306 OA
ENDBRANCH  17  38
BRANCH   7  40
HETATM   40  O2  UNL     1       0.333  11.171  14.443  1.00  0.00    -0.391 OA
HETATM   41  H28 UNL     1       0.524  12.031  14.032  1.00  0.00     0.210 HD
ENDBRANCH   7  40
BRANCH   1  42
HETATM   42  C8  UNL     1      -4.227   5.169  13.241  1.00  0.00    -0.010 C 
HETATM   43  C9  UNL     1      -3.562   4.822  11.902  1.00  0.00     0.010 C 
BRANCH  42  44
HETATM   44  C7  UNL     1      -5.756   4.914  13.326  1.00  0.00     0.031 C 
BRANCH  44  45
HETATM   45  C6  UNL     1      -6.499   5.567  14.458  1.00  0.00    -0.027 C 
HETATM   46  C5  UNL     1      -7.397   6.553  14.274  1.00  0.00     0.006 C 
BRANCH  46  47
HETATM   47  C2  UNL     1      -8.200   7.316  15.311  1.00  0.00     0.070 C 
HETATM   48  C3  UNL     1      -9.683   6.917  15.225  1.00  0.00     0.050 C 
HETATM   49  C4  UNL     1      -7.730   7.062  16.752  1.00  0.00     0.050 C 
BRANCH  47  50
HETATM   50  O1  UNL     1      -8.016   8.728  15.112  1.00  0.00    -0.382 OA
HETATM   51  C1  UNL     1      -9.155   9.565  15.246  1.00  0.00     0.202 C 
ENDBRANCH  47  50
ENDBRANCH  46  47
ENDBRANCH  44  45
ENDBRANCH  42  44
ENDBRANCH   1  42
TORSDOF 14
ENDMDL
MODEL 3
REMARK minimizedAffinity -7.19484091
REMARK CNNscore 0.340819627
REMARK CNNaffinity 6.20911932
REMARK  14 active torsions:
REMARK  status: ('A' for Active; 'I' for Inactive)
REMARK    1  A    between atoms: O1_2  and  C2_3 
REMARK    2  A    between atoms: C2_3  and  C5_6 
REMARK    3  A    between atoms: C6_7  and  C7_8 
REMARK    4  A    between atoms: C7_8  and  C8_9 
REMARK    5  A    between atoms: C8_9  and  C10_11 
REMARK    6  A    between atoms: C16_17  and  O2_18 
REMARK    7  A    between atoms: C22_24  and  O3_25 
REMARK    8  A    between atoms: O3_25  and  C23_26 
REMARK    9  A    between atoms: C24_28  and  C25_29 
REMARK   10  A    between atoms: C25_29  and  O5_30 
REMARK   11  A    between atoms: C26_31  and  O6_32 
REMARK   12  A    between atoms: C27_33  and  O7_34 
REMARK   13  A    between atoms: C28_35  and  O8_36 
REMARK   14  A    between atoms: C32_40  and  C33_41 
ROOT
HETATM    1  C10 UNL     1      -7.513  13.475  21.304  1.00  0.00    -0.002 C 
HETATM    2  C11 UNL     1      -6.139  13.207  21.941  1.00  0.00     0.006 C 
HETATM    3  C12 UNL     1      -5.163  13.682  20.877  1.00  0.00     0.011 C 
HETATM    4  C13 UNL     1      -5.753  15.026  20.391  1.00  0.00    -0.029 C 
HETATM    5  C14 UNL     1      -5.302  16.107  21.420  1.00  0.00     0.016 C 
HETATM    6  C15 UNL     1      -5.293  15.469  18.947  1.00  0.00     0.043 C 
HETATM    7  C16 UNL     1      -3.818  15.935  18.813  1.00  0.00     0.147 C 
HETATM    8  C17 UNL     1      -2.837  14.899  18.385  1.00  0.00     0.009 C 
HETATM    9  C18 UNL     1      -3.147  13.728  17.799  1.00  0.00    -0.066 C 
HETATM   10  C19 UNL     1      -4.597  13.369  17.498  1.00  0.00     0.031 C 
HETATM   11  C20 UNL     1      -4.718  12.793  16.076  1.00  0.00     0.013 C 
HETATM   12  C21 UNL     1      -3.816  11.580  15.887  1.00  0.00     0.034 C 
HETATM   13  C22 UNL     1      -2.342  11.940  16.107  1.00  0.00     0.136 C 
HETATM   14  C29 UNL     1      -2.097  12.631  17.498  1.00  0.00     0.002 C 
HETATM   15  C30 UNL     1      -0.639  13.160  17.486  1.00  0.00     0.022 C 
HETATM   16  C31 UNL     1      -2.169  11.596  18.647  1.00  0.00     0.022 C 
HETATM   17  C32 UNL     1      -5.679  14.476  17.799  1.00  0.00     0.027 C 
HETATM   18  C34 UNL     1      -7.031  13.763  18.091  1.00  0.00     0.018 C 
HETATM   19  C35 UNL     1      -7.931  14.576  19.016  1.00  0.00     0.011 C 
HETATM   20  C36 UNL     1      -7.342  14.798  20.447  1.00  0.00    -0.032 C 
HETATM   21  C37 UNL     1      -8.088  16.034  20.991  1.00  0.00     0.016 C 
ENDROOT
BRANCH  13  22
HETATM   22  O3  UNL     1      -1.479  10.798  16.033  1.00  0.00    -0.352 OA
BRANCH  22  23
HETATM   23  C23 UNL     1      -1.856   9.777  15.111  1.00  0.00     0.292 C 
HETATM   24  O4  UNL     1      -1.692   8.503  15.740  1.00  0.00    -0.348 OA
HETATM   25  C24 UNL     1      -1.602   7.374  14.868  1.00  0.00     0.179 C 
HETATM   26  C26 UNL     1      -1.955   7.689  13.404  1.00  0.00     0.180 C 
HETATM   27  C27 UNL     1      -1.120   8.840  12.849  1.00  0.00     0.183 C 
HETATM   28  C28 UNL     1      -0.920   9.944  13.889  1.00  0.00     0.204 C 
BRANCH  25  29
HETATM   29  C25 UNL     1      -0.266   6.627  15.089  1.00  0.00     0.198 C 
BRANCH  29  30
HETATM   30  O5  UNL     1       0.300   6.752  16.387  1.00  0.00    -0.398 OA
HETATM   31  H40 UNL     1       0.238   7.682  16.691  1.00  0.00     0.209 HD
ENDBRANCH  29  30
ENDBRANCH  25  29
BRANCH  26  32
HETATM   32  O6  UNL     1      -1.824   6.535  12.575  1.00  0.00    -0.390 OA
HETATM   33  H42 UNL     1      -2.426   6.665  11.821  1.00  0.00     0.210 HD
ENDBRANCH  26  32
BRANCH  27  34
HETATM   34  O7  UNL     1      -1.805   9.360  11.697  1.00  0.00    -0.390 OA
HETATM   35  H44 UNL     1      -1.160   9.907  11.214  1.00  0.00     0.210 HD
ENDBRANCH  27  34
BRANCH  28  36
HETATM   36  O8  UNL     1       0.453   9.899  14.321  1.00  0.00    -0.388 OA
HETATM   37  H46 UNL     1       0.496  10.466  15.119  1.00  0.00     0.210 HD
ENDBRANCH  28  36
ENDBRANCH  22  23
ENDBRANCH  13  22
BRANCH  17  38
HETATM   38  C33 UNL     1      -5.853  15.351  16.540  1.00  0.00     0.241 C 
HETATM   39  O9  UNL     1      -4.949  15.659  15.766  1.00  0.00    -0.306 OA
ENDBRANCH  17  38
BRANCH   7  40
HETATM   40  O2  UNL     1      -3.747  16.966  17.825  1.00  0.00    -0.391 OA
HETATM   41  H28 UNL     1      -2.868  17.376  17.896  1.00  0.00     0.210 HD
ENDBRANCH   7  40
BRANCH   1  42
HETATM   42  C8  UNL     1      -8.686  13.259  22.311  1.00  0.00    -0.010 C 
HETATM   43  C9  UNL     1      -8.196  13.151  23.761  1.00  0.00     0.010 C 
BRANCH  42  44
HETATM   44  C7  UNL     1      -9.749  12.216  21.874  1.00  0.00     0.031 C 
BRANCH  44  45
HETATM   45  C6  UNL     1     -10.255  11.268  22.925  1.00  0.00    -0.027 C 
HETATM   46  C5  UNL     1     -11.430  10.619  22.824  1.00  0.00     0.006 C 
BRANCH  46  47
HETATM   47  C2  UNL     1     -12.076   9.659  23.805  1.00  0.00     0.070 C 
HETATM   48  C3  UNL     1     -13.413   9.151  23.241  1.00  0.00     0.050 C 
HETATM   49  C4  UNL     1     -11.204   8.433  24.120  1.00  0.00     0.050 C 
BRANCH  47  50
HETATM   50  O1  UNL     1     -12.247  10.317  25.072  1.00  0.00    -0.382 OA
HETATM   51  C1  UNL     1     -13.273  11.294  25.173  1.00  0.00     0.202 C 
ENDBRANCH  47  50
ENDBRANCH  46  47
ENDBRANCH  44  45
ENDBRANCH  42  44
ENDBRANCH   1  42
TORSDOF 14
ENDMDL
MODEL 4
REMARK minimizedAffinity -8.10196686
REMARK CNNscore 0.324007452
REMARK CNNaffinity 6.92424059
REMARK  14 active torsions:
REMARK  status: ('A' for Active; 'I' for Inactive)
REMARK    1  A    between atoms: O1_2  and  C2_3 
REMARK    2  A    between atoms: C2_3  and  C5_6 
REMARK    3  A    between atoms: C6_7  and  C7_8 
REMARK    4  A    between atoms: C7_8  and  C8_9 
REMARK    5  A    between atoms: C8_9  and  C10_11 
REMARK    6  A    between atoms: C16_17  and  O2_18 
REMARK    7  A    between atoms: C22_24  and  O3_25 
REMARK    8  A    between atoms: O3_25  and  C23_26 
REMARK    9  A    between atoms: C24_28  and  C25_29 
REMARK   10  A    between atoms: C25_29  and  O5_30 
REMARK   11  A    between atoms: C26_31  and  O6_32 
REMARK   12  A    between atoms: C27_33  and  O7_34 
REMARK   13  A    between atoms: C28_35  and  O8_36 
REMARK   14  A    between atoms: C32_40  and  C33_41 
ROOT
HETATM    1  C10 UNL     1      -0.556   7.128  12.590  1.00  0.00    -0.002 C 
HETATM    2  C11 UNL     1      -0.206   8.623  12.500  1.00  0.00     0.006 C 
HETATM    3  C12 UNL     1       0.989   8.646  11.562  1.00  0.00     0.011 C 
HETATM    4  C13 UNL     1       0.596   7.681  10.421  1.00  0.00    -0.029 C 
HETATM    5  C14 UNL     1      -0.307   8.492   9.442  1.00  0.00     0.016 C 
HETATM    6  C15 UNL     1       1.811   7.076   9.614  1.00  0.00     0.043 C 
HETATM    7  C16 UNL     1       2.566   8.058   8.679  1.00  0.00     0.147 C 
HETATM    8  C17 UNL     1       3.775   8.715   9.252  1.00  0.00     0.009 C 
HETATM    9  C18 UNL     1       4.443   8.299  10.343  1.00  0.00    -0.066 C 
HETATM   10  C19 UNL     1       4.001   7.051  11.097  1.00  0.00     0.031 C 
HETATM   11  C20 UNL     1       5.219   6.171  11.431  1.00  0.00     0.013 C 
HETATM   12  C21 UNL     1       6.259   6.942  12.235  1.00  0.00     0.034 C 
HETATM   13  C22 UNL     1       6.776   8.158  11.459  1.00  0.00     0.136 C 
HETATM   14  C29 UNL     1       5.612   9.096  10.972  1.00  0.00     0.002 C 
HETATM   15  C30 UNL     1       6.243  10.130  10.004  1.00  0.00     0.022 C 
HETATM   16  C31 UNL     1       5.031   9.911  12.153  1.00  0.00     0.022 C 
HETATM   17  C32 UNL     1       2.812   6.226  10.469  1.00  0.00     0.027 C 
HETATM   18  C34 UNL     1       2.083   5.475  11.621  1.00  0.00     0.018 C 
HETATM   19  C35 UNL     1       0.611   5.223  11.314  1.00  0.00     0.011 C 
HETATM   20  C36 UNL     1      -0.241   6.524  11.158  1.00  0.00    -0.032 C 
HETATM   21  C37 UNL     1      -1.476   6.090  10.342  1.00  0.00     0.016 C 
ENDROOT
BRANCH  13  22
HETATM   22  O3  UNL     1       7.683   8.958  12.229  1.00  0.00    -0.352 OA
BRANCH  22  23
HETATM   23  C23 UNL     1       7.240   9.349  13.527  1.00  0.00     0.292 C 
HETATM   24  O4  UNL     1       7.564  10.727  13.730  1.00  0.00    -0.348 OA
HETATM   25  C24 UNL     1       7.596  11.176  15.088  1.00  0.00     0.179 C 
HETATM   26  C26 UNL     1       7.021  10.162  16.092  1.00  0.00     0.180 C 
HETATM   27  C27 UNL     1       7.701   8.800  15.980  1.00  0.00     0.183 C 
HETATM   28  C28 UNL     1       7.982   8.426  14.523  1.00  0.00     0.204 C 
BRANCH  25  29
HETATM   29  C25 UNL     1       8.990  11.746  15.434  1.00  0.00     0.198 C 
BRANCH  29  30
HETATM   30  O5  UNL     1       9.134  12.261  16.751  1.00  0.00    -0.398 OA
HETATM   31  H40 UNL     1       8.348  12.797  16.988  1.00  0.00     0.209 HD
ENDBRANCH  29  30
ENDBRANCH  25  29
BRANCH  26  32
HETATM   32  O6  UNL     1       7.101  10.649  17.431  1.00  0.00    -0.390 OA
HETATM   33  H42 UNL     1       6.391  10.206  17.929  1.00  0.00     0.210 HD
ENDBRANCH  26  32
BRANCH  27  34
HETATM   34  O7  UNL     1       6.831   7.827  16.584  1.00  0.00    -0.390 OA
HETATM   35  H44 UNL     1       7.368   7.028  16.734  1.00  0.00     0.210 HD
ENDBRANCH  27  34
BRANCH  28  36
HETATM   36  O8  UNL     1       9.402   8.524  14.309  1.00  0.00    -0.388 OA
HETATM   37  H46 UNL     1       9.525   8.484  13.338  1.00  0.00     0.210 HD
ENDBRANCH  28  36
ENDBRANCH  22  23
ENDBRANCH  13  22
BRANCH  17  38
HETATM   38  C33 UNL     1       3.395   5.180   9.498  1.00  0.00     0.241 C 
HETATM   39  O9  UNL     1       3.177   3.972   9.550  1.00  0.00    -0.306 OA
ENDBRANCH  17  38
BRANCH   7  40
HETATM   40  O2  UNL     1       3.025   7.343   7.530  1.00  0.00    -0.391 OA
HETATM   41  H28 UNL     1       3.314   8.000   6.874  1.00  0.00     0.210 HD
ENDBRANCH   7  40
BRANCH   1  42
HETATM   42  C8  UNL     1      -1.901   6.877  13.342  1.00  0.00    -0.010 C 
HETATM   43  C9  UNL     1      -2.257   8.025  14.297  1.00  0.00     0.010 C 
BRANCH  42  44
HETATM   44  C7  UNL     1      -2.084   5.443  13.906  1.00  0.00     0.031 C 
BRANCH  44  45
HETATM   45  C6  UNL     1      -2.524   4.377  12.942  1.00  0.00    -0.027 C 
HETATM   46  C5  UNL     1      -3.800   4.234  12.537  1.00  0.00     0.006 C 
BRANCH  46  47
HETATM   47  C2  UNL     1      -4.390   3.201  11.595  1.00  0.00     0.070 C 
HETATM   48  C3  UNL     1      -4.054   3.564  10.139  1.00  0.00     0.050 C 
HETATM   49  C4  UNL     1      -3.875   1.776  11.854  1.00  0.00     0.050 C 
BRANCH  47  50
HETATM   50  O1  UNL     1      -5.810   3.118  11.810  1.00  0.00    -0.382 OA
HETATM   51  C1  UNL     1      -6.317   3.594  13.048  1.00  0.00     0.202 C 
ENDBRANCH  47  50
ENDBRANCH  46  47
ENDBRANCH  44  45
ENDBRANCH  42  44
ENDBRANCH   1  42
TORSDOF 14
ENDMDL
MODEL 5
REMARK minimizedAffinity -8.36062908
REMARK CNNscore 0.322025895
REMARK CNNaffinity 7.21004438
REMARK  14 active torsions:
REMARK  status: ('A' for Active; 'I' for Inactive)
REMARK    1  A    between atoms: O1_2  and  C2_3 
REMARK    2  A    between atoms: C2_3  and  C5_6 
REMARK    3  A    between atoms: C6_7  and  C7_8 
REMARK    4  A    between atoms: C7_8  and  C8_9 
REMARK    5  A    between atoms: C8_9  and  C10_11 
REMARK    6  A    between atoms: C16_17  and  O2_18 
REMARK    7  A    between atoms: C22_24  and  O3_25 
REMARK    8  A    between atoms: O3_25  and  C23_26 
REMARK    9  A    between atoms: C24_28  and  C25_29 
REMARK   10  A    between atoms: C25_29  and  O5_30 
REMARK   11  A    between atoms: C26_31  and  O6_32 
REMARK   12  A    between atoms: C27_33  and  O7_34 
REMARK   13  A    between atoms: C28_35  and  O8_36 
REMARK   14  A    between atoms: C32_40  and  C33_41 
ROOT
HETATM    1  C10 UNL     1      -5.896   6.108  13.508  1.00  0.00    -0.002 C 
HETATM    2  C11 UNL     1      -4.967   4.981  13.986  1.00  0.00     0.006 C 
HETATM    3  C12 UNL     1      -3.728   5.725  14.457  1.00  0.00     0.011 C 
HETATM    4  C13 UNL     1      -4.286   6.919  15.265  1.00  0.00    -0.029 C 
HETATM    5  C14 UNL     1      -4.616   6.378  16.689  1.00  0.00     0.016 C 
HETATM    6  C15 UNL     1      -3.303   8.147  15.399  1.00  0.00     0.043 C 
HETATM    7  C16 UNL     1      -2.077   7.942  16.329  1.00  0.00     0.147 C 
HETATM    8  C17 UNL     1      -0.816   7.501  15.668  1.00  0.00     0.009 C 
HETATM    9  C18 UNL     1      -0.556   7.587  14.351  1.00  0.00    -0.066 C 
HETATM   10  C19 UNL     1      -1.578   8.191  13.395  1.00  0.00     0.031 C 
HETATM   11  C20 UNL     1      -0.887   9.162  12.421  1.00  0.00     0.013 C 
HETATM   12  C21 UNL     1       0.230   8.474  11.646  1.00  0.00     0.034 C 
HETATM   13  C22 UNL     1       1.310   7.929  12.588  1.00  0.00     0.136 C 
HETATM   14  C29 UNL     1       0.715   6.990  13.700  1.00  0.00     0.002 C 
HETATM   15  C30 UNL     1       1.856   6.717  14.715  1.00  0.00     0.022 C 
HETATM   16  C31 UNL     1       0.328   5.613  13.108  1.00  0.00     0.022 C 
HETATM   17  C32 UNL     1      -2.880   8.804  14.041  1.00  0.00     0.027 C 
HETATM   18  C34 UNL     1      -4.024   8.728  12.989  1.00  0.00     0.018 C 
HETATM   19  C35 UNL     1      -5.403   8.630  13.633  1.00  0.00     0.011 C 
HETATM   20  C36 UNL     1      -5.624   7.334  14.477  1.00  0.00    -0.032 C 
HETATM   21  C37 UNL     1      -6.780   7.682  15.437  1.00  0.00     0.016 C 
ENDROOT
BRANCH  13  22
HETATM   22  O3  UNL     1       2.325   7.191  11.895  1.00  0.00    -0.352 OA
BRANCH  22  23
HETATM   23  C23 UNL     1       3.406   7.950  11.357  1.00  0.00     0.292 C 
HETATM   24  O4  UNL     1       4.280   7.068  10.647  1.00  0.00    -0.348 OA
HETATM   25  C24 UNL     1       5.608   7.547  10.414  1.00  0.00     0.179 C 
HETATM   26  C26 UNL     1       5.798   9.039  10.741  1.00  0.00     0.180 C 
HETATM   27  C27 UNL     1       5.370   9.370  12.168  1.00  0.00     0.183 C 
HETATM   28  C28 UNL     1       4.106   8.607  12.570  1.00  0.00     0.204 C 
BRANCH  25  29
HETATM   29  C25 UNL     1       6.644   6.586  11.040  1.00  0.00     0.198 C 
BRANCH  29  30
HETATM   30  O5  UNL     1       6.465   5.209  10.742  1.00  0.00    -0.398 OA
HETATM   31  H40 UNL     1       5.516   4.971  10.815  1.00  0.00     0.209 HD
ENDBRANCH  29  30
ENDBRANCH  25  29
BRANCH  26  32
HETATM   32  O6  UNL     1       7.144   9.456  10.515  1.00  0.00    -0.390 OA
HETATM   33  H42 UNL     1       7.110  10.411  10.330  1.00  0.00     0.210 HD
ENDBRANCH  26  32
BRANCH  27  34
HETATM   34  O7  UNL     1       5.140  10.787  12.237  1.00  0.00    -0.390 OA
HETATM   35  H44 UNL     1       5.117  11.019  13.183  1.00  0.00     0.210 HD
ENDBRANCH  27  34
BRANCH  28  36
HETATM   36  O8  UNL     1       4.486   7.593  13.519  1.00  0.00    -0.388 OA
HETATM   37  H46 UNL     1       3.709   7.001  13.596  1.00  0.00     0.210 HD
ENDBRANCH  28  36
ENDBRANCH  22  23
ENDBRANCH  13  22
BRANCH  17  38
HETATM   38  C33 UNL     1      -2.616  10.289  14.367  1.00  0.00     0.241 C 
HETATM   39  O9  UNL     1      -3.290  10.971  15.135  1.00  0.00    -0.306 OA
ENDBRANCH  17  38
BRANCH   7  40
HETATM   40  O2  UNL     1      -1.765   9.184  16.964  1.00  0.00    -0.391 OA
HETATM   41  H28 UNL     1      -1.134   8.994  17.679  1.00  0.00     0.210 HD
ENDBRANCH   7  40
BRANCH   1  42
HETATM   42  C8  UNL     1      -7.331   5.592  13.172  1.00  0.00    -0.010 C 
HETATM   43  C9  UNL     1      -8.416   6.618  13.526  1.00  0.00     0.010 C 
BRANCH  42  44
HETATM   44  C7  UNL     1      -7.620   4.126  13.589  1.00  0.00     0.031 C 
BRANCH  44  45
HETATM   45  C6  UNL     1      -7.101   3.040  12.687  1.00  0.00    -0.027 C 
HETATM   46  C5  UNL     1      -6.102   3.233  11.806  1.00  0.00     0.006 C 
BRANCH  46  47
HETATM   47  C2  UNL     1      -5.493   2.249  10.825  1.00  0.00     0.070 C 
HETATM   48  C3  UNL     1      -6.233   0.903  10.903  1.00  0.00     0.050 C 
HETATM   49  C4  UNL     1      -5.549   2.731   9.367  1.00  0.00     0.050 C 
BRANCH  47  50
HETATM   50  O1  UNL     1      -4.091   2.103  11.106  1.00  0.00    -0.382 OA
HETATM   51  C1  UNL     1      -3.334   3.288  11.310  1.00  0.00     0.202 C 
ENDBRANCH  47  50
ENDBRANCH  46  47
ENDBRANCH  44  45
ENDBRANCH  42  44
ENDBRANCH   1  42
TORSDOF 14
ENDMDL
MODEL 6
REMARK minimizedAffinity -7.12755632
REMARK CNNscore 0.254090846
REMARK CNNaffinity 6.40298033
REMARK  14 active torsions:
REMARK  status: ('A' for Active; 'I' for Inactive)
REMARK    1  A    between atoms: O1_2  and  C2_3 
REMARK    2  A    between atoms: C2_3  and  C5_6 
REMARK    3  A    between atoms: C6_7  and  C7_8 
REMARK    4  A    between atoms: C7_8  and  C8_9 
REMARK    5  A    between atoms: C8_9  and  C10_11 
REMARK    6  A    between atoms: C16_17  and  O2_18 
REMARK    7  A    between atoms: C22_24  and  O3_25 
REMARK    8  A    between atoms: O3_25  and  C23_26 
REMARK    9  A    between atoms: C24_28  and  C25_29 
REMARK   10  A    between atoms: C25_29  and  O5_30 
REMARK   11  A    between atoms: C26_31  and  O6_32 
REMARK   12  A    between atoms: C27_33  and  O7_34 
REMARK   13  A    between atoms: C28_35  and  O8_36 
REMARK   14  A    between atoms: C32_40  and  C33_41 
ROOT
HETATM    1  C10 UNL     1      -5.134 -10.261   5.931  1.00  0.00    -0.002 C 
HETATM    2  C11 UNL     1      -6.398 -11.097   5.668  1.00  0.00     0.006 C 
HETATM    3  C12 UNL     1      -6.046 -11.877   4.412  1.00  0.00     0.011 C 
HETATM    4  C13 UNL     1      -4.602 -12.370   4.663  1.00  0.00    -0.029 C 
HETATM    5  C14 UNL     1      -4.715 -13.653   5.541  1.00  0.00     0.016 C 
HETATM    6  C15 UNL     1      -3.782 -12.713   3.358  1.00  0.00     0.043 C 
HETATM    7  C16 UNL     1      -4.212 -13.998   2.600  1.00  0.00     0.147 C 
HETATM    8  C17 UNL     1      -5.174 -13.808   1.478  1.00  0.00     0.009 C 
HETATM    9  C18 UNL     1      -5.436 -12.640   0.865  1.00  0.00    -0.066 C 
HETATM   10  C19 UNL     1      -4.714 -11.365   1.283  1.00  0.00     0.031 C 
HETATM   11  C20 UNL     1      -4.242 -10.589   0.040  1.00  0.00     0.013 C 
HETATM   12  C21 UNL     1      -5.405 -10.266  -0.891  1.00  0.00     0.034 C 
HETATM   13  C22 UNL     1      -6.095 -11.542  -1.386  1.00  0.00     0.136 C 
HETATM   14  C29 UNL     1      -6.544 -12.476  -0.204  1.00  0.00     0.002 C 
HETATM   15  C30 UNL     1      -6.990 -13.820  -0.838  1.00  0.00     0.022 C 
HETATM   16  C31 UNL     1      -7.792 -11.901   0.509  1.00  0.00     0.022 C 
HETATM   17  C32 UNL     1      -3.582 -11.513   2.371  1.00  0.00     0.027 C 
HETATM   18  C34 UNL     1      -3.462 -10.161   3.132  1.00  0.00     0.018 C 
HETATM   19  C35 UNL     1      -2.958 -10.339   4.560  1.00  0.00     0.011 C 
HETATM   20  C36 UNL     1      -3.914 -11.168   5.477  1.00  0.00    -0.032 C 
HETATM   21  C37 UNL     1      -3.015 -11.680   6.621  1.00  0.00     0.016 C 
ENDROOT
BRANCH  13  22
HETATM   22  O3  UNL     1      -7.254 -11.267  -2.184  1.00  0.00    -0.352 OA
BRANCH  22  23
HETATM   23  C23 UNL     1      -7.300  -9.989  -2.817  1.00  0.00     0.292 C 
HETATM   24  O4  UNL     1      -8.339  -9.213  -2.213  1.00  0.00    -0.348 OA
HETATM   25  C24 UNL     1      -8.820  -8.101  -2.973  1.00  0.00     0.179 C 
HETATM   26  C26 UNL     1      -7.959  -7.770  -4.205  1.00  0.00     0.180 C 
HETATM   27  C27 UNL     1      -7.777  -8.980  -5.116  1.00  0.00     0.183 C 
HETATM   28  C28 UNL     1      -7.580 -10.268  -4.313  1.00  0.00     0.204 C 
BRANCH  25  29
HETATM   29  C25 UNL     1     -10.337  -8.242  -3.233  1.00  0.00     0.198 C 
BRANCH  29  30
HETATM   30  O5  UNL     1     -11.166  -7.298  -2.570  1.00  0.00    -0.398 OA
HETATM   31  H40 UNL     1     -10.868  -7.185  -1.642  1.00  0.00     0.209 HD
ENDBRANCH  29  30
ENDBRANCH  25  29
BRANCH  26  32
HETATM   32  O6  UNL     1      -8.498  -6.671  -4.938  1.00  0.00    -0.390 OA
HETATM   33  H42 UNL     1      -7.751  -6.259  -5.408  1.00  0.00     0.210 HD
ENDBRANCH  26  32
BRANCH  27  34
HETATM   34  O7  UNL     1      -6.631  -8.732  -5.948  1.00  0.00    -0.390 OA
HETATM   35  H44 UNL     1      -6.673  -9.375  -6.679  1.00  0.00     0.210 HD
ENDBRANCH  27  34
BRANCH  28  36
HETATM   36  O8  UNL     1      -8.778 -11.056  -4.444  1.00  0.00    -0.388 OA
HETATM   37  H46 UNL     1      -8.704 -11.759  -3.765  1.00  0.00     0.210 HD
ENDBRANCH  28  36
ENDBRANCH  22  23
ENDBRANCH  13  22
BRANCH  17  38
HETATM   38  C33 UNL     1      -2.243 -11.789   1.655  1.00  0.00     0.241 C 
HETATM   39  O9  UNL     1      -1.142 -11.418   2.055  1.00  0.00    -0.306 OA
ENDBRANCH  17  38
BRANCH   7  40
HETATM   40  O2  UNL     1      -3.054 -14.600   2.017  1.00  0.00    -0.391 OA
HETATM   41  H28 UNL     1      -3.308 -15.491   1.722  1.00  0.00     0.210 HD
ENDBRANCH   7  40
BRANCH   1  42
HETATM   42  C8  UNL     1      -5.183  -9.528   7.308  1.00  0.00    -0.010 C 
HETATM   43  C9  UNL     1      -4.311 -10.217   8.366  1.00  0.00     0.010 C 
BRANCH  42  44
HETATM   44  C7  UNL     1      -6.597  -9.090   7.773  1.00  0.00     0.031 C 
BRANCH  44  45
HETATM   45  C6  UNL     1      -6.742  -8.637   9.200  1.00  0.00    -0.027 C 
HETATM   46  C5  UNL     1      -7.070  -9.470  10.205  1.00  0.00     0.006 C 
BRANCH  46  47
HETATM   47  C2  UNL     1      -7.272  -9.156  11.675  1.00  0.00     0.070 C 
HETATM   48  C3  UNL     1      -6.763  -7.739  11.986  1.00  0.00     0.050 C 
HETATM   49  C4  UNL     1      -8.742  -9.233  12.117  1.00  0.00     0.050 C 
BRANCH  47  50
HETATM   50  O1  UNL     1      -6.602 -10.150  12.471  1.00  0.00    -0.382 OA
HETATM   51  C1  UNL     1      -6.310 -11.397  11.856  1.00  0.00     0.202 C 
ENDBRANCH  47  50
ENDBRANCH  46  47
ENDBRANCH  44  45
ENDBRANCH  42  44
ENDBRANCH   1  42
TORSDOF 14
ENDMDL
MODEL 7
REMARK minimizedAffinity -6.96241045
REMARK CNNscore 0.247170866
REMARK CNNaffinity 6.79929209
REMARK  14 active torsions:
REMARK  status: ('A' for Active; 'I' for Inactive)
REMARK    1  A    between atoms: O1_2  and  C2_3 
REMARK    2  A    between atoms: C2_3  and  C5_6 
REMARK    3  A    between atoms: C6_7  and  C7_8 
REMARK    4  A    between atoms: C7_8  and  C8_9 
REMARK    5  A    between atoms: C8_9  and  C10_11 
REMARK    6  A    between atoms: C16_17  and  O2_18 
REMARK    7  A    between atoms: C22_24  and  O3_25 
REMARK    8  A    between atoms: O3_25  and  C23_26 
REMARK    9  A    between atoms: C24_28  and  C25_29 
REMARK   10  A    between atoms: C25_29  and  O5_30 
REMARK   11  A    between atoms: C26_31  and  O6_32 
REMARK   12  A    between atoms: C27_33  and  O7_34 
REMARK   13  A    between atoms: C28_35  and  O8_36 
REMARK   14  A    between atoms: C32_40  and  C33_41 
ROOT
HETATM    1  C10 UNL     1      -2.406   8.787  13.785  1.00  0.00    -0.002 C 
HETATM    2  C11 UNL     1      -1.730   7.858  12.763  1.00  0.00     0.006 C 
HETATM    3  C12 UNL     1      -0.311   7.731  13.292  1.00  0.00     0.011 C 
HETATM    4  C13 UNL     1      -0.490   7.519  14.813  1.00  0.00    -0.029 C 
HETATM    5  C14 UNL     1      -0.802   6.005  15.017  1.00  0.00     0.016 C 
HETATM    6  C15 UNL     1       0.766   7.906  15.688  1.00  0.00     0.043 C 
HETATM    7  C16 UNL     1       1.991   6.958  15.583  1.00  0.00     0.147 C 
HETATM    8  C17 UNL     1       3.042   7.348  14.601  1.00  0.00     0.009 C 
HETATM    9  C18 UNL     1       3.188   8.571  14.061  1.00  0.00    -0.066 C 
HETATM   10  C19 UNL     1       2.253   9.709  14.451  1.00  0.00     0.031 C 
HETATM   11  C20 UNL     1       3.059  10.993  14.717  1.00  0.00     0.013 C 
HETATM   12  C21 UNL     1       3.902  11.382  13.509  1.00  0.00     0.034 C 
HETATM   13  C22 UNL     1       4.906  10.281  13.149  1.00  0.00     0.136 C 
HETATM   14  C29 UNL     1       4.213   8.884  12.944  1.00  0.00     0.002 C 
HETATM   15  C30 UNL     1       5.348   7.832  12.838  1.00  0.00     0.022 C 
HETATM   16  C31 UNL     1       3.455   8.839  11.596  1.00  0.00     0.022 C 
HETATM   17  C32 UNL     1       1.202   9.407  15.588  1.00  0.00     0.027 C 
HETATM   18  C34 UNL     1      -0.022  10.344  15.376  1.00  0.00     0.018 C 
HETATM   19  C35 UNL     1      -1.317   9.742  15.912  1.00  0.00     0.011 C 
HETATM   20  C36 UNL     1      -1.759   8.429  15.188  1.00  0.00    -0.032 C 
HETATM   21  C37 UNL     1      -2.702   7.728  16.187  1.00  0.00     0.016 C 
ENDROOT
BRANCH  13  22
HETATM   22  O3  UNL     1       5.645  10.576  11.957  1.00  0.00    -0.352 OA
BRANCH  22  23
HETATM   23  C23 UNL     1       7.066  10.603  12.081  1.00  0.00     0.292 C 
HETATM   24  O4  UNL     1       7.411  10.471  13.463  1.00  0.00    -0.348 OA
HETATM   25  C24 UNL     1       8.725  10.901  13.830  1.00  0.00     0.179 C 
HETATM   26  C26 UNL     1       9.642  11.194  12.630  1.00  0.00     0.180 C 
HETATM   27  C27 UNL     1       9.018  12.200  11.667  1.00  0.00     0.183 C 
HETATM   28  C28 UNL     1       7.515  11.965  11.499  1.00  0.00     0.204 C 
BRANCH  25  29
HETATM   29  C25 UNL     1       8.648  12.011  14.902  1.00  0.00     0.198 C 
BRANCH  29  30
HETATM   30  O5  UNL     1       9.217  11.689  16.164  1.00  0.00    -0.398 OA
HETATM   31  H40 UNL     1       8.957  10.780  16.426  1.00  0.00     0.209 HD
ENDBRANCH  29  30
ENDBRANCH  25  29
BRANCH  26  32
HETATM   32  O6  UNL     1      10.929  11.642  13.052  1.00  0.00    -0.390 OA
HETATM   33  H42 UNL     1      11.551  11.410  12.340  1.00  0.00     0.210 HD
ENDBRANCH  26  32
BRANCH  27  34
HETATM   34  O7  UNL     1       9.687  12.065  10.401  1.00  0.00    -0.390 OA
HETATM   35  H44 UNL     1       9.466  12.861   9.884  1.00  0.00     0.210 HD
ENDBRANCH  27  34
BRANCH  28  36
HETATM   36  O8  UNL     1       6.824  13.033  12.174  1.00  0.00    -0.388 OA
HETATM   37  H46 UNL     1       5.888  12.748  12.227  1.00  0.00     0.210 HD
ENDBRANCH  28  36
ENDBRANCH  22  23
ENDBRANCH  13  22
BRANCH  17  38
HETATM   38  C33 UNL     1       1.840   9.742  16.952  1.00  0.00     0.241 C 
HETATM   39  O9  UNL     1       3.024   9.574  17.235  1.00  0.00    -0.306 OA
ENDBRANCH  17  38
BRANCH   7  40
HETATM   40  O2  UNL     1       2.648   6.908  16.851  1.00  0.00    -0.391 OA
HETATM   41  H28 UNL     1       3.281   6.171  16.822  1.00  0.00     0.210 HD
ENDBRANCH   7  40
BRANCH   1  42
HETATM   42  C8  UNL     1      -3.947   8.894  13.562  1.00  0.00    -0.010 C 
HETATM   43  C9  UNL     1      -4.655   9.613  14.719  1.00  0.00     0.010 C 
BRANCH  42  44
HETATM   44  C7  UNL     1      -4.632   7.599  13.047  1.00  0.00     0.031 C 
BRANCH  44  45
HETATM   45  C6  UNL     1      -5.778   7.059  13.856  1.00  0.00    -0.027 C 
HETATM   46  C5  UNL     1      -6.670   6.177  13.368  1.00  0.00     0.006 C 
BRANCH  46  47
HETATM   47  C2  UNL     1      -7.879   5.567  14.052  1.00  0.00     0.070 C 
HETATM   48  C3  UNL     1      -7.561   5.286  15.529  1.00  0.00     0.050 C 
HETATM   49  C4  UNL     1      -9.124   6.467  14.003  1.00  0.00     0.050 C 
BRANCH  47  50
HETATM   50  O1  UNL     1      -8.268   4.372  13.353  1.00  0.00    -0.382 OA
HETATM   51  C1  UNL     1      -7.326   3.310  13.290  1.00  0.00     0.202 C 
ENDBRANCH  47  50
ENDBRANCH  46  47
ENDBRANCH  44  45
ENDBRANCH  42  44
ENDBRANCH   1  42
TORSDOF 14
ENDMDL
MODEL 8
REMARK minimizedAffinity -7.98393345
REMARK CNNscore 0.242990658
REMARK CNNaffinity 6.60604811
REMARK  14 active torsions:
REMARK  status: ('A' for Active; 'I' for Inactive)
REMARK    1  A    between atoms: O1_2  and  C2_3 
REMARK    2  A    between atoms: C2_3  and  C5_6 
REMARK    3  A    between atoms: C6_7  and  C7_8 
REMARK    4  A    between atoms: C7_8  and  C8_9 
REMARK    5  A    between atoms: C8_9  and  C10_11 
REMARK    6  A    between atoms: C16_17  and  O2_18 
REMARK    7  A    between atoms: C22_24  and  O3_25 
REMARK    8  A    between atoms: O3_25  and  C23_26 
REMARK    9  A    between atoms: C24_28  and  C25_29 
REMARK   10  A    between atoms: C25_29  and  O5_30 
REMARK   11  A    between atoms: C26_31  and  O6_32 
REMARK   12  A    between atoms: C27_33  and  O7_34 
REMARK   13  A    between atoms: C28_35  and  O8_36 
REMARK   14  A    between atoms: C32_40  and  C33_41 
ROOT
HETATM    1  C10 UNL     1     -16.226   6.653  17.535  1.00  0.00    -0.002 C 
HETATM    2  C11 UNL     1     -15.468   7.671  18.403  1.00  0.00     0.006 C 
HETATM    3  C12 UNL     1     -14.599   8.408  17.397  1.00  0.00     0.011 C 
HETATM    4  C13 UNL     1     -15.543   8.676  16.203  1.00  0.00    -0.029 C 
HETATM    5  C14 UNL     1     -16.367   9.949  16.565  1.00  0.00     0.016 C 
HETATM    6  C15 UNL     1     -14.816   8.913  14.822  1.00  0.00     0.043 C 
HETATM    7  C16 UNL     1     -14.055  10.258  14.672  1.00  0.00     0.147 C 
HETATM    8  C17 UNL     1     -12.600  10.230  14.992  1.00  0.00     0.009 C 
HETATM    9  C18 UNL     1     -11.841   9.123  15.069  1.00  0.00    -0.066 C 
HETATM   10  C19 UNL     1     -12.442   7.748  14.800  1.00  0.00     0.031 C 
HETATM   11  C20 UNL     1     -11.511   6.929  13.889  1.00  0.00     0.013 C 
HETATM   12  C21 UNL     1     -10.117   6.796  14.492  1.00  0.00     0.034 C 
HETATM   13  C22 UNL     1      -9.463   8.167  14.695  1.00  0.00     0.136 C 
HETATM   14  C29 UNL     1     -10.365   9.141  15.538  1.00  0.00     0.002 C 
HETATM   15  C30 UNL     1      -9.711  10.545  15.454  1.00  0.00     0.022 C 
HETATM   16  C31 UNL     1     -10.351   8.748  17.034  1.00  0.00     0.022 C 
HETATM   17  C32 UNL     1     -13.944   7.711  14.322  1.00  0.00     0.027 C 
HETATM   18  C34 UNL     1     -14.555   6.346  14.751  1.00  0.00     0.018 C 
HETATM   19  C35 UNL     1     -16.061   6.425  14.977  1.00  0.00     0.011 C 
HETATM   20  C36 UNL     1     -16.482   7.374  16.146  1.00  0.00    -0.032 C 
HETATM   21  C37 UNL     1     -17.954   7.730  15.852  1.00  0.00     0.016 C 
ENDROOT
BRANCH  13  22
HETATM   22  O3  UNL     1      -8.191   8.079  15.351  1.00  0.00    -0.352 OA
BRANCH  22  23
HETATM   23  C23 UNL     1      -7.134   7.475  14.608  1.00  0.00     0.292 C 
HETATM   24  O4  UNL     1      -7.675   6.414  13.815  1.00  0.00    -0.348 OA
HETATM   25  C24 UNL     1      -6.742   5.435  13.349  1.00  0.00     0.179 C 
HETATM   26  C26 UNL     1      -5.270   5.828  13.562  1.00  0.00     0.180 C 
HETATM   27  C27 UNL     1      -4.975   6.171  15.019  1.00  0.00     0.183 C 
HETATM   28  C28 UNL     1      -6.122   6.956  15.658  1.00  0.00     0.204 C 
BRANCH  25  29
HETATM   29  C25 UNL     1      -7.141   4.029  13.852  1.00  0.00     0.198 C 
BRANCH  29  30
HETATM   30  O5  UNL     1      -8.408   3.556  13.416  1.00  0.00    -0.398 OA
HETATM   31  H40 UNL     1      -9.074   4.274  13.482  1.00  0.00     0.209 HD
ENDBRANCH  29  30
ENDBRANCH  25  29
BRANCH  26  32
HETATM   32  O6  UNL     1      -4.385   4.806  13.102  1.00  0.00    -0.390 OA
HETATM   33  H42 UNL     1      -3.548   5.247  12.874  1.00  0.00     0.210 HD
ENDBRANCH  26  32
BRANCH  27  34
HETATM   34  O7  UNL     1      -3.764   6.946  15.049  1.00  0.00    -0.390 OA
HETATM   35  H44 UNL     1      -3.455   6.943  15.973  1.00  0.00     0.210 HD
ENDBRANCH  27  34
BRANCH  28  36
HETATM   36  O8  UNL     1      -6.792   6.082  16.586  1.00  0.00    -0.388 OA
HETATM   37  H46 UNL     1      -7.628   6.536  16.817  1.00  0.00     0.210 HD
ENDBRANCH  28  36
ENDBRANCH  22  23
ENDBRANCH  13  22
BRANCH  17  38
HETATM   38  C33 UNL     1     -13.974   7.795  12.782  1.00  0.00     0.241 C 
HETATM   39  O9  UNL     1     -14.797   7.235  12.062  1.00  0.00    -0.306 OA
ENDBRANCH  17  38
BRANCH   7  40
HETATM   40  O2  UNL     1     -14.143  10.690  13.312  1.00  0.00    -0.391 OA
HETATM   41  H28 UNL     1     -13.839  11.613  13.280  1.00  0.00     0.210 HD
ENDBRANCH   7  40
BRANCH   1  42
HETATM   42  C8  UNL     1     -17.349   5.915  18.330  1.00  0.00    -0.010 C 
HETATM   43  C9  UNL     1     -16.973   5.697  19.802  1.00  0.00     0.010 C 
BRANCH  42  44
HETATM   44  C7  UNL     1     -17.982   4.698  17.604  1.00  0.00     0.031 C 
BRANCH  44  45
HETATM   45  C6  UNL     1     -17.051   3.604  17.157  1.00  0.00    -0.027 C 
HETATM   46  C5  UNL     1     -17.160   2.990  15.965  1.00  0.00     0.006 C 
BRANCH  46  47
HETATM   47  C2  UNL     1     -16.317   1.866  15.391  1.00  0.00     0.070 C 
HETATM   48  C3  UNL     1     -15.014   2.432  14.805  1.00  0.00     0.050 C 
HETATM   49  C4  UNL     1     -15.939   0.798  16.431  1.00  0.00     0.050 C 
BRANCH  47  50
HETATM   50  O1  UNL     1     -17.082   1.154  14.403  1.00  0.00    -0.382 OA
HETATM   51  C1  UNL     1     -16.410   0.748  13.219  1.00  0.00     0.202 C 
ENDBRANCH  47  50
ENDBRANCH  46  47
ENDBRANCH  44  45
ENDBRANCH  42  44
ENDBRANCH   1  42
TORSDOF 14
ENDMDL
MODEL 9
REMARK minimizedAffinity -7.39570236
REMARK CNNscore 0.206461489
REMARK CNNaffinity 5.92042017
REMARK  14 active torsions:
REMARK  status: ('A' for Active; 'I' for Inactive)
REMARK    1  A    between atoms: O1_2  and  C2_3 
REMARK    2  A    between atoms: C2_3  and  C5_6 
REMARK    3  A    between atoms: C6_7  and  C7_8 
REMARK    4  A    between atoms: C7_8  and  C8_9 
REMARK    5  A    between atoms: C8_9  and  C10_11 
REMARK    6  A    between atoms: C16_17  and  O2_18 
REMARK    7  A    between atoms: C22_24  and  O3_25 
REMARK    8  A    between atoms: O3_25  and  C23_26 
REMARK    9  A    between atoms: C24_28  and  C25_29 
REMARK   10  A    between atoms: C25_29  and  O5_30 
REMARK   11  A    between atoms: C26_31  and  O6_32 
REMARK   12  A    between atoms: C27_33  and  O7_34 
REMARK   13  A    between atoms: C28_35  and  O8_36 
REMARK   14  A    between atoms: C32_40  and  C33_41 
ROOT
HETATM    1  C10 UNL     1      -6.844  13.498  20.166  1.00  0.00    -0.002 C 
HETATM    2  C11 UNL     1      -5.554  13.258  20.967  1.00  0.00     0.006 C 
HETATM    3  C12 UNL     1      -4.461  13.415  19.923  1.00  0.00     0.011 C 
HETATM    4  C13 UNL     1      -4.877  14.671  19.122  1.00  0.00    -0.029 C 
HETATM    5  C14 UNL     1      -4.396  15.904  19.947  1.00  0.00     0.016 C 
HETATM    6  C15 UNL     1      -4.271  14.761  17.667  1.00  0.00     0.043 C 
HETATM    7  C16 UNL     1      -2.751  15.065  17.577  1.00  0.00     0.147 C 
HETATM    8  C17 UNL     1      -1.850  13.884  17.460  1.00  0.00     0.009 C 
HETATM    9  C18 UNL     1      -2.232  12.646  17.098  1.00  0.00    -0.066 C 
HETATM   10  C19 UNL     1      -3.685  12.352  16.745  1.00  0.00     0.031 C 
HETATM   11  C20 UNL     1      -3.760  11.502  15.464  1.00  0.00     0.013 C 
HETATM   12  C21 UNL     1      -2.972  10.205  15.609  1.00  0.00     0.034 C 
HETATM   13  C22 UNL     1      -1.490  10.481  15.886  1.00  0.00     0.136 C 
HETATM   14  C29 UNL     1      -1.278  11.426  17.124  1.00  0.00     0.002 C 
HETATM   15  C30 UNL     1       0.223  11.819  17.138  1.00  0.00     0.022 C 
HETATM   16  C31 UNL     1      -1.536  10.666  18.447  1.00  0.00     0.022 C 
HETATM   17  C32 UNL     1      -4.670  13.583  16.713  1.00  0.00     0.027 C 
HETATM   18  C34 UNL     1      -6.104  13.062  17.019  1.00  0.00     0.018 C 
HETATM   19  C35 UNL     1      -6.983  14.123  17.674  1.00  0.00     0.011 C 
HETATM   20  C36 UNL     1      -6.480  14.593  19.077  1.00  0.00    -0.032 C 
HETATM   21  C37 UNL     1      -7.136  15.973  19.288  1.00  0.00     0.016 C 
ENDROOT
BRANCH  13  22
HETATM   22  O3  UNL     1      -0.741   9.281  16.124  1.00  0.00    -0.352 OA
BRANCH  22  23
HETATM   23  C23 UNL     1      -0.122   8.683  14.987  1.00  0.00     0.292 C 
HETATM   24  O4  UNL     1      -1.101   7.923  14.274  1.00  0.00    -0.348 OA
HETATM   25  C24 UNL     1      -0.598   6.926  13.380  1.00  0.00     0.179 C 
HETATM   26  C26 UNL     1       0.919   7.012  13.140  1.00  0.00     0.180 C 
HETATM   27  C27 UNL     1       1.706   6.980  14.448  1.00  0.00     0.183 C 
HETATM   28  C28 UNL     1       1.013   7.790  15.545  1.00  0.00     0.204 C 
BRANCH  25  29
HETATM   29  C25 UNL     1      -1.137   5.531  13.772  1.00  0.00     0.198 C 
BRANCH  29  30
HETATM   30  O5  UNL     1      -1.615   5.408  15.105  1.00  0.00    -0.398 OA
HETATM   31  H40 UNL     1      -0.997   5.853  15.724  1.00  0.00     0.209 HD
ENDBRANCH  29  30
ENDBRANCH  25  29
BRANCH  26  32
HETATM   32  O6  UNL     1       1.369   5.981  12.263  1.00  0.00    -0.390 OA
HETATM   33  H42 UNL     1       2.177   6.314  11.835  1.00  0.00     0.210 HD
ENDBRANCH  26  32
BRANCH  27  34
HETATM   34  O7  UNL     1       3.013   7.518  14.183  1.00  0.00    -0.390 OA
HETATM   35  H44 UNL     1       3.576   7.265  14.937  1.00  0.00     0.210 HD
ENDBRANCH  27  34
BRANCH  28  36
HETATM   36  O8  UNL     1       0.471   6.861  16.503  1.00  0.00    -0.388 OA
HETATM   37  H46 UNL     1      -0.132   7.388  17.067  1.00  0.00     0.210 HD
ENDBRANCH  28  36
ENDBRANCH  22  23
ENDBRANCH  13  22
BRANCH  17  38
HETATM   38  C33 UNL     1      -4.664  14.185  15.293  1.00  0.00     0.241 C 
HETATM   39  O9  UNL     1      -3.685  14.228  14.551  1.00  0.00    -0.306 OA
ENDBRANCH  17  38
BRANCH   7  40
HETATM   40  O2  UNL     1      -2.506  15.854  16.411  1.00  0.00    -0.391 OA
HETATM   41  H28 UNL     1      -1.598  16.196  16.477  1.00  0.00     0.210 HD
ENDBRANCH   7  40
BRANCH   1  42
HETATM   42  C8  UNL     1      -8.103  13.597  21.084  1.00  0.00    -0.010 C 
HETATM   43  C9  UNL     1      -7.781  13.274  22.549  1.00  0.00     0.010 C 
BRANCH  42  44
HETATM   44  C7  UNL     1      -9.391  12.947  20.512  1.00  0.00     0.031 C 
BRANCH  44  45
HETATM   45  C6  UNL     1     -10.248  12.164  21.468  1.00  0.00    -0.027 C 
HETATM   46  C5  UNL     1     -10.678  10.914  21.213  1.00  0.00     0.006 C 
BRANCH  46  47
HETATM   47  C2  UNL     1     -11.559  10.018  22.063  1.00  0.00     0.070 C 
HETATM   48  C3  UNL     1     -10.832   9.650  23.367  1.00  0.00     0.050 C 
HETATM   49  C4  UNL     1     -12.901  10.666  22.441  1.00  0.00     0.050 C 
BRANCH  47  50
HETATM   50  O1  UNL     1     -11.921   8.850  21.307  1.00  0.00    -0.382 OA
HETATM   51  C1  UNL     1     -12.217   9.024  19.928  1.00  0.00     0.202 C 
ENDBRANCH  47  50
ENDBRANCH  46  47
ENDBRANCH  44  45
ENDBRANCH  42  44
ENDBRANCH   1  42
TORSDOF 14
ENDMDL
