MODEL 1
REMARK minimizedAffinity -8.19198704
REMARK CNNscore 0.46485427
REMARK CNNaffinity 6.91261625
REMARK  15 active torsions:
REMARK  status: ('A' for Active; 'I' for Inactive)
REMARK    1  A    between atoms: O1_2  and  C2_3 
REMARK    2  A    between atoms: C3_4  and  O2_5 
REMARK    3  A    between atoms: C5_7  and  O3_8 
REMARK    4  A    between atoms: O3_8  and  C6_9 
REMARK    5  A    between atoms: C12_15  and  O4_16 
REMARK    6  A    between atoms: C13_17  and  O5_18 
REMARK    7  A    between atoms: C15_20  and  O6_21 
REMARK    8  A    between atoms: C21_27  and  C22_28 
REMARK    9  A    between atoms: C22_28  and  C24_30 
REMARK   10  A    between atoms: C25_31  and  C26_32 
REMARK   11  A    between atoms: C26_32  and  C28_34 
REMARK   12  A    between atoms: C28_34  and  C30_36 
REMARK   13  A    between atoms: C30_36  and  O7_37 
REMARK   14  A    between atoms: C32_39  and  O8_40 
REMARK   15  A    between atoms: C35_44  and  O10_45 
ROOT
HETATM    1  C6  UNL     1     -12.674  11.045  14.010  1.00  0.00     0.154 C 
HETATM    2  C7  UNL     1     -11.583  11.553  14.954  1.00  0.00     0.035 C 
HETATM    3  C8  UNL     1     -10.263  10.784  14.793  1.00  0.00     0.012 C 
HETATM    4  C9  UNL     1     -10.419   9.236  14.960  1.00  0.00    -0.029 C 
HETATM    5  C10 UNL     1     -10.770   9.009  16.451  1.00  0.00     0.016 C 
HETATM    6  C11 UNL     1     -11.508   8.791  13.923  1.00  0.00     0.054 C 
HETATM    7  C12 UNL     1     -12.862   9.510  14.093  1.00  0.00     0.154 C 
HETATM    8  C13 UNL     1     -11.680   7.267  13.784  1.00  0.00     0.128 C 
HETATM    9  C14 UNL     1     -10.360   6.590  13.413  1.00  0.00     0.071 C 
HETATM   10  C15 UNL     1      -9.210   6.943  14.377  1.00  0.00     0.071 C 
HETATM   11  C16 UNL     1      -9.081   8.500  14.546  1.00  0.00     0.029 C 
HETATM   12  C17 UNL     1      -7.848   8.877  15.402  1.00  0.00     0.009 C 
HETATM   13  C18 UNL     1      -6.540   8.256  14.874  1.00  0.00     0.010 C 
HETATM   14  C19 UNL     1      -6.625   6.727  14.740  1.00  0.00    -0.031 C 
HETATM   15  C20 UNL     1      -6.652   6.089  16.149  1.00  0.00     0.016 C 
HETATM   16  C21 UNL     1      -5.523   6.051  13.862  1.00  0.00     0.004 C 
HETATM   17  C31 UNL     1      -6.196   4.716  13.436  1.00  0.00     0.038 C 
HETATM   18  C32 UNL     1      -7.715   4.930  13.544  1.00  0.00     0.126 C 
HETATM   19  C33 UNL     1      -7.859   6.419  13.844  1.00  0.00     0.058 C 
ENDROOT
BRANCH   1  20
HETATM   20  O3  UNL     1     -13.876  11.759  14.316  1.00  0.00    -0.351 OA
BRANCH  20  21
HETATM   21  C5  UNL     1     -13.829  12.488  15.542  1.00  0.00     0.291 C 
HETATM   22  C3  UNL     1     -14.414  13.917  15.414  1.00  0.00     0.207 C 
HETATM   23  C2  UNL     1     -15.962  13.912  15.375  1.00  0.00     0.185 C 
HETATM   24  C35 UNL     1     -16.571  12.970  16.426  1.00  0.00     0.176 C 
HETATM   25  C34 UNL     1     -15.878  11.604  16.364  1.00  0.00     0.205 C 
HETATM   26  O9  UNL     1     -14.468  11.718  16.569  1.00  0.00    -0.356 OA
BRANCH  22  27
HETATM   27  O2  UNL     1     -13.891  14.702  16.508  1.00  0.00    -0.383 OA
HETATM   28  C4  UNL     1     -12.473  14.675  16.599  1.00  0.00     0.202 C 
ENDBRANCH  22  27
BRANCH  23  29
HETATM   29  O1  UNL     1     -16.460  13.506  14.082  1.00  0.00    -0.385 OA
HETATM   30  C1  UNL     1     -17.865  13.687  13.949  1.00  0.00     0.202 C 
ENDBRANCH  23  29
BRANCH  24  31
HETATM   31  O10 UNL     1     -16.439  13.583  17.718  1.00  0.00    -0.386 OA
HETATM   32  C36 UNL     1     -17.217  12.961  18.734  1.00  0.00     0.202 C 
ENDBRANCH  24  31
ENDBRANCH  20  21
ENDBRANCH   1  20
BRANCH   7  33
HETATM   33  O4  UNL     1     -13.518   9.125  15.302  1.00  0.00    -0.393 OA
HETATM   34  H20 UNL     1     -13.295   8.183  15.466  1.00  0.00     0.210 HD
ENDBRANCH   7  33
BRANCH   8  35
HETATM   35  O5  UNL     1     -12.206   6.705  14.987  1.00  0.00    -0.395 OA
HETATM   36  H22 UNL     1     -12.380   5.757  14.799  1.00  0.00     0.210 HD
ENDBRANCH   8  35
BRANCH  10  37
HETATM   37  O6  UNL     1      -9.485   6.291  15.613  1.00  0.00    -0.389 OA
HETATM   38  H25 UNL     1     -10.428   6.429  15.817  1.00  0.00     0.210 HD
ENDBRANCH  10  37
BRANCH  18  39
HETATM   39  O8  UNL     1      -8.346   4.598  12.312  1.00  0.00    -0.395 OA
HETATM   40  H55 UNL     1      -8.158   3.657  12.150  1.00  0.00     0.210 HD
ENDBRANCH  18  39
BRANCH  16  41
HETATM   41  C22 UNL     1      -4.103   5.830  14.447  1.00  0.00     0.009 C 
HETATM   42  C23 UNL     1      -3.684   6.913  15.448  1.00  0.00     0.014 C 
BRANCH  41  43
HETATM   43  C24 UNL     1      -3.086   5.663  13.324  1.00  0.00    -0.026 C 
HETATM   44  C25 UNL     1      -2.700   4.514  12.742  1.00  0.00    -0.026 C 
BRANCH  44  45
HETATM   45  C26 UNL     1      -1.670   4.355  11.631  1.00  0.00     0.009 C 
HETATM   46  C27 UNL     1      -0.243   4.117  12.139  1.00  0.00     0.014 C 
BRANCH  45  47
HETATM   47  C28 UNL     1      -2.167   3.310  10.586  1.00  0.00     0.012 C 
HETATM   48  C29 UNL     1      -3.621   3.526  10.147  1.00  0.00     0.012 C 
BRANCH  47  49
HETATM   49  C30 UNL     1      -1.940   1.854  11.035  1.00  0.00     0.168 C 
BRANCH  49  50
HETATM   50  O7  UNL     1      -3.135   1.213  11.452  1.00  0.00    -0.400 OA
HETATM   51  H51 UNL     1      -3.697   1.076  10.665  1.00  0.00     0.209 HD
ENDBRANCH  49  50
ENDBRANCH  47  49
ENDBRANCH  45  47
ENDBRANCH  44  45
ENDBRANCH  41  43
ENDBRANCH  16  41
TORSDOF 15
ENDMDL
MODEL 2
REMARK minimizedAffinity -8.02972221
REMARK CNNscore 0.437169671
REMARK CNNaffinity 6.4805932
REMARK  15 active torsions:
REMARK  status: ('A' for Active; 'I' for Inactive)
REMARK    1  A    between atoms: O1_2  and  C2_3 
REMARK    2  A    between atoms: C3_4  and  O2_5 
REMARK    3  A    between atoms: C5_7  and  O3_8 
REMARK    4  A    between atoms: O3_8  and  C6_9 
REMARK    5  A    between atoms: C12_15  and  O4_16 
REMARK    6  A    between atoms: C13_17  and  O5_18 
REMARK    7  A    between atoms: C15_20  and  O6_21 
REMARK    8  A    between atoms: C21_27  and  C22_28 
REMARK    9  A    between atoms: C22_28  and  C24_30 
REMARK   10  A    between atoms: C25_31  and  C26_32 
REMARK   11  A    between atoms: C26_32  and  C28_34 
REMARK   12  A    between atoms: C28_34  and  C30_36 
REMARK   13  A    between atoms: C30_36  and  O7_37 
REMARK   14  A    between atoms: C32_39  and  O8_40 
REMARK   15  A    between atoms: C35_44  and  O10_45 
ROOT
HETATM    1  C6  UNL     1       1.116   8.654  12.584  1.00  0.00     0.154 C 
HETATM    2  C7  UNL     1      -0.342   8.191  12.578  1.00  0.00     0.035 C 
HETATM    3  C8  UNL     1      -1.256   9.118  13.392  1.00  0.00     0.012 C 
HETATM    4  C9  UNL     1      -0.779   9.324  14.868  1.00  0.00    -0.029 C 
HETATM    5  C10 UNL     1      -0.970   7.954  15.564  1.00  0.00     0.016 C 
HETATM    6  C11 UNL     1       0.696   9.850  14.784  1.00  0.00     0.054 C 
HETATM    7  C12 UNL     1       1.650   8.913  14.014  1.00  0.00     0.154 C 
HETATM    8  C13 UNL     1       1.296  10.303  16.128  1.00  0.00     0.128 C 
HETATM    9  C14 UNL     1       0.438  11.386  16.783  1.00  0.00     0.071 C 
HETATM   10  C15 UNL     1      -1.040  10.974  16.934  1.00  0.00     0.071 C 
HETATM   11  C16 UNL     1      -1.622  10.467  15.565  1.00  0.00     0.029 C 
HETATM   12  C17 UNL     1      -3.139  10.177  15.666  1.00  0.00     0.009 C 
HETATM   13  C18 UNL     1      -3.942  11.374  16.213  1.00  0.00     0.010 C 
HETATM   14  C19 UNL     1      -3.420  11.863  17.574  1.00  0.00    -0.031 C 
HETATM   15  C20 UNL     1      -3.762  10.816  18.661  1.00  0.00     0.016 C 
HETATM   16  C21 UNL     1      -3.894  13.283  18.022  1.00  0.00     0.004 C 
HETATM   17  C31 UNL     1      -2.788  13.710  19.029  1.00  0.00     0.038 C 
HETATM   18  C32 UNL     1      -1.534  12.889  18.687  1.00  0.00     0.126 C 
HETATM   19  C33 UNL     1      -1.905  12.168  17.394  1.00  0.00     0.058 C 
ENDROOT
BRANCH   1  20
HETATM   20  O3  UNL     1       1.885   7.669  11.886  1.00  0.00    -0.351 OA
BRANCH  20  21
HETATM   21  C5  UNL     1       1.388   7.351  10.586  1.00  0.00     0.291 C 
HETATM   22  C3  UNL     1       2.238   7.974   9.450  1.00  0.00     0.207 C 
HETATM   23  C2  UNL     1       3.565   7.208   9.226  1.00  0.00     0.185 C 
HETATM   24  C35 UNL     1       3.368   5.683   9.233  1.00  0.00     0.176 C 
HETATM   25  C34 UNL     1       2.535   5.271  10.452  1.00  0.00     0.205 C 
HETATM   26  O9  UNL     1       1.265   5.928  10.468  1.00  0.00    -0.356 OA
BRANCH  22  27
HETATM   27  O2  UNL     1       1.415   8.014   8.263  1.00  0.00    -0.383 OA
HETATM   28  C4  UNL     1       0.070   8.395   8.516  1.00  0.00     0.202 C 
ENDBRANCH  22  27
BRANCH  23  29
HETATM   29  O1  UNL     1       4.541   7.529  10.241  1.00  0.00    -0.385 OA
HETATM   30  C1  UNL     1       4.852   8.917  10.289  1.00  0.00     0.202 C 
ENDBRANCH  23  29
BRANCH  24  31
HETATM   31  O10 UNL     1       2.745   5.299   7.998  1.00  0.00    -0.386 OA
HETATM   32  C36 UNL     1       3.489   4.345   7.248  1.00  0.00     0.202 C 
ENDBRANCH  24  31
ENDBRANCH  20  21
ENDBRANCH   1  20
BRANCH   7  33
HETATM   33  O4  UNL     1       1.876   7.692  14.721  1.00  0.00    -0.393 OA
HETATM   34  H20 UNL     1       1.860   7.904  15.679  1.00  0.00     0.210 HD
ENDBRANCH   7  33
BRANCH   8  35
HETATM   35  O5  UNL     1       1.456   9.193  17.012  1.00  0.00    -0.395 OA
HETATM   36  H22 UNL     1       1.926   9.532  17.803  1.00  0.00     0.210 HD
ENDBRANCH   8  35
BRANCH  10  37
HETATM   37  O6  UNL     1      -1.093   9.970  17.944  1.00  0.00    -0.389 OA
HETATM   38  H25 UNL     1      -0.367   9.341  17.775  1.00  0.00     0.210 HD
ENDBRANCH  10  37
BRANCH  18  39
HETATM   39  O8  UNL     1      -0.422  13.754  18.483  1.00  0.00    -0.395 OA
HETATM   40  H55 UNL     1      -0.284  14.229  19.321  1.00  0.00     0.210 HD
ENDBRANCH  18  39
BRANCH  16  41
HETATM   41  C22 UNL     1      -5.320  13.469  18.605  1.00  0.00     0.009 C 
HETATM   42  C23 UNL     1      -6.189  14.429  17.786  1.00  0.00     0.014 C 
BRANCH  41  43
HETATM   43  C24 UNL     1      -5.244  13.874  20.073  1.00  0.00    -0.026 C 
HETATM   44  C25 UNL     1      -6.018  13.430  21.079  1.00  0.00    -0.026 C 
BRANCH  44  45
HETATM   45  C26 UNL     1      -5.946  13.853  22.540  1.00  0.00     0.009 C 
HETATM   46  C27 UNL     1      -4.820  14.849  22.841  1.00  0.00     0.014 C 
BRANCH  45  47
HETATM   47  C28 UNL     1      -7.355  14.301  23.037  1.00  0.00     0.012 C 
HETATM   48  C29 UNL     1      -7.331  14.980  24.413  1.00  0.00     0.012 C 
BRANCH  47  49
HETATM   49  C30 UNL     1      -8.395  13.166  23.004  1.00  0.00     0.168 C 
BRANCH  49  50
HETATM   50  O7  UNL     1      -8.591  12.559  24.272  1.00  0.00    -0.400 OA
HETATM   51  H51 UNL     1      -9.041  13.204  24.851  1.00  0.00     0.209 HD
ENDBRANCH  49  50
ENDBRANCH  47  49
ENDBRANCH  45  47
ENDBRANCH  44  45
ENDBRANCH  41  43
ENDBRANCH  16  41
TORSDOF 15
ENDMDL
MODEL 3
REMARK minimizedAffinity -8.31819344
REMARK CNNscore 0.368568957
REMARK CNNaffinity 6.8189435
REMARK  15 active torsions:
REMARK  status: ('A' for Active; 'I' for Inactive)
REMARK    1  A    between atoms: O1_2  and  C2_3 
REMARK    2  A    between atoms: C3_4  and  O2_5 
REMARK    3  A    between atoms: C5_7  and  O3_8 
REMARK    4  A    between atoms: O3_8  and  C6_9 
REMARK    5  A    between atoms: C12_15  and  O4_16 
REMARK    6  A    between atoms: C13_17  and  O5_18 
REMARK    7  A    between atoms: C15_20  and  O6_21 
REMARK    8  A    between atoms: C21_27  and  C22_28 
REMARK    9  A    between atoms: C22_28  and  C24_30 
REMARK   10  A    between atoms: C25_31  and  C26_32 
REMARK   11  A    between atoms: C26_32  and  C28_34 
REMARK   12  A    between atoms: C28_34  and  C30_36 
REMARK   13  A    between atoms: C30_36  and  O7_37 
REMARK   14  A    between atoms: C32_39  and  O8_40 
REMARK   15  A    between atoms: C35_44  and  O10_45 
ROOT
HETATM    1  C6  UNL     1     -12.502  10.983  13.984  1.00  0.00     0.154 C 
HETATM    2  C7  UNL     1     -11.431  11.491  14.951  1.00  0.00     0.035 C 
HETATM    3  C8  UNL     1     -10.103  10.734  14.806  1.00  0.00     0.012 C 
HETATM    4  C9  UNL     1     -10.250   9.183  14.957  1.00  0.00    -0.029 C 
HETATM    5  C10 UNL     1     -10.625   8.941  16.439  1.00  0.00     0.016 C 
HETATM    6  C11 UNL     1     -11.318   8.738  13.898  1.00  0.00     0.054 C 
HETATM    7  C12 UNL     1     -12.680   9.446  14.050  1.00  0.00     0.154 C 
HETATM    8  C13 UNL     1     -11.475   7.215  13.743  1.00  0.00     0.128 C 
HETATM    9  C14 UNL     1     -10.144   6.551  13.389  1.00  0.00     0.071 C 
HETATM   10  C15 UNL     1      -9.013   6.904  14.376  1.00  0.00     0.071 C 
HETATM   11  C16 UNL     1      -8.899   8.461  14.560  1.00  0.00     0.029 C 
HETATM   12  C17 UNL     1      -7.684   8.840  15.440  1.00  0.00     0.009 C 
HETATM   13  C18 UNL     1      -6.362   8.233  14.930  1.00  0.00     0.010 C 
HETATM   14  C19 UNL     1      -6.433   6.705  14.782  1.00  0.00    -0.031 C 
HETATM   15  C20 UNL     1      -6.479   6.055  16.185  1.00  0.00     0.016 C 
HETATM   16  C21 UNL     1      -5.310   6.045  13.917  1.00  0.00     0.004 C 
HETATM   17  C31 UNL     1      -5.966   4.709  13.468  1.00  0.00     0.038 C 
HETATM   18  C32 UNL     1      -7.488   4.910  13.552  1.00  0.00     0.126 C 
HETATM   19  C33 UNL     1      -7.649   6.395  13.862  1.00  0.00     0.058 C 
ENDROOT
BRANCH   1  20
HETATM   20  O3  UNL     1     -13.715  11.685  14.275  1.00  0.00    -0.351 OA
BRANCH  20  21
HETATM   21  C5  UNL     1     -14.801  11.364  13.407  1.00  0.00     0.291 C 
HETATM   22  C3  UNL     1     -16.172  11.372  14.130  1.00  0.00     0.207 C 
HETATM   23  C2  UNL     1     -16.687  12.810  14.388  1.00  0.00     0.185 C 
HETATM   24  C35 UNL     1     -16.505  13.724  13.165  1.00  0.00     0.176 C 
HETATM   25  C34 UNL     1     -15.077  13.593  12.624  1.00  0.00     0.205 C 
HETATM   26  O9  UNL     1     -14.768  12.242  12.274  1.00  0.00    -0.356 OA
BRANCH  22  27
HETATM   27  O2  UNL     1     -17.089  10.590  13.334  1.00  0.00    -0.383 OA
HETATM   28  C4  UNL     1     -17.011   9.194  13.586  1.00  0.00     0.202 C 
ENDBRANCH  22  27
BRANCH  23  29
HETATM   29  O1  UNL     1     -16.004  13.427  15.501  1.00  0.00    -0.385 OA
HETATM   30  C1  UNL     1     -16.041  12.632  16.681  1.00  0.00     0.202 C 
ENDBRANCH  23  29
BRANCH  24  31
HETATM   31  O10 UNL     1     -17.490  13.368  12.181  1.00  0.00    -0.386 OA
HETATM   32  C36 UNL     1     -18.720  14.071  12.317  1.00  0.00     0.202 C 
ENDBRANCH  24  31
ENDBRANCH  20  21
ENDBRANCH   1  20
BRANCH   7  33
HETATM   33  O4  UNL     1     -13.353   9.045  15.245  1.00  0.00    -0.393 OA
HETATM   34  H20 UNL     1     -13.125   8.104  15.404  1.00  0.00     0.210 HD
ENDBRANCH   7  33
BRANCH   8  35
HETATM   35  O5  UNL     1     -12.017   6.638  14.932  1.00  0.00    -0.395 OA
HETATM   36  H22 UNL     1     -12.180   5.691  14.733  1.00  0.00     0.210 HD
ENDBRANCH   8  35
BRANCH  10  37
HETATM   37  O6  UNL     1      -9.304   6.240  15.601  1.00  0.00    -0.389 OA
HETATM   38  H25 UNL     1     -10.252   6.368  15.791  1.00  0.00     0.210 HD
ENDBRANCH  10  37
BRANCH  18  39
HETATM   39  O8  UNL     1      -8.095   4.583  12.306  1.00  0.00    -0.395 OA
HETATM   40  H55 UNL     1      -7.898   3.646  12.139  1.00  0.00     0.210 HD
ENDBRANCH  18  39
BRANCH  16  41
HETATM   41  C22 UNL     1      -3.899   5.830  14.525  1.00  0.00     0.009 C 
HETATM   42  C23 UNL     1      -3.156   7.140  14.810  1.00  0.00     0.014 C 
BRANCH  41  43
HETATM   43  C24 UNL     1      -3.083   4.886  13.649  1.00  0.00    -0.026 C 
HETATM   44  C25 UNL     1      -2.654   5.110  12.395  1.00  0.00    -0.026 C 
BRANCH  44  45
HETATM   45  C26 UNL     1      -1.853   4.153  11.521  1.00  0.00     0.009 C 
HETATM   46  C27 UNL     1      -0.337   4.245  11.731  1.00  0.00     0.014 C 
BRANCH  45  47
HETATM   47  C28 UNL     1      -2.434   2.711  11.634  1.00  0.00     0.012 C 
HETATM   48  C29 UNL     1      -1.569   1.646  10.947  1.00  0.00     0.012 C 
BRANCH  47  49
HETATM   49  C30 UNL     1      -3.898   2.613  11.166  1.00  0.00     0.168 C 
BRANCH  49  50
HETATM   50  O7  UNL     1      -4.448   1.316  11.340  1.00  0.00    -0.400 OA
HETATM   51  H51 UNL     1      -4.550   1.155  12.297  1.00  0.00     0.209 HD
ENDBRANCH  49  50
ENDBRANCH  47  49
ENDBRANCH  45  47
ENDBRANCH  44  45
ENDBRANCH  41  43
ENDBRANCH  16  41
TORSDOF 15
ENDMDL
MODEL 4
REMARK minimizedAffinity -7.97663498
REMARK CNNscore 0.300771594
REMARK CNNaffinity 6.47161245
REMARK  15 active torsions:
REMARK  status: ('A' for Active; 'I' for Inactive)
REMARK    1  A    between atoms: O1_2  and  C2_3 
REMARK    2  A    between atoms: C3_4  and  O2_5 
REMARK    3  A    between atoms: C5_7  and  O3_8 
REMARK    4  A    between atoms: O3_8  and  C6_9 
REMARK    5  A    between atoms: C12_15  and  O4_16 
REMARK    6  A    between atoms: C13_17  and  O5_18 
REMARK    7  A    between atoms: C15_20  and  O6_21 
REMARK    8  A    between atoms: C21_27  and  C22_28 
REMARK    9  A    between atoms: C22_28  and  C24_30 
REMARK   10  A    between atoms: C25_31  and  C26_32 
REMARK   11  A    between atoms: C26_32  and  C28_34 
REMARK   12  A    between atoms: C28_34  and  C30_36 
REMARK   13  A    between atoms: C30_36  and  O7_37 
REMARK   14  A    between atoms: C32_39  and  O8_40 
REMARK   15  A    between atoms: C35_44  and  O10_45 
ROOT
HETATM    1  C6  UNL     1     -12.144  10.625  14.552  1.00  0.00     0.154 C 
HETATM    2  C7  UNL     1     -10.992  11.153  15.408  1.00  0.00     0.035 C 
HETATM    3  C8  UNL     1      -9.649  10.495  15.056  1.00  0.00     0.012 C 
HETATM    4  C9  UNL     1      -9.683   8.932  15.130  1.00  0.00    -0.029 C 
HETATM    5  C10 UNL     1      -9.852   8.588  16.631  1.00  0.00     0.016 C 
HETATM    6  C11 UNL     1     -10.848   8.472  14.186  1.00  0.00     0.054 C 
HETATM    7  C12 UNL     1     -12.219   9.078  14.547  1.00  0.00     0.154 C 
HETATM    8  C13 UNL     1     -10.932   6.952  13.961  1.00  0.00     0.128 C 
HETATM    9  C14 UNL     1      -9.619   6.398  13.406  1.00  0.00     0.071 C 
HETATM   10  C15 UNL     1      -8.396   6.774  14.265  1.00  0.00     0.071 C 
HETATM   11  C16 UNL     1      -8.353   8.323  14.527  1.00  0.00     0.029 C 
HETATM   12  C17 UNL     1      -7.061   8.737  15.273  1.00  0.00     0.009 C 
HETATM   13  C18 UNL     1      -5.780   8.247  14.568  1.00  0.00     0.010 C 
HETATM   14  C19 UNL     1      -5.778   6.727  14.338  1.00  0.00    -0.031 C 
HETATM   15  C20 UNL     1      -5.607   6.003  15.695  1.00  0.00     0.016 C 
HETATM   16  C21 UNL     1      -4.736   6.190  13.303  1.00  0.00     0.004 C 
HETATM   17  C31 UNL     1      -5.362   4.838  12.859  1.00  0.00     0.038 C 
HETATM   18  C32 UNL     1      -6.871   4.932  13.142  1.00  0.00     0.126 C 
HETATM   19  C33 UNL     1      -7.080   6.385  13.558  1.00  0.00     0.058 C 
ENDROOT
BRANCH   1  20
HETATM   20  O3  UNL     1     -13.350  11.228  15.032  1.00  0.00    -0.351 OA
BRANCH  20  21
HETATM   21  C5  UNL     1     -13.224  11.857  16.306  1.00  0.00     0.291 C 
HETATM   22  C3  UNL     1     -13.893  13.254  16.357  1.00  0.00     0.207 C 
HETATM   23  C2  UNL     1     -15.435  13.158  16.459  1.00  0.00     0.185 C 
HETATM   24  C35 UNL     1     -15.890  12.098  17.476  1.00  0.00     0.176 C 
HETATM   25  C34 UNL     1     -15.135  10.787  17.233  1.00  0.00     0.205 C 
HETATM   26  O9  UNL     1     -13.720  10.969  17.317  1.00  0.00    -0.356 OA
BRANCH  22  27
HETATM   27  O2  UNL     1     -13.309  13.977  17.462  1.00  0.00    -0.383 OA
HETATM   28  C4  UNL     1     -11.920  14.232  17.304  1.00  0.00     0.202 C 
ENDBRANCH  22  27
BRANCH  23  29
HETATM   29  O1  UNL     1     -16.032  12.829  15.186  1.00  0.00    -0.385 OA
HETATM   30  C1  UNL     1     -17.454  12.790  15.237  1.00  0.00     0.202 C 
ENDBRANCH  23  29
BRANCH  24  31
HETATM   31  O10 UNL     1     -15.667  12.612  18.798  1.00  0.00    -0.386 OA
HETATM   32  C36 UNL     1     -16.123  11.751  19.836  1.00  0.00     0.202 C 
ENDBRANCH  24  31
ENDBRANCH  20  21
ENDBRANCH   1  20
BRANCH   7  33
HETATM   33  O4  UNL     1     -12.711   8.572  15.789  1.00  0.00    -0.393 OA
HETATM   34  H20 UNL     1     -12.409   7.641  15.863  1.00  0.00     0.210 HD
ENDBRANCH   7  33
BRANCH   8  35
HETATM   35  O5  UNL     1     -11.284   6.279  15.170  1.00  0.00    -0.395 OA
HETATM   36  H22 UNL     1     -11.414   5.335  14.937  1.00  0.00     0.210 HD
ENDBRANCH   8  35
BRANCH  10  37
HETATM   37  O6  UNL     1      -8.489   6.028  15.475  1.00  0.00    -0.389 OA
HETATM   38  H25 UNL     1      -9.411   6.083  15.787  1.00  0.00     0.210 HD
ENDBRANCH  10  37
BRANCH  18  39
HETATM   39  O8  UNL     1      -7.610   4.631  11.963  1.00  0.00    -0.395 OA
HETATM   40  H55 UNL     1      -7.379   3.719  11.717  1.00  0.00     0.210 HD
ENDBRANCH  18  39
BRANCH  16  41
HETATM   41  C22 UNL     1      -3.249   6.038  13.719  1.00  0.00     0.009 C 
HETATM   42  C23 UNL     1      -3.036   6.089  15.237  1.00  0.00     0.014 C 
BRANCH  41  43
HETATM   43  C24 UNL     1      -2.386   7.057  12.984  1.00  0.00    -0.026 C 
HETATM   44  C25 UNL     1      -1.329   6.805  12.192  1.00  0.00    -0.026 C 
BRANCH  44  45
HETATM   45  C26 UNL     1      -0.462   7.832  11.475  1.00  0.00     0.009 C 
HETATM   46  C27 UNL     1       0.549   8.534  12.388  1.00  0.00     0.014 C 
BRANCH  45  47
HETATM   47  C28 UNL     1       0.156   7.205  10.188  1.00  0.00     0.012 C 
HETATM   48  C29 UNL     1       1.261   6.180  10.475  1.00  0.00     0.012 C 
BRANCH  47  49
HETATM   49  C30 UNL     1       0.637   8.260   9.175  1.00  0.00     0.168 C 
BRANCH  49  50
HETATM   50  O7  UNL     1      -0.391   9.157   8.782  1.00  0.00    -0.400 OA
HETATM   51  H51 UNL     1      -0.609   9.723   9.548  1.00  0.00     0.209 HD
ENDBRANCH  49  50
ENDBRANCH  47  49
ENDBRANCH  45  47
ENDBRANCH  44  45
ENDBRANCH  41  43
ENDBRANCH  16  41
TORSDOF 15
ENDMDL
MODEL 5
REMARK minimizedAffinity -7.67724752
REMARK CNNscore 0.281709015
REMARK CNNaffinity 6.2903285
REMARK  15 active torsions:
REMARK  status: ('A' for Active; 'I' for Inactive)
REMARK    1  A    between atoms: O1_2  and  C2_3 
REMARK    2  A    between atoms: C3_4  and  O2_5 
REMARK    3  A    between atoms: C5_7  and  O3_8 
REMARK    4  A    between atoms: O3_8  and  C6_9 
REMARK    5  A    between atoms: C12_15  and  O4_16 
REMARK    6  A    between atoms: C13_17  and  O5_18 
REMARK    7  A    between atoms: C15_20  and  O6_21 
REMARK    8  A    between atoms: C21_27  and  C22_28 
REMARK    9  A    between atoms: C22_28  and  C24_30 
REMARK   10  A    between atoms: C25_31  and  C26_32 
REMARK   11  A    between atoms: C26_32  and  C28_34 
REMARK   12  A    between atoms: C28_34  and  C30_36 
REMARK   13  A    between atoms: C30_36  and  O7_37 
REMARK   14  A    between atoms: C32_39  and  O8_40 
REMARK   15  A    between atoms: C35_44  and  O10_45 
ROOT
HETATM    1  C6  UNL     1       0.810   7.495  11.987  1.00  0.00     0.154 C 
HETATM    2  C7  UNL     1      -0.580   8.031  11.640  1.00  0.00     0.035 C 
HETATM    3  C8  UNL     1      -1.035   9.144  12.595  1.00  0.00     0.012 C 
HETATM    4  C9  UNL     1      -0.997   8.727  14.103  1.00  0.00    -0.029 C 
HETATM    5  C10 UNL     1      -2.104   7.657  14.269  1.00  0.00     0.016 C 
HETATM    6  C11 UNL     1       0.468   8.247  14.389  1.00  0.00     0.054 C 
HETATM    7  C12 UNL     1       0.936   7.093  13.478  1.00  0.00     0.154 C 
HETATM    8  C13 UNL     1       0.778   7.970  15.871  1.00  0.00     0.128 C 
HETATM    9  C14 UNL     1       0.499   9.200  16.737  1.00  0.00     0.071 C 
HETATM   10  C15 UNL     1      -0.927   9.756  16.551  1.00  0.00     0.071 C 
HETATM   11  C16 UNL     1      -1.243   9.986  15.029  1.00  0.00     0.029 C 
HETATM   12  C17 UNL     1      -2.618  10.670  14.833  1.00  0.00     0.009 C 
HETATM   13  C18 UNL     1      -2.759  11.974  15.642  1.00  0.00     0.010 C 
HETATM   14  C19 UNL     1      -2.496  11.769  17.143  1.00  0.00    -0.031 C 
HETATM   15  C20 UNL     1      -3.663  10.964  17.763  1.00  0.00     0.016 C 
HETATM   16  C21 UNL     1      -2.227  13.063  17.978  1.00  0.00     0.004 C 
HETATM   17  C31 UNL     1      -1.435  12.522  19.201  1.00  0.00     0.038 C 
HETATM   18  C32 UNL     1      -0.799  11.191  18.766  1.00  0.00     0.126 C 
HETATM   19  C33 UNL     1      -1.090  11.113  17.271  1.00  0.00     0.058 C 
ENDROOT
BRANCH   1  20
HETATM   20  O3  UNL     1       1.085   6.404  11.103  1.00  0.00    -0.351 OA
BRANCH  20  21
HETATM   21  C5  UNL     1       2.449   5.985  11.095  1.00  0.00     0.291 C 
HETATM   22  C3  UNL     1       2.992   5.733   9.666  1.00  0.00     0.207 C 
HETATM   23  C2  UNL     1       3.302   7.054   8.919  1.00  0.00     0.185 C 
HETATM   24  C35 UNL     1       4.039   8.070   9.808  1.00  0.00     0.176 C 
HETATM   25  C34 UNL     1       3.324   8.196  11.158  1.00  0.00     0.205 C 
HETATM   26  O9  UNL     1       3.234   6.935  11.827  1.00  0.00    -0.356 OA
BRANCH  22  27
HETATM   27  O2  UNL     1       4.151   4.879   9.784  1.00  0.00    -0.383 OA
HETATM   28  C4  UNL     1       4.099   3.731   8.949  1.00  0.00     0.202 C 
ENDBRANCH  22  27
BRANCH  23  29
HETATM   29  O1  UNL     1       2.098   7.687   8.437  1.00  0.00    -0.385 OA
HETATM   30  C1  UNL     1       1.851   7.429   7.059  1.00  0.00     0.202 C 
ENDBRANCH  23  29
BRANCH  24  31
HETATM   31  O10 UNL     1       5.401   7.639   9.957  1.00  0.00    -0.386 OA
HETATM   32  C36 UNL     1       6.179   8.472  10.811  1.00  0.00     0.202 C 
ENDBRANCH  24  31
ENDBRANCH  20  21
ENDBRANCH   1  20
BRANCH   7  33
HETATM   33  O4  UNL     1       0.233   5.881  13.756  1.00  0.00    -0.393 OA
HETATM   34  H20 UNL     1       0.046   5.869  14.720  1.00  0.00     0.210 HD
ENDBRANCH   7  33
BRANCH   8  35
HETATM   35  O5  UNL     1       0.030   6.850  16.344  1.00  0.00    -0.395 OA
HETATM   36  H22 UNL     1       0.343   6.670  17.257  1.00  0.00     0.210 HD
ENDBRANCH   8  35
BRANCH  10  37
HETATM   37  O6  UNL     1      -1.821   8.823  17.150  1.00  0.00    -0.389 OA
HETATM   38  H25 UNL     1      -1.545   7.929  16.875  1.00  0.00     0.210 HD
ENDBRANCH  10  37
BRANCH  18  39
HETATM   39  O8  UNL     1       0.604  11.217  19.008  1.00  0.00    -0.395 OA
HETATM   40  H55 UNL     1       0.717  11.336  19.967  1.00  0.00     0.210 HD
ENDBRANCH  18  39
BRANCH  16  41
HETATM   41  C22 UNL     1      -3.417  13.964  18.402  1.00  0.00     0.009 C 
HETATM   42  C23 UNL     1      -4.314  13.321  19.467  1.00  0.00     0.014 C 
BRANCH  41  43
HETATM   43  C24 UNL     1      -4.209  14.408  17.178  1.00  0.00    -0.026 C 
HETATM   44  C25 UNL     1      -5.471  14.871  17.151  1.00  0.00    -0.026 C 
BRANCH  44  45
HETATM   45  C26 UNL     1      -6.260  15.297  15.920  1.00  0.00     0.009 C 
HETATM   46  C27 UNL     1      -5.670  14.788  14.600  1.00  0.00     0.014 C 
BRANCH  45  47
HETATM   47  C28 UNL     1      -7.773  14.976  16.117  1.00  0.00     0.012 C 
HETATM   48  C29 UNL     1      -8.446  15.833  17.197  1.00  0.00     0.012 C 
BRANCH  47  49
HETATM   49  C30 UNL     1      -8.046  13.479  16.356  1.00  0.00     0.168 C 
BRANCH  49  50
HETATM   50  O7  UNL     1      -8.685  12.851  15.255  1.00  0.00    -0.400 OA
HETATM   51  H51 UNL     1      -8.045  12.806  14.518  1.00  0.00     0.209 HD
ENDBRANCH  49  50
ENDBRANCH  47  49
ENDBRANCH  45  47
ENDBRANCH  44  45
ENDBRANCH  41  43
ENDBRANCH  16  41
TORSDOF 15
ENDMDL
MODEL 6
REMARK minimizedAffinity -7.9703207
REMARK CNNscore 0.278285235
REMARK CNNaffinity 6.5556798
REMARK  15 active torsions:
REMARK  status: ('A' for Active; 'I' for Inactive)
REMARK    1  A    between atoms: O1_2  and  C2_3 
REMARK    2  A    between atoms: C3_4  and  O2_5 
REMARK    3  A    between atoms: C5_7  and  O3_8 
REMARK    4  A    between atoms: O3_8  and  C6_9 
REMARK    5  A    between atoms: C12_15  and  O4_16 
REMARK    6  A    between atoms: C13_17  and  O5_18 
REMARK    7  A    between atoms: C15_20  and  O6_21 
REMARK    8  A    between atoms: C21_27  and  C22_28 
REMARK    9  A    between atoms: C22_28  and  C24_30 
REMARK   10  A    between atoms: C25_31  and  C26_32 
REMARK   11  A    between atoms: C26_32  and  C28_34 
REMARK   12  A    between atoms: C28_34  and  C30_36 
REMARK   13  A    between atoms: C30_36  and  O7_37 
REMARK   14  A    between atoms: C32_39  and  O8_40 
REMARK   15  A    between atoms: C35_44  and  O10_45 
ROOT
HETATM    1  C6  UNL     1     -12.640  10.908  13.942  1.00  0.00     0.154 C 
HETATM    2  C7  UNL     1     -11.578  11.440  14.907  1.00  0.00     0.035 C 
HETATM    3  C8  UNL     1     -10.233  10.715  14.757  1.00  0.00     0.012 C 
HETATM    4  C9  UNL     1     -10.342   9.161  14.905  1.00  0.00    -0.029 C 
HETATM    5  C10 UNL     1     -10.706   8.907  16.388  1.00  0.00     0.016 C 
HETATM    6  C11 UNL     1     -11.402   8.693  13.849  1.00  0.00     0.054 C 
HETATM    7  C12 UNL     1     -12.780   9.367  14.007  1.00  0.00     0.154 C 
HETATM    8  C13 UNL     1     -11.524   7.166  13.692  1.00  0.00     0.128 C 
HETATM    9  C14 UNL     1     -10.178   6.535  13.331  1.00  0.00     0.071 C 
HETATM   10  C15 UNL     1      -9.053   6.913  14.315  1.00  0.00     0.071 C 
HETATM   11  C16 UNL     1      -8.976   8.472  14.502  1.00  0.00     0.029 C 
HETATM   12  C17 UNL     1      -7.767   8.879  15.379  1.00  0.00     0.009 C 
HETATM   13  C18 UNL     1      -6.432   8.304  14.863  1.00  0.00     0.010 C 
HETATM   14  C19 UNL     1      -6.467   6.775  14.712  1.00  0.00    -0.031 C 
HETATM   15  C20 UNL     1      -6.494   6.121  16.114  1.00  0.00     0.016 C 
HETATM   16  C21 UNL     1      -5.332   6.144  13.842  1.00  0.00     0.004 C 
HETATM   17  C31 UNL     1      -5.957   4.793  13.393  1.00  0.00     0.038 C 
HETATM   18  C32 UNL     1      -7.484   4.958  13.482  1.00  0.00     0.126 C 
HETATM   19  C33 UNL     1      -7.679   6.438  13.795  1.00  0.00     0.058 C 
ENDROOT
BRANCH   1  20
HETATM   20  O3  UNL     1     -13.868  11.580  14.239  1.00  0.00    -0.351 OA
BRANCH  20  21
HETATM   21  C5  UNL     1     -14.679  11.851  13.097  1.00  0.00     0.291 C 
HETATM   22  C3  UNL     1     -16.090  12.372  13.471  1.00  0.00     0.207 C 
HETATM   23  C2  UNL     1     -16.065  13.856  13.915  1.00  0.00     0.185 C 
HETATM   24  C35 UNL     1     -15.189  14.726  12.998  1.00  0.00     0.176 C 
HETATM   25  C34 UNL     1     -13.830  14.050  12.783  1.00  0.00     0.205 C 
HETATM   26  O9  UNL     1     -13.974  12.743  12.224  1.00  0.00    -0.356 OA
BRANCH  22  27
HETATM   27  O2  UNL     1     -16.953  12.149  12.334  1.00  0.00    -0.383 OA
HETATM   28  C4  UNL     1     -16.908  10.817  11.841  1.00  0.00     0.202 C 
ENDBRANCH  22  27
BRANCH  23  29
HETATM   29  O1  UNL     1     -15.566  13.999  15.262  1.00  0.00    -0.385 OA
HETATM   30  C1  UNL     1     -15.624  15.341  15.733  1.00  0.00     0.202 C 
ENDBRANCH  23  29
BRANCH  24  31
HETATM   31  O10 UNL     1     -15.891  14.933  11.762  1.00  0.00    -0.386 OA
HETATM   32  C36 UNL     1     -16.476  16.225  11.642  1.00  0.00     0.202 C 
ENDBRANCH  24  31
ENDBRANCH  20  21
ENDBRANCH   1  20
BRANCH   7  33
HETATM   33  O4  UNL     1     -13.440   8.948  15.203  1.00  0.00    -0.393 OA
HETATM   34  H20 UNL     1     -13.189   8.013  15.360  1.00  0.00     0.210 HD
ENDBRANCH   7  33
BRANCH   8  35
HETATM   35  O5  UNL     1     -12.048   6.574  14.881  1.00  0.00    -0.395 OA
HETATM   36  H22 UNL     1     -12.189   5.624  14.681  1.00  0.00     0.210 HD
ENDBRANCH   8  35
BRANCH  10  37
HETATM   37  O6  UNL     1      -9.324   6.240  15.540  1.00  0.00    -0.389 OA
HETATM   38  H25 UNL     1     -10.274   6.345  15.733  1.00  0.00     0.210 HD
ENDBRANCH  10  37
BRANCH  18  39
HETATM   39  O8  UNL     1      -8.087   4.619  12.238  1.00  0.00    -0.395 OA
HETATM   40  H55 UNL     1      -7.868   3.687  12.069  1.00  0.00     0.210 HD
ENDBRANCH  18  39
BRANCH  16  41
HETATM   41  C22 UNL     1      -3.914   5.961  14.445  1.00  0.00     0.009 C 
HETATM   42  C23 UNL     1      -3.475   7.136  15.327  1.00  0.00     0.014 C 
BRANCH  41  43
HETATM   43  C24 UNL     1      -2.904   5.662  13.343  1.00  0.00    -0.026 C 
HETATM   44  C25 UNL     1      -1.859   4.818  13.407  1.00  0.00    -0.026 C 
BRANCH  44  45
HETATM   45  C26 UNL     1      -0.845   4.538  12.306  1.00  0.00     0.009 C 
HETATM   46  C27 UNL     1      -1.466   3.987  11.017  1.00  0.00     0.014 C 
BRANCH  45  47
HETATM   47  C28 UNL     1       0.077   5.780  12.099  1.00  0.00     0.012 C 
HETATM   48  C29 UNL     1       0.779   5.800  10.735  1.00  0.00     0.012 C 
BRANCH  47  49
HETATM   49  C30 UNL     1       1.091   5.974  13.241  1.00  0.00     0.168 C 
BRANCH  49  50
HETATM   50  O7  UNL     1       1.995   7.042  13.001  1.00  0.00    -0.400 OA
HETATM   51  H51 UNL     1       1.496   7.880  13.054  1.00  0.00     0.209 HD
ENDBRANCH  49  50
ENDBRANCH  47  49
ENDBRANCH  45  47
ENDBRANCH  44  45
ENDBRANCH  41  43
ENDBRANCH  16  41
TORSDOF 15
ENDMDL
MODEL 7
REMARK minimizedAffinity -7.88424397
REMARK CNNscore 0.27657479
REMARK CNNaffinity 6.68303061
REMARK  15 active torsions:
REMARK  status: ('A' for Active; 'I' for Inactive)
REMARK    1  A    between atoms: O1_2  and  C2_3 
REMARK    2  A    between atoms: C3_4  and  O2_5 
REMARK    3  A    between atoms: C5_7  and  O3_8 
REMARK    4  A    between atoms: O3_8  and  C6_9 
REMARK    5  A    between atoms: C12_15  and  O4_16 
REMARK    6  A    between atoms: C13_17  and  O5_18 
REMARK    7  A    between atoms: C15_20  and  O6_21 
REMARK    8  A    between atoms: C21_27  and  C22_28 
REMARK    9  A    between atoms: C22_28  and  C24_30 
REMARK   10  A    between atoms: C25_31  and  C26_32 
REMARK   11  A    between atoms: C26_32  and  C28_34 
REMARK   12  A    between atoms: C28_34  and  C30_36 
REMARK   13  A    between atoms: C30_36  and  O7_37 
REMARK   14  A    between atoms: C32_39  and  O8_40 
REMARK   15  A    between atoms: C35_44  and  O10_45 
ROOT
HETATM    1  C6  UNL     1     -12.285  10.674  14.160  1.00  0.00     0.154 C 
HETATM    2  C7  UNL     1     -11.236  11.177  15.154  1.00  0.00     0.035 C 
HETATM    3  C8  UNL     1      -9.874  10.492  14.968  1.00  0.00     0.012 C 
HETATM    4  C9  UNL     1      -9.948   8.930  15.031  1.00  0.00    -0.029 C 
HETATM    5  C10 UNL     1     -10.307   8.588  16.498  1.00  0.00     0.016 C 
HETATM    6  C11 UNL     1     -10.997   8.496  13.949  1.00  0.00     0.054 C 
HETATM    7  C12 UNL     1     -12.390   9.129  14.140  1.00  0.00     0.154 C 
HETATM    8  C13 UNL     1     -11.083   6.978  13.709  1.00  0.00     0.128 C 
HETATM    9  C14 UNL     1      -9.723   6.398  13.317  1.00  0.00     0.071 C 
HETATM   10  C15 UNL     1      -8.607   6.748  14.323  1.00  0.00     0.071 C 
HETATM   11  C16 UNL     1      -8.566   8.296  14.594  1.00  0.00     0.029 C 
HETATM   12  C17 UNL     1      -7.368   8.681  15.495  1.00  0.00     0.009 C 
HETATM   13  C18 UNL     1      -6.020   8.167  14.952  1.00  0.00     0.010 C 
HETATM   14  C19 UNL     1      -6.020   6.647  14.717  1.00  0.00    -0.031 C 
HETATM   15  C20 UNL     1      -6.032   5.918  16.082  1.00  0.00     0.016 C 
HETATM   16  C21 UNL     1      -4.870   6.091  13.817  1.00  0.00     0.004 C 
HETATM   17  C31 UNL     1      -5.463   4.753  13.293  1.00  0.00     0.038 C 
HETATM   18  C32 UNL     1      -6.993   4.877  13.388  1.00  0.00     0.126 C 
HETATM   19  C33 UNL     1      -7.223   6.334  13.781  1.00  0.00     0.058 C 
ENDROOT
BRANCH   1  20
HETATM   20  O3  UNL     1     -13.528  11.301  14.491  1.00  0.00    -0.351 OA
BRANCH  20  21
HETATM   21  C5  UNL     1     -13.394  12.580  15.108  1.00  0.00     0.291 C 
HETATM   22  C3  UNL     1     -13.225  13.728  14.081  1.00  0.00     0.207 C 
HETATM   23  C2  UNL     1     -14.564  14.101  13.398  1.00  0.00     0.185 C 
HETATM   24  C35 UNL     1     -15.728  14.188  14.399  1.00  0.00     0.176 C 
HETATM   25  C34 UNL     1     -15.737  12.944  15.295  1.00  0.00     0.205 C 
HETATM   26  O9  UNL     1     -14.500  12.790  15.995  1.00  0.00    -0.356 OA
BRANCH  22  27
HETATM   27  O2  UNL     1     -12.627  14.847  14.772  1.00  0.00    -0.383 OA
HETATM   28  C4  UNL     1     -12.001  15.782  13.904  1.00  0.00     0.202 C 
ENDBRANCH  22  27
BRANCH  23  29
HETATM   29  O1  UNL     1     -14.929  13.140  12.384  1.00  0.00    -0.385 OA
HETATM   30  C1  UNL     1     -16.074  13.533  11.636  1.00  0.00     0.202 C 
ENDBRANCH  23  29
BRANCH  24  31
HETATM   31  O10 UNL     1     -15.586  15.399  15.158  1.00  0.00    -0.386 OA
HETATM   32  C36 UNL     1     -15.723  16.584  14.383  1.00  0.00     0.202 C 
ENDBRANCH  24  31
ENDBRANCH  20  21
ENDBRANCH   1  20
BRANCH   7  33
HETATM   33  O4  UNL     1     -13.041   8.631  15.311  1.00  0.00    -0.393 OA
HETATM   34  H20 UNL     1     -12.769   7.694  15.417  1.00  0.00     0.210 HD
ENDBRANCH   7  33
BRANCH   8  35
HETATM   35  O5  UNL     1     -11.595   6.310  14.863  1.00  0.00    -0.395 OA
HETATM   36  H22 UNL     1     -11.714   5.369  14.611  1.00  0.00     0.210 HD
ENDBRANCH   8  35
BRANCH  10  37
HETATM   37  O6  UNL     1      -8.864   6.003  15.509  1.00  0.00    -0.389 OA
HETATM   38  H25 UNL     1      -9.816   6.076  15.705  1.00  0.00     0.210 HD
ENDBRANCH  10  37
BRANCH  18  39
HETATM   39  O8  UNL     1      -7.587   4.593  12.126  1.00  0.00    -0.395 OA
HETATM   40  H55 UNL     1      -7.346   3.677  11.907  1.00  0.00     0.210 HD
ENDBRANCH  18  39
BRANCH  16  41
HETATM   41  C22 UNL     1      -3.448   5.908  14.412  1.00  0.00     0.009 C 
HETATM   42  C23 UNL     1      -2.826   7.219  14.907  1.00  0.00     0.014 C 
BRANCH  41  43
HETATM   43  C24 UNL     1      -2.547   5.184  13.419  1.00  0.00    -0.026 C 
HETATM   44  C25 UNL     1      -1.210   5.281  13.315  1.00  0.00    -0.026 C 
BRANCH  44  45
HETATM   45  C26 UNL     1      -0.319   4.567  12.308  1.00  0.00     0.009 C 
HETATM   46  C27 UNL     1      -1.089   3.699  11.306  1.00  0.00     0.014 C 
BRANCH  45  47
HETATM   47  C28 UNL     1       0.672   5.579  11.657  1.00  0.00     0.012 C 
HETATM   48  C29 UNL     1      -0.011   6.600  10.737  1.00  0.00     0.012 C 
BRANCH  47  49
HETATM   49  C30 UNL     1       1.848   4.893  10.936  1.00  0.00     0.168 C 
BRANCH  49  50
HETATM   50  O7  UNL     1       2.660   5.805  10.213  1.00  0.00    -0.400 OA
HETATM   51  H51 UNL     1       3.140   6.361  10.857  1.00  0.00     0.209 HD
ENDBRANCH  49  50
ENDBRANCH  47  49
ENDBRANCH  45  47
ENDBRANCH  44  45
ENDBRANCH  41  43
ENDBRANCH  16  41
TORSDOF 15
ENDMDL
MODEL 8
REMARK minimizedAffinity -8.5277853
REMARK CNNscore 0.266972423
REMARK CNNaffinity 6.36930513
REMARK  15 active torsions:
REMARK  status: ('A' for Active; 'I' for Inactive)
REMARK    1  A    between atoms: O1_2  and  C2_3 
REMARK    2  A    between atoms: C3_4  and  O2_5 
REMARK    3  A    between atoms: C5_7  and  O3_8 
REMARK    4  A    between atoms: O3_8  and  C6_9 
REMARK    5  A    between atoms: C12_15  and  O4_16 
REMARK    6  A    between atoms: C13_17  and  O5_18 
REMARK    7  A    between atoms: C15_20  and  O6_21 
REMARK    8  A    between atoms: C21_27  and  C22_28 
REMARK    9  A    between atoms: C22_28  and  C24_30 
REMARK   10  A    between atoms: C25_31  and  C26_32 
REMARK   11  A    between atoms: C26_32  and  C28_34 
REMARK   12  A    between atoms: C28_34  and  C30_36 
REMARK   13  A    between atoms: C30_36  and  O7_37 
REMARK   14  A    between atoms: C32_39  and  O8_40 
REMARK   15  A    between atoms: C35_44  and  O10_45 
ROOT
HETATM    1  C6  UNL     1      -3.167   5.413  14.436  1.00  0.00     0.154 C 
HETATM    2  C7  UNL     1      -2.651   5.212  13.010  1.00  0.00     0.035 C 
HETATM    3  C8  UNL     1      -1.151   5.511  12.881  1.00  0.00     0.012 C 
HETATM    4  C9  UNL     1      -0.754   6.939  13.384  1.00  0.00    -0.029 C 
HETATM    5  C10 UNL     1      -1.389   7.928  12.377  1.00  0.00     0.016 C 
HETATM    6  C11 UNL     1      -1.266   7.041  14.863  1.00  0.00     0.054 C 
HETATM    7  C12 UNL     1      -2.781   6.796  15.017  1.00  0.00     0.154 C 
HETATM    8  C13 UNL     1      -0.808   8.303  15.617  1.00  0.00     0.128 C 
HETATM    9  C14 UNL     1       0.717   8.421  15.629  1.00  0.00     0.071 C 
HETATM   10  C15 UNL     1       1.337   8.349  14.220  1.00  0.00     0.071 C 
HETATM   11  C16 UNL     1       0.821   7.082  13.446  1.00  0.00     0.029 C 
HETATM   12  C17 UNL     1       1.536   6.920  12.083  1.00  0.00     0.009 C 
HETATM   13  C18 UNL     1       3.072   6.918  12.208  1.00  0.00     0.010 C 
HETATM   14  C19 UNL     1       3.607   8.169  12.925  1.00  0.00    -0.031 C 
HETATM   15  C20 UNL     1       3.435   9.400  12.004  1.00  0.00     0.016 C 
HETATM   16  C21 UNL     1       5.078   8.086  13.448  1.00  0.00     0.004 C 
HETATM   17  C31 UNL     1       5.100   9.152  14.578  1.00  0.00     0.038 C 
HETATM   18  C32 UNL     1       3.645   9.341  15.039  1.00  0.00     0.126 C 
HETATM   19  C33 UNL     1       2.876   8.253  14.296  1.00  0.00     0.058 C 
ENDROOT
BRANCH   1  20
HETATM   20  O3  UNL     1      -4.584   5.207  14.415  1.00  0.00    -0.351 OA
BRANCH  20  21
HETATM   21  C5  UNL     1      -5.146   5.134  13.106  1.00  0.00     0.291 C 
HETATM   22  C3  UNL     1      -6.126   3.945  12.939  1.00  0.00     0.207 C 
HETATM   23  C2  UNL     1      -7.496   4.220  13.607  1.00  0.00     0.185 C 
HETATM   24  C35 UNL     1      -8.016   5.637  13.314  1.00  0.00     0.176 C 
HETATM   25  C34 UNL     1      -6.907   6.663  13.573  1.00  0.00     0.205 C 
HETATM   26  O9  UNL     1      -5.746   6.396  12.783  1.00  0.00    -0.356 OA
BRANCH  22  27
HETATM   27  O2  UNL     1      -6.245   3.674  11.524  1.00  0.00    -0.383 OA
HETATM   28  C4  UNL     1      -5.562   2.498  11.112  1.00  0.00     0.202 C 
ENDBRANCH  22  27
BRANCH  23  29
HETATM   29  O1  UNL     1      -7.428   4.067  15.041  1.00  0.00    -0.385 OA
HETATM   30  C1  UNL     1      -7.811   5.245  15.742  1.00  0.00     0.202 C 
ENDBRANCH  23  29
BRANCH  24  31
HETATM   31  O10 UNL     1      -8.483   5.678  11.956  1.00  0.00    -0.386 OA
HETATM   32  C36 UNL     1      -9.645   6.478  11.770  1.00  0.00     0.202 C 
ENDBRANCH  24  31
ENDBRANCH  20  21
ENDBRANCH   1  20
BRANCH   7  33
HETATM   33  O4  UNL     1      -3.549   7.847  14.429  1.00  0.00    -0.393 OA
HETATM   34  H20 UNL     1      -3.043   8.679  14.551  1.00  0.00     0.210 HD
ENDBRANCH   7  33
BRANCH   8  35
HETATM   35  O5  UNL     1      -1.393   9.474  15.047  1.00  0.00    -0.395 OA
HETATM   36  H22 UNL     1      -1.140  10.224  15.627  1.00  0.00     0.210 HD
ENDBRANCH   8  35
BRANCH  10  37
HETATM   37  O6  UNL     1       0.999   9.561  13.551  1.00  0.00    -0.389 OA
HETATM   38  H25 UNL     1       0.056   9.740  13.722  1.00  0.00     0.210 HD
ENDBRANCH  10  37
BRANCH  18  39
HETATM   39  O8  UNL     1       3.550   9.157  16.448  1.00  0.00    -0.395 OA
HETATM   40  H55 UNL     1       4.113   9.837  16.855  1.00  0.00     0.210 HD
ENDBRANCH  18  39
BRANCH  16  41
HETATM   41  C22 UNL     1       6.257   8.261  12.454  1.00  0.00     0.009 C 
HETATM   42  C23 UNL     1       6.448   7.059  11.522  1.00  0.00     0.014 C 
BRANCH  41  43
HETATM   43  C24 UNL     1       7.536   8.612  13.206  1.00  0.00    -0.026 C 
HETATM   44  C25 UNL     1       8.247   7.811  14.018  1.00  0.00    -0.026 C 
BRANCH  44  45
HETATM   45  C26 UNL     1       9.514   8.177  14.779  1.00  0.00     0.009 C 
HETATM   46  C27 UNL     1      10.797   8.034  13.950  1.00  0.00     0.014 C 
BRANCH  45  47
HETATM   47  C28 UNL     1       9.343   9.564  15.469  1.00  0.00     0.012 C 
HETATM   48  C29 UNL     1      10.504  10.531  15.198  1.00  0.00     0.012 C 
BRANCH  47  49
HETATM   49  C30 UNL     1       9.061   9.456  16.979  1.00  0.00     0.168 C 
BRANCH  49  50
HETATM   50  O7  UNL     1      10.234   9.572  17.770  1.00  0.00    -0.400 OA
HETATM   51  H51 UNL     1      10.552  10.493  17.708  1.00  0.00     0.209 HD
ENDBRANCH  49  50
ENDBRANCH  47  49
ENDBRANCH  45  47
ENDBRANCH  44  45
ENDBRANCH  41  43
ENDBRANCH  16  41
TORSDOF 15
ENDMDL
MODEL 9
REMARK minimizedAffinity -7.74780178
REMARK CNNscore 0.263623208
REMARK CNNaffinity 6.41989946
REMARK  15 active torsions:
REMARK  status: ('A' for Active; 'I' for Inactive)
REMARK    1  A    between atoms: O1_2  and  C2_3 
REMARK    2  A    between atoms: C3_4  and  O2_5 
REMARK    3  A    between atoms: C5_7  and  O3_8 
REMARK    4  A    between atoms: O3_8  and  C6_9 
REMARK    5  A    between atoms: C12_15  and  O4_16 
REMARK    6  A    between atoms: C13_17  and  O5_18 
REMARK    7  A    between atoms: C15_20  and  O6_21 
REMARK    8  A    between atoms: C21_27  and  C22_28 
REMARK    9  A    between atoms: C22_28  and  C24_30 
REMARK   10  A    between atoms: C25_31  and  C26_32 
REMARK   11  A    between atoms: C26_32  and  C28_34 
REMARK   12  A    between atoms: C28_34  and  C30_36 
REMARK   13  A    between atoms: C30_36  and  O7_37 
REMARK   14  A    between atoms: C32_39  and  O8_40 
REMARK   15  A    between atoms: C35_44  and  O10_45 
ROOT
HETATM    1  C6  UNL     1       6.108  10.718  13.521  1.00  0.00     0.154 C 
HETATM    2  C7  UNL     1       5.497  10.549  12.129  1.00  0.00     0.035 C 
HETATM    3  C8  UNL     1       3.993  10.246  12.181  1.00  0.00     0.012 C 
HETATM    4  C9  UNL     1       3.637   9.003  13.062  1.00  0.00    -0.029 C 
HETATM    5  C10 UNL     1       4.209   7.778  12.307  1.00  0.00     0.016 C 
HETATM    6  C11 UNL     1       4.248   9.281  14.480  1.00  0.00     0.054 C 
HETATM    7  C12 UNL     1       5.768   9.539  14.465  1.00  0.00     0.154 C 
HETATM    8  C13 UNL     1       3.848   8.264  15.564  1.00  0.00     0.128 C 
HETATM    9  C14 UNL     1       2.328   8.171  15.707  1.00  0.00     0.071 C 
HETATM   10  C15 UNL     1       1.614   7.883  14.371  1.00  0.00     0.071 C 
HETATM   11  C16 UNL     1       2.071   8.899  13.263  1.00  0.00     0.029 C 
HETATM   12  C17 UNL     1       1.266   8.711  11.955  1.00  0.00     0.009 C 
HETATM   13  C18 UNL     1      -0.258   8.765  12.176  1.00  0.00     0.010 C 
HETATM   14  C19 UNL     1      -0.738   7.749  13.226  1.00  0.00    -0.031 C 
HETATM   15  C20 UNL     1      -0.622   6.319  12.648  1.00  0.00     0.016 C 
HETATM   16  C21 UNL     1      -2.171   7.984  13.805  1.00  0.00     0.004 C 
HETATM   17  C31 UNL     1      -2.112   7.247  15.172  1.00  0.00     0.038 C 
HETATM   18  C32 UNL     1      -0.629   7.167  15.570  1.00  0.00     0.126 C 
HETATM   19  C33 UNL     1       0.083   8.015  14.521  1.00  0.00     0.058 C 
ENDROOT
BRANCH   1  20
HETATM   20  O3  UNL     1       7.519  10.894  13.354  1.00  0.00    -0.351 OA
BRANCH  20  21
HETATM   21  C5  UNL     1       8.261  10.864  14.572  1.00  0.00     0.291 C 
HETATM   22  C3  UNL     1       9.555  10.017  14.466  1.00  0.00     0.207 C 
HETATM   23  C2  UNL     1      10.677  10.759  13.699  1.00  0.00     0.185 C 
HETATM   24  C35 UNL     1      10.805  12.231  14.128  1.00  0.00     0.176 C 
HETATM   25  C34 UNL     1       9.422  12.893  14.134  1.00  0.00     0.205 C 
HETATM   26  O9  UNL     1       8.514  12.208  15.000  1.00  0.00    -0.356 OA
BRANCH  22  27
HETATM   27  O2  UNL     1       9.949   9.654  15.808  1.00  0.00    -0.383 OA
HETATM   28  C4  UNL     1       8.851   9.442  16.685  1.00  0.00     0.202 C 
ENDBRANCH  22  27
BRANCH  23  29
HETATM   29  O1  UNL     1      10.449  10.737  12.273  1.00  0.00    -0.385 OA
HETATM   30  C1  UNL     1      11.489  11.373  11.538  1.00  0.00     0.202 C 
ENDBRANCH  23  29
BRANCH  24  31
HETATM   31  O10 UNL     1      11.430  12.274  15.420  1.00  0.00    -0.386 OA
HETATM   32  C36 UNL     1      11.296  13.527  16.083  1.00  0.00     0.202 C 
ENDBRANCH  24  31
ENDBRANCH  20  21
ENDBRANCH   1  20
BRANCH   7  33
HETATM   33  O4  UNL     1       6.501   8.362  14.121  1.00  0.00    -0.393 OA
HETATM   34  H20 UNL     1       6.009   7.596  14.488  1.00  0.00     0.210 HD
ENDBRANCH   7  33
BRANCH   8  35
HETATM   35  O5  UNL     1       4.400   6.977  15.281  1.00  0.00    -0.395 OA
HETATM   36  H22 UNL     1       4.190   6.407  16.051  1.00  0.00     0.210 HD
ENDBRANCH   8  35
BRANCH  10  37
HETATM   37  O6  UNL     1       1.913   6.536  14.019  1.00  0.00    -0.389 OA
HETATM   38  H25 UNL     1       2.866   6.395  14.168  1.00  0.00     0.210 HD
ENDBRANCH  10  37
BRANCH  18  39
HETATM   39  O8  UNL     1      -0.441   7.708  16.873  1.00  0.00    -0.395 OA
HETATM   40  H55 UNL     1      -0.972   7.164  17.479  1.00  0.00     0.210 HD
ENDBRANCH  18  39
BRANCH  16  41
HETATM   41  C22 UNL     1      -3.413   7.572  12.971  1.00  0.00     0.009 C 
HETATM   42  C23 UNL     1      -4.544   8.605  13.017  1.00  0.00     0.014 C 
BRANCH  41  43
HETATM   43  C24 UNL     1      -3.888   6.182  13.379  1.00  0.00    -0.026 C 
HETATM   44  C25 UNL     1      -4.522   5.281  12.608  1.00  0.00    -0.026 C 
BRANCH  44  45
HETATM   45  C26 UNL     1      -5.009   3.901  13.030  1.00  0.00     0.009 C 
HETATM   46  C27 UNL     1      -6.516   3.833  13.304  1.00  0.00     0.014 C 
BRANCH  45  47
HETATM   47  C28 UNL     1      -4.483   2.821  12.036  1.00  0.00     0.012 C 
HETATM   48  C29 UNL     1      -2.969   2.890  11.801  1.00  0.00     0.012 C 
BRANCH  47  49
HETATM   49  C30 UNL     1      -5.247   2.811  10.698  1.00  0.00     0.168 C 
BRANCH  49  50
HETATM   50  O7  UNL     1      -5.862   1.562  10.423  1.00  0.00    -0.400 OA
HETATM   51  H51 UNL     1      -6.597   1.440  11.054  1.00  0.00     0.209 HD
ENDBRANCH  49  50
ENDBRANCH  47  49
ENDBRANCH  45  47
ENDBRANCH  44  45
ENDBRANCH  41  43
ENDBRANCH  16  41
TORSDOF 15
ENDMDL
