MODEL 1
REMARK minimizedAffinity -9.4473114
REMARK  8 active torsions:
REMARK  status: ('A' for Active; 'I' for Inactive)
REMARK    1  A    between atoms: C2_2  and  C30_33 
REMARK    2  A    between atoms: C3_3  and  C4_4 
REMARK    3  A    between atoms: C4_4  and  C5_5 
REMARK    4  A    between atoms: C5_5  and  C6_6 
REMARK    5  A    between atoms: C6_6  and  C8_8 
REMARK    6  A    between atoms: C21_22  and  O2_23 
REMARK    7  A    between atoms: C23_25  and  O3_26 
REMARK    8  A    between atoms: C30_33  and  O4_34 
ROOT
HETATM    1  C8  UNL     1       0.726   7.029  11.896  1.00  0.00    -0.001 C 
HETATM    2  C9  UNL     1       0.418   5.940  10.831  1.00  0.00     0.007 C 
HETATM    3  C10 UNL     1      -0.956   5.339  11.186  1.00  0.00     0.015 C 
HETATM    4  C11 UNL     1      -1.247   5.838  12.615  1.00  0.00    -0.012 C 
HETATM    5  C12 UNL     1      -0.513   4.878  13.605  1.00  0.00     0.021 C 
HETATM    6  C13 UNL     1      -2.686   5.885  13.108  1.00  0.00    -0.060 C 
HETATM    7  C14 UNL     1      -3.052   6.742  14.094  1.00  0.00     0.002 C 
HETATM    8  C15 UNL     1      -1.999   7.683  14.665  1.00  0.00     0.157 C 
HETATM    9  O1  UNL     1      -2.209   8.284  15.725  1.00  0.00    -0.293 OA
HETATM   10  C16 UNL     1      -0.662   7.879  13.951  1.00  0.00     0.094 C 
HETATM   11  C17 UNL     1      -0.667   7.299  12.538  1.00  0.00    -0.022 C 
HETATM   12  C18 UNL     1      -1.516   8.244  11.636  1.00  0.00     0.017 C 
HETATM   13  C19 UNL     1      -4.469   6.761  14.724  1.00  0.00     0.017 C 
HETATM   14  C20 UNL     1      -4.319   5.966  16.051  1.00  0.00     0.023 C 
HETATM   15  C21 UNL     1      -4.951   8.242  14.970  1.00  0.00     0.134 C 
HETATM   16  C22 UNL     1      -6.414   8.530  14.608  1.00  0.00     0.065 C 
HETATM   17  C23 UNL     1      -7.349   7.384  14.988  1.00  0.00     0.128 C 
HETATM   18  C24 UNL     1      -6.989   6.059  14.240  1.00  0.00    -0.017 C 
HETATM   19  C25 UNL     1      -7.903   5.987  12.983  1.00  0.00     0.018 C 
HETATM   20  C26 UNL     1      -7.336   4.817  15.088  1.00  0.00     0.018 C 
HETATM   21  C27 UNL     1      -5.489   6.082  13.737  1.00  0.00     0.011 C 
HETATM   22  C28 UNL     1      -4.966   4.720  13.241  1.00  0.00     0.011 C 
HETATM   23  C29 UNL     1      -3.636   4.878  12.505  1.00  0.00     0.036 C 
ENDROOT
BRANCH   1  24
HETATM   24  C6  UNL     1       1.675   8.152  11.384  1.00  0.00    -0.014 C 
HETATM   25  C7  UNL     1       1.428   8.453   9.900  1.00  0.00     0.010 C 
BRANCH  24  26
HETATM   26  C5  UNL     1       3.185   7.984  11.660  1.00  0.00     0.008 C 
BRANCH  26  27
HETATM   27  C4  UNL     1       3.981   7.636  10.393  1.00  0.00     0.028 C 
BRANCH  27  28
HETATM   28  C3  UNL     1       4.137   6.147  10.253  1.00  0.00    -0.022 C 
HETATM   29  C2  UNL     1       3.640   5.353   9.283  1.00  0.00    -0.064 C 
HETATM   30  C1  UNL     1       2.847   5.835   8.096  1.00  0.00     0.045 C 
BRANCH  29  31
HETATM   31  C30 UNL     1       3.880   3.866   9.310  1.00  0.00     0.197 C 
BRANCH  31  32
HETATM   32  O4  UNL     1       2.857   3.247  10.076  1.00  0.00    -0.397 OA
HETATM   33  H48 UNL     1       3.130   2.327  10.212  1.00  0.00     0.209 HD
ENDBRANCH  31  32
ENDBRANCH  29  31
ENDBRANCH  27  28
ENDBRANCH  26  27
ENDBRANCH  24  26
ENDBRANCH   1  24
BRANCH  15  34
HETATM   34  O2  UNL     1      -4.791   8.602  16.349  1.00  0.00    -0.394 OA
HETATM   35  H30 UNL     1      -3.834   8.812  16.461  1.00  0.00     0.210 HD
ENDBRANCH  15  34
BRANCH  17  36
HETATM   36  O3  UNL     1      -7.373   7.230  16.406  1.00  0.00    -0.395 OA
HETATM   37  H34 UNL     1      -6.560   7.623  16.775  1.00  0.00     0.210 HD
ENDBRANCH  17  36
TORSDOF 8
ENDMDL
MODEL 2
REMARK minimizedAffinity -9.24641705
REMARK  8 active torsions:
REMARK  status: ('A' for Active; 'I' for Inactive)
REMARK    1  A    between atoms: C2_2  and  C30_33 
REMARK    2  A    between atoms: C3_3  and  C4_4 
REMARK    3  A    between atoms: C4_4  and  C5_5 
REMARK    4  A    between atoms: C5_5  and  C6_6 
REMARK    5  A    between atoms: C6_6  and  C8_8 
REMARK    6  A    between atoms: C21_22  and  O2_23 
REMARK    7  A    between atoms: C23_25  and  O3_26 
REMARK    8  A    between atoms: C30_33  and  O4_34 
ROOT
HETATM    1  C8  UNL     1       1.032   7.098  11.709  1.00  0.00    -0.001 C 
HETATM    2  C9  UNL     1       0.690   6.011  10.653  1.00  0.00     0.007 C 
HETATM    3  C10 UNL     1      -0.676   5.415  11.049  1.00  0.00     0.015 C 
HETATM    4  C11 UNL     1      -0.923   5.915  12.485  1.00  0.00    -0.012 C 
HETATM    5  C12 UNL     1      -0.164   4.951  13.453  1.00  0.00     0.021 C 
HETATM    6  C13 UNL     1      -2.347   5.967  13.020  1.00  0.00    -0.060 C 
HETATM    7  C14 UNL     1      -2.681   6.826  14.016  1.00  0.00     0.002 C 
HETATM    8  C15 UNL     1      -1.607   7.763  14.556  1.00  0.00     0.157 C 
HETATM    9  O1  UNL     1      -1.783   8.365  15.622  1.00  0.00    -0.293 OA
HETATM   10  C16 UNL     1      -0.291   7.953  13.804  1.00  0.00     0.094 C 
HETATM   11  C17 UNL     1      -0.340   7.373  12.391  1.00  0.00    -0.022 C 
HETATM   12  C18 UNL     1      -1.211   8.322  11.514  1.00  0.00     0.017 C 
HETATM   13  C19 UNL     1      -4.078   6.851  14.688  1.00  0.00     0.017 C 
HETATM   14  C20 UNL     1      -3.892   6.054  16.010  1.00  0.00     0.023 C 
HETATM   15  C21 UNL     1      -4.547   8.334  14.947  1.00  0.00     0.134 C 
HETATM   16  C22 UNL     1      -6.019   8.628  14.628  1.00  0.00     0.065 C 
HETATM   17  C23 UNL     1      -6.947   7.486  15.036  1.00  0.00     0.128 C 
HETATM   18  C24 UNL     1      -6.614   6.159  14.278  1.00  0.00    -0.017 C 
HETATM   19  C25 UNL     1      -7.565   6.091  13.048  1.00  0.00     0.018 C 
HETATM   20  C26 UNL     1      -6.941   4.918  15.136  1.00  0.00     0.018 C 
HETATM   21  C27 UNL     1      -5.129   6.176  13.731  1.00  0.00     0.011 C 
HETATM   22  C28 UNL     1      -4.627   4.812  13.220  1.00  0.00     0.011 C 
HETATM   23  C29 UNL     1      -3.319   4.964  12.445  1.00  0.00     0.036 C 
ENDROOT
BRANCH   1  24
HETATM   24  C6  UNL     1       1.971   8.217  11.169  1.00  0.00    -0.014 C 
HETATM   25  C7  UNL     1       2.175   8.087   9.654  1.00  0.00     0.010 C 
BRANCH  24  26
HETATM   26  C5  UNL     1       3.326   8.412  11.884  1.00  0.00     0.008 C 
BRANCH  26  27
HETATM   27  C4  UNL     1       4.489   8.610  10.900  1.00  0.00     0.028 C 
BRANCH  27  28
HETATM   28  C3  UNL     1       5.209   7.312  10.657  1.00  0.00    -0.022 C 
HETATM   29  C2  UNL     1       6.198   6.768  11.395  1.00  0.00    -0.064 C 
HETATM   30  C1  UNL     1       6.751   7.357  12.665  1.00  0.00     0.045 C 
BRANCH  29  31
HETATM   31  C30 UNL     1       6.824   5.459  10.991  1.00  0.00     0.197 C 
BRANCH  31  32
HETATM   32  O4  UNL     1       5.870   4.694  10.267  1.00  0.00    -0.397 OA
HETATM   33  H48 UNL     1       6.243   3.805  10.170  1.00  0.00     0.209 HD
ENDBRANCH  31  32
ENDBRANCH  29  31
ENDBRANCH  27  28
ENDBRANCH  26  27
ENDBRANCH  24  26
ENDBRANCH   1  24
BRANCH  15  34
HETATM   34  O2  UNL     1      -4.345   8.693  16.322  1.00  0.00    -0.394 OA
HETATM   35  H30 UNL     1      -3.384   8.899  16.406  1.00  0.00     0.210 HD
ENDBRANCH  15  34
BRANCH  17  36
HETATM   36  O3  UNL     1      -6.930   7.331  16.454  1.00  0.00    -0.395 OA
HETATM   37  H34 UNL     1      -6.105   7.721  16.798  1.00  0.00     0.210 HD
ENDBRANCH  17  36
TORSDOF 8
ENDMDL
MODEL 3
REMARK minimizedAffinity -9.22827721
REMARK  8 active torsions:
REMARK  status: ('A' for Active; 'I' for Inactive)
REMARK    1  A    between atoms: C2_2  and  C30_33 
REMARK    2  A    between atoms: C3_3  and  C4_4 
REMARK    3  A    between atoms: C4_4  and  C5_5 
REMARK    4  A    between atoms: C5_5  and  C6_6 
REMARK    5  A    between atoms: C6_6  and  C8_8 
REMARK    6  A    between atoms: C21_22  and  O2_23 
REMARK    7  A    between atoms: C23_25  and  O3_26 
REMARK    8  A    between atoms: C30_33  and  O4_34 
ROOT
HETATM    1  C8  UNL     1      -6.931   3.057  -9.608  1.00  0.00    -0.001 C 
HETATM    2  C9  UNL     1      -7.997   3.162 -10.733  1.00  0.00     0.007 C 
HETATM    3  C10 UNL     1      -8.996   2.009 -10.513  1.00  0.00     0.015 C 
HETATM    4  C11 UNL     1      -8.307   1.078  -9.497  1.00  0.00    -0.012 C 
HETATM    5  C12 UNL     1      -7.335   0.151 -10.296  1.00  0.00     0.021 C 
HETATM    6  C13 UNL     1      -9.155   0.129  -8.662  1.00  0.00    -0.060 C 
HETATM    7  C14 UNL     1      -8.713  -0.318  -7.460  1.00  0.00     0.002 C 
HETATM    8  C15 UNL     1      -7.368   0.184  -6.949  1.00  0.00     0.157 C 
HETATM    9  O1  UNL     1      -6.808  -0.385  -6.005  1.00  0.00    -0.293 OA
HETATM   10  C16 UNL     1      -6.683   1.379  -7.609  1.00  0.00     0.094 C 
HETATM   11  C17 UNL     1      -7.614   2.133  -8.557  1.00  0.00    -0.022 C 
HETATM   12  C18 UNL     1      -8.629   2.938  -7.693  1.00  0.00     0.017 C 
HETATM   13  C19 UNL     1      -9.469  -1.373  -6.612  1.00  0.00     0.017 C 
HETATM   14  C20 UNL     1      -8.734  -2.711  -6.905  1.00  0.00     0.023 C 
HETATM   15  C21 UNL     1      -9.429  -0.994  -5.082  1.00  0.00     0.134 C 
HETATM   16  C22 UNL     1     -10.745  -1.190  -4.317  1.00  0.00     0.065 C 
HETATM   17  C23 UNL     1     -11.484  -2.459  -4.737  1.00  0.00     0.128 C 
HETATM   18  C24 UNL     1     -11.883  -2.433  -6.249  1.00  0.00    -0.017 C 
HETATM   19  C25 UNL     1     -13.348  -1.916  -6.321  1.00  0.00     0.018 C 
HETATM   20  C26 UNL     1     -11.904  -3.853  -6.854  1.00  0.00     0.018 C 
HETATM   21  C27 UNL     1     -10.978  -1.416  -7.056  1.00  0.00     0.011 C 
HETATM   22  C28 UNL     1     -11.109  -1.529  -8.587  1.00  0.00     0.011 C 
HETATM   23  C29 UNL     1     -10.449  -0.339  -9.284  1.00  0.00     0.036 C 
ENDROOT
BRANCH   1  24
HETATM   24  C6  UNL     1      -6.260   4.418  -9.257  1.00  0.00    -0.014 C 
HETATM   25  C7  UNL     1      -5.276   4.850 -10.352  1.00  0.00     0.010 C 
BRANCH  24  26
HETATM   26  C5  UNL     1      -5.612   4.551  -7.862  1.00  0.00     0.008 C 
BRANCH  26  27
HETATM   27  C4  UNL     1      -5.801   5.949  -7.255  1.00  0.00     0.028 C 
BRANCH  27  28
HETATM   28  C3  UNL     1      -4.514   6.452  -6.661  1.00  0.00    -0.022 C 
HETATM   29  C2  UNL     1      -3.567   7.201  -7.260  1.00  0.00    -0.064 C 
HETATM   30  C1  UNL     1      -3.647   7.728  -8.669  1.00  0.00     0.045 C 
BRANCH  29  31
HETATM   31  C30 UNL     1      -2.321   7.602  -6.515  1.00  0.00     0.197 C 
BRANCH  31  32
HETATM   32  O4  UNL     1      -1.293   6.664  -6.796  1.00  0.00    -0.397 OA
HETATM   33  H48 UNL     1      -0.568   6.852  -6.180  1.00  0.00     0.209 HD
ENDBRANCH  31  32
ENDBRANCH  29  31
ENDBRANCH  27  28
ENDBRANCH  26  27
ENDBRANCH  24  26
ENDBRANCH   1  24
BRANCH  15  34
HETATM   34  O2  UNL     1      -8.437  -1.771  -4.397  1.00  0.00    -0.394 OA
HETATM   35  H30 UNL     1      -7.572  -1.344  -4.606  1.00  0.00     0.210 HD
ENDBRANCH  15  34
BRANCH  17  36
HETATM   36  O3  UNL     1     -10.713  -3.606  -4.387  1.00  0.00    -0.395 OA
HETATM   37  H34 UNL     1      -9.780  -3.337  -4.295  1.00  0.00     0.210 HD
ENDBRANCH  17  36
TORSDOF 8
ENDMDL
MODEL 4
REMARK minimizedAffinity -9.02618122
REMARK  8 active torsions:
REMARK  status: ('A' for Active; 'I' for Inactive)
REMARK    1  A    between atoms: C2_2  and  C30_33 
REMARK    2  A    between atoms: C3_3  and  C4_4 
REMARK    3  A    between atoms: C4_4  and  C5_5 
REMARK    4  A    between atoms: C5_5  and  C6_6 
REMARK    5  A    between atoms: C6_6  and  C8_8 
REMARK    6  A    between atoms: C21_22  and  O2_23 
REMARK    7  A    between atoms: C23_25  and  O3_26 
REMARK    8  A    between atoms: C30_33  and  O4_34 
ROOT
HETATM    1  C8  UNL     1       1.180   7.053  11.756  1.00  0.00    -0.001 C 
HETATM    2  C9  UNL     1       0.826   5.991  10.678  1.00  0.00     0.007 C 
HETATM    3  C10 UNL     1      -0.554   5.415  11.051  1.00  0.00     0.015 C 
HETATM    4  C11 UNL     1      -0.805   5.895  12.494  1.00  0.00    -0.012 C 
HETATM    5  C12 UNL     1      -0.074   4.900  13.451  1.00  0.00     0.021 C 
HETATM    6  C13 UNL     1      -2.232   5.966  13.017  1.00  0.00    -0.060 C 
HETATM    7  C14 UNL     1      -2.558   6.813  14.025  1.00  0.00     0.002 C 
HETATM    8  C15 UNL     1      -1.472   7.720  14.591  1.00  0.00     0.157 C 
HETATM    9  O1  UNL     1      -1.646   8.306  15.665  1.00  0.00    -0.293 OA
HETATM   10  C16 UNL     1      -0.146   7.898  13.854  1.00  0.00     0.094 C 
HETATM   11  C17 UNL     1      -0.193   7.344  12.431  1.00  0.00    -0.022 C 
HETATM   12  C18 UNL     1      -1.037   8.324  11.563  1.00  0.00     0.017 C 
HETATM   13  C19 UNL     1      -3.961   6.854  14.684  1.00  0.00     0.017 C 
HETATM   14  C20 UNL     1      -3.803   6.031  15.994  1.00  0.00     0.023 C 
HETATM   15  C21 UNL     1      -4.404   8.340  14.966  1.00  0.00     0.134 C 
HETATM   16  C22 UNL     1      -5.867   8.668  14.639  1.00  0.00     0.065 C 
HETATM   17  C23 UNL     1      -6.821   7.537  15.019  1.00  0.00     0.128 C 
HETATM   18  C24 UNL     1      -6.506   6.218  14.240  1.00  0.00    -0.017 C 
HETATM   19  C25 UNL     1      -7.447   6.190  13.001  1.00  0.00     0.018 C 
HETATM   20  C26 UNL     1      -6.865   4.969  15.073  1.00  0.00     0.018 C 
HETATM   21  C27 UNL     1      -5.016   6.216  13.707  1.00  0.00     0.011 C 
HETATM   22  C28 UNL     1      -4.536   4.851  13.176  1.00  0.00     0.011 C 
HETATM   23  C29 UNL     1      -3.217   4.992  12.416  1.00  0.00     0.036 C 
ENDROOT
BRANCH   1  24
HETATM   24  C6  UNL     1       2.145   8.163  11.244  1.00  0.00    -0.014 C 
HETATM   25  C7  UNL     1       2.937   7.688  10.018  1.00  0.00     0.010 C 
BRANCH  24  26
HETATM   26  C5  UNL     1       3.087   8.816  12.279  1.00  0.00     0.008 C 
BRANCH  26  27
HETATM   27  C4  UNL     1       3.753   7.786  13.203  1.00  0.00     0.028 C 
BRANCH  27  28
HETATM   28  C3  UNL     1       4.630   8.467  14.217  1.00  0.00    -0.022 C 
HETATM   29  C2  UNL     1       5.912   8.181  14.522  1.00  0.00    -0.064 C 
HETATM   30  C1  UNL     1       6.743   7.120  13.849  1.00  0.00     0.045 C 
BRANCH  29  31
HETATM   31  C30 UNL     1       6.639   8.959  15.588  1.00  0.00     0.197 C 
BRANCH  31  32
HETATM   32  O4  UNL     1       7.066   8.063  16.604  1.00  0.00    -0.397 OA
HETATM   33  H48 UNL     1       7.376   8.609  17.343  1.00  0.00     0.209 HD
ENDBRANCH  31  32
ENDBRANCH  29  31
ENDBRANCH  27  28
ENDBRANCH  26  27
ENDBRANCH  24  26
ENDBRANCH   1  24
BRANCH  15  34
HETATM   34  O2  UNL     1      -4.208   8.671  16.348  1.00  0.00    -0.394 OA
HETATM   35  H30 UNL     1      -3.244   8.858  16.444  1.00  0.00     0.210 HD
ENDBRANCH  15  34
BRANCH  17  36
HETATM   36  O3  UNL     1      -6.820   7.358  16.434  1.00  0.00    -0.395 OA
HETATM   37  H34 UNL     1      -5.990   7.726  16.792  1.00  0.00     0.210 HD
ENDBRANCH  17  36
TORSDOF 8
ENDMDL
MODEL 5
REMARK minimizedAffinity -8.81573772
REMARK  8 active torsions:
REMARK  status: ('A' for Active; 'I' for Inactive)
REMARK    1  A    between atoms: C2_2  and  C30_33 
REMARK    2  A    between atoms: C3_3  and  C4_4 
REMARK    3  A    between atoms: C4_4  and  C5_5 
REMARK    4  A    between atoms: C5_5  and  C6_6 
REMARK    5  A    between atoms: C6_6  and  C8_8 
REMARK    6  A    between atoms: C21_22  and  O2_23 
REMARK    7  A    between atoms: C23_25  and  O3_26 
REMARK    8  A    between atoms: C30_33  and  O4_34 
ROOT
HETATM    1  C8  UNL     1      -1.474   5.260  12.548  1.00  0.00    -0.001 C 
HETATM    2  C9  UNL     1      -0.024   4.961  13.020  1.00  0.00     0.007 C 
HETATM    3  C10 UNL     1       0.427   6.161  13.875  1.00  0.00     0.015 C 
HETATM    4  C11 UNL     1      -0.619   7.259  13.597  1.00  0.00    -0.012 C 
HETATM    5  C12 UNL     1      -0.202   7.978  12.275  1.00  0.00     0.021 C 
HETATM    6  C13 UNL     1      -0.809   8.379  14.610  1.00  0.00    -0.060 C 
HETATM    7  C14 UNL     1      -1.987   9.046  14.690  1.00  0.00     0.002 C 
HETATM    8  C15 UNL     1      -3.126   8.621  13.771  1.00  0.00     0.157 C 
HETATM    9  O1  UNL     1      -4.111   9.353  13.618  1.00  0.00    -0.293 OA
HETATM   10  C16 UNL     1      -3.057   7.299  13.008  1.00  0.00     0.094 C 
HETATM   11  C17 UNL     1      -1.932   6.396  13.510  1.00  0.00    -0.022 C 
HETATM   12  C18 UNL     1      -2.367   5.810  14.887  1.00  0.00     0.017 C 
HETATM   13  C19 UNL     1      -2.212  10.271  15.613  1.00  0.00     0.017 C 
HETATM   14  C20 UNL     1      -2.063  11.503  14.676  1.00  0.00     0.023 C 
HETATM   15  C21 UNL     1      -3.635  10.208  16.289  1.00  0.00     0.134 C 
HETATM   16  C22 UNL     1      -3.680  10.589  17.775  1.00  0.00     0.065 C 
HETATM   17  C23 UNL     1      -2.766  11.767  18.106  1.00  0.00     0.128 C 
HETATM   18  C24 UNL     1      -1.265  11.448  17.803  1.00  0.00    -0.017 C 
HETATM   19  C25 UNL     1      -0.627  10.968  19.138  1.00  0.00     0.018 C 
HETATM   20  C26 UNL     1      -0.487  12.718  17.394  1.00  0.00     0.018 C 
HETATM   21  C27 UNL     1      -1.136  10.265  16.761  1.00  0.00     0.011 C 
HETATM   22  C28 UNL     1       0.285  10.071  16.195  1.00  0.00     0.011 C 
HETATM   23  C29 UNL     1       0.398   8.748  15.439  1.00  0.00     0.036 C 
ENDROOT
BRANCH   1  24
HETATM   24  C6  UNL     1      -2.312   3.980  12.259  1.00  0.00    -0.014 C 
HETATM   25  C7  UNL     1      -2.248   3.598  10.775  1.00  0.00     0.010 C 
BRANCH  24  26
HETATM   26  C5  UNL     1      -3.772   3.959  12.763  1.00  0.00     0.008 C 
BRANCH  26  27
HETATM   27  C4  UNL     1      -4.789   3.858  11.617  1.00  0.00     0.028 C 
BRANCH  27  28
HETATM   28  C3  UNL     1      -6.190   3.754  12.155  1.00  0.00    -0.022 C 
HETATM   29  C2  UNL     1      -6.853   4.656  12.907  1.00  0.00    -0.064 C 
HETATM   30  C1  UNL     1      -6.310   5.997  13.324  1.00  0.00     0.045 C 
BRANCH  29  31
HETATM   31  C30 UNL     1      -8.257   4.378  13.378  1.00  0.00     0.197 C 
BRANCH  31  32
HETATM   32  O4  UNL     1      -8.617   3.057  13.000  1.00  0.00    -0.397 OA
HETATM   33  H48 UNL     1      -9.569   2.971  13.166  1.00  0.00     0.209 HD
ENDBRANCH  31  32
ENDBRANCH  29  31
ENDBRANCH  27  28
ENDBRANCH  26  27
ENDBRANCH  24  26
ENDBRANCH   1  24
BRANCH  15  34
HETATM   34  O2  UNL     1      -4.553  11.079  15.614  1.00  0.00    -0.394 OA
HETATM   35  H30 UNL     1      -4.832  10.595  14.801  1.00  0.00     0.210 HD
ENDBRANCH  15  34
BRANCH  17  36
HETATM   36  O3  UNL     1      -3.227  12.940  17.439  1.00  0.00    -0.395 OA
HETATM   37  H34 UNL     1      -3.774  12.669  16.677  1.00  0.00     0.210 HD
ENDBRANCH  17  36
TORSDOF 8
ENDMDL
MODEL 6
REMARK minimizedAffinity -8.71027088
REMARK  8 active torsions:
REMARK  status: ('A' for Active; 'I' for Inactive)
REMARK    1  A    between atoms: C2_2  and  C30_33 
REMARK    2  A    between atoms: C3_3  and  C4_4 
REMARK    3  A    between atoms: C4_4  and  C5_5 
REMARK    4  A    between atoms: C5_5  and  C6_6 
REMARK    5  A    between atoms: C6_6  and  C8_8 
REMARK    6  A    between atoms: C21_22  and  O2_23 
REMARK    7  A    between atoms: C23_25  and  O3_26 
REMARK    8  A    between atoms: C30_33  and  O4_34 
ROOT
HETATM    1  C8  UNL     1      -5.987   7.144  15.475  1.00  0.00    -0.001 C 
HETATM    2  C9  UNL     1      -6.441   8.407  14.691  1.00  0.00     0.007 C 
HETATM    3  C10 UNL     1      -5.225   8.890  13.876  1.00  0.00     0.015 C 
HETATM    4  C11 UNL     1      -4.026   8.120  14.462  1.00  0.00    -0.012 C 
HETATM    5  C12 UNL     1      -3.548   8.895  15.732  1.00  0.00     0.021 C 
HETATM    6  C13 UNL     1      -2.773   7.940  13.618  1.00  0.00    -0.060 C 
HETATM    7  C14 UNL     1      -1.930   6.902  13.842  1.00  0.00     0.002 C 
HETATM    8  C15 UNL     1      -2.290   5.898  14.931  1.00  0.00     0.157 C 
HETATM    9  O1  UNL     1      -1.442   5.101  15.350  1.00  0.00    -0.293 OA
HETATM   10  C16 UNL     1      -3.692   5.880  15.539  1.00  0.00     0.094 C 
HETATM   11  C17 UNL     1      -4.684   6.718  14.736  1.00  0.00    -0.022 C 
HETATM   12  C18 UNL     1      -5.022   5.938  13.430  1.00  0.00     0.017 C 
HETATM   13  C19 UNL     1      -0.580   6.722  13.101  1.00  0.00     0.017 C 
HETATM   14  C20 UNL     1       0.488   7.255  14.097  1.00  0.00     0.023 C 
HETATM   15  C21 UNL     1      -0.344   5.209  12.728  1.00  0.00     0.134 C 
HETATM   16  C22 UNL     1       0.222   4.954  11.324  1.00  0.00     0.065 C 
HETATM   17  C23 UNL     1       1.281   5.980  10.923  1.00  0.00     0.128 C 
HETATM   18  C24 UNL     1       0.704   7.433  10.881  1.00  0.00    -0.017 C 
HETATM   19  C25 UNL     1       0.302   7.717   9.406  1.00  0.00     0.018 C 
HETATM   20  C26 UNL     1       1.780   8.481  11.237  1.00  0.00     0.018 C 
HETATM   21  C27 UNL     1      -0.606   7.548  11.762  1.00  0.00     0.011 C 
HETATM   22  C28 UNL     1      -1.081   8.994  12.004  1.00  0.00     0.011 C 
HETATM   23  C29 UNL     1      -2.490   9.017  12.596  1.00  0.00     0.036 C 
ENDROOT
BRANCH   1  24
HETATM   24  C6  UNL     1      -7.152   6.166  15.810  1.00  0.00    -0.014 C 
HETATM   25  C7  UNL     1      -7.312   5.100  14.720  1.00  0.00     0.010 C 
BRANCH  24  26
HETATM   26  C5  UNL     1      -8.520   6.788  16.167  1.00  0.00     0.008 C 
BRANCH  26  27
HETATM   27  C4  UNL     1      -9.568   6.578  15.064  1.00  0.00     0.028 C 
BRANCH  27  28
HETATM   28  C3  UNL     1     -10.081   7.898  14.557  1.00  0.00    -0.022 C 
HETATM   29  C2  UNL     1     -11.222   8.132  13.877  1.00  0.00    -0.064 C 
HETATM   30  C1  UNL     1     -12.247   7.087  13.526  1.00  0.00     0.045 C 
BRANCH  29  31
HETATM   31  C30 UNL     1     -11.573   9.526  13.425  1.00  0.00     0.197 C 
BRANCH  31  32
HETATM   32  O4  UNL     1     -11.627   9.552  12.006  1.00  0.00    -0.397 OA
HETATM   33  H48 UNL     1     -11.688  10.484  11.748  1.00  0.00     0.209 HD
ENDBRANCH  31  32
ENDBRANCH  29  31
ENDBRANCH  27  28
ENDBRANCH  26  27
ENDBRANCH  24  26
ENDBRANCH   1  24
BRANCH  15  34
HETATM   34  O2  UNL     1       0.566   4.598  13.654  1.00  0.00    -0.394 OA
HETATM   35  H30 UNL     1       0.032   4.397  14.459  1.00  0.00     0.210 HD
ENDBRANCH  15  34
BRANCH  17  36
HETATM   36  O3  UNL     1       2.418   5.860  11.776  1.00  0.00    -0.395 OA
HETATM   37  H34 UNL     1       2.140   5.427  12.605  1.00  0.00     0.210 HD
ENDBRANCH  17  36
TORSDOF 8
ENDMDL
MODEL 7
REMARK minimizedAffinity -8.61625195
REMARK  8 active torsions:
REMARK  status: ('A' for Active; 'I' for Inactive)
REMARK    1  A    between atoms: C2_2  and  C30_33 
REMARK    2  A    between atoms: C3_3  and  C4_4 
REMARK    3  A    between atoms: C4_4  and  C5_5 
REMARK    4  A    between atoms: C5_5  and  C6_6 
REMARK    5  A    between atoms: C6_6  and  C8_8 
REMARK    6  A    between atoms: C21_22  and  O2_23 
REMARK    7  A    between atoms: C23_25  and  O3_26 
REMARK    8  A    between atoms: C30_33  and  O4_34 
ROOT
HETATM    1  C8  UNL     1      -1.337   6.228  12.230  1.00  0.00    -0.001 C 
HETATM    2  C9  UNL     1      -0.904   5.478  10.939  1.00  0.00     0.007 C 
HETATM    3  C10 UNL     1       0.538   5.922  10.624  1.00  0.00     0.015 C 
HETATM    4  C11 UNL     1       0.777   7.153  11.520  1.00  0.00    -0.012 C 
HETATM    5  C12 UNL     1       0.178   8.393  10.780  1.00  0.00     0.021 C 
HETATM    6  C13 UNL     1       2.202   7.555  11.868  1.00  0.00    -0.060 C 
HETATM    7  C14 UNL     1       2.466   8.261  12.996  1.00  0.00     0.002 C 
HETATM    8  C15 UNL     1       1.308   8.606  13.924  1.00  0.00     0.157 C 
HETATM    9  O1  UNL     1       1.449   9.459  14.808  1.00  0.00    -0.293 OA
HETATM   10  C16 UNL     1      -0.049   7.924  13.760  1.00  0.00     0.094 C 
HETATM   11  C17 UNL     1       0.016   6.716  12.826  1.00  0.00    -0.022 C 
HETATM   12  C18 UNL     1       0.731   5.560  13.588  1.00  0.00     0.017 C 
HETATM   13  C19 UNL     1       3.874   8.803  13.353  1.00  0.00     0.017 C 
HETATM   14  C20 UNL     1       3.838  10.299  12.931  1.00  0.00     0.023 C 
HETATM   15  C21 UNL     1       4.168   8.626  14.892  1.00  0.00     0.134 C 
HETATM   16  C22 UNL     1       5.580   8.139  15.244  1.00  0.00     0.065 C 
HETATM   17  C23 UNL     1       6.656   8.770  14.362  1.00  0.00     0.128 C 
HETATM   18  C24 UNL     1       6.459   8.416  12.852  1.00  0.00    -0.017 C 
HETATM   19  C25 UNL     1       7.363   7.186  12.554  1.00  0.00     0.018 C 
HETATM   20  C26 UNL     1       6.967   9.548  11.934  1.00  0.00     0.018 C 
HETATM   21  C27 UNL     1       4.964   7.990  12.560  1.00  0.00     0.011 C 
HETATM   22  C28 UNL     1       4.612   7.895  11.062  1.00  0.00     0.011 C 
HETATM   23  C29 UNL     1       3.267   7.201  10.857  1.00  0.00     0.036 C 
ENDROOT
BRANCH   1  24
HETATM   24  C6  UNL     1      -2.425   5.477  13.052  1.00  0.00    -0.014 C 
HETATM   25  C7  UNL     1      -2.134   5.553  14.556  1.00  0.00     0.010 C 
BRANCH  24  26
HETATM   26  C5  UNL     1      -2.755   4.028  12.634  1.00  0.00     0.008 C 
BRANCH  26  27
HETATM   27  C4  UNL     1      -3.889   3.956  11.601  1.00  0.00     0.028 C 
BRANCH  27  28
HETATM   28  C3  UNL     1      -5.225   3.841  12.281  1.00  0.00    -0.022 C 
HETATM   29  C2  UNL     1      -6.116   2.833  12.185  1.00  0.00    -0.064 C 
HETATM   30  C1  UNL     1      -5.910   1.574  11.386  1.00  0.00     0.045 C 
BRANCH  29  31
HETATM   31  C30 UNL     1      -7.425   2.893  12.927  1.00  0.00     0.197 C 
BRANCH  31  32
HETATM   32  O4  UNL     1      -8.203   1.755  12.584  1.00  0.00    -0.397 OA
HETATM   33  H48 UNL     1      -9.091   1.908  12.942  1.00  0.00     0.209 HD
ENDBRANCH  31  32
ENDBRANCH  29  31
ENDBRANCH  27  28
ENDBRANCH  26  27
ENDBRANCH  24  26
ENDBRANCH   1  24
BRANCH  15  34
HETATM   34  O2  UNL     1       3.977   9.866  15.587  1.00  0.00    -0.394 OA
HETATM   35  H30 UNL     1       3.001   9.959  15.704  1.00  0.00     0.210 HD
ENDBRANCH  15  34
BRANCH  17  36
HETATM   36  O3  UNL     1       6.712  10.175  14.599  1.00  0.00    -0.395 OA
HETATM   37  H34 UNL     1       5.858  10.460  14.977  1.00  0.00     0.210 HD
ENDBRANCH  17  36
TORSDOF 8
ENDMDL
MODEL 8
REMARK minimizedAffinity -8.58650303
REMARK  8 active torsions:
REMARK  status: ('A' for Active; 'I' for Inactive)
REMARK    1  A    between atoms: C2_2  and  C30_33 
REMARK    2  A    between atoms: C3_3  and  C4_4 
REMARK    3  A    between atoms: C4_4  and  C5_5 
REMARK    4  A    between atoms: C5_5  and  C6_6 
REMARK    5  A    between atoms: C6_6  and  C8_8 
REMARK    6  A    between atoms: C21_22  and  O2_23 
REMARK    7  A    between atoms: C23_25  and  O3_26 
REMARK    8  A    between atoms: C30_33  and  O4_34 
ROOT
HETATM    1  C8  UNL     1      -5.534   6.971  14.457  1.00  0.00    -0.001 C 
HETATM    2  C9  UNL     1      -5.441   8.003  15.615  1.00  0.00     0.007 C 
HETATM    3  C10 UNL     1      -3.948   8.344  15.792  1.00  0.00     0.015 C 
HETATM    4  C11 UNL     1      -3.198   7.267  14.985  1.00  0.00    -0.012 C 
HETATM    5  C12 UNL     1      -3.070   6.005  15.897  1.00  0.00     0.021 C 
HETATM    6  C13 UNL     1      -1.782   7.548  14.504  1.00  0.00    -0.060 C 
HETATM    7  C14 UNL     1      -1.280   6.908  13.419  1.00  0.00     0.002 C 
HETATM    8  C15 UNL     1      -2.180   5.932  12.671  1.00  0.00     0.157 C 
HETATM    9  O1  UNL     1      -1.698   5.139  11.854  1.00  0.00    -0.293 OA
HETATM   10  C16 UNL     1      -3.685   5.903  12.937  1.00  0.00     0.094 C 
HETATM   11  C17 UNL     1      -4.156   7.109  13.746  1.00  0.00    -0.022 C 
HETATM   12  C18 UNL     1      -4.143   8.352  12.806  1.00  0.00     0.017 C 
HETATM   13  C19 UNL     1       0.188   7.058  12.943  1.00  0.00     0.017 C 
HETATM   14  C20 UNL     1       0.911   5.797  13.496  1.00  0.00     0.023 C 
HETATM   15  C21 UNL     1       0.261   7.144  11.371  1.00  0.00     0.134 C 
HETATM   16  C22 UNL     1       1.232   8.191  10.810  1.00  0.00     0.065 C 
HETATM   17  C23 UNL     1       2.533   8.272  11.607  1.00  0.00     0.128 C 
HETATM   18  C24 UNL     1       2.284   8.690  13.093  1.00  0.00    -0.017 C 
HETATM   19  C25 UNL     1       2.493  10.230  13.171  1.00  0.00     0.018 C 
HETATM   20  C26 UNL     1       3.336   8.071  14.039  1.00  0.00     0.018 C 
HETATM   21  C27 UNL     1       0.792   8.389  13.525  1.00  0.00     0.011 C 
HETATM   22  C28 UNL     1       0.535   8.507  15.040  1.00  0.00     0.011 C 
HETATM   23  C29 UNL     1      -0.963   8.499  15.345  1.00  0.00     0.036 C 
ENDROOT
BRANCH   1  24
HETATM   24  C6  UNL     1      -6.900   6.996  13.709  1.00  0.00    -0.014 C 
HETATM   25  C7  UNL     1      -8.036   7.434  14.642  1.00  0.00     0.010 C 
BRANCH  24  26
HETATM   26  C5  UNL     1      -7.302   5.728  12.923  1.00  0.00     0.008 C 
BRANCH  26  27
HETATM   27  C4  UNL     1      -7.535   4.517  13.838  1.00  0.00     0.028 C 
BRANCH  27  28
HETATM   28  C3  UNL     1      -7.506   3.238  13.048  1.00  0.00    -0.022 C 
HETATM   29  C2  UNL     1      -6.460   2.699  12.390  1.00  0.00    -0.064 C 
HETATM   30  C1  UNL     1      -5.069   3.277  12.361  1.00  0.00     0.045 C 
BRANCH  29  31
HETATM   31  C30 UNL     1      -6.615   1.409  11.627  1.00  0.00     0.197 C 
BRANCH  31  32
HETATM   32  O4  UNL     1      -5.473   1.219  10.804  1.00  0.00    -0.397 OA
HETATM   33  H48 UNL     1      -5.678   0.480  10.212  1.00  0.00     0.209 HD
ENDBRANCH  31  32
ENDBRANCH  29  31
ENDBRANCH  27  28
ENDBRANCH  26  27
ENDBRANCH  24  26
ENDBRANCH   1  24
BRANCH  15  34
HETATM   34  O2  UNL     1       0.653   5.881  10.815  1.00  0.00    -0.394 OA
HETATM   35  H30 UNL     1      -0.159   5.321  10.825  1.00  0.00     0.210 HD
ENDBRANCH  15  34
BRANCH  17  36
HETATM   36  O3  UNL     1       3.250   7.045  11.489  1.00  0.00    -0.395 OA
HETATM   37  H34 UNL     1       2.621   6.341  11.243  1.00  0.00     0.210 HD
ENDBRANCH  17  36
TORSDOF 8
ENDMDL
MODEL 9
REMARK minimizedAffinity -8.53001213
REMARK  8 active torsions:
REMARK  status: ('A' for Active; 'I' for Inactive)
REMARK    1  A    between atoms: C2_2  and  C30_33 
REMARK    2  A    between atoms: C3_3  and  C4_4 
REMARK    3  A    between atoms: C4_4  and  C5_5 
REMARK    4  A    between atoms: C5_5  and  C6_6 
REMARK    5  A    between atoms: C6_6  and  C8_8 
REMARK    6  A    between atoms: C21_22  and  O2_23 
REMARK    7  A    between atoms: C23_25  and  O3_26 
REMARK    8  A    between atoms: C30_33  and  O4_34 
ROOT
HETATM    1  C8  UNL     1      -5.569   7.602  15.410  1.00  0.00    -0.001 C 
HETATM    2  C9  UNL     1      -5.645   9.115  15.062  1.00  0.00     0.007 C 
HETATM    3  C10 UNL     1      -4.283   9.505  14.455  1.00  0.00     0.015 C 
HETATM    4  C11 UNL     1      -3.353   8.320  14.777  1.00  0.00    -0.012 C 
HETATM    5  C12 UNL     1      -2.820   8.526  16.231  1.00  0.00     0.021 C 
HETATM    6  C13 UNL     1      -2.107   8.100  13.931  1.00  0.00    -0.060 C 
HETATM    7  C14 UNL     1      -1.553   6.866  13.823  1.00  0.00     0.002 C 
HETATM    8  C15 UNL     1      -2.231   5.702  14.534  1.00  0.00     0.157 C 
HETATM    9  O1  UNL     1      -1.634   4.630  14.686  1.00  0.00    -0.293 OA
HETATM   10  C16 UNL     1      -3.647   5.848  15.091  1.00  0.00     0.094 C 
HETATM   11  C17 UNL     1      -4.342   7.111  14.586  1.00  0.00    -0.022 C 
HETATM   12  C18 UNL     1      -4.737   6.877  13.097  1.00  0.00     0.017 C 
HETATM   13  C19 UNL     1      -0.223   6.591  13.076  1.00  0.00     0.017 C 
HETATM   14  C20 UNL     1       0.849   6.511  14.200  1.00  0.00     0.023 C 
HETATM   15  C21 UNL     1      -0.314   5.255  12.244  1.00  0.00     0.134 C 
HETATM   16  C22 UNL     1       0.298   5.307  10.838  1.00  0.00     0.065 C 
HETATM   17  C23 UNL     1       1.597   6.109  10.793  1.00  0.00     0.128 C 
HETATM   18  C24 UNL     1       1.381   7.601  11.208  1.00  0.00    -0.017 C 
HETATM   19  C25 UNL     1       1.188   8.412   9.895  1.00  0.00     0.018 C 
HETATM   20  C26 UNL     1       2.637   8.187  11.889  1.00  0.00     0.018 C 
HETATM   21  C27 UNL     1       0.063   7.765  12.068  1.00  0.00     0.011 C 
HETATM   22  C28 UNL     1      -0.082   9.138  12.752  1.00  0.00     0.011 C 
HETATM   23  C29 UNL     1      -1.492   9.330  13.307  1.00  0.00     0.036 C 
ENDROOT
BRANCH   1  24
HETATM   24  C6  UNL     1      -6.954   6.892  15.407  1.00  0.00    -0.014 C 
HETATM   25  C7  UNL     1      -6.975   5.712  16.387  1.00  0.00     0.010 C 
BRANCH  24  26
HETATM   26  C5  UNL     1      -7.533   6.471  14.038  1.00  0.00     0.008 C 
BRANCH  26  27
HETATM   27  C4  UNL     1      -7.653   4.946  13.893  1.00  0.00     0.028 C 
BRANCH  27  28
HETATM   28  C3  UNL     1      -6.660   4.425  12.892  1.00  0.00    -0.022 C 
HETATM   29  C2  UNL     1      -6.577   3.178  12.385  1.00  0.00    -0.064 C 
HETATM   30  C1  UNL     1      -7.524   2.052  12.707  1.00  0.00     0.045 C 
BRANCH  29  31
HETATM   31  C30 UNL     1      -5.497   2.822  11.397  1.00  0.00     0.197 C 
BRANCH  31  32
HETATM   32  O4  UNL     1      -5.768   1.534  10.862  1.00  0.00    -0.397 OA
HETATM   33  H48 UNL     1      -4.979   1.268  10.365  1.00  0.00     0.209 HD
ENDBRANCH  31  32
ENDBRANCH  29  31
ENDBRANCH  27  28
ENDBRANCH  26  27
ENDBRANCH  24  26
ENDBRANCH   1  24
BRANCH  15  34
HETATM   34  O2  UNL     1       0.343   4.184  12.938  1.00  0.00    -0.394 OA
HETATM   35  H30 UNL     1      -0.292   3.887  13.633  1.00  0.00     0.210 HD
ENDBRANCH  15  34
BRANCH  17  36
HETATM   36  O3  UNL     1       2.595   5.456  11.574  1.00  0.00    -0.395 OA
HETATM   37  H34 UNL     1       2.152   4.874  12.221  1.00  0.00     0.210 HD
ENDBRANCH  17  36
TORSDOF 8
ENDMDL
