MODEL 1
REMARK minimizedAffinity -7.37989044
REMARK CNNscore 0.535483479
REMARK CNNaffinity 7.23494148
REMARK  6 active torsions:
REMARK  status: ('A' for Active; 'I' for Inactive)
REMARK    1  A    between atoms: C2_2  and  C30_32 
REMARK    2  A    between atoms: C3_3  and  C4_4 
REMARK    3  A    between atoms: C4_4  and  C5_5 
REMARK    4  A    between atoms: C5_5  and  C6_6 
REMARK    5  A    between atoms: C6_6  and  C8_8 
REMARK    6  A    between atoms: C30_32  and  O4_34 
ROOT
HETATM    1  C8  UNL     1      -9.231   6.551  14.663  1.00  0.00    -0.002 C 
HETATM    2  C9  UNL     1      -9.626   6.403  13.167  1.00  0.00     0.007 C 
HETATM    3  C10 UNL     1     -10.728   7.444  12.885  1.00  0.00     0.015 C 
HETATM    4  C11 UNL     1     -11.227   7.878  14.276  1.00  0.00    -0.005 C 
HETATM    5  C12 UNL     1     -12.247   6.797  14.757  1.00  0.00     0.021 C 
HETATM    6  C13 UNL     1     -11.957   9.199  14.447  1.00  0.00    -0.000 C 
HETATM    7  C14 UNL     1     -11.921   9.907  15.604  1.00  0.00    -0.060 C 
HETATM    8  C15 UNL     1     -11.033   9.403  16.763  1.00  0.00     0.036 C 
HETATM    9  C16 UNL     1     -10.203   8.117  16.542  1.00  0.00     0.015 C 
HETATM   10  C17 UNL     1      -9.858   7.919  15.062  1.00  0.00    -0.028 C 
HETATM   11  C18 UNL     1      -8.931   9.087  14.613  1.00  0.00     0.016 C 
HETATM   12  C19 UNL     1     -12.796  11.175  15.876  1.00  0.00    -0.014 C 
HETATM   13  C20 UNL     1     -13.782  10.754  17.003  1.00  0.00     0.020 C 
HETATM   14  C21 UNL     1     -11.937  12.360  16.408  1.00  0.00     0.021 C 
HETATM   15  C22 UNL     1     -11.467  13.302  15.316  1.00  0.00     0.080 C 
HETATM   16  C23 UNL     1     -12.650  13.984  14.669  1.00  0.00     0.135 C 
HETATM   17  O1  UNL     1     -12.542  15.135  14.240  1.00  0.00    -0.297 OA
HETATM   18  C24 UNL     1     -13.963  13.196  14.562  1.00  0.00     0.018 C 
HETATM   19  C25 UNL     1     -14.900  13.670  15.690  1.00  0.00     0.023 C 
HETATM   20  C26 UNL     1     -14.656  13.591  13.235  1.00  0.00     0.023 C 
HETATM   21  C27 UNL     1     -13.667  11.644  14.625  1.00  0.00     0.020 C 
HETATM   22  C28 UNL     1     -13.069  11.160  13.294  1.00  0.00     0.090 C 
HETATM   23  C29 UNL     1     -12.794   9.689  13.328  1.00  0.00     0.157 C 
HETATM   24  O2  UNL     1     -13.196   8.940  12.443  1.00  0.00    -0.293 OA
ENDROOT
BRANCH   1  25
HETATM   25  C6  UNL     1      -7.750   6.170  14.961  1.00  0.00    -0.014 C 
HETATM   26  C7  UNL     1      -7.232   6.441  16.379  1.00  0.00     0.010 C 
BRANCH  25  27
HETATM   27  C5  UNL     1      -7.441   4.717  14.537  1.00  0.00     0.008 C 
BRANCH  27  28
HETATM   28  C4  UNL     1      -6.466   4.622  13.358  1.00  0.00     0.028 C 
BRANCH  28  29
HETATM   29  C3  UNL     1      -6.621   3.316  12.626  1.00  0.00    -0.013 C 
HETATM   30  C2  UNL     1      -5.739   2.704  11.811  1.00  0.00     0.008 C 
HETATM   31  C1  UNL     1      -6.011   1.345  11.232  1.00  0.00     0.055 C 
BRANCH  30  32
HETATM   32  C30 UNL     1      -4.428   3.264  11.415  1.00  0.00     0.171 C 
HETATM   33  O3  UNL     1      -3.510   3.515  12.177  1.00  0.00    -0.646 OA
BRANCH  32  34
HETATM   34  O4  UNL     1      -4.283   3.393  10.087  1.00  0.00    -0.773 OA
HETATM   35  H44 UNL     1      -3.367   3.727   9.987  1.00  0.00     0.167 HD
ENDBRANCH  32  34
ENDBRANCH  30  32
ENDBRANCH  28  29
ENDBRANCH  27  28
ENDBRANCH  25  27
ENDBRANCH   1  25
TORSDOF 6
ENDMDL
MODEL 2
REMARK minimizedAffinity -6.72853518
REMARK CNNscore 0.38575691
REMARK CNNaffinity 6.27633142
REMARK  6 active torsions:
REMARK  status: ('A' for Active; 'I' for Inactive)
REMARK    1  A    between atoms: C2_2  and  C30_32 
REMARK    2  A    between atoms: C3_3  and  C4_4 
REMARK    3  A    between atoms: C4_4  and  C5_5 
REMARK    4  A    between atoms: C5_5  and  C6_6 
REMARK    5  A    between atoms: C6_6  and  C8_8 
REMARK    6  A    between atoms: C30_32  and  O4_34 
ROOT
HETATM    1  C8  UNL     1      -3.332  12.744  17.854  1.00  0.00    -0.002 C 
HETATM    2  C9  UNL     1      -1.877  12.970  18.351  1.00  0.00     0.007 C 
HETATM    3  C10 UNL     1      -1.010  11.853  17.735  1.00  0.00     0.015 C 
HETATM    4  C11 UNL     1      -2.018  10.796  17.245  1.00  0.00    -0.005 C 
HETATM    5  C12 UNL     1      -2.414   9.929  18.484  1.00  0.00     0.021 C 
HETATM    6  C13 UNL     1      -1.611   9.788  16.184  1.00  0.00    -0.000 C 
HETATM    7  C14 UNL     1      -2.502   9.241  15.319  1.00  0.00    -0.060 C 
HETATM    8  C15 UNL     1      -3.969   9.726  15.348  1.00  0.00     0.036 C 
HETATM    9  C16 UNL     1      -4.352  10.835  16.355  1.00  0.00     0.015 C 
HETATM   10  C17 UNL     1      -3.155  11.735  16.682  1.00  0.00    -0.028 C 
HETATM   11  C18 UNL     1      -2.737  12.487  15.384  1.00  0.00     0.016 C 
HETATM   12  C19 UNL     1      -2.156   8.077  14.333  1.00  0.00    -0.014 C 
HETATM   13  C20 UNL     1      -2.986   6.860  14.834  1.00  0.00     0.020 C 
HETATM   14  C21 UNL     1      -2.611   8.402  12.880  1.00  0.00     0.021 C 
HETATM   15  C22 UNL     1      -1.519   9.026  12.032  1.00  0.00     0.080 C 
HETATM   16  C23 UNL     1      -0.384   8.048  11.838  1.00  0.00     0.135 C 
HETATM   17  O1  UNL     1       0.267   8.055  10.791  1.00  0.00    -0.297 OA
HETATM   18  C24 UNL     1      -0.076   7.069  12.980  1.00  0.00     0.018 C 
HETATM   19  C25 UNL     1      -0.696   5.704  12.623  1.00  0.00     0.023 C 
HETATM   20  C26 UNL     1       1.455   6.847  13.023  1.00  0.00     0.023 C 
HETATM   21  C27 UNL     1      -0.620   7.649  14.347  1.00  0.00     0.020 C 
HETATM   22  C28 UNL     1       0.289   8.784  14.845  1.00  0.00     0.090 C 
HETATM   23  C29 UNL     1      -0.201   9.337  16.147  1.00  0.00     0.157 C 
HETATM   24  O2  UNL     1       0.545   9.461  17.114  1.00  0.00    -0.293 OA
ENDROOT
BRANCH   1  25
HETATM   25  C6  UNL     1      -4.165  14.056  17.734  1.00  0.00    -0.014 C 
HETATM   26  C7  UNL     1      -3.631  15.137  16.787  1.00  0.00     0.010 C 
BRANCH  25  27
HETATM   27  C5  UNL     1      -5.652  13.758  17.437  1.00  0.00     0.008 C 
BRANCH  27  28
HETATM   28  C4  UNL     1      -6.593  14.172  18.575  1.00  0.00     0.028 C 
BRANCH  28  29
HETATM   29  C3  UNL     1      -6.007  13.829  19.918  1.00  0.00    -0.013 C 
HETATM   30  C2  UNL     1      -6.654  13.522  21.060  1.00  0.00     0.008 C 
HETATM   31  C1  UNL     1      -5.915  13.105  22.299  1.00  0.00     0.055 C 
BRANCH  30  32
HETATM   32  C30 UNL     1      -8.125  13.536  21.224  1.00  0.00     0.171 C 
HETATM   33  O3  UNL     1      -8.906  12.813  20.631  1.00  0.00    -0.646 OA
BRANCH  32  34
HETATM   34  O4  UNL     1      -8.546  14.372  22.186  1.00  0.00    -0.773 OA
HETATM   35  H44 UNL     1      -9.516  14.236  22.201  1.00  0.00     0.167 HD
ENDBRANCH  32  34
ENDBRANCH  30  32
ENDBRANCH  28  29
ENDBRANCH  27  28
ENDBRANCH  25  27
ENDBRANCH   1  25
TORSDOF 6
ENDMDL
MODEL 3
REMARK minimizedAffinity -9.95770931
REMARK CNNscore 0.379317701
REMARK CNNaffinity 6.99694681
REMARK  6 active torsions:
REMARK  status: ('A' for Active; 'I' for Inactive)
REMARK    1  A    between atoms: C2_2  and  C30_32 
REMARK    2  A    between atoms: C3_3  and  C4_4 
REMARK    3  A    between atoms: C4_4  and  C5_5 
REMARK    4  A    between atoms: C5_5  and  C6_6 
REMARK    5  A    between atoms: C6_6  and  C8_8 
REMARK    6  A    between atoms: C30_32  and  O4_34 
ROOT
HETATM    1  C8  UNL     1      -5.058   6.983  14.645  1.00  0.00    -0.002 C 
HETATM    2  C9  UNL     1      -5.409   8.163  13.697  1.00  0.00     0.007 C 
HETATM    3  C10 UNL     1      -4.102   8.586  12.998  1.00  0.00     0.015 C 
HETATM    4  C11 UNL     1      -2.980   7.941  13.833  1.00  0.00    -0.005 C 
HETATM    5  C12 UNL     1      -2.729   8.871  15.063  1.00  0.00     0.021 C 
HETATM    6  C13 UNL     1      -1.605   7.724  13.226  1.00  0.00    -0.000 C 
HETATM    7  C14 UNL     1      -0.785   6.718  13.620  1.00  0.00    -0.060 C 
HETATM    8  C15 UNL     1      -1.298   5.696  14.658  1.00  0.00     0.036 C 
HETATM    9  C16 UNL     1      -2.742   5.856  15.189  1.00  0.00     0.015 C 
HETATM   10  C17 UNL     1      -3.644   6.546  14.160  1.00  0.00    -0.028 C 
HETATM   11  C18 UNL     1      -3.766   5.621  12.914  1.00  0.00     0.016 C 
HETATM   12  C19 UNL     1       0.699   6.568  13.146  1.00  0.00    -0.014 C 
HETATM   13  C20 UNL     1       1.558   6.803  14.422  1.00  0.00     0.020 C 
HETATM   14  C21 UNL     1       0.993   5.129  12.629  1.00  0.00     0.021 C 
HETATM   15  C22 UNL     1       0.827   4.983  11.128  1.00  0.00     0.080 C 
HETATM   16  C23 UNL     1       1.844   5.834  10.404  1.00  0.00     0.135 C 
HETATM   17  O1  UNL     1       2.302   5.464   9.322  1.00  0.00    -0.297 OA
HETATM   18  C24 UNL     1       2.267   7.158  11.056  1.00  0.00     0.018 C 
HETATM   19  C25 UNL     1       3.629   6.940  11.744  1.00  0.00     0.023 C 
HETATM   20  C26 UNL     1       2.515   8.192   9.931  1.00  0.00     0.023 C 
HETATM   21  C27 UNL     1       1.146   7.646  12.060  1.00  0.00     0.020 C 
HETATM   22  C28 UNL     1      -0.054   8.214  11.285  1.00  0.00     0.090 C 
HETATM   23  C29 UNL     1      -1.121   8.695  12.218  1.00  0.00     0.157 C 
HETATM   24  O2  UNL     1      -1.606   9.818  12.114  1.00  0.00    -0.293 OA
ENDROOT
BRANCH   1  25
HETATM   25  C6  UNL     1      -6.233   5.983  14.865  1.00  0.00    -0.014 C 
HETATM   26  C7  UNL     1      -6.771   5.842  16.294  1.00  0.00     0.010 C 
BRANCH  25  27
HETATM   27  C5  UNL     1      -7.388   6.239  13.871  1.00  0.00     0.008 C 
BRANCH  27  28
HETATM   28  C4  UNL     1      -7.728   5.018  13.008  1.00  0.00     0.028 C 
BRANCH  28  29
HETATM   29  C3  UNL     1      -6.492   4.437  12.376  1.00  0.00    -0.013 C 
HETATM   30  C2  UNL     1      -6.257   3.159  12.017  1.00  0.00     0.008 C 
HETATM   31  C1  UNL     1      -4.998   2.758  11.302  1.00  0.00     0.055 C 
BRANCH  30  32
HETATM   32  C30 UNL     1      -7.188   2.032  12.254  1.00  0.00     0.171 C 
HETATM   33  O3  UNL     1      -8.184   2.078  12.954  1.00  0.00    -0.646 OA
BRANCH  32  34
HETATM   34  O4  UNL     1      -6.894   0.938  11.535  1.00  0.00    -0.773 OA
HETATM   35  H44 UNL     1      -7.611   0.312  11.766  1.00  0.00     0.167 HD
ENDBRANCH  32  34
ENDBRANCH  30  32
ENDBRANCH  28  29
ENDBRANCH  27  28
ENDBRANCH  25  27
ENDBRANCH   1  25
TORSDOF 6
ENDMDL
MODEL 4
REMARK minimizedAffinity -7.49067688
REMARK CNNscore 0.357573271
REMARK CNNaffinity 6.77512884
REMARK  6 active torsions:
REMARK  status: ('A' for Active; 'I' for Inactive)
REMARK    1  A    between atoms: C2_2  and  C30_32 
REMARK    2  A    between atoms: C3_3  and  C4_4 
REMARK    3  A    between atoms: C4_4  and  C5_5 
REMARK    4  A    between atoms: C5_5  and  C6_6 
REMARK    5  A    between atoms: C6_6  and  C8_8 
REMARK    6  A    between atoms: C30_32  and  O4_34 
ROOT
HETATM    1  C8  UNL     1      -9.329   7.012  14.022  1.00  0.00    -0.002 C 
HETATM    2  C9  UNL     1      -8.883   6.950  15.510  1.00  0.00     0.007 C 
HETATM    3  C10 UNL     1      -9.873   7.816  16.314  1.00  0.00     0.015 C 
HETATM    4  C11 UNL     1     -10.601   8.669  15.259  1.00  0.00    -0.005 C 
HETATM    5  C12 UNL     1      -9.672   9.881  14.926  1.00  0.00     0.021 C 
HETATM    6  C13 UNL     1     -11.948   9.293  15.578  1.00  0.00    -0.000 C 
HETATM    7  C14 UNL     1     -12.880   9.543  14.624  1.00  0.00    -0.060 C 
HETATM    8  C15 UNL     1     -12.605   9.095  13.172  1.00  0.00     0.036 C 
HETATM    9  C16 UNL     1     -11.278   8.358  12.874  1.00  0.00     0.015 C 
HETATM   10  C17 UNL     1     -10.766   7.603  14.106  1.00  0.00    -0.028 C 
HETATM   11  C18 UNL     1     -11.789   6.482  14.454  1.00  0.00     0.016 C 
HETATM   12  C19 UNL     1     -14.202  10.339  14.886  1.00  0.00    -0.014 C 
HETATM   13  C20 UNL     1     -14.052  11.654  14.067  1.00  0.00     0.020 C 
HETATM   14  C21 UNL     1     -15.447   9.577  14.346  1.00  0.00     0.021 C 
HETATM   15  C22 UNL     1     -16.128   8.715  15.393  1.00  0.00     0.080 C 
HETATM   16  C23 UNL     1     -16.692   9.581  16.494  1.00  0.00     0.135 C 
HETATM   17  O1  UNL     1     -17.725   9.245  17.078  1.00  0.00    -0.297 OA
HETATM   18  C24 UNL     1     -15.937  10.867  16.857  1.00  0.00     0.018 C 
HETATM   19  C25 UNL     1     -16.661  12.053  16.190  1.00  0.00     0.023 C 
HETATM   20  C26 UNL     1     -16.066  11.089  18.383  1.00  0.00     0.023 C 
HETATM   21  C27 UNL     1     -14.424  10.746  16.411  1.00  0.00     0.020 C 
HETATM   22  C28 UNL     1     -13.657   9.823  17.371  1.00  0.00     0.090 C 
HETATM   23  C29 UNL     1     -12.218   9.706  16.975  1.00  0.00     0.157 C 
HETATM   24  O2  UNL     1     -11.313   9.889  17.782  1.00  0.00    -0.293 OA
ENDROOT
BRANCH   1  25
HETATM   25  C6  UNL     1      -8.977   5.731  13.207  1.00  0.00    -0.014 C 
HETATM   26  C7  UNL     1      -8.790   5.895  11.694  1.00  0.00     0.010 C 
BRANCH  25  27
HETATM   27  C5  UNL     1      -7.778   4.978  13.826  1.00  0.00     0.008 C 
BRANCH  27  28
HETATM   28  C4  UNL     1      -6.662   4.680  12.817  1.00  0.00     0.028 C 
BRANCH  28  29
HETATM   29  C3  UNL     1      -6.654   3.226  12.428  1.00  0.00    -0.013 C 
HETATM   30  C2  UNL     1      -5.863   2.604  11.531  1.00  0.00     0.008 C 
HETATM   31  C1  UNL     1      -5.916   1.117  11.328  1.00  0.00     0.055 C 
BRANCH  30  32
HETATM   32  C30 UNL     1      -4.861   3.283  10.678  1.00  0.00     0.171 C 
HETATM   33  O3  UNL     1      -3.822   3.781  11.074  1.00  0.00    -0.646 OA
BRANCH  32  34
HETATM   34  O4  UNL     1      -5.148   3.222   9.368  1.00  0.00    -0.773 OA
HETATM   35  H44 UNL     1      -4.385   3.667   8.945  1.00  0.00     0.167 HD
ENDBRANCH  32  34
ENDBRANCH  30  32
ENDBRANCH  28  29
ENDBRANCH  27  28
ENDBRANCH  25  27
ENDBRANCH   1  25
TORSDOF 6
ENDMDL
MODEL 5
REMARK minimizedAffinity -6.7834053
REMARK CNNscore 0.353640318
REMARK CNNaffinity 6.15670729
REMARK  6 active torsions:
REMARK  status: ('A' for Active; 'I' for Inactive)
REMARK    1  A    between atoms: C2_2  and  C30_32 
REMARK    2  A    between atoms: C3_3  and  C4_4 
REMARK    3  A    between atoms: C4_4  and  C5_5 
REMARK    4  A    between atoms: C5_5  and  C6_6 
REMARK    5  A    between atoms: C6_6  and  C8_8 
REMARK    6  A    between atoms: C30_32  and  O4_34 
ROOT
HETATM    1  C8  UNL     1     -11.647  14.471   0.889  1.00  0.00    -0.002 C 
HETATM    2  C9  UNL     1     -12.710  13.895   1.866  1.00  0.00     0.007 C 
HETATM    3  C10 UNL     1     -12.285  14.305   3.290  1.00  0.00     0.015 C 
HETATM    4  C11 UNL     1     -10.814  14.740   3.153  1.00  0.00    -0.005 C 
HETATM    5  C12 UNL     1      -9.946  13.441   3.171  1.00  0.00     0.021 C 
HETATM    6  C13 UNL     1     -10.183  15.639   4.202  1.00  0.00    -0.000 C 
HETATM    7  C14 UNL     1      -9.173  16.498   3.914  1.00  0.00    -0.060 C 
HETATM    8  C15 UNL     1      -8.705  16.639   2.448  1.00  0.00     0.036 C 
HETATM    9  C16 UNL     1      -9.428  15.804   1.367  1.00  0.00     0.015 C 
HETATM   10  C17 UNL     1     -10.875  15.497   1.769  1.00  0.00    -0.028 C 
HETATM   11  C18 UNL     1     -11.659  16.840   1.842  1.00  0.00     0.016 C 
HETATM   12  C19 UNL     1      -8.384  17.309   4.995  1.00  0.00    -0.014 C 
HETATM   13  C20 UNL     1      -6.940  16.731   4.963  1.00  0.00     0.020 C 
HETATM   14  C21 UNL     1      -8.303  18.821   4.632  1.00  0.00     0.021 C 
HETATM   15  C22 UNL     1      -9.405  19.652   5.263  1.00  0.00     0.080 C 
HETATM   16  C23 UNL     1      -9.271  19.641   6.768  1.00  0.00     0.135 C 
HETATM   17  O1  UNL     1      -9.604  20.628   7.426  1.00  0.00    -0.297 OA
HETATM   18  C24 UNL     1      -8.721  18.370   7.431  1.00  0.00     0.018 C 
HETATM   19  C25 UNL     1      -7.236  18.608   7.767  1.00  0.00     0.023 C 
HETATM   20  C26 UNL     1      -9.443  18.184   8.788  1.00  0.00     0.023 C 
HETATM   21  C27 UNL     1      -8.941  17.127   6.478  1.00  0.00     0.020 C 
HETATM   22  C28 UNL     1     -10.418  16.700   6.490  1.00  0.00     0.090 C 
HETATM   23  C29 UNL     1     -10.645  15.515   5.604  1.00  0.00     0.157 C 
HETATM   24  O2  UNL     1     -11.233  14.516   6.006  1.00  0.00    -0.293 OA
ENDROOT
BRANCH   1  25
HETATM   25  C6  UNL     1     -12.211  14.810  -0.524  1.00  0.00    -0.014 C 
HETATM   26  C7  UNL     1     -11.204  14.883  -1.678  1.00  0.00     0.010 C 
BRANCH  25  27
HETATM   27  C5  UNL     1     -13.399  13.894  -0.894  1.00  0.00     0.008 C 
BRANCH  27  28
HETATM   28  C4  UNL     1     -12.966  12.548  -1.488  1.00  0.00     0.028 C 
BRANCH  28  29
HETATM   29  C3  UNL     1     -13.144  11.432  -0.495  1.00  0.00    -0.013 C 
HETATM   30  C2  UNL     1     -13.553  10.167  -0.721  1.00  0.00     0.008 C 
HETATM   31  C1  UNL     1     -13.584   9.139   0.374  1.00  0.00     0.055 C 
BRANCH  30  32
HETATM   32  C30 UNL     1     -13.986   9.644  -2.037  1.00  0.00     0.171 C 
HETATM   33  O3  UNL     1     -14.948  10.044  -2.670  1.00  0.00    -0.646 OA
BRANCH  32  34
HETATM   34  O4  UNL     1     -13.152   8.724  -2.545  1.00  0.00    -0.773 OA
HETATM   35  H44 UNL     1     -13.546   8.515  -3.418  1.00  0.00     0.167 HD
ENDBRANCH  32  34
ENDBRANCH  30  32
ENDBRANCH  28  29
ENDBRANCH  27  28
ENDBRANCH  25  27
ENDBRANCH   1  25
TORSDOF 6
ENDMDL
MODEL 6
REMARK minimizedAffinity -9.25912094
REMARK CNNscore 0.348303199
REMARK CNNaffinity 6.81729269
REMARK  6 active torsions:
REMARK  status: ('A' for Active; 'I' for Inactive)
REMARK    1  A    between atoms: C2_2  and  C30_32 
REMARK    2  A    between atoms: C3_3  and  C4_4 
REMARK    3  A    between atoms: C4_4  and  C5_5 
REMARK    4  A    between atoms: C5_5  and  C6_6 
REMARK    5  A    between atoms: C6_6  and  C8_8 
REMARK    6  A    between atoms: C30_32  and  O4_34 
ROOT
HETATM    1  C8  UNL     1      -3.027   8.170  15.195  1.00  0.00    -0.002 C 
HETATM    2  C9  UNL     1      -2.171   9.305  15.823  1.00  0.00     0.007 C 
HETATM    3  C10 UNL     1      -0.805   9.288  15.109  1.00  0.00     0.015 C 
HETATM    4  C11 UNL     1      -0.748   7.925  14.394  1.00  0.00    -0.005 C 
HETATM    5  C12 UNL     1      -0.307   6.867  15.456  1.00  0.00     0.021 C 
HETATM    6  C13 UNL     1       0.197   7.715  13.225  1.00  0.00    -0.000 C 
HETATM    7  C14 UNL     1      -0.064   6.835  12.226  1.00  0.00    -0.060 C 
HETATM    8  C15 UNL     1      -1.413   6.083  12.223  1.00  0.00     0.036 C 
HETATM    9  C16 UNL     1      -2.421   6.386  13.356  1.00  0.00     0.015 C 
HETATM   10  C17 UNL     1      -2.243   7.809  13.899  1.00  0.00    -0.028 C 
HETATM   11  C18 UNL     1      -2.590   8.815  12.763  1.00  0.00     0.016 C 
HETATM   12  C19 UNL     1       0.961   6.464  11.102  1.00  0.00    -0.014 C 
HETATM   13  C20 UNL     1       1.316   4.970  11.353  1.00  0.00     0.020 C 
HETATM   14  C21 UNL     1       0.323   6.574   9.686  1.00  0.00     0.021 C 
HETATM   15  C22 UNL     1       0.556   7.918   9.022  1.00  0.00     0.080 C 
HETATM   16  C23 UNL     1       2.030   8.124   8.764  1.00  0.00     0.135 C 
HETATM   17  O1  UNL     1       2.402   8.766   7.779  1.00  0.00    -0.297 OA
HETATM   18  C24 UNL     1       3.026   7.520   9.764  1.00  0.00     0.018 C 
HETATM   19  C25 UNL     1       3.579   6.214   9.161  1.00  0.00     0.023 C 
HETATM   20  C26 UNL     1       4.233   8.482   9.882  1.00  0.00     0.023 C 
HETATM   21  C27 UNL     1       2.319   7.297  11.160  1.00  0.00     0.020 C 
HETATM   22  C28 UNL     1       2.140   8.640  11.888  1.00  0.00     0.090 C 
HETATM   23  C29 UNL     1       1.484   8.449  13.220  1.00  0.00     0.157 C 
HETATM   24  O2  UNL     1       1.961   8.926  14.245  1.00  0.00    -0.293 OA
ENDROOT
BRANCH   1  25
HETATM   25  C6  UNL     1      -4.559   8.455  15.215  1.00  0.00    -0.014 C 
HETATM   26  C7  UNL     1      -4.995   9.912  15.407  1.00  0.00     0.010 C 
BRANCH  25  27
HETATM   27  C5  UNL     1      -5.269   7.830  13.993  1.00  0.00     0.008 C 
BRANCH  27  28
HETATM   28  C4  UNL     1      -6.162   6.638  14.353  1.00  0.00     0.028 C 
BRANCH  28  29
HETATM   29  C3  UNL     1      -5.713   5.387  13.647  1.00  0.00    -0.013 C 
HETATM   30  C2  UNL     1      -6.447   4.534  12.905  1.00  0.00     0.008 C 
HETATM   31  C1  UNL     1      -5.822   3.376  12.182  1.00  0.00     0.055 C 
BRANCH  30  32
HETATM   32  C30 UNL     1      -7.909   4.641  12.700  1.00  0.00     0.171 C 
HETATM   33  O3  UNL     1      -8.460   5.444  11.967  1.00  0.00    -0.646 OA
BRANCH  32  34
HETATM   34  O4  UNL     1      -8.607   3.685  13.332  1.00  0.00    -0.773 OA
HETATM   35  H44 UNL     1      -9.533   3.863  13.067  1.00  0.00     0.167 HD
ENDBRANCH  32  34
ENDBRANCH  30  32
ENDBRANCH  28  29
ENDBRANCH  27  28
ENDBRANCH  25  27
ENDBRANCH   1  25
TORSDOF 6
ENDMDL
MODEL 7
REMARK minimizedAffinity -8.65444183
REMARK CNNscore 0.341943264
REMARK CNNaffinity 6.84065485
REMARK  6 active torsions:
REMARK  status: ('A' for Active; 'I' for Inactive)
REMARK    1  A    between atoms: C2_2  and  C30_32 
REMARK    2  A    between atoms: C3_3  and  C4_4 
REMARK    3  A    between atoms: C4_4  and  C5_5 
REMARK    4  A    between atoms: C5_5  and  C6_6 
REMARK    5  A    between atoms: C6_6  and  C8_8 
REMARK    6  A    between atoms: C30_32  and  O4_34 
ROOT
HETATM    1  C8  UNL     1       0.855   7.141  11.896  1.00  0.00    -0.002 C 
HETATM    2  C9  UNL     1       0.710   6.034  10.814  1.00  0.00     0.007 C 
HETATM    3  C10 UNL     1      -0.601   5.279  11.112  1.00  0.00     0.015 C 
HETATM    4  C11 UNL     1      -0.968   5.679  12.554  1.00  0.00    -0.005 C 
HETATM    5  C12 UNL     1      -0.125   4.775  13.510  1.00  0.00     0.021 C 
HETATM    6  C13 UNL     1      -2.397   5.533  13.046  1.00  0.00    -0.000 C 
HETATM    7  C14 UNL     1      -2.922   6.333  14.008  1.00  0.00    -0.060 C 
HETATM    8  C15 UNL     1      -2.070   7.497  14.562  1.00  0.00     0.036 C 
HETATM    9  C16 UNL     1      -0.655   7.710  13.975  1.00  0.00     0.015 C 
HETATM   10  C17 UNL     1      -0.565   7.205  12.530  1.00  0.00    -0.028 C 
HETATM   11  C18 UNL     1      -1.509   8.073  11.648  1.00  0.00     0.016 C 
HETATM   12  C19 UNL     1      -4.325   6.103  14.662  1.00  0.00    -0.014 C 
HETATM   13  C20 UNL     1      -4.026   5.732  16.143  1.00  0.00     0.020 C 
HETATM   14  C21 UNL     1      -5.180   7.405  14.657  1.00  0.00     0.021 C 
HETATM   15  C22 UNL     1      -6.103   7.515  13.458  1.00  0.00     0.080 C 
HETATM   16  C23 UNL     1      -7.136   6.413  13.492  1.00  0.00     0.135 C 
HETATM   17  O1  UNL     1      -8.267   6.611  13.044  1.00  0.00    -0.297 OA
HETATM   18  C24 UNL     1      -6.723   5.059  14.086  1.00  0.00     0.018 C 
HETATM   19  C25 UNL     1      -7.271   4.979  15.525  1.00  0.00     0.023 C 
HETATM   20  C26 UNL     1      -7.443   3.943  13.291  1.00  0.00     0.023 C 
HETATM   21  C27 UNL     1      -5.151   4.899  14.021  1.00  0.00     0.020 C 
HETATM   22  C28 UNL     1      -4.704   4.596  12.582  1.00  0.00     0.090 C 
HETATM   23  C29 UNL     1      -3.219   4.428  12.501  1.00  0.00     0.157 C 
HETATM   24  O2  UNL     1      -2.712   3.449  11.961  1.00  0.00    -0.293 OA
ENDROOT
BRANCH   1  25
HETATM   25  C6  UNL     1       1.630   8.400  11.404  1.00  0.00    -0.014 C 
HETATM   26  C7  UNL     1       2.256   9.297  12.479  1.00  0.00     0.010 C 
BRANCH  25  27
HETATM   27  C5  UNL     1       2.671   8.039  10.321  1.00  0.00     0.008 C 
BRANCH  27  28
HETATM   28  C4  UNL     1       3.497   6.793  10.665  1.00  0.00     0.028 C 
BRANCH  28  29
HETATM   29  C3  UNL     1       4.325   7.013  11.902  1.00  0.00    -0.013 C 
HETATM   30  C2  UNL     1       5.660   6.888  12.050  1.00  0.00     0.008 C 
HETATM   31  C1  UNL     1       6.348   7.242  13.337  1.00  0.00     0.055 C 
BRANCH  30  32
HETATM   32  C30 UNL     1       6.584   6.423  10.991  1.00  0.00     0.171 C 
HETATM   33  O3  UNL     1       7.326   7.139  10.341  1.00  0.00    -0.646 OA
BRANCH  32  34
HETATM   34  O4  UNL     1       6.616   5.088  10.861  1.00  0.00    -0.773 OA
HETATM   35  H44 UNL     1       7.293   4.941  10.167  1.00  0.00     0.167 HD
ENDBRANCH  32  34
ENDBRANCH  30  32
ENDBRANCH  28  29
ENDBRANCH  27  28
ENDBRANCH  25  27
ENDBRANCH   1  25
TORSDOF 6
ENDMDL
MODEL 8
REMARK minimizedAffinity -7.00208092
REMARK CNNscore 0.340668768
REMARK CNNaffinity 6.15409708
REMARK  6 active torsions:
REMARK  status: ('A' for Active; 'I' for Inactive)
REMARK    1  A    between atoms: C2_2  and  C30_32 
REMARK    2  A    between atoms: C3_3  and  C4_4 
REMARK    3  A    between atoms: C4_4  and  C5_5 
REMARK    4  A    between atoms: C5_5  and  C6_6 
REMARK    5  A    between atoms: C6_6  and  C8_8 
REMARK    6  A    between atoms: C30_32  and  O4_34 
ROOT
HETATM    1  C8  UNL     1      -4.299 -10.475   6.926  1.00  0.00    -0.002 C 
HETATM    2  C9  UNL     1      -3.134  -9.548   6.481  1.00  0.00     0.007 C 
HETATM    3  C10 UNL     1      -3.018  -9.671   4.949  1.00  0.00     0.015 C 
HETATM    4  C11 UNL     1      -3.817 -10.938   4.592  1.00  0.00    -0.005 C 
HETATM    5  C12 UNL     1      -2.879 -12.161   4.851  1.00  0.00     0.021 C 
HETATM    6  C13 UNL     1      -4.334 -11.142   3.179  1.00  0.00    -0.000 C 
HETATM    7  C14 UNL     1      -5.455 -11.857   2.909  1.00  0.00    -0.060 C 
HETATM    8  C15 UNL     1      -6.291 -12.411   4.084  1.00  0.00     0.036 C 
HETATM    9  C16 UNL     1      -5.820 -12.103   5.524  1.00  0.00     0.015 C 
HETATM   10  C17 UNL     1      -5.032 -10.791   5.589  1.00  0.00    -0.028 C 
HETATM   11  C18 UNL     1      -5.991  -9.623   5.213  1.00  0.00     0.016 C 
HETATM   12  C19 UNL     1      -5.920 -12.235   1.463  1.00  0.00    -0.014 C 
HETATM   13  C20 UNL     1      -5.778 -13.782   1.382  1.00  0.00     0.020 C 
HETATM   14  C21 UNL     1      -7.417 -11.877   1.231  1.00  0.00     0.021 C 
HETATM   15  C22 UNL     1      -7.621 -10.511   0.604  1.00  0.00     0.080 C 
HETATM   16  C23 UNL     1      -7.030 -10.482  -0.787  1.00  0.00     0.135 C 
HETATM   17  O1  UNL     1      -7.548  -9.789  -1.664  1.00  0.00    -0.297 OA
HETATM   18  C24 UNL     1      -5.776 -11.327  -1.053  1.00  0.00     0.018 C 
HETATM   19  C25 UNL     1      -6.212 -12.619  -1.770  1.00  0.00     0.023 C 
HETATM   20  C26 UNL     1      -4.882 -10.560  -2.056  1.00  0.00     0.023 C 
HETATM   21  C27 UNL     1      -5.018 -11.608   0.306  1.00  0.00     0.020 C 
HETATM   22  C28 UNL     1      -4.276 -10.346   0.775  1.00  0.00     0.090 C 
HETATM   23  C29 UNL     1      -3.540 -10.596   2.054  1.00  0.00     0.157 C 
HETATM   24  O2  UNL     1      -2.353 -10.309   2.178  1.00  0.00    -0.293 OA
ENDROOT
BRANCH   1  25
HETATM   25  C6  UNL     1      -5.035  -9.987   8.210  1.00  0.00    -0.014 C 
HETATM   26  C7  UNL     1      -6.519 -10.349   8.344  1.00  0.00     0.010 C 
BRANCH  25  27
HETATM   27  C5  UNL     1      -4.262 -10.376   9.490  1.00  0.00     0.008 C 
BRANCH  27  28
HETATM   28  C4  UNL     1      -4.433  -9.368  10.632  1.00  0.00     0.028 C 
BRANCH  28  29
HETATM   29  C3  UNL     1      -5.457  -9.842  11.628  1.00  0.00    -0.013 C 
HETATM   30  C2  UNL     1      -6.550  -9.194  12.078  1.00  0.00     0.008 C 
HETATM   31  C1  UNL     1      -7.532  -9.851  13.006  1.00  0.00     0.055 C 
BRANCH  30  32
HETATM   32  C30 UNL     1      -6.919  -7.808  11.710  1.00  0.00     0.171 C 
HETATM   33  O3  UNL     1      -6.619  -6.810  12.341  1.00  0.00    -0.646 OA
BRANCH  32  34
HETATM   34  O4  UNL     1      -7.553  -7.721  10.530  1.00  0.00    -0.773 OA
HETATM   35  H44 UNL     1      -7.687  -6.758  10.412  1.00  0.00     0.167 HD
ENDBRANCH  32  34
ENDBRANCH  30  32
ENDBRANCH  28  29
ENDBRANCH  27  28
ENDBRANCH  25  27
ENDBRANCH   1  25
TORSDOF 6
ENDMDL
MODEL 9
REMARK minimizedAffinity -6.64111185
REMARK CNNscore 0.308296204
REMARK CNNaffinity 6.10403776
REMARK  6 active torsions:
REMARK  status: ('A' for Active; 'I' for Inactive)
REMARK    1  A    between atoms: C2_2  and  C30_32 
REMARK    2  A    between atoms: C3_3  and  C4_4 
REMARK    3  A    between atoms: C4_4  and  C5_5 
REMARK    4  A    between atoms: C5_5  and  C6_6 
REMARK    5  A    between atoms: C6_6  and  C8_8 
REMARK    6  A    between atoms: C30_32  and  O4_34 
ROOT
HETATM    1  C8  UNL     1      -9.408  -7.787  -3.854  1.00  0.00    -0.002 C 
HETATM    2  C9  UNL     1     -10.859  -7.636  -3.316  1.00  0.00     0.007 C 
HETATM    3  C10 UNL     1     -10.931  -8.412  -1.986  1.00  0.00     0.015 C 
HETATM    4  C11 UNL     1      -9.682  -9.312  -1.985  1.00  0.00    -0.005 C 
HETATM    5  C12 UNL     1     -10.023 -10.573  -2.842  1.00  0.00     0.021 C 
HETATM    6  C13 UNL     1      -9.143  -9.869  -0.679  1.00  0.00    -0.000 C 
HETATM    7  C14 UNL     1      -7.829 -10.155  -0.495  1.00  0.00    -0.060 C 
HETATM    8  C15 UNL     1      -6.825  -9.819  -1.620  1.00  0.00     0.036 C 
HETATM    9  C16 UNL     1      -7.364  -9.147  -2.904  1.00  0.00     0.015 C 
HETATM   10  C17 UNL     1      -8.626  -8.325  -2.620  1.00  0.00    -0.028 C 
HETATM   11  C18 UNL     1      -8.243  -7.150  -1.673  1.00  0.00     0.016 C 
HETATM   12  C19 UNL     1      -7.266 -10.889   0.767  1.00  0.00    -0.014 C 
HETATM   13  C20 UNL     1      -6.753 -12.262   0.243  1.00  0.00     0.020 C 
HETATM   14  C21 UNL     1      -6.055 -10.127   1.381  1.00  0.00     0.021 C 
HETATM   15  C22 UNL     1      -6.445  -9.173   2.494  1.00  0.00     0.080 C 
HETATM   16  C23 UNL     1      -7.010  -9.942   3.666  1.00  0.00     0.135 C 
HETATM   17  O1  UNL     1      -6.837  -9.533   4.815  1.00  0.00    -0.297 OA
HETATM   18  C24 UNL     1      -7.802 -11.223   3.369  1.00  0.00     0.018 C 
HETATM   19  C25 UNL     1      -6.877 -12.429   3.624  1.00  0.00     0.023 C 
HETATM   20  C26 UNL     1      -8.946 -11.333   4.407  1.00  0.00     0.023 C 
HETATM   21  C27 UNL     1      -8.360 -11.182   1.890  1.00  0.00     0.020 C 
HETATM   22  C28 UNL     1      -9.554 -10.218   1.796  1.00  0.00     0.090 C 
HETATM   23  C29 UNL     1     -10.105 -10.175   0.405  1.00  0.00     0.157 C 
HETATM   24  O2  UNL     1     -11.302 -10.331   0.183  1.00  0.00    -0.293 OA
ENDROOT
BRANCH   1  25
HETATM   25  C6  UNL     1      -8.927  -6.578  -4.711  1.00  0.00    -0.014 C 
HETATM   26  C7  UNL     1      -8.899  -6.767  -6.232  1.00  0.00     0.010 C 
BRANCH  25  27
HETATM   27  C5  UNL     1      -9.682  -5.282  -4.337  1.00  0.00     0.008 C 
BRANCH  27  28
HETATM   28  C4  UNL     1      -9.784  -4.283  -5.495  1.00  0.00     0.028 C 
BRANCH  28  29
HETATM   29  C3  UNL     1     -10.347  -2.967  -5.031  1.00  0.00    -0.013 C 
HETATM   30  C2  UNL     1      -9.710  -1.787  -4.889  1.00  0.00     0.008 C 
HETATM   31  C1  UNL     1     -10.445  -0.534  -4.505  1.00  0.00     0.055 C 
BRANCH  30  32
HETATM   32  C30 UNL     1      -8.261  -1.581  -5.106  1.00  0.00     0.171 C 
HETATM   33  O3  UNL     1      -7.772  -0.730  -5.829  1.00  0.00    -0.646 OA
BRANCH  32  34
HETATM   34  O4  UNL     1      -7.490  -2.369  -4.341  1.00  0.00    -0.773 OA
HETATM   35  H44 UNL     1      -6.579  -2.087  -4.565  1.00  0.00     0.167 HD
ENDBRANCH  32  34
ENDBRANCH  30  32
ENDBRANCH  28  29
ENDBRANCH  27  28
ENDBRANCH  25  27
ENDBRANCH   1  25
TORSDOF 6
ENDMDL
