MODEL 1
REMARK minimizedAffinity -9.37189198
REMARK  7 active torsions:
REMARK  status: ('A' for Active; 'I' for Inactive)
REMARK    1  A    between atoms: C2_2  and  C4_4 
REMARK    2  A    between atoms: C7_7  and  O1_9 
REMARK    3  A    between atoms: C9_10  and  C10_11 
REMARK    4  A    between atoms: C11_12  and  C12_13 
REMARK    5  A    between atoms: C14_15  and  C15_16 
REMARK    6  A    between atoms: C24_26  and  C26_28 
REMARK    7  A    between atoms: C29_32  and  O4_34 
ROOT
HETATM    1  C15 UNL     1      -0.100   5.070  13.490  1.00  0.00     0.149 C 
HETATM    2  C16 UNL     1       0.237   6.422  14.130  1.00  0.00     0.054 C 
HETATM    3  C17 UNL     1       0.755   7.329  12.973  1.00  0.00     0.050 C 
HETATM    4  C18 UNL     1       1.326   6.207  12.082  1.00  0.00     0.272 C 
HETATM    5  O2  UNL     1       1.701   6.530  10.765  1.00  0.00    -0.360 OA
HETATM    6  C19 UNL     1       0.633   6.763   9.870  1.00  0.00     0.171 C 
HETATM    7  C20 UNL     1       0.344   8.245   9.779  1.00  0.00     0.027 C 
HETATM    8  C21 UNL     1      -0.268   8.899  11.013  1.00  0.00     0.012 C 
HETATM    9  C22 UNL     1      -0.473   8.073  12.311  1.00  0.00     0.032 C 
HETATM   10  C23 UNL     1      -1.129   9.034  13.336  1.00  0.00    -0.066 C 
HETATM   11  C24 UNL     1      -2.461   9.023  13.619  1.00  0.00    -0.021 C 
HETATM   12  C25 UNL     1      -3.480   8.103  12.992  1.00  0.00     0.052 C 
HETATM   13  C27 UNL     1      -0.123  10.008  13.939  1.00  0.00     0.038 C 
HETATM   14  C28 UNL     1       1.145   9.343  14.475  1.00  0.00     0.042 C 
HETATM   15  C29 UNL     1       1.810   8.371  13.475  1.00  0.00     0.067 C 
HETATM   16  C30 UNL     1       3.065   7.777  14.146  1.00  0.00     0.047 C 
HETATM   17  O5  UNL     1       0.369   5.132  12.134  1.00  0.00    -0.351 OA
ENDROOT
BRANCH   1  18
HETATM   18  C14 UNL     1      -1.570   4.777  13.465  1.00  0.00     0.011 C 
HETATM   19  C12 UNL     1      -2.339   4.386  12.423  1.00  0.00    -0.064 C 
HETATM   20  C13 UNL     1      -1.827   4.183  11.020  1.00  0.00     0.048 C 
BRANCH  19  21
HETATM   21  C11 UNL     1      -3.751   4.112  12.688  1.00  0.00     0.003 C 
HETATM   22  C10 UNL     1      -4.622   4.919  13.316  1.00  0.00    -0.018 C 
BRANCH  22  23
HETATM   23  C9  UNL     1      -6.097   4.637  13.536  1.00  0.00     0.050 C 
HETATM   24  C4  UNL     1      -6.906   4.086  12.327  1.00  0.00     0.024 C 
HETATM   25  C5  UNL     1      -8.356   4.433  12.689  1.00  0.00     0.013 C 
HETATM   26  C6  UNL     1      -8.228   5.860  13.210  1.00  0.00     0.039 C 
HETATM   27  C7  UNL     1      -6.946   5.842  14.069  1.00  0.00     0.062 C 
HETATM   28  C8  UNL     1      -6.272   7.216  14.062  1.00  0.00     0.046 C 
BRANCH  24  29
HETATM   29  C2  UNL     1      -6.669   2.617  12.016  1.00  0.00    -0.088 C 
HETATM   30  C1  UNL     1      -7.261   1.651  12.744  1.00  0.00     0.014 C 
HETATM   31  C3  UNL     1      -5.747   2.260  10.876  1.00  0.00     0.043 C 
ENDBRANCH  24  29
BRANCH  27  32
HETATM   32  O1  UNL     1      -7.340   5.557  15.422  1.00  0.00    -0.390 OA
HETATM   33  H14 UNL     1      -6.535   5.561  15.970  1.00  0.00     0.210 HD
ENDBRANCH  27  32
ENDBRANCH  22  23
ENDBRANCH  19  21
ENDBRANCH   1  18
BRANCH  15  34
HETATM   34  O4  UNL     1       2.298   9.139  12.367  1.00  0.00    -0.389 OA
HETATM   35  H44 UNL     1       2.972   9.761  12.691  1.00  0.00     0.210 HD
ENDBRANCH  15  34
BRANCH  11  36
HETATM   36  C26 UNL     1      -3.097   9.937  14.625  1.00  0.00     0.265 C 
HETATM   37  O3  UNL     1      -4.306   9.954  14.836  1.00  0.00    -0.302 OA
ENDBRANCH  11  36
TORSDOF 7
ENDMDL
MODEL 2
REMARK minimizedAffinity -9.32875347
REMARK  7 active torsions:
REMARK  status: ('A' for Active; 'I' for Inactive)
REMARK    1  A    between atoms: C2_2  and  C4_4 
REMARK    2  A    between atoms: C7_7  and  O1_9 
REMARK    3  A    between atoms: C9_10  and  C10_11 
REMARK    4  A    between atoms: C11_12  and  C12_13 
REMARK    5  A    between atoms: C14_15  and  C15_16 
REMARK    6  A    between atoms: C24_26  and  C26_28 
REMARK    7  A    between atoms: C29_32  and  O4_34 
ROOT
HETATM    1  C15 UNL     1      -0.129   5.150  13.335  1.00  0.00     0.149 C 
HETATM    2  C16 UNL     1      -0.020   6.507  14.041  1.00  0.00     0.054 C 
HETATM    3  C17 UNL     1       0.445   7.523  12.953  1.00  0.00     0.050 C 
HETATM    4  C18 UNL     1       1.218   6.524  12.068  1.00  0.00     0.272 C 
HETATM    5  O2  UNL     1       1.630   6.949  10.791  1.00  0.00    -0.360 OA
HETATM    6  C19 UNL     1       0.599   7.075   9.832  1.00  0.00     0.171 C 
HETATM    7  C20 UNL     1       0.120   8.508   9.770  1.00  0.00     0.027 C 
HETATM    8  C21 UNL     1      -0.653   9.023  10.979  1.00  0.00     0.012 C 
HETATM    9  C22 UNL     1      -0.827   8.124  12.232  1.00  0.00     0.032 C 
HETATM   10  C23 UNL     1      -1.672   8.947  13.240  1.00  0.00    -0.066 C 
HETATM   11  C24 UNL     1      -3.005   8.747  13.429  1.00  0.00    -0.021 C 
HETATM   12  C25 UNL     1      -3.848   7.728  12.703  1.00  0.00     0.052 C 
HETATM   13  C27 UNL     1      -0.847  10.019  13.942  1.00  0.00     0.038 C 
HETATM   14  C28 UNL     1       0.461   9.506  14.543  1.00  0.00     0.042 C 
HETATM   15  C29 UNL     1       1.315   8.674  13.560  1.00  0.00     0.067 C 
HETATM   16  C30 UNL     1       2.592   8.223  14.297  1.00  0.00     0.047 C 
HETATM   17  O5  UNL     1       0.414   5.330  12.018  1.00  0.00    -0.351 OA
ENDROOT
BRANCH   1  18
HETATM   18  C14 UNL     1      -1.542   4.667  13.199  1.00  0.00     0.011 C 
HETATM   19  C12 UNL     1      -2.590   4.870  14.029  1.00  0.00    -0.064 C 
HETATM   20  C13 UNL     1      -2.513   5.644  15.320  1.00  0.00     0.048 C 
BRANCH  19  21
HETATM   21  C11 UNL     1      -3.888   4.328  13.626  1.00  0.00     0.003 C 
HETATM   22  C10 UNL     1      -4.332   4.155  12.370  1.00  0.00    -0.018 C 
BRANCH  22  23
HETATM   23  C9  UNL     1      -5.663   3.544  11.973  1.00  0.00     0.050 C 
HETATM   24  C4  UNL     1      -6.787   3.522  13.047  1.00  0.00     0.024 C 
HETATM   25  C5  UNL     1      -7.723   2.411  12.552  1.00  0.00     0.013 C 
HETATM   26  C6  UNL     1      -6.741   1.319  12.143  1.00  0.00     0.039 C 
HETATM   27  C7  UNL     1      -5.600   2.074  11.430  1.00  0.00     0.062 C 
HETATM   28  C8  UNL     1      -4.273   1.333  11.601  1.00  0.00     0.046 C 
BRANCH  24  29
HETATM   29  C2  UNL     1      -7.469   4.860  13.286  1.00  0.00    -0.088 C 
HETATM   30  C1  UNL     1      -7.219   5.576  14.399  1.00  0.00     0.014 C 
HETATM   31  C3  UNL     1      -8.439   5.371  12.250  1.00  0.00     0.043 C 
ENDBRANCH  24  29
BRANCH  27  32
HETATM   32  O1  UNL     1      -5.910   2.095  10.026  1.00  0.00    -0.390 OA
HETATM   33  H14 UNL     1      -5.184   2.557   9.571  1.00  0.00     0.210 HD
ENDBRANCH  27  32
ENDBRANCH  22  23
ENDBRANCH  19  21
ENDBRANCH   1  18
BRANCH  15  34
HETATM   34  O4  UNL     1       1.765   9.544  12.515  1.00  0.00    -0.389 OA
HETATM   35  H44 UNL     1       2.327  10.237  12.905  1.00  0.00     0.210 HD
ENDBRANCH  15  34
BRANCH  11  36
HETATM   36  C26 UNL     1      -3.822   9.527  14.418  1.00  0.00     0.265 C 
HETATM   37  O3  UNL     1      -4.932   9.163  14.795  1.00  0.00    -0.302 OA
ENDBRANCH  11  36
TORSDOF 7
ENDMDL
MODEL 3
REMARK minimizedAffinity -8.62333393
REMARK  7 active torsions:
REMARK  status: ('A' for Active; 'I' for Inactive)
REMARK    1  A    between atoms: C2_2  and  C4_4 
REMARK    2  A    between atoms: C7_7  and  O1_9 
REMARK    3  A    between atoms: C9_10  and  C10_11 
REMARK    4  A    between atoms: C11_12  and  C12_13 
REMARK    5  A    between atoms: C14_15  and  C15_16 
REMARK    6  A    between atoms: C24_26  and  C26_28 
REMARK    7  A    between atoms: C29_32  and  O4_34 
ROOT
HETATM    1  C15 UNL     1      -2.042   9.243  12.484  1.00  0.00     0.149 C 
HETATM    2  C16 UNL     1      -1.044   8.316  11.781  1.00  0.00     0.054 C 
HETATM    3  C17 UNL     1       0.067   8.004  12.829  1.00  0.00     0.050 C 
HETATM    4  C18 UNL     1      -0.046   9.314  13.634  1.00  0.00     0.272 C 
HETATM    5  O2  UNL     1       0.620   9.394  14.871  1.00  0.00    -0.360 OA
HETATM    6  C19 UNL     1       0.043   8.643  15.919  1.00  0.00     0.171 C 
HETATM    7  C20 UNL     1       0.727   7.300  16.035  1.00  0.00     0.027 C 
HETATM    8  C21 UNL     1       0.479   6.308  14.904  1.00  0.00     0.012 C 
HETATM    9  C22 UNL     1      -0.356   6.731  13.666  1.00  0.00     0.032 C 
HETATM   10  C23 UNL     1      -0.425   5.486  12.745  1.00  0.00    -0.066 C 
HETATM   11  C24 UNL     1      -1.514   4.671  12.675  1.00  0.00    -0.021 C 
HETATM   12  C25 UNL     1      -2.786   4.844  13.468  1.00  0.00     0.052 C 
HETATM   13  C27 UNL     1       0.874   5.265  11.978  1.00  0.00     0.038 C 
HETATM   14  C28 UNL     1       1.393   6.508  11.257  1.00  0.00     0.042 C 
HETATM   15  C29 UNL     1       1.460   7.766  12.153  1.00  0.00     0.067 C 
HETATM   16  C30 UNL     1       1.993   8.934  11.301  1.00  0.00     0.047 C 
HETATM   17  O5  UNL     1      -1.455   9.591  13.748  1.00  0.00    -0.351 OA
ENDROOT
BRANCH   1  18
HETATM   18  C14 UNL     1      -3.368   8.595  12.745  1.00  0.00     0.011 C 
HETATM   19  C12 UNL     1      -4.254   8.846  13.736  1.00  0.00    -0.064 C 
HETATM   20  C13 UNL     1      -4.041   9.864  14.826  1.00  0.00     0.048 C 
BRANCH  19  21
HETATM   21  C11 UNL     1      -5.512   8.100  13.725  1.00  0.00     0.003 C 
HETATM   22  C10 UNL     1      -6.097   7.497  14.773  1.00  0.00    -0.018 C 
BRANCH  22  23
HETATM   23  C9  UNL     1      -7.429   6.771  14.753  1.00  0.00     0.050 C 
HETATM   24  C4  UNL     1      -7.818   6.029  13.442  1.00  0.00     0.024 C 
HETATM   25  C5  UNL     1      -9.344   5.905  13.550  1.00  0.00     0.013 C 
HETATM   26  C6  UNL     1      -9.747   7.289  14.047  1.00  0.00     0.039 C 
HETATM   27  C7  UNL     1      -8.683   7.643  15.106  1.00  0.00     0.062 C 
HETATM   28  C8  UNL     1      -8.472   9.157  15.173  1.00  0.00     0.046 C 
BRANCH  24  29
HETATM   29  C2  UNL     1      -7.093   4.712  13.215  1.00  0.00    -0.088 C 
HETATM   30  C1  UNL     1      -5.961   4.662  12.486  1.00  0.00     0.014 C 
HETATM   31  C3  UNL     1      -7.671   3.456  13.817  1.00  0.00     0.043 C 
ENDBRANCH  24  29
BRANCH  27  32
HETATM   32  O1  UNL     1      -9.189   7.217  16.382  1.00  0.00    -0.390 OA
HETATM   33  H14 UNL     1      -8.527   7.453  17.056  1.00  0.00     0.210 HD
ENDBRANCH  27  32
ENDBRANCH  22  23
ENDBRANCH  19  21
ENDBRANCH   1  18
BRANCH  15  34
HETATM   34  O4  UNL     1       2.455   7.542  13.159  1.00  0.00    -0.389 OA
HETATM   35  H44 UNL     1       3.317   7.424  12.725  1.00  0.00     0.210 HD
ENDBRANCH  15  34
BRANCH  11  36
HETATM   36  C26 UNL     1      -1.592   3.477  11.770  1.00  0.00     0.265 C 
HETATM   37  O3  UNL     1      -1.027   3.433  10.680  1.00  0.00    -0.302 OA
ENDBRANCH  11  36
TORSDOF 7
ENDMDL
MODEL 4
REMARK minimizedAffinity -8.55733585
REMARK  7 active torsions:
REMARK  status: ('A' for Active; 'I' for Inactive)
REMARK    1  A    between atoms: C2_2  and  C4_4 
REMARK    2  A    between atoms: C7_7  and  O1_9 
REMARK    3  A    between atoms: C9_10  and  C10_11 
REMARK    4  A    between atoms: C11_12  and  C12_13 
REMARK    5  A    between atoms: C14_15  and  C15_16 
REMARK    6  A    between atoms: C24_26  and  C26_28 
REMARK    7  A    between atoms: C29_32  and  O4_34 
ROOT
HETATM    1  C15 UNL     1       0.838   4.804  11.876  1.00  0.00     0.149 C 
HETATM    2  C16 UNL     1       1.565   5.984  12.532  1.00  0.00     0.054 C 
HETATM    3  C17 UNL     1       2.051   6.894  11.363  1.00  0.00     0.050 C 
HETATM    4  C18 UNL     1       2.200   5.787  10.300  1.00  0.00     0.272 C 
HETATM    5  O2  UNL     1       2.395   6.173   8.961  1.00  0.00    -0.360 OA
HETATM    6  C19 UNL     1       1.260   6.709   8.313  1.00  0.00     0.171 C 
HETATM    7  C20 UNL     1       1.284   8.219   8.385  1.00  0.00     0.027 C 
HETATM    8  C21 UNL     1       1.055   8.840   9.759  1.00  0.00     0.012 C 
HETATM    9  C22 UNL     1       0.913   7.933  11.010  1.00  0.00     0.032 C 
HETATM   10  C23 UNL     1       0.671   8.886  12.210  1.00  0.00    -0.066 C 
HETATM   11  C24 UNL     1      -0.560   9.106  12.748  1.00  0.00    -0.021 C 
HETATM   12  C25 UNL     1      -1.847   8.479  12.271  1.00  0.00     0.052 C 
HETATM   13  C27 UNL     1       1.953   9.570  12.670  1.00  0.00     0.038 C 
HETATM   14  C28 UNL     1       3.124   8.613  12.898  1.00  0.00     0.042 C 
HETATM   15  C29 UNL     1       3.377   7.646  11.719  1.00  0.00     0.067 C 
HETATM   16  C30 UNL     1       4.573   6.747  12.086  1.00  0.00     0.047 C 
HETATM   17  O5  UNL     1       1.060   4.921  10.463  1.00  0.00    -0.351 OA
ENDROOT
BRANCH   1  18
HETATM   18  C14 UNL     1      -0.641   4.811  12.121  1.00  0.00     0.011 C 
HETATM   19  C12 UNL     1      -1.542   3.827  11.899  1.00  0.00    -0.064 C 
HETATM   20  C13 UNL     1      -1.200   2.481  11.314  1.00  0.00     0.048 C 
BRANCH  19  21
HETATM   21  C11 UNL     1      -2.931   4.079  12.283  1.00  0.00     0.003 C 
HETATM   22  C10 UNL     1      -3.360   4.617  13.437  1.00  0.00    -0.018 C 
BRANCH  22  23
HETATM   23  C9  UNL     1      -4.803   4.918  13.796  1.00  0.00     0.050 C 
HETATM   24  C4  UNL     1      -5.850   4.866  12.647  1.00  0.00     0.024 C 
HETATM   25  C5  UNL     1      -7.008   5.714  13.190  1.00  0.00     0.013 C 
HETATM   26  C6  UNL     1      -6.279   6.909  13.795  1.00  0.00     0.039 C 
HETATM   27  C7  UNL     1      -5.055   6.293  14.505  1.00  0.00     0.062 C 
HETATM   28  C8  UNL     1      -3.887   7.283  14.522  1.00  0.00     0.046 C 
BRANCH  24  29
HETATM   29  C2  UNL     1      -6.247   3.466  12.207  1.00  0.00    -0.088 C 
HETATM   30  C1  UNL     1      -7.115   2.733  12.932  1.00  0.00     0.014 C 
HETATM   31  C3  UNL     1      -5.643   2.908  10.943  1.00  0.00     0.043 C 
ENDBRANCH  24  29
BRANCH  27  32
HETATM   32  O1  UNL     1      -5.432   6.040  15.869  1.00  0.00    -0.390 OA
HETATM   33  H14 UNL     1      -4.656   5.666  16.324  1.00  0.00     0.210 HD
ENDBRANCH  27  32
ENDBRANCH  22  23
ENDBRANCH  19  21
ENDBRANCH   1  18
BRANCH  15  34
HETATM   34  O4  UNL     1       3.812   8.420  10.594  1.00  0.00    -0.389 OA
HETATM   35  H44 UNL     1       4.651   8.858  10.822  1.00  0.00     0.210 HD
ENDBRANCH  15  34
BRANCH  11  36
HETATM   36  C26 UNL     1      -0.796  10.011  13.922  1.00  0.00     0.265 C 
HETATM   37  O3  UNL     1      -1.567  10.965  13.879  1.00  0.00    -0.302 OA
ENDBRANCH  11  36
TORSDOF 7
ENDMDL
MODEL 5
REMARK minimizedAffinity -8.51724339
REMARK  7 active torsions:
REMARK  status: ('A' for Active; 'I' for Inactive)
REMARK    1  A    between atoms: C2_2  and  C4_4 
REMARK    2  A    between atoms: C7_7  and  O1_9 
REMARK    3  A    between atoms: C9_10  and  C10_11 
REMARK    4  A    between atoms: C11_12  and  C12_13 
REMARK    5  A    between atoms: C14_15  and  C15_16 
REMARK    6  A    between atoms: C24_26  and  C26_28 
REMARK    7  A    between atoms: C29_32  and  O4_34 
ROOT
HETATM    1  C15 UNL     1       1.207   4.753  11.571  1.00  0.00     0.149 C 
HETATM    2  C16 UNL     1       1.846   5.919  12.335  1.00  0.00     0.054 C 
HETATM    3  C17 UNL     1       2.477   6.848  11.254  1.00  0.00     0.050 C 
HETATM    4  C18 UNL     1       2.760   5.760  10.198  1.00  0.00     0.272 C 
HETATM    5  O2  UNL     1       3.123   6.170   8.902  1.00  0.00    -0.360 OA
HETATM    6  C19 UNL     1       2.080   6.721   8.126  1.00  0.00     0.171 C 
HETATM    7  C20 UNL     1       2.095   8.229   8.228  1.00  0.00     0.027 C 
HETATM    8  C21 UNL     1       1.695   8.827   9.573  1.00  0.00     0.012 C 
HETATM    9  C22 UNL     1       1.394   7.897  10.779  1.00  0.00     0.032 C 
HETATM   10  C23 UNL     1       1.002   8.829  11.955  1.00  0.00    -0.066 C 
HETATM   11  C24 UNL     1      -0.287   9.042  12.337  1.00  0.00    -0.021 C 
HETATM   12  C25 UNL     1      -1.504   8.429  11.688  1.00  0.00     0.052 C 
HETATM   13  C27 UNL     1       2.216   9.500  12.587  1.00  0.00     0.038 C 
HETATM   14  C28 UNL     1       3.347   8.537  12.944  1.00  0.00     0.042 C 
HETATM   15  C29 UNL     1       3.748   7.590  11.790  1.00  0.00     0.067 C 
HETATM   16  C30 UNL     1       4.887   6.680  12.289  1.00  0.00     0.047 C 
HETATM   17  O5  UNL     1       1.608   4.895  10.199  1.00  0.00    -0.351 OA
ENDROOT
BRANCH   1  18
HETATM   18  C14 UNL     1      -0.291   4.761  11.626  1.00  0.00     0.011 C 
HETATM   19  C12 UNL     1      -1.099   5.019  12.679  1.00  0.00    -0.064 C 
HETATM   20  C13 UNL     1      -0.607   5.344  14.067  1.00  0.00     0.048 C 
BRANCH  19  21
HETATM   21  C11 UNL     1      -2.543   5.014  12.444  1.00  0.00     0.003 C 
HETATM   22  C10 UNL     1      -3.352   3.942  12.440  1.00  0.00    -0.018 C 
BRANCH  22  23
HETATM   23  C9  UNL     1      -4.856   3.963  12.244  1.00  0.00     0.050 C 
HETATM   24  C4  UNL     1      -5.735   4.249  13.496  1.00  0.00     0.024 C 
HETATM   25  C5  UNL     1      -7.101   3.672  13.103  1.00  0.00     0.013 C 
HETATM   26  C6  UNL     1      -6.720   2.343  12.460  1.00  0.00     0.039 C 
HETATM   27  C7  UNL     1      -5.477   2.672  11.607  1.00  0.00     0.062 C 
HETATM   28  C8  UNL     1      -4.561   1.451  11.494  1.00  0.00     0.046 C 
BRANCH  24  29
HETATM   29  C2  UNL     1      -5.767   5.704  13.935  1.00  0.00    -0.088 C 
HETATM   30  C1  UNL     1      -6.600   6.585  13.347  1.00  0.00     0.014 C 
HETATM   31  C3  UNL     1      -4.841   6.147  15.039  1.00  0.00     0.043 C 
ENDBRANCH  24  29
BRANCH  27  32
HETATM   32  O1  UNL     1      -5.937   2.995  10.284  1.00  0.00    -0.390 OA
HETATM   33  H14 UNL     1      -5.154   3.188   9.738  1.00  0.00     0.210 HD
ENDBRANCH  27  32
ENDBRANCH  22  23
ENDBRANCH  19  21
ENDBRANCH   1  18
BRANCH  15  34
HETATM   34  O4  UNL     1       4.323   8.383  10.744  1.00  0.00    -0.389 OA
HETATM   35  H44 UNL     1       5.126   8.814  11.085  1.00  0.00     0.210 HD
ENDBRANCH  15  34
BRANCH  11  36
HETATM   36  C26 UNL     1      -0.669   9.927  13.488  1.00  0.00     0.265 C 
HETATM   37  O3  UNL     1      -1.713  10.573  13.510  1.00  0.00    -0.302 OA
ENDBRANCH  11  36
TORSDOF 7
ENDMDL
MODEL 6
REMARK minimizedAffinity -8.45345592
REMARK  7 active torsions:
REMARK  status: ('A' for Active; 'I' for Inactive)
REMARK    1  A    between atoms: C2_2  and  C4_4 
REMARK    2  A    between atoms: C7_7  and  O1_9 
REMARK    3  A    between atoms: C9_10  and  C10_11 
REMARK    4  A    between atoms: C11_12  and  C12_13 
REMARK    5  A    between atoms: C14_15  and  C15_16 
REMARK    6  A    between atoms: C24_26  and  C26_28 
REMARK    7  A    between atoms: C29_32  and  O4_34 
ROOT
HETATM    1  C15 UNL     1      -1.143   8.944  11.579  1.00  0.00     0.149 C 
HETATM    2  C16 UNL     1      -0.235   7.891  10.932  1.00  0.00     0.054 C 
HETATM    3  C17 UNL     1       0.897   7.605  11.964  1.00  0.00     0.050 C 
HETATM    4  C18 UNL     1       0.900   8.989  12.644  1.00  0.00     0.272 C 
HETATM    5  O2  UNL     1       1.621   9.140  13.843  1.00  0.00    -0.360 OA
HETATM    6  C19 UNL     1       1.043   8.529  14.978  1.00  0.00     0.171 C 
HETATM    7  C20 UNL     1       1.646   7.160  15.197  1.00  0.00     0.027 C 
HETATM    8  C21 UNL     1       1.289   6.086  14.175  1.00  0.00     0.012 C 
HETATM    9  C22 UNL     1       0.431   6.447  12.933  1.00  0.00     0.032 C 
HETATM   10  C23 UNL     1       0.245   5.128  12.138  1.00  0.00    -0.066 C 
HETATM   11  C24 UNL     1      -0.894   4.385  12.186  1.00  0.00    -0.021 C 
HETATM   12  C25 UNL     1      -2.119   4.714  13.004  1.00  0.00     0.052 C 
HETATM   13  C27 UNL     1       1.495   4.751  11.349  1.00  0.00     0.038 C 
HETATM   14  C28 UNL     1       2.059   5.886  10.495  1.00  0.00     0.042 C 
HETATM   15  C29 UNL     1       2.242   7.214  11.264  1.00  0.00     0.067 C 
HETATM   16  C30 UNL     1       2.811   8.260  10.286  1.00  0.00     0.047 C 
HETATM   17  O5  UNL     1      -0.483   9.368  12.782  1.00  0.00    -0.351 OA
ENDROOT
BRANCH   1  18
HETATM   18  C14 UNL     1      -2.495   8.412  11.948  1.00  0.00     0.011 C 
HETATM   19  C12 UNL     1      -3.043   8.268  13.176  1.00  0.00    -0.064 C 
HETATM   20  C13 UNL     1      -2.343   8.617  14.464  1.00  0.00     0.048 C 
BRANCH  19  21
HETATM   21  C11 UNL     1      -4.417   7.770  13.252  1.00  0.00     0.003 C 
HETATM   22  C10 UNL     1      -4.800   6.497  13.442  1.00  0.00    -0.018 C 
BRANCH  22  23
HETATM   23  C9  UNL     1      -6.231   6.008  13.569  1.00  0.00     0.050 C 
HETATM   24  C4  UNL     1      -6.814   5.871  15.005  1.00  0.00     0.024 C 
HETATM   25  C5  UNL     1      -7.976   4.887  14.818  1.00  0.00     0.013 C 
HETATM   26  C6  UNL     1      -7.363   3.829  13.907  1.00  0.00     0.039 C 
HETATM   27  C7  UNL     1      -6.544   4.636  12.878  1.00  0.00     0.062 C 
HETATM   28  C8  UNL     1      -5.344   3.823  12.386  1.00  0.00     0.046 C 
BRANCH  24  29
HETATM   29  C2  UNL     1      -7.200   7.185  15.665  1.00  0.00    -0.088 C 
HETATM   30  C1  UNL     1      -7.194   8.338  14.969  1.00  0.00     0.014 C 
HETATM   31  C3  UNL     1      -7.585   7.174  17.123  1.00  0.00     0.043 C 
ENDBRANCH  24  29
BRANCH  27  32
HETATM   32  O1  UNL     1      -7.398   4.881  11.747  1.00  0.00    -0.390 OA
HETATM   33  H14 UNL     1      -6.879   5.376  11.088  1.00  0.00     0.210 HD
ENDBRANCH  27  32
ENDBRANCH  22  23
ENDBRANCH  19  21
ENDBRANCH   1  18
BRANCH  15  34
HETATM   34  O4  UNL     1       3.263   7.019  12.251  1.00  0.00    -0.389 OA
HETATM   35  H44 UNL     1       4.098   6.805  11.798  1.00  0.00     0.210 HD
ENDBRANCH  15  34
BRANCH  11  36
HETATM   36  C26 UNL     1      -1.085   3.119  11.402  1.00  0.00     0.265 C 
HETATM   37  O3  UNL     1      -1.719   3.079  10.352  1.00  0.00    -0.302 OA
ENDBRANCH  11  36
TORSDOF 7
ENDMDL
MODEL 7
REMARK minimizedAffinity -7.98833418
REMARK  7 active torsions:
REMARK  status: ('A' for Active; 'I' for Inactive)
REMARK    1  A    between atoms: C2_2  and  C4_4 
REMARK    2  A    between atoms: C7_7  and  O1_9 
REMARK    3  A    between atoms: C9_10  and  C10_11 
REMARK    4  A    between atoms: C11_12  and  C12_13 
REMARK    5  A    between atoms: C14_15  and  C15_16 
REMARK    6  A    between atoms: C24_26  and  C26_28 
REMARK    7  A    between atoms: C29_32  and  O4_34 
ROOT
HETATM    1  C15 UNL     1       7.257   7.644  13.313  1.00  0.00     0.149 C 
HETATM    2  C16 UNL     1       7.081   8.283  14.696  1.00  0.00     0.054 C 
HETATM    3  C17 UNL     1       7.899   9.610  14.664  1.00  0.00     0.050 C 
HETATM    4  C18 UNL     1       8.957   9.166  13.634  1.00  0.00     0.272 C 
HETATM    5  O2  UNL     1       9.803  10.147  13.085  1.00  0.00    -0.360 OA
HETATM    6  C19 UNL     1       9.196  11.022  12.157  1.00  0.00     0.171 C 
HETATM    7  C20 UNL     1       8.754  12.291  12.850  1.00  0.00     0.027 C 
HETATM    8  C21 UNL     1       7.584  12.167  13.821  1.00  0.00     0.012 C 
HETATM    9  C22 UNL     1       6.973  10.774  14.130  1.00  0.00     0.032 C 
HETATM   10  C23 UNL     1       5.806  11.025  15.121  1.00  0.00    -0.066 C 
HETATM   11  C24 UNL     1       4.499  11.047  14.740  1.00  0.00    -0.021 C 
HETATM   12  C25 UNL     1       3.996  10.844  13.332  1.00  0.00     0.052 C 
HETATM   13  C27 UNL     1       6.301  11.287  16.539  1.00  0.00     0.038 C 
HETATM   14  C28 UNL     1       7.303  10.253  17.051  1.00  0.00     0.042 C 
HETATM   15  C29 UNL     1       8.470   9.979  16.075  1.00  0.00     0.067 C 
HETATM   16  C30 UNL     1       9.393   8.923  16.715  1.00  0.00     0.047 C 
HETATM   17  O5  UNL     1       8.243   8.427  12.623  1.00  0.00    -0.351 OA
ENDROOT
BRANCH   1  18
HETATM   18  C14 UNL     1       6.000   7.647  12.496  1.00  0.00     0.011 C 
HETATM   19  C12 UNL     1       5.646   6.825  11.482  1.00  0.00    -0.064 C 
HETATM   20  C13 UNL     1       6.511   5.711  10.952  1.00  0.00     0.048 C 
BRANCH  19  21
HETATM   21  C11 UNL     1       4.323   7.013  10.887  1.00  0.00     0.003 C 
HETATM   22  C10 UNL     1       3.388   6.068  10.693  1.00  0.00    -0.018 C 
BRANCH  22  23
HETATM   23  C9  UNL     1       2.001   6.293  10.120  1.00  0.00     0.050 C 
HETATM   24  C4  UNL     1       1.708   7.681   9.482  1.00  0.00     0.024 C 
HETATM   25  C5  UNL     1       0.177   7.769   9.522  1.00  0.00     0.013 C 
HETATM   26  C6  UNL     1      -0.141   7.249  10.920  1.00  0.00     0.039 C 
HETATM   27  C7  UNL     1       0.809   6.049  11.109  1.00  0.00     0.062 C 
HETATM   28  C8  UNL     1       1.166   5.871  12.587  1.00  0.00     0.046 C 
BRANCH  24  29
HETATM   29  C2  UNL     1       2.316   7.891   8.104  1.00  0.00    -0.088 C 
HETATM   30  C1  UNL     1       3.210   8.875   7.885  1.00  0.00     0.014 C 
HETATM   31  C3  UNL     1       1.892   6.978   6.981  1.00  0.00     0.043 C 
ENDBRANCH  24  29
BRANCH  27  32
HETATM   32  O1  UNL     1       0.102   4.870  10.687  1.00  0.00    -0.390 OA
HETATM   33  H14 UNL     1       0.694   4.108  10.820  1.00  0.00     0.210 HD
ENDBRANCH  27  32
ENDBRANCH  22  23
ENDBRANCH  19  21
ENDBRANCH   1  18
BRANCH  15  34
HETATM   34  O4  UNL     1       9.260  11.170  15.981  1.00  0.00    -0.389 OA
HETATM   35  H44 UNL     1       9.630  11.369  16.859  1.00  0.00     0.210 HD
ENDBRANCH  15  34
BRANCH  11  36
HETATM   36  C26 UNL     1       3.366  11.268  15.699  1.00  0.00     0.265 C 
HETATM   37  O3  UNL     1       2.240  10.815  15.511  1.00  0.00    -0.302 OA
ENDBRANCH  11  36
TORSDOF 7
ENDMDL
MODEL 8
REMARK minimizedAffinity -7.90732193
REMARK  7 active torsions:
REMARK  status: ('A' for Active; 'I' for Inactive)
REMARK    1  A    between atoms: C2_2  and  C4_4 
REMARK    2  A    between atoms: C7_7  and  O1_9 
REMARK    3  A    between atoms: C9_10  and  C10_11 
REMARK    4  A    between atoms: C11_12  and  C12_13 
REMARK    5  A    between atoms: C14_15  and  C15_16 
REMARK    6  A    between atoms: C24_26  and  C26_28 
REMARK    7  A    between atoms: C29_32  and  O4_34 
ROOT
HETATM    1  C15 UNL     1      -3.299  10.963  14.768  1.00  0.00     0.149 C 
HETATM    2  C16 UNL     1      -1.804  11.108  14.461  1.00  0.00     0.054 C 
HETATM    3  C17 UNL     1      -1.131  11.548  15.796  1.00  0.00     0.050 C 
HETATM    4  C18 UNL     1      -2.345  12.284  16.397  1.00  0.00     0.272 C 
HETATM    5  O2  UNL     1      -2.291  12.660  17.752  1.00  0.00    -0.360 OA
HETATM    6  C19 UNL     1      -2.411  11.602  18.680  1.00  0.00     0.171 C 
HETATM    7  C20 UNL     1      -1.041  11.135  19.117  1.00  0.00     0.027 C 
HETATM    8  C21 UNL     1      -0.203  10.405  18.073  1.00  0.00     0.012 C 
HETATM    9  C22 UNL     1      -0.725  10.261  16.618  1.00  0.00     0.032 C 
HETATM   10  C23 UNL     1       0.356   9.456  15.850  1.00  0.00    -0.066 C 
HETATM   11  C24 UNL     1       0.239   8.127  15.577  1.00  0.00    -0.021 C 
HETATM   12  C25 UNL     1      -0.924   7.252  15.976  1.00  0.00     0.052 C 
HETATM   13  C27 UNL     1       1.563  10.313  15.488  1.00  0.00     0.038 C 
HETATM   14  C28 UNL     1       1.209  11.634  14.806  1.00  0.00     0.042 C 
HETATM   15  C29 UNL     1       0.126  12.449  15.548  1.00  0.00     0.067 C 
HETATM   16  C30 UNL     1      -0.130  13.743  14.752  1.00  0.00     0.047 C 
HETATM   17  O5  UNL     1      -3.494  11.467  16.099  1.00  0.00    -0.351 OA
ENDROOT
BRANCH   1  18
HETATM   18  C14 UNL     1      -3.776   9.542  14.729  1.00  0.00     0.011 C 
HETATM   19  C12 UNL     1      -3.528   8.590  13.801  1.00  0.00    -0.064 C 
HETATM   20  C13 UNL     1      -2.699   8.809  12.561  1.00  0.00     0.048 C 
BRANCH  19  21
HETATM   21  C11 UNL     1      -4.075   7.254  14.036  1.00  0.00     0.003 C 
HETATM   22  C10 UNL     1      -5.190   6.737  13.495  1.00  0.00    -0.018 C 
BRANCH  22  23
HETATM   23  C9  UNL     1      -5.715   5.329  13.712  1.00  0.00     0.050 C 
HETATM   24  C4  UNL     1      -5.520   4.309  12.554  1.00  0.00     0.024 C 
HETATM   25  C5  UNL     1      -6.586   3.243  12.844  1.00  0.00     0.013 C 
HETATM   26  C6  UNL     1      -7.801   4.090  13.206  1.00  0.00     0.039 C 
HETATM   27  C7  UNL     1      -7.232   5.220  14.090  1.00  0.00     0.062 C 
HETATM   28  C8  UNL     1      -8.071   6.492  13.945  1.00  0.00     0.046 C 
BRANCH  24  29
HETATM   29  C2  UNL     1      -4.107   3.764  12.414  1.00  0.00    -0.088 C 
HETATM   30  C1  UNL     1      -3.040   4.511  12.760  1.00  0.00     0.014 C 
HETATM   31  C3  UNL     1      -3.921   2.370  11.869  1.00  0.00     0.043 C 
ENDBRANCH  24  29
BRANCH  27  32
HETATM   32  O1  UNL     1      -7.331   4.787  15.457  1.00  0.00    -0.390 OA
HETATM   33  H14 UNL     1      -6.987   5.505  16.019  1.00  0.00     0.210 HD
ENDBRANCH  27  32
ENDBRANCH  22  23
ENDBRANCH  19  21
ENDBRANCH   1  18
BRANCH  15  34
HETATM   34  O4  UNL     1       0.672  12.874  16.803  1.00  0.00    -0.389 OA
HETATM   35  H44 UNL     1       1.434  13.455  16.631  1.00  0.00     0.210 HD
ENDBRANCH  15  34
BRANCH  11  36
HETATM   36  C26 UNL     1       1.273   7.349  14.816  1.00  0.00     0.265 C 
HETATM   37  O3  UNL     1       1.026   6.777  13.758  1.00  0.00    -0.302 OA
ENDBRANCH  11  36
TORSDOF 7
ENDMDL
MODEL 9
REMARK minimizedAffinity -7.80559444
REMARK  7 active torsions:
REMARK  status: ('A' for Active; 'I' for Inactive)
REMARK    1  A    between atoms: C2_2  and  C4_4 
REMARK    2  A    between atoms: C7_7  and  O1_9 
REMARK    3  A    between atoms: C9_10  and  C10_11 
REMARK    4  A    between atoms: C11_12  and  C12_13 
REMARK    5  A    between atoms: C14_15  and  C15_16 
REMARK    6  A    between atoms: C24_26  and  C26_28 
REMARK    7  A    between atoms: C29_32  and  O4_34 
ROOT
HETATM    1  C15 UNL     1       1.100   9.540  16.193  1.00  0.00     0.149 C 
HETATM    2  C16 UNL     1      -0.378   9.433  16.588  1.00  0.00     0.054 C 
HETATM    3  C17 UNL     1      -0.968  10.868  16.441  1.00  0.00     0.050 C 
HETATM    4  C18 UNL     1       0.333  11.647  16.722  1.00  0.00     0.272 C 
HETATM    5  O2  UNL     1       0.351  13.029  16.455  1.00  0.00    -0.360 OA
HETATM    6  C19 UNL     1       0.377  13.382  15.088  1.00  0.00     0.171 C 
HETATM    7  C20 UNL     1      -1.025  13.661  14.595  1.00  0.00     0.027 C 
HETATM    8  C21 UNL     1      -1.961  12.462  14.486  1.00  0.00     0.012 C 
HETATM    9  C22 UNL     1      -1.492  11.062  14.963  1.00  0.00     0.032 C 
HETATM   10  C23 UNL     1      -2.671  10.093  14.684  1.00  0.00    -0.066 C 
HETATM   11  C24 UNL     1      -2.705   9.253  13.613  1.00  0.00    -0.021 C 
HETATM   12  C25 UNL     1      -1.635   9.141  12.555  1.00  0.00     0.052 C 
HETATM   13  C27 UNL     1      -3.786  10.233  15.713  1.00  0.00     0.038 C 
HETATM   14  C28 UNL     1      -3.307  10.183  17.164  1.00  0.00     0.042 C 
HETATM   15  C29 UNL     1      -2.125  11.133  17.463  1.00  0.00     0.067 C 
HETATM   16  C30 UNL     1      -1.749  10.976  18.949  1.00  0.00     0.047 C 
HETATM   17  O5  UNL     1       1.378  10.939  16.029  1.00  0.00    -0.351 OA
ENDROOT
BRANCH   1  18
HETATM   18  C14 UNL     1       1.418   8.844  14.904  1.00  0.00     0.011 C 
HETATM   19  C12 UNL     1       0.940   7.669  14.435  1.00  0.00    -0.064 C 
HETATM   20  C13 UNL     1      -0.037   6.793  15.178  1.00  0.00     0.048 C 
BRANCH  19  21
HETATM   21  C11 UNL     1       1.378   7.240  13.107  1.00  0.00     0.003 C 
HETATM   22  C10 UNL     1       2.642   7.020  12.710  1.00  0.00    -0.018 C 
BRANCH  22  23
HETATM   23  C9  UNL     1       3.072   6.526  11.341  1.00  0.00     0.050 C 
HETATM   24  C4  UNL     1       3.618   7.583  10.340  1.00  0.00     0.024 C 
HETATM   25  C5  UNL     1       3.430   6.904   8.977  1.00  0.00     0.013 C 
HETATM   26  C6  UNL     1       2.034   6.306   9.102  1.00  0.00     0.039 C 
HETATM   27  C7  UNL     1       1.988   5.733  10.534  1.00  0.00     0.062 C 
HETATM   28  C8  UNL     1       0.559   5.766  11.082  1.00  0.00     0.046 C 
BRANCH  24  29
HETATM   29  C2  UNL     1       5.036   8.055  10.619  1.00  0.00    -0.088 C 
HETATM   30  C1  UNL     1       5.357   9.362  10.550  1.00  0.00     0.014 C 
HETATM   31  C3  UNL     1       6.084   7.028  10.968  1.00  0.00     0.043 C 
ENDBRANCH  24  29
BRANCH  27  32
HETATM   32  O1  UNL     1       2.393   4.356  10.458  1.00  0.00    -0.390 OA
HETATM   33  H14 UNL     1       2.350   3.986  11.359  1.00  0.00     0.210 HD
ENDBRANCH  27  32
ENDBRANCH  22  23
ENDBRANCH  19  21
ENDBRANCH   1  18
BRANCH  15  34
HETATM   34  O4  UNL     1      -2.592  12.480  17.327  1.00  0.00    -0.389 OA
HETATM   35  H44 UNL     1      -3.291  12.636  17.987  1.00  0.00     0.210 HD
ENDBRANCH  15  34
BRANCH  11  36
HETATM   36  C26 UNL     1      -3.834   8.299  13.351  1.00  0.00     0.265 C 
HETATM   37  O3  UNL     1      -4.889   8.648  12.829  1.00  0.00    -0.302 OA
ENDBRANCH  11  36
TORSDOF 7
ENDMDL
