MODEL 1
REMARK minimizedAffinity -7.59721994
REMARK CNNscore 0.359143555
REMARK CNNaffinity 6.70020914
REMARK  13 active torsions:
REMARK  status: ('A' for Active; 'I' for Inactive)
REMARK    1  A    between atoms: C3_3  and  O1_4 
REMARK    2  A    between atoms: N1_14  and  O2_16 
REMARK    3  A    between atoms: O2_16  and  C13_17 
REMARK    4  A    between atoms: C13_17  and  C14_18 
REMARK       I    between atoms: C14_18  and  N2_20 
REMARK    5  A    between atoms: N2_20  and  C15_21 
REMARK    6  A    between atoms: C15_21  and  C16_22 
REMARK    7  A    between atoms: C15_21  and  C21_32 
REMARK       I    between atoms: C16_22  and  N3_24 
REMARK    8  A    between atoms: N3_24  and  C17_25 
REMARK    9  A    between atoms: C17_25  and  C18_26 
REMARK   10  A    between atoms: C17_25  and  C19_28 
REMARK   11  A    between atoms: C18_26  and  S1_27 
REMARK   12  A    between atoms: C19_28  and  C20_29 
REMARK   13  A    between atoms: C20_29  and  O6_31 
ROOT
HETATM    1  C1  UNL     1      -1.211  16.074  16.907  1.00  0.00     0.015 C 
HETATM    2  C2  UNL     1      -1.647  14.963  17.045  1.00  0.00    -0.078 C 
HETATM    3  C3  UNL     1      -2.170  13.597  17.223  1.00  0.00     0.128 C 
HETATM    4  C4  UNL     1      -3.368  13.567  18.169  1.00  0.00     0.052 C 
HETATM    5  C5  UNL     1      -3.946  12.172  17.947  1.00  0.00     0.010 C 
HETATM    6  C6  UNL     1      -3.687  11.835  16.462  1.00  0.00     0.002 C 
HETATM    7  C7  UNL     1      -3.379  10.358  16.138  1.00  0.00    -0.004 C 
HETATM    8  C8  UNL     1      -2.440   9.609  17.095  1.00  0.00     0.010 C 
HETATM    9  C9  UNL     1      -2.328   8.128  16.727  1.00  0.00     0.035 C 
HETATM   10  C10 UNL     1      -2.054   7.846  15.269  1.00  0.00    -0.069 C 
HETATM   11  C11 UNL     1      -1.270   6.803  14.931  1.00  0.00     0.030 C 
HETATM   12  C12 UNL     1      -1.105   6.352  13.521  1.00  0.00     0.032 C 
HETATM   13  N1  UNL     1      -0.468   5.235  13.305  1.00  0.00    -0.271 N 
ATOM     14  H1  UNL     1      -0.056   4.658  14.038  1.00  0.00     0.194 HD
HETATM   15  C24 UNL     1      -1.767   7.162  12.422  1.00  0.00     0.060 C 
HETATM   16  C25 UNL     1      -2.030   8.592  12.871  1.00  0.00     0.020 C 
HETATM   17  C26 UNL     1      -2.776   8.707  14.232  1.00  0.00    -0.016 C 
HETATM   18  C27 UNL     1      -4.213   8.146  14.059  1.00  0.00     0.020 C 
HETATM   19  C28 UNL     1      -2.873  10.222  14.680  1.00  0.00     0.002 C 
HETATM   20  C29 UNL     1      -1.552  10.993  14.535  1.00  0.00     0.007 C 
HETATM   21  C30 UNL     1      -1.572  12.451  14.994  1.00  0.00     0.014 C 
HETATM   22  C31 UNL     1      -2.713  12.928  15.919  1.00  0.00     0.003 C 
HETATM   23  C32 UNL     1      -3.581  13.928  15.090  1.00  0.00     0.020 C 
ENDROOT
BRANCH   3  24
HETATM   24  O1  UNL     1      -1.151  12.770  17.807  1.00  0.00    -0.377 OA
HETATM   25  H2  UNL     1      -0.462  13.362  18.154  1.00  0.00     0.211 HD
ENDBRANCH   3  24
BRANCH  13  26
HETATM   26  O2  UNL     1      -0.418   4.927  11.936  1.00  0.00    -0.271 OA
BRANCH  26  27
HETATM   27  C13 UNL     1       0.932   4.745  11.526  1.00  0.00     0.303 C 
BRANCH  27  28
HETATM   28  C14 UNL     1       1.505   5.991  10.861  1.00  0.00     0.244 C 
HETATM   29  O3  UNL     1       1.021   7.103  11.047  1.00  0.00    -0.271 OA
HETATM   30  N2  UNL     1       2.523   5.729   9.970  1.00  0.00    -0.346 N 
HETATM   31  H16 UNL     1       2.967   4.820  10.092  1.00  0.00     0.163 HD
BRANCH  30  32
HETATM   32  C15 UNL     1       3.296   6.762   9.272  1.00  0.00     0.180 C 
BRANCH  32  33
HETATM   33  C16 UNL     1       4.148   7.581  10.281  1.00  0.00     0.241 C 
HETATM   34  O4  UNL     1       4.751   8.610   9.978  1.00  0.00    -0.271 OA
HETATM   35  N3  UNL     1       4.110   7.119  11.588  1.00  0.00    -0.353 N 
HETATM   36  H18 UNL     1       3.722   6.201  11.760  1.00  0.00     0.163 HD
BRANCH  35  37
HETATM   37  C17 UNL     1       4.888   7.752  12.668  1.00  0.00     0.103 C 
BRANCH  37  38
HETATM   38  C18 UNL     1       4.019   7.903  13.931  1.00  0.00     0.096 C 
BRANCH  38  39
HETATM   39  S1  UNL     1       4.084   9.583  14.635  1.00  0.00    -0.180 SA
HETATM   40  H22 UNL     1       4.531  10.196  13.529  1.00  0.00     0.101 HD
ENDBRANCH  38  39
ENDBRANCH  37  38
BRANCH  37  41
HETATM   41  C19 UNL     1       6.132   6.923  13.015  1.00  0.00     0.136 C 
BRANCH  41  42
HETATM   42  C20 UNL     1       7.373   7.437  12.348  1.00  0.00     0.141 C 
HETATM   43  O5  UNL     1       8.349   7.890  12.921  1.00  0.00    -0.650 OA
BRANCH  42  44
HETATM   44  O6  UNL     1       7.301   7.399  11.009  1.00  0.00    -0.776 OA
HETATM   45  H25 UNL     1       8.221   7.600  10.723  1.00  0.00     0.167 HD
ENDBRANCH  42  44
ENDBRANCH  41  42
ENDBRANCH  37  41
ENDBRANCH  35  37
ENDBRANCH  32  33
BRANCH  32  46
HETATM   46  C21 UNL     1       2.460   7.564   8.233  1.00  0.00     0.009 C 
HETATM   47  C22 UNL     1       2.063   6.690   7.036  1.00  0.00     0.012 C 
HETATM   48  C23 UNL     1       3.115   8.855   7.726  1.00  0.00     0.012 C 
ENDBRANCH  32  46
ENDBRANCH  30  32
ENDBRANCH  27  28
ENDBRANCH  26  27
ENDBRANCH  13  26
TORSDOF 13
ENDMDL
MODEL 2
REMARK minimizedAffinity -7.98042536
REMARK CNNscore 0.355402231
REMARK CNNaffinity 7.21718073
REMARK  13 active torsions:
REMARK  status: ('A' for Active; 'I' for Inactive)
REMARK    1  A    between atoms: C3_3  and  O1_4 
REMARK    2  A    between atoms: N1_14  and  O2_16 
REMARK    3  A    between atoms: O2_16  and  C13_17 
REMARK    4  A    between atoms: C13_17  and  C14_18 
REMARK       I    between atoms: C14_18  and  N2_20 
REMARK    5  A    between atoms: N2_20  and  C15_21 
REMARK    6  A    between atoms: C15_21  and  C16_22 
REMARK    7  A    between atoms: C15_21  and  C21_32 
REMARK       I    between atoms: C16_22  and  N3_24 
REMARK    8  A    between atoms: N3_24  and  C17_25 
REMARK    9  A    between atoms: C17_25  and  C18_26 
REMARK   10  A    between atoms: C17_25  and  C19_28 
REMARK   11  A    between atoms: C18_26  and  S1_27 
REMARK   12  A    between atoms: C19_28  and  C20_29 
REMARK   13  A    between atoms: C20_29  and  O6_31 
ROOT
HETATM    1  C1  UNL     1       0.621   9.219  12.847  1.00  0.00     0.015 C 
HETATM    2  C2  UNL     1      -0.157   8.344  13.120  1.00  0.00    -0.078 C 
HETATM    3  C3  UNL     1      -1.111   7.267  13.440  1.00  0.00     0.128 C 
HETATM    4  C4  UNL     1      -0.420   6.071  14.091  1.00  0.00     0.052 C 
HETATM    5  C5  UNL     1      -1.588   5.255  14.636  1.00  0.00     0.010 C 
HETATM    6  C6  UNL     1      -2.670   6.280  15.045  1.00  0.00     0.002 C 
HETATM    7  C7  UNL     1      -4.137   5.847  14.838  1.00  0.00    -0.004 C 
HETATM    8  C8  UNL     1      -4.475   5.107  13.535  1.00  0.00     0.010 C 
HETATM    9  C9  UNL     1      -5.928   4.627  13.524  1.00  0.00     0.035 C 
HETATM   10  C10 UNL     1      -6.953   5.668  13.910  1.00  0.00    -0.069 C 
HETATM   11  C11 UNL     1      -8.157   5.669  13.305  1.00  0.00     0.030 C 
HETATM   12  C12 UNL     1      -9.277   6.539  13.760  1.00  0.00     0.032 C 
HETATM   13  N1  UNL     1     -10.454   6.352  13.228  1.00  0.00    -0.271 N 
ATOM     14  H1  UNL     1     -10.654   5.660  12.506  1.00  0.00     0.194 HD
HETATM   15  C24 UNL     1      -9.015   7.527  14.880  1.00  0.00     0.060 C 
HETATM   16  C25 UNL     1      -7.534   7.859  14.990  1.00  0.00     0.020 C 
HETATM   17  C26 UNL     1      -6.604   6.613  15.059  1.00  0.00    -0.016 C 
HETATM   18  C27 UNL     1      -6.874   5.867  16.394  1.00  0.00     0.020 C 
HETATM   19  C28 UNL     1      -5.086   7.058  15.024  1.00  0.00     0.002 C 
HETATM   20  C29 UNL     1      -4.775   8.107  13.946  1.00  0.00     0.007 C 
HETATM   21  C30 UNL     1      -3.314   8.544  13.835  1.00  0.00     0.014 C 
HETATM   22  C31 UNL     1      -2.219   7.659  14.469  1.00  0.00     0.003 C 
HETATM   23  C32 UNL     1      -1.620   8.468  15.665  1.00  0.00     0.020 C 
ENDROOT
BRANCH   3  24
HETATM   24  O1  UNL     1      -1.718   6.794  12.227  1.00  0.00    -0.377 OA
HETATM   25  H2  UNL     1      -1.184   7.130  11.487  1.00  0.00     0.211 HD
ENDBRANCH   3  24
BRANCH  13  26
HETATM   26  O2  UNL     1     -11.410   7.222  13.775  1.00  0.00    -0.271 OA
BRANCH  26  27
HETATM   27  C13 UNL     1     -12.707   6.882  13.297  1.00  0.00     0.303 C 
BRANCH  27  28
HETATM   28  C14 UNL     1     -13.698   6.654  14.432  1.00  0.00     0.244 C 
HETATM   29  O3  UNL     1     -13.760   7.409  15.398  1.00  0.00    -0.271 OA
HETATM   30  N2  UNL     1     -14.418   5.484  14.317  1.00  0.00    -0.346 N 
HETATM   31  H16 UNL     1     -14.436   5.092  13.376  1.00  0.00     0.163 HD
BRANCH  30  32
HETATM   32  C15 UNL     1     -15.494   5.083  15.230  1.00  0.00     0.180 C 
BRANCH  32  33
HETATM   33  C16 UNL     1     -16.353   3.953  14.597  1.00  0.00     0.241 C 
HETATM   34  O4  UNL     1     -17.242   4.162  13.771  1.00  0.00    -0.271 OA
HETATM   35  N3  UNL     1     -15.988   2.666  14.961  1.00  0.00    -0.353 N 
HETATM   36  H18 UNL     1     -15.353   2.551  15.741  1.00  0.00     0.163 HD
BRANCH  35  37
HETATM   37  C17 UNL     1     -16.717   1.478  14.484  1.00  0.00     0.103 C 
BRANCH  37  38
HETATM   38  C18 UNL     1     -16.554   1.330  12.959  1.00  0.00     0.096 C 
BRANCH  38  39
HETATM   39  S1  UNL     1     -15.989  -0.332  12.469  1.00  0.00    -0.180 SA
HETATM   40  H22 UNL     1     -16.344  -0.956  13.602  1.00  0.00     0.101 HD
ENDBRANCH  38  39
ENDBRANCH  37  38
BRANCH  37  41
HETATM   41  C19 UNL     1     -16.203   0.202  15.165  1.00  0.00     0.136 C 
BRANCH  41  42
HETATM   42  C20 UNL     1     -15.345   0.491  16.361  1.00  0.00     0.141 C 
HETATM   43  O5  UNL     1     -15.754   0.766  17.476  1.00  0.00    -0.650 OA
BRANCH  42  44
HETATM   44  O6  UNL     1     -14.033   0.468  16.081  1.00  0.00    -0.776 OA
HETATM   45  H25 UNL     1     -13.608   0.506  16.968  1.00  0.00     0.167 HD
ENDBRANCH  42  44
ENDBRANCH  41  42
ENDBRANCH  37  41
ENDBRANCH  35  37
ENDBRANCH  32  33
BRANCH  32  46
HETATM   46  C21 UNL     1     -16.254   6.288  15.857  1.00  0.00     0.009 C 
HETATM   47  C22 UNL     1     -16.721   5.977  17.284  1.00  0.00     0.012 C 
HETATM   48  C23 UNL     1     -17.440   6.808  15.034  1.00  0.00     0.012 C 
ENDBRANCH  32  46
ENDBRANCH  30  32
ENDBRANCH  27  28
ENDBRANCH  26  27
ENDBRANCH  13  26
TORSDOF 13
ENDMDL
MODEL 3
REMARK minimizedAffinity -8.26870251
REMARK CNNscore 0.343232334
REMARK CNNaffinity 7.05145264
REMARK  13 active torsions:
REMARK  status: ('A' for Active; 'I' for Inactive)
REMARK    1  A    between atoms: C3_3  and  O1_4 
REMARK    2  A    between atoms: N1_14  and  O2_16 
REMARK    3  A    between atoms: O2_16  and  C13_17 
REMARK    4  A    between atoms: C13_17  and  C14_18 
REMARK       I    between atoms: C14_18  and  N2_20 
REMARK    5  A    between atoms: N2_20  and  C15_21 
REMARK    6  A    between atoms: C15_21  and  C16_22 
REMARK    7  A    between atoms: C15_21  and  C21_32 
REMARK       I    between atoms: C16_22  and  N3_24 
REMARK    8  A    between atoms: N3_24  and  C17_25 
REMARK    9  A    between atoms: C17_25  and  C18_26 
REMARK   10  A    between atoms: C17_25  and  C19_28 
REMARK   11  A    between atoms: C18_26  and  S1_27 
REMARK   12  A    between atoms: C19_28  and  C20_29 
REMARK   13  A    between atoms: C20_29  and  O6_31 
ROOT
HETATM    1  C1  UNL     1       2.889   5.444   6.860  1.00  0.00     0.015 C 
HETATM    2  C2  UNL     1       2.823   5.807   8.005  1.00  0.00    -0.078 C 
HETATM    3  C3  UNL     1       2.743   6.238   9.412  1.00  0.00     0.128 C 
HETATM    4  C4  UNL     1       4.064   6.829   9.900  1.00  0.00     0.052 C 
HETATM    5  C5  UNL     1       3.674   7.502  11.212  1.00  0.00     0.010 C 
HETATM    6  C6  UNL     1       2.227   8.009  11.018  1.00  0.00     0.002 C 
HETATM    7  C7  UNL     1       1.312   7.961  12.259  1.00  0.00    -0.004 C 
HETATM    8  C8  UNL     1       1.394   6.710  13.146  1.00  0.00     0.010 C 
HETATM    9  C9  UNL     1       0.533   6.855  14.403  1.00  0.00     0.035 C 
HETATM   10  C10 UNL     1      -0.880   7.333  14.163  1.00  0.00    -0.069 C 
HETATM   11  C11 UNL     1      -1.881   6.857  14.930  1.00  0.00     0.030 C 
HETATM   12  C12 UNL     1      -3.261   7.415  14.879  1.00  0.00     0.032 C 
HETATM   13  N1  UNL     1      -4.119   7.011  15.774  1.00  0.00    -0.271 N 
ATOM     14  H1  UNL     1      -3.913   6.322  16.497  1.00  0.00     0.194 HD
HETATM   15  C24 UNL     1      -3.567   8.489  13.854  1.00  0.00     0.060 C 
HETATM   16  C25 UNL     1      -2.587   8.440  12.691  1.00  0.00     0.020 C 
HETATM   17  C26 UNL     1      -1.090   8.428  13.117  1.00  0.00    -0.016 C 
HETATM   18  C27 UNL     1      -0.752   9.793  13.776  1.00  0.00     0.020 C 
HETATM   19  C28 UNL     1      -0.159   8.229  11.853  1.00  0.00     0.002 C 
HETATM   20  C29 UNL     1      -0.630   7.112  10.910  1.00  0.00     0.007 C 
HETATM   21  C30 UNL     1       0.255   6.844   9.692  1.00  0.00     0.014 C 
HETATM   22  C31 UNL     1       1.705   7.372   9.691  1.00  0.00     0.003 C 
HETATM   23  C32 UNL     1       1.780   8.488   8.600  1.00  0.00     0.020 C 
ENDROOT
BRANCH   3  24
HETATM   24  O1  UNL     1       2.458   5.100  10.241  1.00  0.00    -0.377 OA
HETATM   25  H2  UNL     1       2.622   4.305   9.707  1.00  0.00     0.211 HD
ENDBRANCH   3  24
BRANCH  13  26
HETATM   26  O2  UNL     1      -5.362   7.643  15.617  1.00  0.00    -0.271 OA
BRANCH  26  27
HETATM   27  C13 UNL     1      -6.386   6.669  15.444  1.00  0.00     0.303 C 
BRANCH  27  28
HETATM   28  C14 UNL     1      -7.724   7.134  16.006  1.00  0.00     0.244 C 
HETATM   29  O3  UNL     1      -7.940   7.173  17.213  1.00  0.00    -0.271 OA
HETATM   30  N2  UNL     1      -8.673   7.394  15.041  1.00  0.00    -0.346 N 
HETATM   31  H16 UNL     1      -8.293   7.548  14.107  1.00  0.00     0.163 HD
BRANCH  30  32
HETATM   32  C15 UNL     1     -10.007   7.940  15.319  1.00  0.00     0.180 C 
BRANCH  32  33
HETATM   33  C16 UNL     1     -11.047   7.376  14.312  1.00  0.00     0.241 C 
HETATM   34  O4  UNL     1     -10.752   6.988  13.182  1.00  0.00    -0.271 OA
HETATM   35  N3  UNL     1     -12.335   7.254  14.809  1.00  0.00    -0.353 N 
HETATM   36  H18 UNL     1     -12.556   7.712  15.684  1.00  0.00     0.163 HD
BRANCH  35  37
HETATM   37  C17 UNL     1     -13.455   6.772  13.981  1.00  0.00     0.103 C 
BRANCH  37  38
HETATM   38  C18 UNL     1     -13.934   5.396  14.482  1.00  0.00     0.096 C 
BRANCH  38  39
HETATM   39  S1  UNL     1     -15.717   5.365  14.859  1.00  0.00    -0.180 SA
HETATM   40  H22 UNL     1     -16.045   6.448  14.138  1.00  0.00     0.101 HD
ENDBRANCH  38  39
ENDBRANCH  37  38
BRANCH  37  41
HETATM   41  C19 UNL     1     -14.634   7.753  14.017  1.00  0.00     0.136 C 
BRANCH  41  42
HETATM   42  C20 UNL     1     -15.007   8.259  12.656  1.00  0.00     0.141 C 
HETATM   43  O5  UNL     1     -15.998   7.929  12.025  1.00  0.00    -0.650 OA
BRANCH  42  44
HETATM   44  O6  UNL     1     -14.100   9.103  12.144  1.00  0.00    -0.776 OA
HETATM   45  H25 UNL     1     -14.549   9.471  11.349  1.00  0.00     0.167 HD
ENDBRANCH  42  44
ENDBRANCH  41  42
ENDBRANCH  37  41
ENDBRANCH  35  37
ENDBRANCH  32  33
BRANCH  32  46
HETATM   46  C21 UNL     1     -10.007   9.478  15.556  1.00  0.00     0.009 C 
HETATM   47  C22 UNL     1     -10.620   9.837  16.915  1.00  0.00     0.012 C 
HETATM   48  C23 UNL     1     -10.685  10.306  14.456  1.00  0.00     0.012 C 
ENDBRANCH  32  46
ENDBRANCH  30  32
ENDBRANCH  27  28
ENDBRANCH  26  27
ENDBRANCH  13  26
TORSDOF 13
ENDMDL
MODEL 4
REMARK minimizedAffinity -8.03374004
REMARK CNNscore 0.29422459
REMARK CNNaffinity 6.59797144
REMARK  13 active torsions:
REMARK  status: ('A' for Active; 'I' for Inactive)
REMARK    1  A    between atoms: C3_3  and  O1_4 
REMARK    2  A    between atoms: N1_14  and  O2_16 
REMARK    3  A    between atoms: O2_16  and  C13_17 
REMARK    4  A    between atoms: C13_17  and  C14_18 
REMARK       I    between atoms: C14_18  and  N2_20 
REMARK    5  A    between atoms: N2_20  and  C15_21 
REMARK    6  A    between atoms: C15_21  and  C16_22 
REMARK    7  A    between atoms: C15_21  and  C21_32 
REMARK       I    between atoms: C16_22  and  N3_24 
REMARK    8  A    between atoms: N3_24  and  C17_25 
REMARK    9  A    between atoms: C17_25  and  C18_26 
REMARK   10  A    between atoms: C17_25  and  C19_28 
REMARK   11  A    between atoms: C18_26  and  S1_27 
REMARK   12  A    between atoms: C19_28  and  C20_29 
REMARK   13  A    between atoms: C20_29  and  O6_31 
ROOT
HETATM    1  C1  UNL     1      -7.187   7.741  16.148  1.00  0.00     0.015 C 
HETATM    2  C2  UNL     1      -6.281   7.190  15.580  1.00  0.00    -0.078 C 
HETATM    3  C3  UNL     1      -5.169   6.508  14.896  1.00  0.00     0.128 C 
HETATM    4  C4  UNL     1      -5.665   5.391  13.981  1.00  0.00     0.052 C 
HETATM    5  C5  UNL     1      -4.433   5.063  13.141  1.00  0.00     0.010 C 
HETATM    6  C6  UNL     1      -3.670   6.395  12.966  1.00  0.00     0.002 C 
HETATM    7  C7  UNL     1      -2.130   6.303  12.934  1.00  0.00    -0.004 C 
HETATM    8  C8  UNL     1      -1.460   5.357  13.941  1.00  0.00     0.010 C 
HETATM    9  C9  UNL     1       0.050   5.268  13.709  1.00  0.00     0.035 C 
HETATM   10  C10 UNL     1       0.758   6.595  13.565  1.00  0.00    -0.069 C 
HETATM   11  C11 UNL     1       2.005   6.739  14.056  1.00  0.00     0.030 C 
HETATM   12  C12 UNL     1       2.833   7.948  13.790  1.00  0.00     0.032 C 
HETATM   13  N1  UNL     1       4.084   7.927  14.159  1.00  0.00    -0.271 N 
ATOM     14  H1  UNL     1       4.529   7.143  14.635  1.00  0.00     0.194 HD
HETATM   15  C24 UNL     1       2.207   9.096  13.023  1.00  0.00     0.060 C 
HETATM   16  C25 UNL     1       0.689   9.066  13.121  1.00  0.00     0.020 C 
HETATM   17  C26 UNL     1       0.054   7.690  12.764  1.00  0.00    -0.016 C 
HETATM   18  C27 UNL     1       0.292   7.411  11.255  1.00  0.00     0.020 C 
HETATM   19  C28 UNL     1      -1.505   7.717  13.035  1.00  0.00     0.002 C 
HETATM   20  C29 UNL     1      -1.885   8.337  14.389  1.00  0.00     0.007 C 
HETATM   21  C30 UNL     1      -3.376   8.350  14.726  1.00  0.00     0.014 C 
HETATM   22  C31 UNL     1      -4.328   7.418  13.945  1.00  0.00     0.003 C 
HETATM   23  C32 UNL     1      -5.250   8.336  13.079  1.00  0.00     0.020 C 
ENDROOT
BRANCH   3  24
HETATM   24  O1  UNL     1      -4.311   5.901  15.875  1.00  0.00    -0.377 OA
HETATM   25  H2  UNL     1      -4.797   5.887  16.717  1.00  0.00     0.211 HD
ENDBRANCH   3  24
BRANCH  13  26
HETATM   26  O2  UNL     1       4.741   9.120  13.817  1.00  0.00    -0.271 OA
BRANCH  26  27
HETATM   27  C13 UNL     1       5.222   9.764  14.991  1.00  0.00     0.303 C 
BRANCH  27  28
HETATM   28  C14 UNL     1       6.445   9.064  15.572  1.00  0.00     0.244 C 
HETATM   29  O3  UNL     1       6.367   7.959  16.099  1.00  0.00    -0.271 OA
HETATM   30  N2  UNL     1       7.591   9.829  15.541  1.00  0.00    -0.346 N 
HETATM   31  H16 UNL     1       7.564  10.603  14.880  1.00  0.00     0.163 HD
BRANCH  30  32
HETATM   32  C15 UNL     1       8.915   9.350  15.956  1.00  0.00     0.180 C 
BRANCH  32  33
HETATM   33  C16 UNL     1       9.351  10.032  17.282  1.00  0.00     0.241 C 
HETATM   34  O4  UNL     1       8.584  10.229  18.224  1.00  0.00    -0.271 OA
HETATM   35  N3  UNL     1      10.702  10.329  17.371  1.00  0.00    -0.353 N 
HETATM   36  H18 UNL     1      11.260  10.279  16.528  1.00  0.00     0.163 HD
BRANCH  35  37
HETATM   37  C17 UNL     1      11.282  11.011  18.542  1.00  0.00     0.103 C 
BRANCH  37  38
HETATM   38  C18 UNL     1      12.743  11.408  18.257  1.00  0.00     0.096 C 
BRANCH  38  39
HETATM   39  S1  UNL     1      13.265  12.886  19.187  1.00  0.00    -0.180 SA
HETATM   40  H22 UNL     1      12.303  12.828  20.121  1.00  0.00     0.101 HD
ENDBRANCH  38  39
ENDBRANCH  37  38
BRANCH  37  41
HETATM   41  C19 UNL     1      10.484  12.271  18.901  1.00  0.00     0.136 C 
BRANCH  41  42
HETATM   42  C20 UNL     1      10.175  12.362  20.366  1.00  0.00     0.141 C 
HETATM   43  O5  UNL     1       9.775  11.445  21.063  1.00  0.00    -0.650 OA
BRANCH  42  44
HETATM   44  O6  UNL     1      10.337  13.598  20.859  1.00  0.00    -0.776 OA
HETATM   45  H25 UNL     1      10.266  13.470  21.832  1.00  0.00     0.167 HD
ENDBRANCH  42  44
ENDBRANCH  41  42
ENDBRANCH  37  41
ENDBRANCH  35  37
ENDBRANCH  32  33
BRANCH  32  46
HETATM   46  C21 UNL     1       9.953   9.321  14.796  1.00  0.00     0.009 C 
HETATM   47  C22 UNL     1       9.765  10.509  13.845  1.00  0.00     0.012 C 
HETATM   48  C23 UNL     1       9.986   8.019  13.986  1.00  0.00     0.012 C 
ENDBRANCH  32  46
ENDBRANCH  30  32
ENDBRANCH  27  28
ENDBRANCH  26  27
ENDBRANCH  13  26
TORSDOF 13
ENDMDL
MODEL 5
REMARK minimizedAffinity -7.84471846
REMARK CNNscore 0.264845967
REMARK CNNaffinity 6.38240576
REMARK  13 active torsions:
REMARK  status: ('A' for Active; 'I' for Inactive)
REMARK    1  A    between atoms: C3_3  and  O1_4 
REMARK    2  A    between atoms: N1_14  and  O2_16 
REMARK    3  A    between atoms: O2_16  and  C13_17 
REMARK    4  A    between atoms: C13_17  and  C14_18 
REMARK       I    between atoms: C14_18  and  N2_20 
REMARK    5  A    between atoms: N2_20  and  C15_21 
REMARK    6  A    between atoms: C15_21  and  C16_22 
REMARK    7  A    between atoms: C15_21  and  C21_32 
REMARK       I    between atoms: C16_22  and  N3_24 
REMARK    8  A    between atoms: N3_24  and  C17_25 
REMARK    9  A    between atoms: C17_25  and  C18_26 
REMARK   10  A    between atoms: C17_25  and  C19_28 
REMARK   11  A    between atoms: C18_26  and  S1_27 
REMARK   12  A    between atoms: C19_28  and  C20_29 
REMARK   13  A    between atoms: C20_29  and  O6_31 
ROOT
HETATM    1  C1  UNL     1      -3.096   4.826  12.435  1.00  0.00     0.015 C 
HETATM    2  C2  UNL     1      -3.404   5.885  12.912  1.00  0.00    -0.078 C 
HETATM    3  C3  UNL     1      -3.776   7.191  13.485  1.00  0.00     0.128 C 
HETATM    4  C4  UNL     1      -5.263   7.487  13.307  1.00  0.00     0.052 C 
HETATM    5  C5  UNL     1      -5.491   8.672  14.240  1.00  0.00     0.010 C 
HETATM    6  C6  UNL     1      -4.527   8.470  15.430  1.00  0.00     0.002 C 
HETATM    7  C7  UNL     1      -3.923   9.749  16.047  1.00  0.00    -0.004 C 
HETATM    8  C8  UNL     1      -3.456  10.845  15.078  1.00  0.00     0.010 C 
HETATM    9  C9  UNL     1      -3.002  12.100  15.827  1.00  0.00     0.035 C 
HETATM   10  C10 UNL     1      -2.044  11.857  16.969  1.00  0.00    -0.069 C 
HETATM   11  C11 UNL     1      -1.070  12.754  17.221  1.00  0.00     0.030 C 
HETATM   12  C12 UNL     1      -0.210  12.679  18.434  1.00  0.00     0.032 C 
HETATM   13  N1  UNL     1       0.588  13.681  18.683  1.00  0.00    -0.271 N 
ATOM     14  H1  UNL     1       0.676  14.505  18.090  1.00  0.00     0.194 HD
HETATM   15  C24 UNL     1      -0.375  11.492  19.364  1.00  0.00     0.060 C 
HETATM   16  C25 UNL     1      -0.994  10.305  18.640  1.00  0.00     0.020 C 
HETATM   17  C26 UNL     1      -2.297  10.641  17.860  1.00  0.00    -0.016 C 
HETATM   18  C27 UNL     1      -3.404  11.016  18.882  1.00  0.00     0.020 C 
HETATM   19  C28 UNL     1      -2.780   9.384  17.028  1.00  0.00     0.002 C 
HETATM   20  C29 UNL     1      -1.653   8.691  16.247  1.00  0.00     0.007 C 
HETATM   21  C30 UNL     1      -2.067   7.496  15.389  1.00  0.00     0.014 C 
HETATM   22  C31 UNL     1      -3.557   7.315  15.027  1.00  0.00     0.003 C 
HETATM   23  C32 UNL     1      -4.052   6.034  15.774  1.00  0.00     0.020 C 
ENDROOT
BRANCH   3  24
HETATM   24  O1  UNL     1      -3.055   8.231  12.805  1.00  0.00    -0.377 OA
HETATM   25  H2  UNL     1      -2.689   7.844  11.992  1.00  0.00     0.211 HD
ENDBRANCH   3  24
BRANCH  13  26
HETATM   26  O2  UNL     1       1.310  13.480  19.870  1.00  0.00    -0.271 OA
BRANCH  26  27
HETATM   27  C13 UNL     1       2.433  14.354  19.910  1.00  0.00     0.303 C 
BRANCH  27  28
HETATM   28  C14 UNL     1       3.696  13.647  20.385  1.00  0.00     0.244 C 
HETATM   29  O3  UNL     1       4.807  14.151  20.255  1.00  0.00    -0.271 OA
HETATM   30  N2  UNL     1       3.476  12.372  20.860  1.00  0.00    -0.346 N 
HETATM   31  H16 UNL     1       2.510  12.182  21.125  1.00  0.00     0.163 HD
BRANCH  30  32
HETATM   32  C15 UNL     1       4.512  11.522  21.457  1.00  0.00     0.180 C 
BRANCH  32  33
HETATM   33  C16 UNL     1       5.805  11.551  20.594  1.00  0.00     0.241 C 
HETATM   34  O4  UNL     1       5.872  11.073  19.463  1.00  0.00    -0.271 OA
HETATM   35  N3  UNL     1       6.867  12.242  21.156  1.00  0.00    -0.353 N 
HETATM   36  H18 UNL     1       6.812  12.492  22.135  1.00  0.00     0.163 HD
BRANCH  35  37
HETATM   37  C17 UNL     1       8.180  12.339  20.493  1.00  0.00     0.103 C 
BRANCH  37  38
HETATM   38  C18 UNL     1       8.233  13.592  19.599  1.00  0.00     0.096 C 
BRANCH  38  39
HETATM   39  S1  UNL     1       8.517  13.193  17.843  1.00  0.00    -0.180 SA
HETATM   40  H22 UNL     1       8.137  11.908  17.915  1.00  0.00     0.101 HD
ENDBRANCH  38  39
ENDBRANCH  37  38
BRANCH  37  41
HETATM   41  C19 UNL     1       9.317  12.413  21.522  1.00  0.00     0.136 C 
BRANCH  41  42
HETATM   42  C20 UNL     1       8.821  12.343  22.936  1.00  0.00     0.141 C 
HETATM   43  O5  UNL     1       8.583  13.302  23.651  1.00  0.00    -0.650 OA
BRANCH  42  44
HETATM   44  O6  UNL     1       8.700  11.086  23.387  1.00  0.00    -0.776 OA
HETATM   45  H25 UNL     1       8.220  11.191  24.239  1.00  0.00     0.167 HD
ENDBRANCH  42  44
ENDBRANCH  41  42
ENDBRANCH  37  41
ENDBRANCH  35  37
ENDBRANCH  32  33
BRANCH  32  46
HETATM   46  C21 UNL     1       3.986  10.127  21.902  1.00  0.00     0.009 C 
HETATM   47  C22 UNL     1       2.710   9.739  21.144  1.00  0.00     0.012 C 
HETATM   48  C23 UNL     1       3.751   9.970  23.410  1.00  0.00     0.012 C 
ENDBRANCH  32  46
ENDBRANCH  30  32
ENDBRANCH  27  28
ENDBRANCH  26  27
ENDBRANCH  13  26
TORSDOF 13
ENDMDL
MODEL 6
REMARK minimizedAffinity -7.63298893
REMARK CNNscore 0.253208876
REMARK CNNaffinity 5.68464422
REMARK  13 active torsions:
REMARK  status: ('A' for Active; 'I' for Inactive)
REMARK    1  A    between atoms: C3_3  and  O1_4 
REMARK    2  A    between atoms: N1_14  and  O2_16 
REMARK    3  A    between atoms: O2_16  and  C13_17 
REMARK    4  A    between atoms: C13_17  and  C14_18 
REMARK       I    between atoms: C14_18  and  N2_20 
REMARK    5  A    between atoms: N2_20  and  C15_21 
REMARK    6  A    between atoms: C15_21  and  C16_22 
REMARK    7  A    between atoms: C15_21  and  C21_32 
REMARK       I    between atoms: C16_22  and  N3_24 
REMARK    8  A    between atoms: N3_24  and  C17_25 
REMARK    9  A    between atoms: C17_25  and  C18_26 
REMARK   10  A    between atoms: C17_25  and  C19_28 
REMARK   11  A    between atoms: C18_26  and  S1_27 
REMARK   12  A    between atoms: C19_28  and  C20_29 
REMARK   13  A    between atoms: C20_29  and  O6_31 
ROOT
HETATM    1  C1  UNL     1       1.567   7.289   6.911  1.00  0.00     0.015 C 
HETATM    2  C2  UNL     1       1.702   7.381   8.102  1.00  0.00    -0.078 C 
HETATM    3  C3  UNL     1       1.861   7.507   9.562  1.00  0.00     0.128 C 
HETATM    4  C4  UNL     1       0.845   6.655  10.319  1.00  0.00     0.052 C 
HETATM    5  C5  UNL     1       1.389   6.659  11.745  1.00  0.00     0.010 C 
HETATM    6  C6  UNL     1       2.927   6.710  11.614  1.00  0.00     0.002 C 
HETATM    7  C7  UNL     1       3.680   7.514  12.695  1.00  0.00    -0.004 C 
HETATM    8  C8  UNL     1       3.071   8.856  13.127  1.00  0.00     0.010 C 
HETATM    9  C9  UNL     1       3.848   9.477  14.290  1.00  0.00     0.035 C 
HETATM   10  C10 UNL     1       5.346   9.525  14.109  1.00  0.00    -0.069 C 
HETATM   11  C11 UNL     1       6.040  10.573  14.597  1.00  0.00     0.030 C 
HETATM   12  C12 UNL     1       7.529  10.602  14.623  1.00  0.00     0.032 C 
HETATM   13  N1  UNL     1       8.111  11.576  15.266  1.00  0.00    -0.271 N 
ATOM     14  H1  UNL     1       7.614  12.332  15.738  1.00  0.00     0.194 HD
HETATM   15  C24 UNL     1       8.284   9.453  13.986  1.00  0.00     0.060 C 
HETATM   16  C25 UNL     1       7.430   8.735  12.952  1.00  0.00     0.020 C 
HETATM   17  C26 UNL     1       6.023   8.314  13.467  1.00  0.00    -0.016 C 
HETATM   18  C27 UNL     1       6.200   7.226  14.561  1.00  0.00     0.020 C 
HETATM   19  C28 UNL     1       5.162   7.710  12.285  1.00  0.00     0.002 C 
HETATM   20  C29 UNL     1       5.218   8.541  10.994  1.00  0.00     0.007 C 
HETATM   21  C30 UNL     1       4.370   8.029   9.829  1.00  0.00     0.014 C 
HETATM   22  C31 UNL     1       3.238   7.019  10.115  1.00  0.00     0.003 C 
HETATM   23  C32 UNL     1       3.663   5.665   9.459  1.00  0.00     0.020 C 
ENDROOT
BRANCH   3  24
HETATM   24  O1  UNL     1       1.637   8.872   9.948  1.00  0.00    -0.377 OA
HETATM   25  H2  UNL     1       1.209   9.319   9.197  1.00  0.00     0.211 HD
ENDBRANCH   3  24
BRANCH  13  26
HETATM   26  O2  UNL     1       9.509  11.454  15.228  1.00  0.00    -0.271 OA
BRANCH  26  27
HETATM   27  C13 UNL     1      10.036  11.472  16.550  1.00  0.00     0.303 C 
BRANCH  27  28
HETATM   28  C14 UNL     1      11.422  12.103  16.609  1.00  0.00     0.244 C 
HETATM   29  O3  UNL     1      11.593  13.253  17.001  1.00  0.00    -0.271 OA
HETATM   30  N2  UNL     1      12.419  11.307  16.088  1.00  0.00    -0.346 N 
HETATM   31  H16 UNL     1      12.179  10.318  16.024  1.00  0.00     0.163 HD
BRANCH  30  32
HETATM   32  C15 UNL     1      13.846  11.648  16.111  1.00  0.00     0.180 C 
BRANCH  32  33
HETATM   33  C16 UNL     1      14.365  11.725  17.575  1.00  0.00     0.241 C 
HETATM   34  O4  UNL     1      13.670  11.449  18.552  1.00  0.00    -0.271 OA
HETATM   35  N3  UNL     1      15.708  12.043  17.703  1.00  0.00    -0.353 N 
HETATM   36  H18 UNL     1      16.196  12.395  16.890  1.00  0.00     0.163 HD
BRANCH  35  37
HETATM   37  C17 UNL     1      16.357  12.195  19.018  1.00  0.00     0.103 C 
BRANCH  37  38
HETATM   38  C18 UNL     1      17.886  12.085  18.872  1.00  0.00     0.096 C 
BRANCH  38  39
HETATM   39  S1  UNL     1      18.409  11.764  17.156  1.00  0.00    -0.180 SA
HETATM   40  H22 UNL     1      17.276  12.179  16.570  1.00  0.00     0.101 HD
ENDBRANCH  38  39
ENDBRANCH  37  38
BRANCH  37  41
HETATM   41  C19 UNL     1      16.013  13.549  19.653  1.00  0.00     0.136 C 
BRANCH  41  42
HETATM   42  C20 UNL     1      15.853  13.465  21.141  1.00  0.00     0.141 C 
HETATM   43  O5  UNL     1      16.099  14.362  21.931  1.00  0.00    -0.650 OA
BRANCH  42  44
HETATM   44  O6  UNL     1      15.445  12.258  21.557  1.00  0.00    -0.776 OA
HETATM   45  H25 UNL     1      15.229  12.401  22.506  1.00  0.00     0.167 HD
ENDBRANCH  42  44
ENDBRANCH  41  42
ENDBRANCH  37  41
ENDBRANCH  35  37
ENDBRANCH  32  33
BRANCH  32  46
HETATM   46  C21 UNL     1      14.215  12.825  15.163  1.00  0.00     0.009 C 
HETATM   47  C22 UNL     1      14.239  14.163  15.912  1.00  0.00     0.012 C 
HETATM   48  C23 UNL     1      13.334  12.955  13.914  1.00  0.00     0.012 C 
ENDBRANCH  32  46
ENDBRANCH  30  32
ENDBRANCH  27  28
ENDBRANCH  26  27
ENDBRANCH  13  26
TORSDOF 13
ENDMDL
MODEL 7
REMARK minimizedAffinity -8.75391388
REMARK CNNscore 0.222115219
REMARK CNNaffinity 6.90965414
REMARK  13 active torsions:
REMARK  status: ('A' for Active; 'I' for Inactive)
REMARK    1  A    between atoms: C3_3  and  O1_4 
REMARK    2  A    between atoms: N1_14  and  O2_16 
REMARK    3  A    between atoms: O2_16  and  C13_17 
REMARK    4  A    between atoms: C13_17  and  C14_18 
REMARK       I    between atoms: C14_18  and  N2_20 
REMARK    5  A    between atoms: N2_20  and  C15_21 
REMARK    6  A    between atoms: C15_21  and  C16_22 
REMARK    7  A    between atoms: C15_21  and  C21_32 
REMARK       I    between atoms: C16_22  and  N3_24 
REMARK    8  A    between atoms: N3_24  and  C17_25 
REMARK    9  A    between atoms: C17_25  and  C18_26 
REMARK   10  A    between atoms: C17_25  and  C19_28 
REMARK   11  A    between atoms: C18_26  and  S1_27 
REMARK   12  A    between atoms: C19_28  and  C20_29 
REMARK   13  A    between atoms: C20_29  and  O6_31 
ROOT
HETATM    1  C1  UNL     1     -15.291   9.518  12.068  1.00  0.00     0.015 C 
HETATM    2  C2  UNL     1     -14.351   9.467  12.816  1.00  0.00    -0.078 C 
HETATM    3  C3  UNL     1     -13.194   9.418  13.728  1.00  0.00     0.128 C 
HETATM    4  C4  UNL     1     -13.573   9.830  15.149  1.00  0.00     0.052 C 
HETATM    5  C5  UNL     1     -12.363   9.390  15.967  1.00  0.00     0.010 C 
HETATM    6  C6  UNL     1     -11.823   8.116  15.279  1.00  0.00     0.002 C 
HETATM    7  C7  UNL     1     -10.293   7.923  15.299  1.00  0.00    -0.004 C 
HETATM    8  C8  UNL     1      -9.424   9.161  15.034  1.00  0.00     0.010 C 
HETATM    9  C9  UNL     1      -7.936   8.851  15.212  1.00  0.00     0.035 C 
HETATM   10  C10 UNL     1      -7.448   7.609  14.505  1.00  0.00    -0.069 C 
HETATM   11  C11 UNL     1      -6.208   7.590  13.977  1.00  0.00     0.030 C 
HETATM   12  C12 UNL     1      -5.591   6.348  13.433  1.00  0.00     0.032 C 
HETATM   13  N1  UNL     1      -4.330   6.384  13.100  1.00  0.00    -0.271 N 
ATOM     14  H1  UNL     1      -3.742   7.214  13.171  1.00  0.00     0.194 HD
HETATM   15  C24 UNL     1      -6.431   5.087  13.383  1.00  0.00     0.060 C 
HETATM   16  C25 UNL     1      -7.918   5.412  13.383  1.00  0.00     0.020 C 
HETATM   17  C26 UNL     1      -8.359   6.382  14.518  1.00  0.00    -0.016 C 
HETATM   18  C27 UNL     1      -8.179   5.663  15.882  1.00  0.00     0.020 C 
HETATM   19  C28 UNL     1      -9.884   6.772  14.347  1.00  0.00     0.002 C 
HETATM   20  C29 UNL     1     -10.265   7.153  12.908  1.00  0.00     0.007 C 
HETATM   21  C30 UNL     1     -11.716   7.582  12.689  1.00  0.00     0.014 C 
HETATM   22  C31 UNL     1     -12.564   8.001  13.909  1.00  0.00     0.003 C 
HETATM   23  C32 UNL     1     -13.669   6.909  14.090  1.00  0.00     0.020 C 
ENDROOT
BRANCH   3  24
HETATM   24  O1  UNL     1     -12.193  10.343  13.274  1.00  0.00    -0.377 OA
HETATM   25  H2  UNL     1     -12.616  10.934  12.628  1.00  0.00     0.211 HD
ENDBRANCH   3  24
BRANCH  13  26
HETATM   26  O2  UNL     1      -3.885   5.138  12.634  1.00  0.00    -0.271 OA
BRANCH  26  27
HETATM   27  C13 UNL     1      -2.939   4.587  13.543  1.00  0.00     0.303 C 
BRANCH  27  28
HETATM   28  C14 UNL     1      -1.607   5.326  13.506  1.00  0.00     0.244 C 
HETATM   29  O3  UNL     1      -0.892   5.420  14.499  1.00  0.00    -0.271 OA
HETATM   30  N2  UNL     1      -1.351   5.953  12.306  1.00  0.00    -0.346 N 
HETATM   31  H16 UNL     1      -1.898   5.601  11.521  1.00  0.00     0.163 HD
BRANCH  30  32
HETATM   32  C15 UNL     1      -0.100   6.652  11.989  1.00  0.00     0.180 C 
BRANCH  32  33
HETATM   33  C16 UNL     1       0.870   5.712  11.221  1.00  0.00     0.241 C 
HETATM   34  O4  UNL     1       0.889   4.491  11.374  1.00  0.00    -0.271 OA
HETATM   35  N3  UNL     1       1.664   6.338  10.273  1.00  0.00    -0.353 N 
HETATM   36  H18 UNL     1       1.714   7.349  10.282  1.00  0.00     0.163 HD
BRANCH  35  37
HETATM   37  C17 UNL     1       2.666   5.605   9.478  1.00  0.00     0.103 C 
BRANCH  37  38
HETATM   38  C18 UNL     1       2.683   6.128   8.029  1.00  0.00     0.096 C 
BRANCH  38  39
HETATM   39  S1  UNL     1       1.920   7.775   7.866  1.00  0.00    -0.180 SA
HETATM   40  H22 UNL     1       2.016   8.118   9.159  1.00  0.00     0.101 HD
ENDBRANCH  38  39
ENDBRANCH  37  38
BRANCH  37  41
HETATM   41  C19 UNL     1       4.070   5.759  10.080  1.00  0.00     0.136 C 
BRANCH  41  42
HETATM   42  C20 UNL     1       4.218   7.014  10.886  1.00  0.00     0.141 C 
HETATM   43  O5  UNL     1       3.959   8.141  10.496  1.00  0.00    -0.650 OA
BRANCH  42  44
HETATM   44  O6  UNL     1       4.726   6.795  12.108  1.00  0.00    -0.776 OA
HETATM   45  H25 UNL     1       4.609   7.659  12.565  1.00  0.00     0.167 HD
ENDBRANCH  42  44
ENDBRANCH  41  42
ENDBRANCH  37  41
ENDBRANCH  35  37
ENDBRANCH  32  33
BRANCH  32  46
HETATM   46  C21 UNL     1       0.485   7.448  13.192  1.00  0.00     0.009 C 
HETATM   47  C22 UNL     1       0.520   8.954  12.905  1.00  0.00     0.012 C 
HETATM   48  C23 UNL     1       1.869   6.987  13.666  1.00  0.00     0.012 C 
ENDBRANCH  32  46
ENDBRANCH  30  32
ENDBRANCH  27  28
ENDBRANCH  26  27
ENDBRANCH  13  26
TORSDOF 13
ENDMDL
MODEL 8
REMARK minimizedAffinity -7.56382513
REMARK CNNscore 0.215237305
REMARK CNNaffinity 5.12383986
REMARK  13 active torsions:
REMARK  status: ('A' for Active; 'I' for Inactive)
REMARK    1  A    between atoms: C3_3  and  O1_4 
REMARK    2  A    between atoms: N1_14  and  O2_16 
REMARK    3  A    between atoms: O2_16  and  C13_17 
REMARK    4  A    between atoms: C13_17  and  C14_18 
REMARK       I    between atoms: C14_18  and  N2_20 
REMARK    5  A    between atoms: N2_20  and  C15_21 
REMARK    6  A    between atoms: C15_21  and  C16_22 
REMARK    7  A    between atoms: C15_21  and  C21_32 
REMARK       I    between atoms: C16_22  and  N3_24 
REMARK    8  A    between atoms: N3_24  and  C17_25 
REMARK    9  A    between atoms: C17_25  and  C18_26 
REMARK   10  A    between atoms: C17_25  and  C19_28 
REMARK   11  A    between atoms: C18_26  and  S1_27 
REMARK   12  A    between atoms: C19_28  and  C20_29 
REMARK   13  A    between atoms: C20_29  and  O6_31 
ROOT
HETATM    1  C1  UNL     1       1.434   5.360  11.214  1.00  0.00     0.015 C 
HETATM    2  C2  UNL     1       2.404   6.071  11.229  1.00  0.00    -0.078 C 
HETATM    3  C3  UNL     1       3.601   6.930  11.247  1.00  0.00     0.128 C 
HETATM    4  C4  UNL     1       3.889   7.531   9.873  1.00  0.00     0.052 C 
HETATM    5  C5  UNL     1       4.916   8.615  10.182  1.00  0.00     0.010 C 
HETATM    6  C6  UNL     1       4.559   9.155  11.585  1.00  0.00     0.002 C 
HETATM    7  C7  UNL     1       5.743   9.580  12.478  1.00  0.00    -0.004 C 
HETATM    8  C8  UNL     1       6.981   8.671  12.484  1.00  0.00     0.010 C 
HETATM    9  C9  UNL     1       8.120   9.279  13.307  1.00  0.00     0.035 C 
HETATM   10  C10 UNL     1       7.728   9.774  14.679  1.00  0.00    -0.069 C 
HETATM   11  C11 UNL     1       8.598   9.652  15.701  1.00  0.00     0.030 C 
HETATM   12  C12 UNL     1       8.360  10.280  17.031  1.00  0.00     0.032 C 
HETATM   13  N1  UNL     1       9.329  10.254  17.903  1.00  0.00    -0.271 N 
ATOM     14  H1  UNL     1      10.235   9.814  17.742  1.00  0.00     0.194 HD
HETATM   15  C24 UNL     1       7.044  10.996  17.266  1.00  0.00     0.060 C 
HETATM   16  C25 UNL     1       5.966  10.499  16.315  1.00  0.00     0.020 C 
HETATM   17  C26 UNL     1       6.388  10.496  14.816  1.00  0.00    -0.016 C 
HETATM   18  C27 UNL     1       6.583  11.965  14.354  1.00  0.00     0.020 C 
HETATM   19  C28 UNL     1       5.259   9.829  13.928  1.00  0.00     0.002 C 
HETATM   20  C29 UNL     1       4.715   8.515  14.508  1.00  0.00     0.007 C 
HETATM   21  C30 UNL     1       3.653   7.802  13.671  1.00  0.00     0.014 C 
HETATM   22  C31 UNL     1       3.498   8.177  12.182  1.00  0.00     0.003 C 
HETATM   23  C32 UNL     1       2.110   8.881  12.034  1.00  0.00     0.020 C 
ENDROOT
BRANCH   3  24
HETATM   24  O1  UNL     1       4.745   6.142  11.610  1.00  0.00    -0.377 OA
HETATM   25  H2  UNL     1       4.493   5.207  11.523  1.00  0.00     0.211 HD
ENDBRANCH   3  24
BRANCH  13  26
HETATM   26  O2  UNL     1       8.969  10.907  19.092  1.00  0.00    -0.271 OA
BRANCH  26  27
HETATM   27  C13 UNL     1       9.974  11.848  19.455  1.00  0.00     0.303 C 
BRANCH  27  28
HETATM   28  C14 UNL     1      11.359  11.420  18.987  1.00  0.00     0.244 C 
HETATM   29  O3  UNL     1      11.981  10.521  19.543  1.00  0.00    -0.271 OA
HETATM   30  N2  UNL     1      11.870  12.201  17.972  1.00  0.00    -0.346 N 
HETATM   31  H16 UNL     1      11.171  12.740  17.462  1.00  0.00     0.163 HD
BRANCH  30  32
HETATM   32  C15 UNL     1      13.142  11.939  17.289  1.00  0.00     0.180 C 
BRANCH  32  33
HETATM   33  C16 UNL     1      14.304  12.694  17.993  1.00  0.00     0.241 C 
HETATM   34  O4  UNL     1      14.270  13.897  18.250  1.00  0.00    -0.271 OA
HETATM   35  N3  UNL     1      15.360  11.893  18.398  1.00  0.00    -0.353 N 
HETATM   36  H18 UNL     1      15.408  10.947  18.043  1.00  0.00     0.163 HD
BRANCH  35  37
HETATM   37  C17 UNL     1      16.562  12.447  19.047  1.00  0.00     0.103 C 
BRANCH  37  38
HETATM   38  C18 UNL     1      17.658  12.715  17.999  1.00  0.00     0.096 C 
BRANCH  38  39
HETATM   39  S1  UNL     1      17.183  12.168  16.327  1.00  0.00    -0.180 SA
HETATM   40  H22 UNL     1      15.860  12.126  16.549  1.00  0.00     0.101 HD
ENDBRANCH  38  39
ENDBRANCH  37  38
BRANCH  37  41
HETATM   41  C19 UNL     1      16.242  13.757  19.780  1.00  0.00     0.136 C 
BRANCH  41  42
HETATM   42  C20 UNL     1      15.901  13.543  21.224  1.00  0.00     0.141 C 
HETATM   43  O5  UNL     1      16.156  14.315  22.134  1.00  0.00    -0.650 OA
BRANCH  42  44
HETATM   44  O6  UNL     1      15.309  12.361  21.453  1.00  0.00    -0.776 OA
HETATM   45  H25 UNL     1      15.002  12.433  22.385  1.00  0.00     0.167 HD
ENDBRANCH  42  44
ENDBRANCH  41  42
ENDBRANCH  37  41
ENDBRANCH  35  37
ENDBRANCH  32  33
BRANCH  32  46
HETATM   46  C21 UNL     1      13.048  12.064  15.740  1.00  0.00     0.009 C 
HETATM   47  C22 UNL     1      12.642  13.480  15.314  1.00  0.00     0.012 C 
HETATM   48  C23 UNL     1      12.126  11.043  15.060  1.00  0.00     0.012 C 
ENDBRANCH  32  46
ENDBRANCH  30  32
ENDBRANCH  27  28
ENDBRANCH  26  27
ENDBRANCH  13  26
TORSDOF 13
ENDMDL
MODEL 9
REMARK minimizedAffinity -7.55544853
REMARK CNNscore 0.205104902
REMARK CNNaffinity 5.89251328
REMARK  13 active torsions:
REMARK  status: ('A' for Active; 'I' for Inactive)
REMARK    1  A    between atoms: C3_3  and  O1_4 
REMARK    2  A    between atoms: N1_14  and  O2_16 
REMARK    3  A    between atoms: O2_16  and  C13_17 
REMARK    4  A    between atoms: C13_17  and  C14_18 
REMARK       I    between atoms: C14_18  and  N2_20 
REMARK    5  A    between atoms: N2_20  and  C15_21 
REMARK    6  A    between atoms: C15_21  and  C16_22 
REMARK    7  A    between atoms: C15_21  and  C21_32 
REMARK       I    between atoms: C16_22  and  N3_24 
REMARK    8  A    between atoms: N3_24  and  C17_25 
REMARK    9  A    between atoms: C17_25  and  C18_26 
REMARK   10  A    between atoms: C17_25  and  C19_28 
REMARK   11  A    between atoms: C18_26  and  S1_27 
REMARK   12  A    between atoms: C19_28  and  C20_29 
REMARK   13  A    between atoms: C20_29  and  O6_31 
ROOT
HETATM    1  C1  UNL     1      -5.586   5.602  13.839  1.00  0.00     0.015 C 
HETATM    2  C2  UNL     1      -4.423   5.894  13.923  1.00  0.00    -0.078 C 
HETATM    3  C3  UNL     1      -2.995   6.241  14.036  1.00  0.00     0.128 C 
HETATM    4  C4  UNL     1      -2.163   5.586  12.936  1.00  0.00     0.052 C 
HETATM    5  C5  UNL     1      -0.832   6.326  13.027  1.00  0.00     0.010 C 
HETATM    6  C6  UNL     1      -1.175   7.770  13.459  1.00  0.00     0.002 C 
HETATM    7  C7  UNL     1      -0.159   8.468  14.386  1.00  0.00    -0.004 C 
HETATM    8  C8  UNL     1       0.447   7.631  15.523  1.00  0.00     0.010 C 
HETATM    9  C9  UNL     1       1.528   8.408  16.277  1.00  0.00     0.035 C 
HETATM   10  C10 UNL     1       1.141   9.806  16.697  1.00  0.00    -0.069 C 
HETATM   11  C11 UNL     1       1.597  10.297  17.867  1.00  0.00     0.030 C 
HETATM   12  C12 UNL     1       1.414  11.722  18.259  1.00  0.00     0.032 C 
HETATM   13  N1  UNL     1       2.034  12.149  19.325  1.00  0.00    -0.271 N 
ATOM     14  H1  UNL     1       2.622  11.566  19.919  1.00  0.00     0.194 HD
HETATM   15  C24 UNL     1       0.598  12.622  17.352  1.00  0.00     0.060 C 
HETATM   16  C25 UNL     1      -0.352  11.813  16.480  1.00  0.00     0.020 C 
HETATM   17  C26 UNL     1       0.327  10.643  15.711  1.00  0.00    -0.016 C 
HETATM   18  C27 UNL     1       1.307  11.240  14.664  1.00  0.00     0.020 C 
HETATM   19  C28 UNL     1      -0.760   9.778  14.953  1.00  0.00     0.002 C 
HETATM   20  C29 UNL     1      -1.985   9.436  15.814  1.00  0.00     0.007 C 
HETATM   21  C30 UNL     1      -3.051   8.564  15.148  1.00  0.00     0.014 C 
HETATM   22  C31 UNL     1      -2.678   7.763  13.883  1.00  0.00     0.003 C 
HETATM   23  C32 UNL     1      -3.479   8.391  12.696  1.00  0.00     0.020 C 
ENDROOT
BRANCH   3  24
HETATM   24  O1  UNL     1      -2.488   5.761  15.291  1.00  0.00    -0.377 OA
HETATM   25  H2  UNL     1      -3.138   5.130  15.644  1.00  0.00     0.211 HD
ENDBRANCH   3  24
BRANCH  13  26
HETATM   26  O2  UNL     1       1.790  13.513  19.550  1.00  0.00    -0.271 OA
BRANCH  26  27
HETATM   27  C13 UNL     1       1.602  13.751  20.941  1.00  0.00     0.303 C 
BRANCH  27  28
HETATM   28  C14 UNL     1       2.697  13.114  21.787  1.00  0.00     0.244 C 
HETATM   29  O3  UNL     1       2.834  13.383  22.977  1.00  0.00    -0.271 OA
HETATM   30  N2  UNL     1       3.560  12.313  21.070  1.00  0.00    -0.346 N 
HETATM   31  H16 UNL     1       3.196  12.000  20.172  1.00  0.00     0.163 HD
BRANCH  30  32
HETATM   32  C15 UNL     1       4.640  11.519  21.668  1.00  0.00     0.180 C 
BRANCH  32  33
HETATM   33  C16 UNL     1       5.907  11.558  20.770  1.00  0.00     0.241 C 
HETATM   34  O4  UNL     1       5.966  11.028  19.661  1.00  0.00    -0.271 OA
HETATM   35  N3  UNL     1       6.954  12.318  21.269  1.00  0.00    -0.353 N 
HETATM   36  H18 UNL     1       6.913  12.614  22.236  1.00  0.00     0.163 HD
BRANCH  35  37
HETATM   37  C17 UNL     1       8.244  12.435  20.566  1.00  0.00     0.103 C 
BRANCH  37  38
HETATM   38  C18 UNL     1       8.205  13.614  19.575  1.00  0.00     0.096 C 
BRANCH  38  39
HETATM   39  S1  UNL     1       9.600  14.766  19.795  1.00  0.00    -0.180 SA
HETATM   40  H22 UNL     1      10.396  13.918  20.465  1.00  0.00     0.101 HD
ENDBRANCH  38  39
ENDBRANCH  37  38
BRANCH  37  41
HETATM   41  C19 UNL     1       9.397  12.655  21.556  1.00  0.00     0.136 C 
BRANCH  41  42
HETATM   42  C20 UNL     1       9.014  12.330  22.969  1.00  0.00     0.141 C 
HETATM   43  O5  UNL     1       8.802  11.211  23.406  1.00  0.00    -0.650 OA
BRANCH  42  44
HETATM   44  O6  UNL     1       8.871  13.420  23.737  1.00  0.00    -0.776 OA
HETATM   45  H25 UNL     1       8.790  13.054  24.646  1.00  0.00     0.167 HD
ENDBRANCH  42  44
ENDBRANCH  41  42
ENDBRANCH  37  41
ENDBRANCH  35  37
ENDBRANCH  32  33
BRANCH  32  46
HETATM   46  C21 UNL     1       4.171  10.125  22.177  1.00  0.00     0.009 C 
HETATM   47  C22 UNL     1       3.025   9.571  21.322  1.00  0.00     0.012 C 
HETATM   48  C23 UNL     1       3.775  10.072  23.658  1.00  0.00     0.012 C 
ENDBRANCH  32  46
ENDBRANCH  30  32
ENDBRANCH  27  28
ENDBRANCH  26  27
ENDBRANCH  13  26
TORSDOF 13
ENDMDL
