MODEL 1
REMARK minimizedAffinity -8.66643429
REMARK CNNscore 0.51503855
REMARK CNNaffinity 7.41273546
REMARK  10 active torsions:
REMARK  status: ('A' for Active; 'I' for Inactive)
REMARK    1  A    between atoms: C3_3  and  O1_4 
REMARK    2  A    between atoms: N1_14  and  O2_16 
REMARK    3  A    between atoms: O2_16  and  C13_17 
REMARK    4  A    between atoms: C13_17  and  C14_18 
REMARK       I    between atoms: C14_18  and  N2_20 
REMARK    5  A    between atoms: N2_20  and  C15_21 
REMARK    6  A    between atoms: C15_21  and  C16_22 
REMARK    7  A    between atoms: C15_21  and  C19_29 
REMARK       I    between atoms: C16_22  and  N3_24 
REMARK    8  A    between atoms: N3_24  and  C17_25 
REMARK    9  A    between atoms: C17_25  and  C18_26 
REMARK   10  A    between atoms: C18_26  and  O6_28 
ROOT
HETATM    1  C1  UNL     1       2.698   6.122   7.746  1.00  0.00     0.015 C 
HETATM    2  C2  UNL     1       2.501   6.470   8.880  1.00  0.00    -0.078 C 
HETATM    3  C3  UNL     1       2.283   6.850  10.287  1.00  0.00     0.128 C 
HETATM    4  C4  UNL     1       3.260   7.939  10.742  1.00  0.00     0.052 C 
HETATM    5  C5  UNL     1       2.637   8.413  12.053  1.00  0.00     0.010 C 
HETATM    6  C6  UNL     1       1.149   8.530  11.713  1.00  0.00     0.002 C 
HETATM    7  C7  UNL     1       0.170   8.570  12.914  1.00  0.00    -0.004 C 
HETATM    8  C8  UNL     1       0.491   7.644  14.099  1.00  0.00     0.010 C 
HETATM    9  C9  UNL     1      -0.514   7.801  15.241  1.00  0.00     0.035 C 
HETATM   10  C10 UNL     1      -1.962   7.730  14.804  1.00  0.00    -0.069 C 
HETATM   11  C11 UNL     1      -2.842   7.004  15.515  1.00  0.00     0.030 C 
HETATM   12  C12 UNL     1      -4.299   7.021  15.218  1.00  0.00     0.032 C 
HETATM   13  N1  UNL     1      -5.076   6.243  15.916  1.00  0.00    -0.271 N 
ATOM     14  H1  UNL     1      -4.759   5.626  16.664  1.00  0.00     0.194 HD
HETATM   15  C22 UNL     1      -4.792   8.013  14.179  1.00  0.00     0.060 C 
HETATM   16  C23 UNL     1      -3.768   8.169  13.065  1.00  0.00     0.020 C 
HETATM   17  C24 UNL     1      -2.347   8.552  13.576  1.00  0.00    -0.016 C 
HETATM   18  C25 UNL     1      -2.385  10.046  13.990  1.00  0.00     0.020 C 
HETATM   19  C26 UNL     1      -1.283   8.345  12.431  1.00  0.00     0.002 C 
HETATM   20  C27 UNL     1      -1.418   6.982  11.703  1.00  0.00     0.007 C 
HETATM   21  C28 UNL     1      -0.138   6.406  11.093  1.00  0.00     0.014 C 
HETATM   22  C29 UNL     1       0.866   7.460  10.604  1.00  0.00     0.003 C 
HETATM   23  C30 UNL     1       0.265   8.188   9.369  1.00  0.00     0.020 C 
ENDROOT
BRANCH   3  24
HETATM   24  O1  UNL     1       2.536   5.704  11.107  1.00  0.00    -0.377 OA
HETATM   25  H2  UNL     1       3.184   5.155  10.636  1.00  0.00     0.211 HD
ENDBRANCH   3  24
BRANCH  13  26
HETATM   26  O2  UNL     1      -6.407   6.369  15.498  1.00  0.00    -0.271 OA
BRANCH  26  27
HETATM   27  C13 UNL     1      -7.185   6.931  16.549  1.00  0.00     0.303 C 
BRANCH  27  28
HETATM   28  C14 UNL     1      -8.349   7.670  15.901  1.00  0.00     0.244 C 
HETATM   29  O3  UNL     1      -8.247   8.792  15.412  1.00  0.00    -0.271 OA
HETATM   30  N2  UNL     1      -9.537   6.968  15.855  1.00  0.00    -0.346 N 
HETATM   31  H16 UNL     1      -9.490   5.960  15.940  1.00  0.00     0.163 HD
BRANCH  30  32
HETATM   32  C15 UNL     1     -10.727   7.519  15.185  1.00  0.00     0.180 C 
BRANCH  32  33
HETATM   33  C16 UNL     1     -10.990   8.947  15.749  1.00  0.00     0.241 C 
HETATM   34  O4  UNL     1     -11.198   9.932  15.045  1.00  0.00    -0.271 OA
HETATM   35  N3  UNL     1     -11.024   8.999  17.128  1.00  0.00    -0.349 N 
HETATM   36  H18 UNL     1     -11.122   8.104  17.611  1.00  0.00     0.163 HD
BRANCH  35  37
HETATM   37  C17 UNL     1     -11.460  10.182  17.844  1.00  0.00     0.232 C 
BRANCH  37  38
HETATM   38  C18 UNL     1     -11.876   9.892  19.284  1.00  0.00     0.158 C 
HETATM   39  O5  UNL     1     -12.378  10.698  20.056  1.00  0.00    -0.649 OA
BRANCH  38  40
HETATM   40  O6  UNL     1     -11.573   8.645  19.715  1.00  0.00    -0.775 OA
HETATM   41  H21 UNL     1     -11.865   8.647  20.653  1.00  0.00     0.167 HD
ENDBRANCH  38  40
ENDBRANCH  37  38
ENDBRANCH  35  37
ENDBRANCH  32  33
BRANCH  32  42
HETATM   42  C19 UNL     1     -10.562   7.500  13.645  1.00  0.00     0.009 C 
HETATM   43  C20 UNL     1     -11.923   7.398  12.940  1.00  0.00     0.012 C 
HETATM   44  C21 UNL     1      -9.693   6.322  13.180  1.00  0.00     0.012 C 
ENDBRANCH  32  42
ENDBRANCH  30  32
ENDBRANCH  27  28
ENDBRANCH  26  27
ENDBRANCH  13  26
TORSDOF 10
ENDMDL
MODEL 2
REMARK minimizedAffinity -8.61495018
REMARK CNNscore 0.368301362
REMARK CNNaffinity 7.03787041
REMARK  10 active torsions:
REMARK  status: ('A' for Active; 'I' for Inactive)
REMARK    1  A    between atoms: C3_3  and  O1_4 
REMARK    2  A    between atoms: N1_14  and  O2_16 
REMARK    3  A    between atoms: O2_16  and  C13_17 
REMARK    4  A    between atoms: C13_17  and  C14_18 
REMARK       I    between atoms: C14_18  and  N2_20 
REMARK    5  A    between atoms: N2_20  and  C15_21 
REMARK    6  A    between atoms: C15_21  and  C16_22 
REMARK    7  A    between atoms: C15_21  and  C19_29 
REMARK       I    between atoms: C16_22  and  N3_24 
REMARK    8  A    between atoms: N3_24  and  C17_25 
REMARK    9  A    between atoms: C17_25  and  C18_26 
REMARK   10  A    between atoms: C18_26  and  O6_28 
ROOT
HETATM    1  C1  UNL     1       0.069   9.829  14.378  1.00  0.00     0.015 C 
HETATM    2  C2  UNL     1      -0.649   8.884  14.193  1.00  0.00    -0.078 C 
HETATM    3  C3  UNL     1      -1.515   7.724  13.913  1.00  0.00     0.128 C 
HETATM    4  C4  UNL     1      -0.910   6.419  14.441  1.00  0.00     0.052 C 
HETATM    5  C5  UNL     1      -2.092   5.456  14.370  1.00  0.00     0.010 C 
HETATM    6  C6  UNL     1      -3.252   6.280  14.934  1.00  0.00     0.002 C 
HETATM    7  C7  UNL     1      -4.680   5.769  14.613  1.00  0.00    -0.004 C 
HETATM    8  C8  UNL     1      -4.912   5.209  13.199  1.00  0.00     0.010 C 
HETATM    9  C9  UNL     1      -6.339   4.695  13.011  1.00  0.00     0.035 C 
HETATM   10  C10 UNL     1      -7.411   5.671  13.450  1.00  0.00    -0.069 C 
HETATM   11  C11 UNL     1      -8.491   5.874  12.674  1.00  0.00     0.030 C 
HETATM   12  C12 UNL     1      -9.640   6.704  13.126  1.00  0.00     0.032 C 
HETATM   13  N1  UNL     1     -10.620   6.899  12.291  1.00  0.00    -0.271 N 
ATOM     14  H1  UNL     1     -10.664   6.514  11.348  1.00  0.00     0.194 HD
HETATM   15  C22 UNL     1      -9.630   7.193  14.564  1.00  0.00     0.060 C 
HETATM   16  C23 UNL     1      -8.211   7.521  15.004  1.00  0.00     0.020 C 
HETATM   17  C24 UNL     1      -7.211   6.343  14.807  1.00  0.00    -0.016 C 
HETATM   18  C25 UNL     1      -7.500   5.293  15.911  1.00  0.00     0.020 C 
HETATM   19  C26 UNL     1      -5.728   6.861  14.941  1.00  0.00     0.002 C 
HETATM   20  C27 UNL     1      -5.451   8.154  14.130  1.00  0.00     0.007 C 
HETATM   21  C28 UNL     1      -4.011   8.364  13.654  1.00  0.00     0.014 C 
HETATM   22  C29 UNL     1      -2.940   7.775  14.583  1.00  0.00     0.003 C 
HETATM   23  C30 UNL     1      -2.923   8.591  15.906  1.00  0.00     0.020 C 
ENDROOT
BRANCH   3  24
HETATM   24  O1  UNL     1      -1.627   7.579  12.493  1.00  0.00    -0.377 OA
HETATM   25  H2  UNL     1      -0.812   7.938  12.105  1.00  0.00     0.211 HD
ENDBRANCH   3  24
BRANCH  13  26
HETATM   26  O2  UNL     1     -11.605   7.712  12.867  1.00  0.00    -0.271 OA
BRANCH  26  27
HETATM   27  C13 UNL     1     -11.574   9.000  12.262  1.00  0.00     0.303 C 
BRANCH  27  28
HETATM   28  C14 UNL     1     -12.599   9.862  12.988  1.00  0.00     0.244 C 
HETATM   29  O3  UNL     1     -13.104   9.547  14.063  1.00  0.00    -0.271 OA
HETATM   30  N2  UNL     1     -12.897  11.062  12.374  1.00  0.00    -0.346 N 
HETATM   31  H16 UNL     1     -12.227  11.428  11.710  1.00  0.00     0.163 HD
BRANCH  30  32
HETATM   32  C15 UNL     1     -13.808  12.037  12.999  1.00  0.00     0.180 C 
BRANCH  32  33
HETATM   33  C16 UNL     1     -15.271  11.627  12.660  1.00  0.00     0.241 C 
HETATM   34  O4  UNL     1     -16.076  12.369  12.103  1.00  0.00    -0.271 OA
HETATM   35  N3  UNL     1     -15.573  10.323  12.995  1.00  0.00    -0.349 N 
HETATM   36  H18 UNL     1     -14.777   9.711  13.188  1.00  0.00     0.163 HD
BRANCH  35  37
HETATM   37  C17 UNL     1     -16.806   9.684  12.576  1.00  0.00     0.232 C 
BRANCH  37  38
HETATM   38  C18 UNL     1     -16.736   9.120  11.159  1.00  0.00     0.158 C 
HETATM   39  O5  UNL     1     -17.253   9.620  10.168  1.00  0.00    -0.649 OA
BRANCH  38  40
HETATM   40  O6  UNL     1     -16.103   7.929  11.060  1.00  0.00    -0.775 OA
HETATM   41  H21 UNL     1     -16.189   7.700  10.109  1.00  0.00     0.167 HD
ENDBRANCH  38  40
ENDBRANCH  37  38
ENDBRANCH  35  37
ENDBRANCH  32  33
BRANCH  32  42
HETATM   42  C19 UNL     1     -13.549  12.148  14.521  1.00  0.00     0.009 C 
HETATM   43  C20 UNL     1     -14.691  12.894  15.227  1.00  0.00     0.012 C 
HETATM   44  C21 UNL     1     -12.236  12.885  14.824  1.00  0.00     0.012 C 
ENDBRANCH  32  42
ENDBRANCH  30  32
ENDBRANCH  27  28
ENDBRANCH  26  27
ENDBRANCH  13  26
TORSDOF 10
ENDMDL
MODEL 3
REMARK minimizedAffinity -6.86388922
REMARK CNNscore 0.355615973
REMARK CNNaffinity 6.90065622
REMARK  10 active torsions:
REMARK  status: ('A' for Active; 'I' for Inactive)
REMARK    1  A    between atoms: C3_3  and  O1_4 
REMARK    2  A    between atoms: N1_14  and  O2_16 
REMARK    3  A    between atoms: O2_16  and  C13_17 
REMARK    4  A    between atoms: C13_17  and  C14_18 
REMARK       I    between atoms: C14_18  and  N2_20 
REMARK    5  A    between atoms: N2_20  and  C15_21 
REMARK    6  A    between atoms: C15_21  and  C16_22 
REMARK    7  A    between atoms: C15_21  and  C19_29 
REMARK       I    between atoms: C16_22  and  N3_24 
REMARK    8  A    between atoms: N3_24  and  C17_25 
REMARK    9  A    between atoms: C17_25  and  C18_26 
REMARK   10  A    between atoms: C18_26  and  O6_28 
ROOT
HETATM    1  C1  UNL     1      -8.952   7.342  16.799  1.00  0.00     0.015 C 
HETATM    2  C2  UNL     1      -8.134   7.002  15.986  1.00  0.00    -0.078 C 
HETATM    3  C3  UNL     1      -7.138   6.534  15.006  1.00  0.00     0.128 C 
HETATM    4  C4  UNL     1      -7.712   6.490  13.586  1.00  0.00     0.052 C 
HETATM    5  C5  UNL     1      -6.457   6.338  12.729  1.00  0.00     0.010 C 
HETATM    6  C6  UNL     1      -5.485   7.345  13.347  1.00  0.00     0.002 C 
HETATM    7  C7  UNL     1      -3.985   7.153  13.006  1.00  0.00    -0.004 C 
HETATM    8  C8  UNL     1      -3.468   5.705  12.952  1.00  0.00     0.010 C 
HETATM    9  C9  UNL     1      -1.991   5.636  12.564  1.00  0.00     0.035 C 
HETATM   10  C10 UNL     1      -1.097   6.560  13.364  1.00  0.00    -0.069 C 
HETATM   11  C11 UNL     1       0.078   6.110  13.838  1.00  0.00     0.030 C 
HETATM   12  C12 UNL     1       1.058   7.013  14.499  1.00  0.00     0.032 C 
HETATM   13  N1  UNL     1       2.146   6.487  14.984  1.00  0.00    -0.271 N 
ATOM     14  H1  UNL     1       2.383   5.496  14.935  1.00  0.00     0.194 HD
HETATM   15  C22 UNL     1       0.761   8.502  14.483  1.00  0.00     0.060 C 
HETATM   16  C23 UNL     1      -0.734   8.748  14.612  1.00  0.00     0.020 C 
HETATM   17  C24 UNL     1      -1.582   7.997  13.543  1.00  0.00    -0.016 C 
HETATM   18  C25 UNL     1      -1.398   8.738  12.194  1.00  0.00     0.020 C 
HETATM   19  C26 UNL     1      -3.105   8.007  13.952  1.00  0.00     0.002 C 
HETATM   20  C27 UNL     1      -3.348   7.618  15.433  1.00  0.00     0.007 C 
HETATM   21  C28 UNL     1      -4.698   6.971  15.755  1.00  0.00     0.014 C 
HETATM   22  C29 UNL     1      -5.859   7.441  14.866  1.00  0.00     0.003 C 
HETATM   23  C30 UNL     1      -6.170   8.928  15.197  1.00  0.00     0.020 C 
ENDROOT
BRANCH   3  24
HETATM   24  O1  UNL     1      -6.773   5.191  15.342  1.00  0.00    -0.377 OA
HETATM   25  H2  UNL     1      -7.538   4.792  15.790  1.00  0.00     0.211 HD
ENDBRANCH   3  24
BRANCH  13  26
HETATM   26  O2  UNL     1       2.946   7.469  15.583  1.00  0.00    -0.271 OA
BRANCH  26  27
HETATM   27  C13 UNL     1       3.454   8.345  14.583  1.00  0.00     0.303 C 
BRANCH  27  28
HETATM   28  C14 UNL     1       4.014   9.567  15.299  1.00  0.00     0.244 C 
HETATM   29  O3  UNL     1       4.118   9.643  16.521  1.00  0.00    -0.271 OA
HETATM   30  N2  UNL     1       4.449  10.584  14.472  1.00  0.00    -0.346 N 
HETATM   31  H16 UNL     1       4.668  10.346  13.513  1.00  0.00     0.163 HD
BRANCH  30  32
HETATM   32  C15 UNL     1       5.091  11.792  15.017  1.00  0.00     0.180 C 
BRANCH  32  33
HETATM   33  C16 UNL     1       6.292  12.166  14.100  1.00  0.00     0.241 C 
HETATM   34  O4  UNL     1       7.305  12.736  14.498  1.00  0.00    -0.271 OA
HETATM   35  N3  UNL     1       6.142  11.747  12.793  1.00  0.00    -0.349 N 
HETATM   36  H18 UNL     1       5.414  11.049  12.624  1.00  0.00     0.163 HD
BRANCH  35  37
HETATM   37  C17 UNL     1       7.228  11.808  11.834  1.00  0.00     0.232 C 
BRANCH  37  38
HETATM   38  C18 UNL     1       7.606  10.441  11.269  1.00  0.00     0.158 C 
HETATM   39  O5  UNL     1       7.607  10.137  10.083  1.00  0.00    -0.649 OA
BRANCH  38  40
HETATM   40  O6  UNL     1       7.881   9.504  12.205  1.00  0.00    -0.775 OA
HETATM   41  H21 UNL     1       8.056   8.694  11.677  1.00  0.00     0.167 HD
ENDBRANCH  38  40
ENDBRANCH  37  38
ENDBRANCH  35  37
ENDBRANCH  32  33
BRANCH  32  42
HETATM   42  C19 UNL     1       4.070  12.946  15.174  1.00  0.00     0.009 C 
HETATM   43  C20 UNL     1       3.667  13.137  16.644  1.00  0.00     0.012 C 
HETATM   44  C21 UNL     1       2.794  12.692  14.357  1.00  0.00     0.012 C 
ENDBRANCH  32  42
ENDBRANCH  30  32
ENDBRANCH  27  28
ENDBRANCH  26  27
ENDBRANCH  13  26
TORSDOF 10
ENDMDL
MODEL 4
REMARK minimizedAffinity -7.24219465
REMARK CNNscore 0.334073275
REMARK CNNaffinity 6.69437551
REMARK  10 active torsions:
REMARK  status: ('A' for Active; 'I' for Inactive)
REMARK    1  A    between atoms: C3_3  and  O1_4 
REMARK    2  A    between atoms: N1_14  and  O2_16 
REMARK    3  A    between atoms: O2_16  and  C13_17 
REMARK    4  A    between atoms: C13_17  and  C14_18 
REMARK       I    between atoms: C14_18  and  N2_20 
REMARK    5  A    between atoms: N2_20  and  C15_21 
REMARK    6  A    between atoms: C15_21  and  C16_22 
REMARK    7  A    between atoms: C15_21  and  C19_29 
REMARK       I    between atoms: C16_22  and  N3_24 
REMARK    8  A    between atoms: N3_24  and  C17_25 
REMARK    9  A    between atoms: C17_25  and  C18_26 
REMARK   10  A    between atoms: C18_26  and  O6_28 
ROOT
HETATM    1  C1  UNL     1      -7.131   8.148  15.649  1.00  0.00     0.015 C 
HETATM    2  C2  UNL     1      -6.226   7.455  15.267  1.00  0.00    -0.078 C 
HETATM    3  C3  UNL     1      -5.111   6.586  14.850  1.00  0.00     0.128 C 
HETATM    4  C4  UNL     1      -5.604   5.350  14.091  1.00  0.00     0.052 C 
HETATM    5  C5  UNL     1      -4.318   4.813  13.467  1.00  0.00     0.010 C 
HETATM    6  C6  UNL     1      -3.638   6.072  12.924  1.00  0.00     0.002 C 
HETATM    7  C7  UNL     1      -2.124   5.958  12.611  1.00  0.00    -0.004 C 
HETATM    8  C8  UNL     1      -1.275   5.140  13.599  1.00  0.00     0.010 C 
HETATM    9  C9  UNL     1       0.189   5.058  13.167  1.00  0.00     0.035 C 
HETATM   10  C10 UNL     1       0.806   6.395  12.815  1.00  0.00    -0.069 C 
HETATM   11  C11 UNL     1       2.036   6.704  13.262  1.00  0.00     0.030 C 
HETATM   12  C12 UNL     1       2.747   7.935  12.823  1.00  0.00     0.032 C 
HETATM   13  N1  UNL     1       3.910   8.192  13.349  1.00  0.00    -0.271 N 
ATOM     14  H1  UNL     1       4.379   7.602  14.037  1.00  0.00     0.194 HD
HETATM   15  C22 UNL     1       2.103   8.763  11.724  1.00  0.00     0.060 C 
HETATM   16  C23 UNL     1       0.588   8.745  11.862  1.00  0.00     0.020 C 
HETATM   17  C24 UNL     1      -0.015   7.309  11.908  1.00  0.00    -0.016 C 
HETATM   18  C25 UNL     1       0.038   6.733  10.469  1.00  0.00     0.020 C 
HETATM   19  C26 UNL     1      -1.510   7.363  12.405  1.00  0.00     0.002 C 
HETATM   20  C27 UNL     1      -1.709   8.244  13.667  1.00  0.00     0.007 C 
HETATM   21  C28 UNL     1      -2.876   7.867  14.583  1.00  0.00     0.014 C 
HETATM   22  C29 UNL     1      -4.081   7.249  13.859  1.00  0.00     0.003 C 
HETATM   23  C30 UNL     1      -4.751   8.342  12.981  1.00  0.00     0.020 C 
ENDROOT
BRANCH   3  24
HETATM   24  O1  UNL     1      -4.448   6.109  16.026  1.00  0.00    -0.377 OA
HETATM   25  H2  UNL     1      -5.112   6.083  16.735  1.00  0.00     0.211 HD
ENDBRANCH   3  24
BRANCH  13  26
HETATM   26  O2  UNL     1       4.429   9.390  12.842  1.00  0.00    -0.271 OA
BRANCH  26  27
HETATM   27  C13 UNL     1       5.630   9.124  12.126  1.00  0.00     0.303 C 
BRANCH  27  28
HETATM   28  C14 UNL     1       6.784   9.630  12.982  1.00  0.00     0.244 C 
HETATM   29  O3  UNL     1       6.901  10.802  13.331  1.00  0.00    -0.271 OA
HETATM   30  N2  UNL     1       7.683   8.663  13.386  1.00  0.00    -0.346 N 
HETATM   31  H16 UNL     1       7.371   7.700  13.378  1.00  0.00     0.163 HD
BRANCH  30  32
HETATM   32  C15 UNL     1       8.804   8.987  14.285  1.00  0.00     0.180 C 
BRANCH  32  33
HETATM   33  C16 UNL     1       9.653  10.112  13.624  1.00  0.00     0.241 C 
HETATM   34  O4  UNL     1      10.281   9.969  12.577  1.00  0.00    -0.271 OA
HETATM   35  N3  UNL     1       9.594  11.317  14.295  1.00  0.00    -0.349 N 
HETATM   36  H18 UNL     1       8.840  11.416  14.978  1.00  0.00     0.163 HD
BRANCH  35  37
HETATM   37  C17 UNL     1      10.138  12.539  13.736  1.00  0.00     0.232 C 
BRANCH  37  38
HETATM   38  C18 UNL     1       9.064  13.494  13.223  1.00  0.00     0.158 C 
HETATM   39  O5  UNL     1       8.712  14.530  13.771  1.00  0.00    -0.649 OA
BRANCH  38  40
HETATM   40  O6  UNL     1       8.426  13.073  12.106  1.00  0.00    -0.775 OA
HETATM   41  H21 UNL     1       7.754  13.771  11.947  1.00  0.00     0.167 HD
ENDBRANCH  38  40
ENDBRANCH  37  38
ENDBRANCH  35  37
ENDBRANCH  32  33
BRANCH  32  42
HETATM   42  C19 UNL     1       8.297   9.364  15.698  1.00  0.00     0.009 C 
HETATM   43  C20 UNL     1       9.333   9.010  16.775  1.00  0.00     0.012 C 
HETATM   44  C21 UNL     1       6.983   8.647  16.043  1.00  0.00     0.012 C 
ENDBRANCH  32  42
ENDBRANCH  30  32
ENDBRANCH  27  28
ENDBRANCH  26  27
ENDBRANCH  13  26
TORSDOF 10
ENDMDL
MODEL 5
REMARK minimizedAffinity -7.84497213
REMARK CNNscore 0.274322599
REMARK CNNaffinity 5.75872374
REMARK  10 active torsions:
REMARK  status: ('A' for Active; 'I' for Inactive)
REMARK    1  A    between atoms: C3_3  and  O1_4 
REMARK    2  A    between atoms: N1_14  and  O2_16 
REMARK    3  A    between atoms: O2_16  and  C13_17 
REMARK    4  A    between atoms: C13_17  and  C14_18 
REMARK       I    between atoms: C14_18  and  N2_20 
REMARK    5  A    between atoms: N2_20  and  C15_21 
REMARK    6  A    between atoms: C15_21  and  C16_22 
REMARK    7  A    between atoms: C15_21  and  C19_29 
REMARK       I    between atoms: C16_22  and  N3_24 
REMARK    8  A    between atoms: N3_24  and  C17_25 
REMARK    9  A    between atoms: C17_25  and  C18_26 
REMARK   10  A    between atoms: C18_26  and  O6_28 
ROOT
HETATM    1  C1  UNL     1      10.939  13.657  19.660  1.00  0.00     0.015 C 
HETATM    2  C2  UNL     1      10.084  13.166  20.349  1.00  0.00    -0.078 C 
HETATM    3  C3  UNL     1       9.056  12.516  21.179  1.00  0.00     0.128 C 
HETATM    4  C4  UNL     1       9.386  12.606  22.673  1.00  0.00     0.052 C 
HETATM    5  C5  UNL     1       8.064  12.210  23.326  1.00  0.00     0.010 C 
HETATM    6  C6  UNL     1       7.025  12.990  22.518  1.00  0.00     0.002 C 
HETATM    7  C7  UNL     1       5.558  12.500  22.626  1.00  0.00    -0.004 C 
HETATM    8  C8  UNL     1       5.340  10.977  22.662  1.00  0.00     0.010 C 
HETATM    9  C9  UNL     1       3.863  10.612  22.815  1.00  0.00     0.035 C 
HETATM   10  C10 UNL     1       2.946  11.324  21.843  1.00  0.00    -0.069 C 
HETATM   11  C11 UNL     1       1.978  10.637  21.210  1.00  0.00     0.030 C 
HETATM   12  C12 UNL     1       0.959  11.313  20.363  1.00  0.00     0.032 C 
HETATM   13  N1  UNL     1       0.092  10.570  19.736  1.00  0.00    -0.271 N 
ATOM     14  H1  UNL     1       0.053   9.552  19.791  1.00  0.00     0.194 HD
HETATM   15  C22 UNL     1       0.945  12.832  20.359  1.00  0.00     0.060 C 
HETATM   16  C23 UNL     1       2.362  13.377  20.457  1.00  0.00     0.020 C 
HETATM   17  C24 UNL     1       3.156  12.827  21.679  1.00  0.00    -0.016 C 
HETATM   18  C25 UNL     1       2.609  13.531  22.948  1.00  0.00     0.020 C 
HETATM   19  C26 UNL     1       4.692  13.144  21.516  1.00  0.00     0.002 C 
HETATM   20  C27 UNL     1       5.247  12.796  20.110  1.00  0.00     0.007 C 
HETATM   21  C28 UNL     1       6.733  12.436  20.035  1.00  0.00     0.014 C 
HETATM   22  C29 UNL     1       7.615  13.144  21.075  1.00  0.00     0.003 C 
HETATM   23  C30 UNL     1       7.672  14.658  20.731  1.00  0.00     0.020 C 
ENDROOT
BRANCH   3  24
HETATM   24  O1  UNL     1       9.026  11.123  20.849  1.00  0.00    -0.377 OA
HETATM   25  H2  UNL     1       9.918  10.884  20.546  1.00  0.00     0.211 HD
ENDBRANCH   3  24
BRANCH  13  26
HETATM   26  O2  UNL     1      -0.779  11.361  18.975  1.00  0.00    -0.271 OA
BRANCH  26  27
HETATM   27  C13 UNL     1      -1.914  10.590  18.597  1.00  0.00     0.303 C 
BRANCH  27  28
HETATM   28  C14 UNL     1      -1.771  10.280  17.112  1.00  0.00     0.244 C 
HETATM   29  O3  UNL     1      -1.157  11.000  16.329  1.00  0.00    -0.271 OA
HETATM   30  N2  UNL     1      -2.348   9.094  16.702  1.00  0.00    -0.346 N 
HETATM   31  H16 UNL     1      -2.524   8.390  17.408  1.00  0.00     0.163 HD
BRANCH  30  32
HETATM   32  C15 UNL     1      -2.221   8.621  15.313  1.00  0.00     0.180 C 
BRANCH  32  33
HETATM   33  C16 UNL     1      -1.134   7.506  15.272  1.00  0.00     0.241 C 
HETATM   34  O4  UNL     1      -0.248   7.385  16.115  1.00  0.00    -0.271 OA
HETATM   35  N3  UNL     1      -1.288   6.622  14.224  1.00  0.00    -0.349 N 
HETATM   36  H18 UNL     1      -2.194   6.634  13.753  1.00  0.00     0.163 HD
BRANCH  35  37
HETATM   37  C17 UNL     1      -0.514   5.399  14.127  1.00  0.00     0.232 C 
BRANCH  37  38
HETATM   38  C18 UNL     1       0.586   5.468  13.071  1.00  0.00     0.158 C 
HETATM   39  O5  UNL     1       0.612   4.829  12.028  1.00  0.00    -0.649 OA
BRANCH  38  40
HETATM   40  O6  UNL     1       1.632   6.261  13.401  1.00  0.00    -0.775 OA
HETATM   41  H21 UNL     1       2.250   6.155  12.646  1.00  0.00     0.167 HD
ENDBRANCH  38  40
ENDBRANCH  37  38
ENDBRANCH  35  37
ENDBRANCH  32  33
BRANCH  32  42
HETATM   42  C19 UNL     1      -3.586   8.153  14.754  1.00  0.00     0.009 C 
HETATM   43  C20 UNL     1      -3.707   8.455  13.252  1.00  0.00     0.012 C 
HETATM   44  C21 UNL     1      -4.760   8.833  15.474  1.00  0.00     0.012 C 
ENDBRANCH  32  42
ENDBRANCH  30  32
ENDBRANCH  27  28
ENDBRANCH  26  27
ENDBRANCH  13  26
TORSDOF 10
ENDMDL
MODEL 6
REMARK minimizedAffinity -8.87771893
REMARK CNNscore 0.265963823
REMARK CNNaffinity 6.5687542
REMARK  10 active torsions:
REMARK  status: ('A' for Active; 'I' for Inactive)
REMARK    1  A    between atoms: C3_3  and  O1_4 
REMARK    2  A    between atoms: N1_14  and  O2_16 
REMARK    3  A    between atoms: O2_16  and  C13_17 
REMARK    4  A    between atoms: C13_17  and  C14_18 
REMARK       I    between atoms: C14_18  and  N2_20 
REMARK    5  A    between atoms: N2_20  and  C15_21 
REMARK    6  A    between atoms: C15_21  and  C16_22 
REMARK    7  A    between atoms: C15_21  and  C19_29 
REMARK       I    between atoms: C16_22  and  N3_24 
REMARK    8  A    between atoms: N3_24  and  C17_25 
REMARK    9  A    between atoms: C17_25  and  C18_26 
REMARK   10  A    between atoms: C18_26  and  O6_28 
ROOT
HETATM    1  C1  UNL     1      -7.384   8.194  15.487  1.00  0.00     0.015 C 
HETATM    2  C2  UNL     1      -6.481   7.481  15.138  1.00  0.00    -0.078 C 
HETATM    3  C3  UNL     1      -5.371   6.588  14.760  1.00  0.00     0.128 C 
HETATM    4  C4  UNL     1      -5.859   5.384  13.948  1.00  0.00     0.052 C 
HETATM    5  C5  UNL     1      -4.558   4.821  13.380  1.00  0.00     0.010 C 
HETATM    6  C6  UNL     1      -3.813   6.071  12.904  1.00  0.00     0.002 C 
HETATM    7  C7  UNL     1      -2.288   5.916  12.670  1.00  0.00    -0.004 C 
HETATM    8  C8  UNL     1      -1.518   5.051  13.682  1.00  0.00     0.010 C 
HETATM    9  C9  UNL     1      -0.036   4.933  13.327  1.00  0.00     0.035 C 
HETATM   10  C10 UNL     1       0.638   6.258  13.039  1.00  0.00    -0.069 C 
HETATM   11  C11 UNL     1       1.851   6.519  13.558  1.00  0.00     0.030 C 
HETATM   12  C12 UNL     1       2.621   7.737  13.187  1.00  0.00     0.032 C 
HETATM   13  N1  UNL     1       3.761   7.946  13.780  1.00  0.00    -0.271 N 
ATOM     14  H1  UNL     1       4.174   7.327  14.477  1.00  0.00     0.194 HD
HETATM   15  C22 UNL     1       2.062   8.608  12.075  1.00  0.00     0.060 C 
HETATM   16  C23 UNL     1       0.543   8.634  12.132  1.00  0.00     0.020 C 
HETATM   17  C24 UNL     1      -0.105   7.217  12.112  1.00  0.00    -0.016 C 
HETATM   18  C25 UNL     1       0.008   6.671  10.664  1.00  0.00     0.020 C 
HETATM   19  C26 UNL     1      -1.622   7.307  12.529  1.00  0.00     0.002 C 
HETATM   20  C27 UNL     1      -1.862   8.165  13.799  1.00  0.00     0.007 C 
HETATM   21  C28 UNL     1      -3.088   7.804  14.643  1.00  0.00     0.014 C 
HETATM   22  C29 UNL     1      -4.270   7.240  13.841  1.00  0.00     0.003 C 
HETATM   23  C30 UNL     1      -4.859   8.372  12.955  1.00  0.00     0.020 C 
ENDROOT
BRANCH   3  24
HETATM   24  O1  UNL     1      -4.788   6.065  15.958  1.00  0.00    -0.377 OA
HETATM   25  H2  UNL     1      -5.489   6.044  16.631  1.00  0.00     0.211 HD
ENDBRANCH   3  24
BRANCH  13  26
HETATM   26  O2  UNL     1       4.342   9.138  13.329  1.00  0.00    -0.271 OA
BRANCH  26  27
HETATM   27  C13 UNL     1       4.646   9.971  14.442  1.00  0.00     0.303 C 
BRANCH  27  28
HETATM   28  C14 UNL     1       5.890   9.396  15.107  1.00  0.00     0.244 C 
HETATM   29  O3  UNL     1       5.919   8.290  15.640  1.00  0.00    -0.271 OA
HETATM   30  N2  UNL     1       7.016  10.192  15.032  1.00  0.00    -0.346 N 
HETATM   31  H16 UNL     1       7.043  10.900  14.309  1.00  0.00     0.163 HD
BRANCH  30  32
HETATM   32  C15 UNL     1       8.314   9.734  15.557  1.00  0.00     0.180 C 
BRANCH  32  33
HETATM   33  C16 UNL     1       8.374  10.067  17.077  1.00  0.00     0.241 C 
HETATM   34  O4  UNL     1       7.417   9.955  17.839  1.00  0.00    -0.271 OA
HETATM   35  N3  UNL     1       9.626  10.453  17.510  1.00  0.00    -0.349 N 
HETATM   36  H18 UNL     1      10.404  10.249  16.880  1.00  0.00     0.163 HD
BRANCH  35  37
HETATM   37  C17 UNL     1       9.943  10.604  18.917  1.00  0.00     0.232 C 
BRANCH  37  38
HETATM   38  C18 UNL     1      11.327  11.201  19.159  1.00  0.00     0.158 C 
HETATM   39  O5  UNL     1      11.563  12.381  19.387  1.00  0.00    -0.649 OA
BRANCH  38  40
HETATM   40  O6  UNL     1      12.348  10.324  19.025  1.00  0.00    -0.775 OA
HETATM   41  H21 UNL     1      13.147  10.876  19.168  1.00  0.00     0.167 HD
ENDBRANCH  38  40
ENDBRANCH  37  38
ENDBRANCH  35  37
ENDBRANCH  32  33
BRANCH  32  42
HETATM   42  C19 UNL     1       8.538   8.231  15.260  1.00  0.00     0.009 C 
HETATM   43  C20 UNL     1       9.324   7.551  16.391  1.00  0.00     0.012 C 
HETATM   44  C21 UNL     1       9.308   8.018  13.948  1.00  0.00     0.012 C 
ENDBRANCH  32  42
ENDBRANCH  30  32
ENDBRANCH  27  28
ENDBRANCH  26  27
ENDBRANCH  13  26
TORSDOF 10
ENDMDL
MODEL 7
REMARK minimizedAffinity -8.40333271
REMARK CNNscore 0.263641059
REMARK CNNaffinity 6.85778952
REMARK  10 active torsions:
REMARK  status: ('A' for Active; 'I' for Inactive)
REMARK    1  A    between atoms: C3_3  and  O1_4 
REMARK    2  A    between atoms: N1_14  and  O2_16 
REMARK    3  A    between atoms: O2_16  and  C13_17 
REMARK    4  A    between atoms: C13_17  and  C14_18 
REMARK       I    between atoms: C14_18  and  N2_20 
REMARK    5  A    between atoms: N2_20  and  C15_21 
REMARK    6  A    between atoms: C15_21  and  C16_22 
REMARK    7  A    between atoms: C15_21  and  C19_29 
REMARK       I    between atoms: C16_22  and  N3_24 
REMARK    8  A    between atoms: N3_24  and  C17_25 
REMARK    9  A    between atoms: C17_25  and  C18_26 
REMARK   10  A    between atoms: C18_26  and  O6_28 
ROOT
HETATM    1  C1  UNL     1       2.664   6.095   7.726  1.00  0.00     0.015 C 
HETATM    2  C2  UNL     1       2.491   6.403   8.876  1.00  0.00    -0.078 C 
HETATM    3  C3  UNL     1       2.298   6.732  10.299  1.00  0.00     0.128 C 
HETATM    4  C4  UNL     1       3.372   7.696  10.812  1.00  0.00     0.052 C 
HETATM    5  C5  UNL     1       2.786   8.163  12.143  1.00  0.00     0.010 C 
HETATM    6  C6  UNL     1       1.320   8.442  11.803  1.00  0.00     0.002 C 
HETATM    7  C7  UNL     1       0.338   8.517  13.000  1.00  0.00    -0.004 C 
HETATM    8  C8  UNL     1       0.556   7.506  14.138  1.00  0.00     0.010 C 
HETATM    9  C9  UNL     1      -0.440   7.703  15.281  1.00  0.00     0.035 C 
HETATM   10  C10 UNL     1      -1.883   7.796  14.835  1.00  0.00    -0.069 C 
HETATM   11  C11 UNL     1      -2.837   7.125  15.504  1.00  0.00     0.030 C 
HETATM   12  C12 UNL     1      -4.283   7.300  15.202  1.00  0.00     0.032 C 
HETATM   13  N1  UNL     1      -5.138   6.567  15.856  1.00  0.00    -0.271 N 
ATOM     14  H1  UNL     1      -4.890   5.886  16.573  1.00  0.00     0.194 HD
HETATM   15  C22 UNL     1      -4.666   8.386  14.212  1.00  0.00     0.060 C 
HETATM   16  C23 UNL     1      -3.621   8.496  13.112  1.00  0.00     0.020 C 
HETATM   17  C24 UNL     1      -2.175   8.713  13.648  1.00  0.00    -0.016 C 
HETATM   18  C25 UNL     1      -2.071  10.181  14.137  1.00  0.00     0.020 C 
HETATM   19  C26 UNL     1      -1.126   8.460  12.499  1.00  0.00     0.002 C 
HETATM   20  C27 UNL     1      -1.386   7.154  11.703  1.00  0.00     0.007 C 
HETATM   21  C28 UNL     1      -0.162   6.487  11.070  1.00  0.00     0.014 C 
HETATM   22  C29 UNL     1       0.944   7.462  10.640  1.00  0.00     0.003 C 
HETATM   23  C30 UNL     1       0.429   8.305   9.441  1.00  0.00     0.020 C 
ENDROOT
BRANCH   3  24
HETATM   24  O1  UNL     1       2.431   5.527  11.061  1.00  0.00    -0.377 OA
HETATM   25  H2  UNL     1       3.027   4.941  10.565  1.00  0.00     0.211 HD
ENDBRANCH   3  24
BRANCH  13  26
HETATM   26  O2  UNL     1      -6.447   6.844  15.439  1.00  0.00    -0.271 OA
BRANCH  26  27
HETATM   27  C13 UNL     1      -7.357   6.530  16.487  1.00  0.00     0.303 C 
BRANCH  27  28
HETATM   28  C14 UNL     1      -8.577   7.424  16.304  1.00  0.00     0.244 C 
HETATM   29  O3  UNL     1      -9.292   7.787  17.235  1.00  0.00    -0.271 OA
HETATM   30  N2  UNL     1      -8.807   7.846  15.010  1.00  0.00    -0.346 N 
HETATM   31  H16 UNL     1      -8.028   7.820  14.363  1.00  0.00     0.163 HD
BRANCH  30  32
HETATM   32  C15 UNL     1      -9.900   8.781  14.691  1.00  0.00     0.180 C 
BRANCH  32  33
HETATM   33  C16 UNL     1     -11.143   7.951  14.253  1.00  0.00     0.241 C 
HETATM   34  O4  UNL     1     -11.423   6.846  14.711  1.00  0.00    -0.271 OA
HETATM   35  N3  UNL     1     -11.943   8.597  13.332  1.00  0.00    -0.349 N 
HETATM   36  H18 UNL     1     -11.788   9.602  13.226  1.00  0.00     0.163 HD
BRANCH  35  37
HETATM   37  C17 UNL     1     -13.248   8.091  12.956  1.00  0.00     0.232 C 
BRANCH  37  38
HETATM   38  C18 UNL     1     -14.292   9.192  12.787  1.00  0.00     0.158 C 
HETATM   39  O5  UNL     1     -14.932   9.417  11.768  1.00  0.00    -0.649 OA
BRANCH  38  40
HETATM   40  O6  UNL     1     -14.427  10.006  13.860  1.00  0.00    -0.775 OA
HETATM   41  H21 UNL     1     -15.092  10.667  13.566  1.00  0.00     0.167 HD
ENDBRANCH  38  40
ENDBRANCH  37  38
ENDBRANCH  35  37
ENDBRANCH  32  33
BRANCH  32  42
HETATM   42  C19 UNL     1     -10.194   9.724  15.883  1.00  0.00     0.009 C 
HETATM   43  C20 UNL     1     -11.688   9.719  16.242  1.00  0.00     0.012 C 
HETATM   44  C21 UNL     1      -9.780  11.172  15.580  1.00  0.00     0.012 C 
ENDBRANCH  32  42
ENDBRANCH  30  32
ENDBRANCH  27  28
ENDBRANCH  26  27
ENDBRANCH  13  26
TORSDOF 10
ENDMDL
MODEL 8
REMARK minimizedAffinity -8.55835342
REMARK CNNscore 0.247439981
REMARK CNNaffinity 6.33384943
REMARK  10 active torsions:
REMARK  status: ('A' for Active; 'I' for Inactive)
REMARK    1  A    between atoms: C3_3  and  O1_4 
REMARK    2  A    between atoms: N1_14  and  O2_16 
REMARK    3  A    between atoms: O2_16  and  C13_17 
REMARK    4  A    between atoms: C13_17  and  C14_18 
REMARK       I    between atoms: C14_18  and  N2_20 
REMARK    5  A    between atoms: N2_20  and  C15_21 
REMARK    6  A    between atoms: C15_21  and  C16_22 
REMARK    7  A    between atoms: C15_21  and  C19_29 
REMARK       I    between atoms: C16_22  and  N3_24 
REMARK    8  A    between atoms: N3_24  and  C17_25 
REMARK    9  A    between atoms: C17_25  and  C18_26 
REMARK   10  A    between atoms: C18_26  and  O6_28 
ROOT
HETATM    1  C1  UNL     1      -8.605   6.619  14.281  1.00  0.00     0.015 C 
HETATM    2  C2  UNL     1      -7.455   6.282  14.190  1.00  0.00    -0.078 C 
HETATM    3  C3  UNL     1      -6.053   5.834  14.119  1.00  0.00     0.128 C 
HETATM    4  C4  UNL     1      -5.812   4.897  12.930  1.00  0.00     0.052 C 
HETATM    5  C5  UNL     1      -4.288   4.858  12.846  1.00  0.00     0.010 C 
HETATM    6  C6  UNL     1      -3.889   6.326  13.016  1.00  0.00     0.002 C 
HETATM    7  C7  UNL     1      -2.414   6.597  13.410  1.00  0.00    -0.004 C 
HETATM    8  C8  UNL     1      -1.783   5.633  14.429  1.00  0.00     0.010 C 
HETATM    9  C9  UNL     1      -0.317   5.969  14.707  1.00  0.00     0.035 C 
HETATM   10  C10 UNL     1      -0.068   7.427  15.031  1.00  0.00    -0.069 C 
HETATM   11  C11 UNL     1       0.743   7.757  16.052  1.00  0.00     0.030 C 
HETATM   12  C12 UNL     1       1.139   9.166  16.318  1.00  0.00     0.032 C 
HETATM   13  N1  UNL     1       1.879   9.408  17.362  1.00  0.00    -0.271 N 
ATOM     14  H1  UNL     1       2.218   8.697  18.010  1.00  0.00     0.194 HD
HETATM   15  C22 UNL     1       0.726  10.215  15.301  1.00  0.00     0.060 C 
HETATM   16  C23 UNL     1      -0.643   9.887  14.724  1.00  0.00     0.020 C 
HETATM   17  C24 UNL     1      -0.735   8.454  14.119  1.00  0.00    -0.016 C 
HETATM   18  C25 UNL     1       0.027   8.466  12.769  1.00  0.00     0.020 C 
HETATM   19  C26 UNL     1      -2.243   8.063  13.875  1.00  0.00     0.002 C 
HETATM   20  C27 UNL     1      -3.162   8.370  15.087  1.00  0.00     0.007 C 
HETATM   21  C28 UNL     1      -4.404   7.487  15.239  1.00  0.00     0.014 C 
HETATM   22  C29 UNL     1      -4.993   6.981  13.914  1.00  0.00     0.003 C 
HETATM   23  C30 UNL     1      -5.595   8.187  13.142  1.00  0.00     0.020 C 
ENDROOT
BRANCH   3  24
HETATM   24  O1  UNL     1      -5.761   5.079  15.301  1.00  0.00    -0.377 OA
HETATM   25  H2  UNL     1      -6.597   4.681  15.597  1.00  0.00     0.211 HD
ENDBRANCH   3  24
BRANCH  13  26
HETATM   26  O2  UNL     1       2.145  10.779  17.474  1.00  0.00    -0.271 OA
BRANCH  26  27
HETATM   27  C13 UNL     1       1.695  11.250  18.739  1.00  0.00     0.303 C 
BRANCH  27  28
HETATM   28  C14 UNL     1       2.633  10.674  19.792  1.00  0.00     0.244 C 
HETATM   29  O3  UNL     1       2.682   9.479  20.070  1.00  0.00    -0.271 OA
HETATM   30  N2  UNL     1       3.474  11.591  20.392  1.00  0.00    -0.346 N 
HETATM   31  H16 UNL     1       3.645  12.461  19.903  1.00  0.00     0.163 HD
BRANCH  30  32
HETATM   32  C15 UNL     1       4.493  11.171  21.369  1.00  0.00     0.180 C 
BRANCH  32  33
HETATM   33  C16 UNL     1       5.840  11.858  20.998  1.00  0.00     0.241 C 
HETATM   34  O4  UNL     1       6.239  12.002  19.845  1.00  0.00    -0.271 OA
HETATM   35  N3  UNL     1       6.531  12.346  22.089  1.00  0.00    -0.349 N 
HETATM   36  H18 UNL     1       6.001  12.430  22.958  1.00  0.00     0.163 HD
BRANCH  35  37
HETATM   37  C17 UNL     1       7.696  13.198  21.945  1.00  0.00     0.232 C 
BRANCH  37  38
HETATM   38  C18 UNL     1       8.992  12.520  22.379  1.00  0.00     0.158 C 
HETATM   39  O5  UNL     1       9.625  11.706  21.719  1.00  0.00    -0.649 OA
BRANCH  38  40
HETATM   40  O6  UNL     1       9.389  12.820  23.637  1.00  0.00    -0.775 OA
HETATM   41  H21 UNL     1      10.196  12.275  23.762  1.00  0.00     0.167 HD
ENDBRANCH  38  40
ENDBRANCH  37  38
ENDBRANCH  35  37
ENDBRANCH  32  33
BRANCH  32  42
HETATM   42  C19 UNL     1       4.039  11.475  22.818  1.00  0.00     0.009 C 
HETATM   43  C20 UNL     1       3.383  10.247  23.466  1.00  0.00     0.012 C 
HETATM   44  C21 UNL     1       3.035  12.636  22.868  1.00  0.00     0.012 C 
ENDBRANCH  32  42
ENDBRANCH  30  32
ENDBRANCH  27  28
ENDBRANCH  26  27
ENDBRANCH  13  26
TORSDOF 10
ENDMDL
MODEL 9
REMARK minimizedAffinity -8.91997051
REMARK CNNscore 0.212453336
REMARK CNNaffinity 6.30376291
REMARK  10 active torsions:
REMARK  status: ('A' for Active; 'I' for Inactive)
REMARK    1  A    between atoms: C3_3  and  O1_4 
REMARK    2  A    between atoms: N1_14  and  O2_16 
REMARK    3  A    between atoms: O2_16  and  C13_17 
REMARK    4  A    between atoms: C13_17  and  C14_18 
REMARK       I    between atoms: C14_18  and  N2_20 
REMARK    5  A    between atoms: N2_20  and  C15_21 
REMARK    6  A    between atoms: C15_21  and  C16_22 
REMARK    7  A    between atoms: C15_21  and  C19_29 
REMARK       I    between atoms: C16_22  and  N3_24 
REMARK    8  A    between atoms: N3_24  and  C17_25 
REMARK    9  A    between atoms: C17_25  and  C18_26 
REMARK   10  A    between atoms: C18_26  and  O6_28 
ROOT
HETATM    1  C1  UNL     1      -2.942  10.350  18.170  1.00  0.00     0.015 C 
HETATM    2  C2  UNL     1      -2.918   9.626  17.211  1.00  0.00    -0.078 C 
HETATM    3  C3  UNL     1      -2.890   8.696  16.068  1.00  0.00     0.128 C 
HETATM    4  C4  UNL     1      -4.254   8.596  15.379  1.00  0.00     0.052 C 
HETATM    5  C5  UNL     1      -3.910   7.896  14.066  1.00  0.00     0.010 C 
HETATM    6  C6  UNL     1      -2.644   8.621  13.603  1.00  0.00     0.002 C 
HETATM    7  C7  UNL     1      -1.783   7.893  12.538  1.00  0.00    -0.004 C 
HETATM    8  C8  UNL     1      -1.637   6.370  12.693  1.00  0.00     0.010 C 
HETATM    9  C9  UNL     1      -0.808   5.755  11.565  1.00  0.00     0.035 C 
HETATM   10  C10 UNL     1       0.508   6.459  11.310  1.00  0.00    -0.069 C 
HETATM   11  C11 UNL     1       1.628   5.738  11.123  1.00  0.00     0.030 C 
HETATM   12  C12 UNL     1       2.914   6.371  10.722  1.00  0.00     0.032 C 
HETATM   13  N1  UNL     1       3.965   5.609  10.619  1.00  0.00    -0.271 N 
ATOM     14  H1  UNL     1       3.972   4.603  10.784  1.00  0.00     0.194 HD
HETATM   15  C22 UNL     1       2.889   7.848  10.373  1.00  0.00     0.060 C 
HETATM   16  C23 UNL     1       1.901   8.589  11.261  1.00  0.00     0.020 C 
HETATM   17  C24 UNL     1       0.466   7.983  11.233  1.00  0.00    -0.016 C 
HETATM   18  C25 UNL     1      -0.183   8.378   9.880  1.00  0.00     0.020 C 
HETATM   19  C26 UNL     1      -0.392   8.562  12.422  1.00  0.00     0.002 C 
HETATM   20  C27 UNL     1       0.348   8.536  13.785  1.00  0.00     0.007 C 
HETATM   21  C28 UNL     1      -0.529   8.433  15.035  1.00  0.00     0.014 C 
HETATM   22  C29 UNL     1      -1.908   9.096  14.903  1.00  0.00     0.003 C 
HETATM   23  C30 UNL     1      -1.716  10.635  14.818  1.00  0.00     0.020 C 
ENDROOT
BRANCH   3  24
HETATM   24  O1  UNL     1      -2.584   7.387  16.562  1.00  0.00    -0.377 OA
HETATM   25  H2  UNL     1      -2.911   7.344  17.476  1.00  0.00     0.211 HD
ENDBRANCH   3  24
BRANCH  13  26
HETATM   26  O2  UNL     1       5.088   6.364  10.252  1.00  0.00    -0.271 OA
BRANCH  26  27
HETATM   27  C13 UNL     1       6.154   6.105  11.158  1.00  0.00     0.303 C 
BRANCH  27  28
HETATM   28  C14 UNL     1       6.102   7.185  12.231  1.00  0.00     0.244 C 
HETATM   29  O3  UNL     1       6.015   8.383  11.978  1.00  0.00    -0.271 OA
HETATM   30  N2  UNL     1       6.114   6.721  13.532  1.00  0.00    -0.346 N 
HETATM   31  H16 UNL     1       5.837   5.760  13.689  1.00  0.00     0.163 HD
BRANCH  30  32
HETATM   32  C15 UNL     1       5.987   7.641  14.675  1.00  0.00     0.180 C 
BRANCH  32  33
HETATM   33  C16 UNL     1       7.367   8.321  14.913  1.00  0.00     0.241 C 
HETATM   34  O4  UNL     1       7.727   9.352  14.352  1.00  0.00    -0.271 OA
HETATM   35  N3  UNL     1       8.140   7.685  15.864  1.00  0.00    -0.349 N 
HETATM   36  H18 UNL     1       7.655   7.017  16.467  1.00  0.00     0.163 HD
BRANCH  35  37
HETATM   37  C17 UNL     1       9.361   8.270  16.382  1.00  0.00     0.232 C 
BRANCH  37  38
HETATM   38  C18 UNL     1       9.110   9.432  17.339  1.00  0.00     0.158 C 
HETATM   39  O5  UNL     1       9.973  10.133  17.850  1.00  0.00    -0.649 OA
BRANCH  38  40
HETATM   40  O6  UNL     1       7.811   9.611  17.675  1.00  0.00    -0.775 OA
HETATM   41  H21 UNL     1       7.838  10.354  18.316  1.00  0.00     0.167 HD
ENDBRANCH  38  40
ENDBRANCH  37  38
ENDBRANCH  35  37
ENDBRANCH  32  33
BRANCH  32  42
HETATM   42  C19 UNL     1       4.844   8.661  14.447  1.00  0.00     0.009 C 
HETATM   43  C20 UNL     1       4.856   9.760  15.520  1.00  0.00     0.012 C 
HETATM   44  C21 UNL     1       3.465   7.985  14.471  1.00  0.00     0.012 C 
ENDBRANCH  32  42
ENDBRANCH  30  32
ENDBRANCH  27  28
ENDBRANCH  26  27
ENDBRANCH  13  26
TORSDOF 10
ENDMDL
