MODEL 1
REMARK minimizedAffinity -8.68197823
REMARK CNNscore 0.65689677
REMARK CNNaffinity 6.50086737
REMARK  9 active torsions:
REMARK  status: ('A' for Active; 'I' for Inactive)
REMARK    1  A    between atoms: C2_2  and  C33_38 
REMARK    2  A    between atoms: C3_3  and  C4_4 
REMARK    3  A    between atoms: C4_4  and  O1_5 
REMARK    4  A    between atoms: C4_4  and  C5_6 
REMARK    5  A    between atoms: C5_6  and  C6_7 
REMARK    6  A    between atoms: C6_7  and  C8_9 
REMARK    7  A    between atoms: C10_11  and  O2_12 
REMARK    8  A    between atoms: C32_36  and  O5_37 
REMARK    9  A    between atoms: C33_38  and  O7_40 
ROOT
HETATM    1  C8  UNL     1     -12.340  46.273 -26.519  1.00  0.00     0.002 C 
HETATM    2  C9  UNL     1     -11.665  47.388 -25.685  1.00  0.00     0.038 C 
HETATM    3  C10 UNL     1     -10.533  47.960 -26.571  1.00  0.00     0.132 C 
HETATM    4  C11 UNL     1     -10.795  47.388 -28.002  1.00  0.00     0.017 C 
HETATM    5  C12 UNL     1     -11.857  48.273 -28.731  1.00  0.00     0.023 C 
HETATM    6  C13 UNL     1      -9.626  47.256 -28.989  1.00  0.00    -0.029 C 
HETATM    7  C14 UNL     1      -9.583  46.222 -29.872  1.00  0.00     0.003 C 
HETATM    8  C15 UNL     1     -10.805  45.294 -29.962  1.00  0.00     0.157 C 
HETATM    9  O3  UNL     1     -10.963  44.528 -30.911  1.00  0.00    -0.293 OA
HETATM   10  C16 UNL     1     -11.838  45.277 -28.845  1.00  0.00     0.094 C 
HETATM   11  C17 UNL     1     -11.263  45.919 -27.591  1.00  0.00    -0.016 C 
HETATM   12  C18 UNL     1     -10.029  45.104 -26.979  1.00  0.00     0.011 C 
HETATM   13  C19 UNL     1      -9.713  43.686 -27.509  1.00  0.00     0.001 C 
HETATM   14  C20 UNL     1      -8.214  43.402 -27.699  1.00  0.00     0.000 C 
HETATM   15  C21 UNL     1      -7.444  44.352 -28.630  1.00  0.00     0.001 C 
HETATM   16  C22 UNL     1      -7.904  44.394 -30.108  1.00  0.00     0.015 C 
HETATM   17  C23 UNL     1      -8.314  45.820 -30.678  1.00  0.00    -0.004 C 
HETATM   18  C24 UNL     1      -8.631  45.684 -32.207  1.00  0.00     0.022 C 
HETATM   19  C25 UNL     1      -8.319  46.917 -33.036  1.00  0.00     0.080 C 
HETATM   20  C26 UNL     1      -6.843  47.221 -33.002  1.00  0.00     0.135 C 
HETATM   21  O4  UNL     1      -6.284  47.707 -33.986  1.00  0.00    -0.297 OA
HETATM   22  C27 UNL     1      -6.083  46.906 -31.711  1.00  0.00     0.018 C 
HETATM   23  C28 UNL     1      -5.016  48.006 -31.500  1.00  0.00     0.023 C 
HETATM   24  C29 UNL     1      -5.312  45.589 -31.926  1.00  0.00     0.023 C 
HETATM   25  C30 UNL     1      -7.085  46.829 -30.491  1.00  0.00     0.017 C 
HETATM   26  C31 UNL     1      -7.572  48.233 -30.081  1.00  0.00     0.043 C 
HETATM   27  C32 UNL     1      -8.490  48.238 -28.867  1.00  0.00     0.149 C 
ENDROOT
BRANCH   1  28
HETATM   28  C6  UNL     1     -13.138  45.183 -25.744  1.00  0.00    -0.011 C 
HETATM   29  C7  UNL     1     -13.001  43.847 -26.501  1.00  0.00     0.010 C 
BRANCH  28  30
HETATM   30  C5  UNL     1     -14.621  45.482 -25.451  1.00  0.00     0.040 C 
BRANCH  30  31
HETATM   31  C4  UNL     1     -14.929  46.838 -24.783  1.00  0.00     0.142 C 
BRANCH  31  32
HETATM   32  C3  UNL     1     -16.381  47.000 -24.450  1.00  0.00     0.018 C 
HETATM   33  C2  UNL     1     -17.437  46.366 -25.000  1.00  0.00     0.010 C 
HETATM   34  C1  UNL     1     -17.389  45.369 -26.118  1.00  0.00     0.055 C 
BRANCH  33  35
HETATM   35  C33 UNL     1     -18.771  46.711 -24.442  1.00  0.00     0.171 C 
HETATM   36  O6  UNL     1     -19.765  47.033 -25.069  1.00  0.00    -0.646 OA
BRANCH  35  37
HETATM   37  O7  UNL     1     -18.793  46.654 -23.100  1.00  0.00    -0.773 OA
HETATM   38  H48 UNL     1     -19.715  46.901 -22.879  1.00  0.00     0.167 HD
ENDBRANCH  35  37
ENDBRANCH  33  35
ENDBRANCH  31  32
BRANCH  31  39
HETATM   39  O1  UNL     1     -14.235  46.887 -23.538  1.00  0.00    -0.392 OA
HETATM   40  H6  UNL     1     -13.283  46.871 -23.733  1.00  0.00     0.210 HD
ENDBRANCH  31  39
ENDBRANCH  30  31
ENDBRANCH  28  30
ENDBRANCH   1  28
BRANCH   3  41
HETATM   41  O2  UNL     1     -10.510  49.381 -26.547  1.00  0.00    -0.394 OA
HETATM   42  H17 UNL     1     -10.531  49.662 -25.614  1.00  0.00     0.210 HD
ENDBRANCH   3  41
BRANCH  27  43
HETATM   43  O5  UNL     1      -8.963  49.576 -28.774  1.00  0.00    -0.391 OA
HETATM   44  H47 UNL     1      -9.507  49.663 -27.964  1.00  0.00     0.210 HD
ENDBRANCH  27  43
TORSDOF 9
ENDMDL
MODEL 2
REMARK minimizedAffinity -9.436903
REMARK CNNscore 0.618176877
REMARK CNNaffinity 7.15315866
REMARK  9 active torsions:
REMARK  status: ('A' for Active; 'I' for Inactive)
REMARK    1  A    between atoms: C2_2  and  C33_38 
REMARK    2  A    between atoms: C3_3  and  C4_4 
REMARK    3  A    between atoms: C4_4  and  O1_5 
REMARK    4  A    between atoms: C4_4  and  C5_6 
REMARK    5  A    between atoms: C5_6  and  C6_7 
REMARK    6  A    between atoms: C6_7  and  C8_9 
REMARK    7  A    between atoms: C10_11  and  O2_12 
REMARK    8  A    between atoms: C32_36  and  O5_37 
REMARK    9  A    between atoms: C33_38  and  O7_40 
ROOT
HETATM    1  C8  UNL     1      -0.807  51.255 -17.065  1.00  0.00     0.002 C 
HETATM    2  C9  UNL     1       0.705  51.476 -17.304  1.00  0.00     0.038 C 
HETATM    3  C10 UNL     1       0.861  51.768 -18.817  1.00  0.00     0.132 C 
HETATM    4  C11 UNL     1      -0.588  52.028 -19.341  1.00  0.00     0.017 C 
HETATM    5  C12 UNL     1      -0.985  53.514 -19.062  1.00  0.00     0.023 C 
HETATM    6  C13 UNL     1      -0.908  51.791 -20.825  1.00  0.00    -0.029 C 
HETATM    7  C14 UNL     1      -2.129  51.322 -21.199  1.00  0.00     0.003 C 
HETATM    8  C15 UNL     1      -3.219  51.193 -20.122  1.00  0.00     0.157 C 
HETATM    9  O3  UNL     1      -4.404  51.055 -20.419  1.00  0.00    -0.293 OA
HETATM   10  C16 UNL     1      -2.842  51.197 -18.648  1.00  0.00     0.094 C 
HETATM   11  C17 UNL     1      -1.355  50.920 -18.487  1.00  0.00    -0.016 C 
HETATM   12  C18 UNL     1      -0.933  49.459 -18.982  1.00  0.00     0.011 C 
HETATM   13  C19 UNL     1      -2.028  48.416 -19.307  1.00  0.00     0.001 C 
HETATM   14  C20 UNL     1      -1.750  47.580 -20.566  1.00  0.00     0.000 C 
HETATM   15  C21 UNL     1      -1.541  48.353 -21.878  1.00  0.00     0.001 C 
HETATM   16  C22 UNL     1      -2.734  49.206 -22.374  1.00  0.00     0.015 C 
HETATM   17  C23 UNL     1      -2.444  50.752 -22.613  1.00  0.00    -0.004 C 
HETATM   18  C24 UNL     1      -3.724  51.419 -23.222  1.00  0.00     0.022 C 
HETATM   19  C25 UNL     1      -3.452  52.586 -24.156  1.00  0.00     0.080 C 
HETATM   20  C26 UNL     1      -2.675  52.129 -25.365  1.00  0.00     0.135 C 
HETATM   21  O4  UNL     1      -2.861  52.659 -26.462  1.00  0.00    -0.297 OA
HETATM   22  C27 UNL     1      -1.660  51.000 -25.171  1.00  0.00     0.018 C 
HETATM   23  C28 UNL     1      -0.443  51.285 -26.082  1.00  0.00     0.023 C 
HETATM   24  C29 UNL     1      -2.298  49.698 -25.693  1.00  0.00     0.023 C 
HETATM   25  C30 UNL     1      -1.236  50.900 -23.652  1.00  0.00     0.017 C 
HETATM   26  C31 UNL     1      -0.299  52.060 -23.259  1.00  0.00     0.043 C 
HETATM   27  C32 UNL     1       0.202  51.988 -21.823  1.00  0.00     0.149 C 
ENDROOT
BRANCH   1  28
HETATM   28  C6  UNL     1      -1.221  50.447 -15.799  1.00  0.00    -0.011 C 
HETATM   29  C7  UNL     1      -2.527  51.046 -15.243  1.00  0.00     0.010 C 
BRANCH  28  30
HETATM   30  C5  UNL     1      -0.170  50.324 -14.678  1.00  0.00     0.040 C 
BRANCH  30  31
HETATM   31  C4  UNL     1       0.598  48.988 -14.601  1.00  0.00     0.142 C 
BRANCH  31  32
HETATM   32  C3  UNL     1       2.039  49.172 -14.233  1.00  0.00     0.018 C 
HETATM   33  C2  UNL     1       2.549  49.795 -13.150  1.00  0.00     0.010 C 
HETATM   34  C1  UNL     1       1.768  50.490 -12.077  1.00  0.00     0.055 C 
BRANCH  33  35
HETATM   35  C33 UNL     1       4.031  49.795 -13.033  1.00  0.00     0.171 C 
HETATM   36  O6  UNL     1       4.833  49.509 -13.904  1.00  0.00    -0.646 OA
BRANCH  35  37
HETATM   37  O7  UNL     1       4.446  50.141 -11.803  1.00  0.00    -0.773 OA
HETATM   38  H48 UNL     1       5.422  50.097 -11.874  1.00  0.00     0.167 HD
ENDBRANCH  35  37
ENDBRANCH  33  35
ENDBRANCH  31  32
BRANCH  31  39
HETATM   39  O1  UNL     1       0.024  48.207 -13.554  1.00  0.00    -0.392 OA
HETATM   40  H6  UNL     1      -0.889  48.000 -13.812  1.00  0.00     0.210 HD
ENDBRANCH  31  39
ENDBRANCH  30  31
ENDBRANCH  28  30
ENDBRANCH   1  28
BRANCH   3  41
HETATM   41  O2  UNL     1       1.733  52.864 -19.056  1.00  0.00    -0.394 OA
HETATM   42  H17 UNL     1       2.549  52.710 -18.545  1.00  0.00     0.210 HD
ENDBRANCH   3  41
BRANCH  27  43
HETATM   43  O5  UNL     1       0.882  53.219 -21.613  1.00  0.00    -0.391 OA
HETATM   44  H47 UNL     1       1.293  53.205 -20.724  1.00  0.00     0.210 HD
ENDBRANCH  27  43
TORSDOF 9
ENDMDL
MODEL 3
REMARK minimizedAffinity -8.23814011
REMARK CNNscore 0.551279306
REMARK CNNaffinity 6.42161798
REMARK  9 active torsions:
REMARK  status: ('A' for Active; 'I' for Inactive)
REMARK    1  A    between atoms: C2_2  and  C33_38 
REMARK    2  A    between atoms: C3_3  and  C4_4 
REMARK    3  A    between atoms: C4_4  and  O1_5 
REMARK    4  A    between atoms: C4_4  and  C5_6 
REMARK    5  A    between atoms: C5_6  and  C6_7 
REMARK    6  A    between atoms: C6_7  and  C8_9 
REMARK    7  A    between atoms: C10_11  and  O2_12 
REMARK    8  A    between atoms: C32_36  and  O5_37 
REMARK    9  A    between atoms: C33_38  and  O7_40 
ROOT
HETATM    1  C8  UNL     1      -3.399  49.675 -22.316  1.00  0.00     0.002 C 
HETATM    2  C9  UNL     1      -3.020  49.401 -23.791  1.00  0.00     0.038 C 
HETATM    3  C10 UNL     1      -4.236  48.676 -24.418  1.00  0.00     0.132 C 
HETATM    4  C11 UNL     1      -5.397  48.843 -23.384  1.00  0.00     0.017 C 
HETATM    5  C12 UNL     1      -6.081  50.233 -23.588  1.00  0.00     0.023 C 
HETATM    6  C13 UNL     1      -6.545  47.821 -23.366  1.00  0.00    -0.029 C 
HETATM    7  C14 UNL     1      -7.138  47.474 -22.193  1.00  0.00     0.003 C 
HETATM    8  C15 UNL     1      -6.742  48.244 -20.923  1.00  0.00     0.157 C 
HETATM    9  O3  UNL     1      -7.421  48.190 -19.899  1.00  0.00    -0.293 OA
HETATM   10  C16 UNL     1      -5.464  49.069 -20.895  1.00  0.00     0.094 C 
HETATM   11  C17 UNL     1      -4.553  48.661 -22.043  1.00  0.00    -0.016 C 
HETATM   12  C18 UNL     1      -4.033  47.152 -21.924  1.00  0.00     0.011 C 
HETATM   13  C19 UNL     1      -4.255  46.368 -20.610  1.00  0.00     0.001 C 
HETATM   14  C20 UNL     1      -4.680  44.905 -20.811  1.00  0.00     0.000 C 
HETATM   15  C21 UNL     1      -5.954  44.662 -21.636  1.00  0.00     0.001 C 
HETATM   16  C22 UNL     1      -7.268  45.251 -21.067  1.00  0.00     0.015 C 
HETATM   17  C23 UNL     1      -8.069  46.238 -22.023  1.00  0.00    -0.004 C 
HETATM   18  C24 UNL     1      -9.417  46.633 -21.329  1.00  0.00     0.022 C 
HETATM   19  C25 UNL     1     -10.568  46.909 -22.280  1.00  0.00     0.080 C 
HETATM   20  C26 UNL     1     -10.918  45.670 -23.065  1.00  0.00     0.135 C 
HETATM   21  O4  UNL     1     -12.086  45.447 -23.390  1.00  0.00    -0.297 OA
HETATM   22  C27 UNL     1      -9.778  44.720 -23.436  1.00  0.00     0.018 C 
HETATM   23  C28 UNL     1     -10.068  44.145 -24.843  1.00  0.00     0.023 C 
HETATM   24  C29 UNL     1      -9.822  43.526 -22.462  1.00  0.00     0.023 C 
HETATM   25  C30 UNL     1      -8.394  45.482 -23.396  1.00  0.00     0.017 C 
HETATM   26  C31 UNL     1      -8.246  46.429 -24.604  1.00  0.00     0.043 C 
HETATM   27  C32 UNL     1      -6.905  47.148 -24.664  1.00  0.00     0.149 C 
ENDROOT
BRANCH   1  28
HETATM   28  C6  UNL     1      -2.233  49.905 -21.309  1.00  0.00    -0.011 C 
HETATM   29  C7  UNL     1      -1.203  48.772 -21.488  1.00  0.00     0.010 C 
BRANCH  28  30
HETATM   30  C5  UNL     1      -2.614  50.052 -19.823  1.00  0.00     0.040 C 
BRANCH  30  31
HETATM   31  C4  UNL     1      -1.818  51.092 -19.009  1.00  0.00     0.142 C 
BRANCH  31  32
HETATM   32  C3  UNL     1      -0.929  51.938 -19.867  1.00  0.00     0.018 C 
HETATM   33  C2  UNL     1       0.217  52.560 -19.519  1.00  0.00     0.010 C 
HETATM   34  C1  UNL     1       0.840  52.574 -18.157  1.00  0.00     0.055 C 
BRANCH  33  35
HETATM   35  C33 UNL     1       0.908  53.312 -20.599  1.00  0.00     0.171 C 
HETATM   36  O6  UNL     1       1.508  54.367 -20.488  1.00  0.00    -0.646 OA
BRANCH  35  37
HETATM   37  O7  UNL     1       0.797  52.708 -21.794  1.00  0.00    -0.773 OA
HETATM   38  H48 UNL     1       1.289  53.305 -22.395  1.00  0.00     0.167 HD
ENDBRANCH  35  37
ENDBRANCH  33  35
ENDBRANCH  31  32
BRANCH  31  39
HETATM   39  O1  UNL     1      -2.749  51.989 -18.407  1.00  0.00    -0.392 OA
HETATM   40  H6  UNL     1      -3.284  51.478 -17.777  1.00  0.00     0.210 HD
ENDBRANCH  31  39
ENDBRANCH  30  31
ENDBRANCH  28  30
ENDBRANCH   1  28
BRANCH   3  41
HETATM   41  O2  UNL     1      -4.564  49.201 -25.696  1.00  0.00    -0.394 OA
HETATM   42  H17 UNL     1      -3.744  49.234 -26.223  1.00  0.00     0.210 HD
ENDBRANCH   3  41
BRANCH  27  43
HETATM   43  O5  UNL     1      -7.043  48.089 -25.721  1.00  0.00    -0.391 OA
HETATM   44  H47 UNL     1      -6.184  48.537 -25.859  1.00  0.00     0.210 HD
ENDBRANCH  27  43
TORSDOF 9
ENDMDL
MODEL 4
REMARK minimizedAffinity -9.72913074
REMARK CNNscore 0.519130468
REMARK CNNaffinity 6.59488058
REMARK  9 active torsions:
REMARK  status: ('A' for Active; 'I' for Inactive)
REMARK    1  A    between atoms: C2_2  and  C33_38 
REMARK    2  A    between atoms: C3_3  and  C4_4 
REMARK    3  A    between atoms: C4_4  and  O1_5 
REMARK    4  A    between atoms: C4_4  and  C5_6 
REMARK    5  A    between atoms: C5_6  and  C6_7 
REMARK    6  A    between atoms: C6_7  and  C8_9 
REMARK    7  A    between atoms: C10_11  and  O2_12 
REMARK    8  A    between atoms: C32_36  and  O5_37 
REMARK    9  A    between atoms: C33_38  and  O7_40 
ROOT
HETATM    1  C8  UNL     1      -0.805  51.343 -16.871  1.00  0.00     0.002 C 
HETATM    2  C9  UNL     1       0.717  51.546 -17.065  1.00  0.00     0.038 C 
HETATM    3  C10 UNL     1       0.923  51.824 -18.574  1.00  0.00     0.132 C 
HETATM    4  C11 UNL     1      -0.506  52.095 -19.146  1.00  0.00     0.017 C 
HETATM    5  C12 UNL     1      -0.895  53.587 -18.891  1.00  0.00     0.023 C 
HETATM    6  C13 UNL     1      -0.782  51.848 -20.637  1.00  0.00    -0.029 C 
HETATM    7  C14 UNL     1      -1.996  51.389 -21.045  1.00  0.00     0.003 C 
HETATM    8  C15 UNL     1      -3.120  51.281 -20.002  1.00  0.00     0.157 C 
HETATM    9  O3  UNL     1      -4.297  51.153 -20.334  1.00  0.00    -0.293 OA
HETATM   10  C16 UNL     1      -2.790  51.294 -18.517  1.00  0.00     0.094 C 
HETATM   11  C17 UNL     1      -1.312  51.003 -18.306  1.00  0.00    -0.016 C 
HETATM   12  C18 UNL     1      -0.890  49.532 -18.776  1.00  0.00     0.011 C 
HETATM   13  C19 UNL     1      -1.986  48.498 -19.126  1.00  0.00     0.001 C 
HETATM   14  C20 UNL     1      -1.678  47.648 -20.369  1.00  0.00     0.000 C 
HETATM   15  C21 UNL     1      -1.420  48.408 -21.680  1.00  0.00     0.001 C 
HETATM   16  C22 UNL     1      -2.587  49.270 -22.220  1.00  0.00     0.015 C 
HETATM   17  C23 UNL     1      -2.273  50.810 -22.463  1.00  0.00    -0.004 C 
HETATM   18  C24 UNL     1      -3.526  51.486 -23.118  1.00  0.00     0.022 C 
HETATM   19  C25 UNL     1      -3.212  52.641 -24.052  1.00  0.00     0.080 C 
HETATM   20  C26 UNL     1      -2.403  52.166 -25.232  1.00  0.00     0.135 C 
HETATM   21  O4  UNL     1      -2.549  52.688 -26.338  1.00  0.00    -0.297 OA
HETATM   22  C27 UNL     1      -1.407  51.028 -24.997  1.00  0.00     0.018 C 
HETATM   23  C28 UNL     1      -0.159  51.292 -25.872  1.00  0.00     0.023 C 
HETATM   24  C29 UNL     1      -2.042  49.728 -25.528  1.00  0.00     0.023 C 
HETATM   25  C30 UNL     1      -1.031  50.936 -23.464  1.00  0.00     0.017 C 
HETATM   26  C31 UNL     1      -0.095  52.089 -23.052  1.00  0.00     0.043 C 
HETATM   27  C32 UNL     1       0.361  52.024 -21.601  1.00  0.00     0.149 C 
ENDROOT
BRANCH   1  28
HETATM   28  C6  UNL     1      -1.266  50.551 -15.611  1.00  0.00    -0.011 C 
HETATM   29  C7  UNL     1      -2.757  50.853 -15.364  1.00  0.00     0.010 C 
BRANCH  28  30
HETATM   30  C5  UNL     1      -0.455  50.766 -14.318  1.00  0.00     0.040 C 
BRANCH  30  31
HETATM   31  C4  UNL     1      -0.790  52.029 -13.499  1.00  0.00     0.142 C 
BRANCH  31  32
HETATM   32  C3  UNL     1      -1.201  51.712 -12.094  1.00  0.00     0.018 C 
HETATM   33  C2  UNL     1      -2.378  51.981 -11.489  1.00  0.00     0.010 C 
HETATM   34  C1  UNL     1      -3.539  52.709 -12.094  1.00  0.00     0.055 C 
BRANCH  33  35
HETATM   35  C33 UNL     1      -2.512  51.517 -10.084  1.00  0.00     0.171 C 
HETATM   36  O6  UNL     1      -3.531  51.136  -9.534  1.00  0.00    -0.646 OA
BRANCH  35  37
HETATM   37  O7  UNL     1      -1.349  51.571  -9.414  1.00  0.00    -0.773 OA
HETATM   38  H48 UNL     1      -1.587  51.243  -8.522  1.00  0.00     0.167 HD
ENDBRANCH  35  37
ENDBRANCH  33  35
ENDBRANCH  31  32
BRANCH  31  39
HETATM   39  O1  UNL     1       0.395  52.815 -13.392  1.00  0.00    -0.392 OA
HETATM   40  H6  UNL     1       0.634  53.107 -14.287  1.00  0.00     0.210 HD
ENDBRANCH  31  39
ENDBRANCH  30  31
ENDBRANCH  28  30
ENDBRANCH   1  28
BRANCH   3  41
HETATM   41  O2  UNL     1       1.815  52.907 -18.795  1.00  0.00    -0.394 OA
HETATM   42  H17 UNL     1       2.613  52.750 -18.257  1.00  0.00     0.210 HD
ENDBRANCH   3  41
BRANCH  27  43
HETATM   43  O5  UNL     1       1.047  53.250 -21.380  1.00  0.00    -0.391 OA
HETATM   44  H47 UNL     1       1.430  53.239 -20.479  1.00  0.00     0.210 HD
ENDBRANCH  27  43
TORSDOF 9
ENDMDL
MODEL 5
REMARK minimizedAffinity -9.21772575
REMARK CNNscore 0.472833097
REMARK CNNaffinity 6.7857151
REMARK  9 active torsions:
REMARK  status: ('A' for Active; 'I' for Inactive)
REMARK    1  A    between atoms: C2_2  and  C33_38 
REMARK    2  A    between atoms: C3_3  and  C4_4 
REMARK    3  A    between atoms: C4_4  and  O1_5 
REMARK    4  A    between atoms: C4_4  and  C5_6 
REMARK    5  A    between atoms: C5_6  and  C6_7 
REMARK    6  A    between atoms: C6_7  and  C8_9 
REMARK    7  A    between atoms: C10_11  and  O2_12 
REMARK    8  A    between atoms: C32_36  and  O5_37 
REMARK    9  A    between atoms: C33_38  and  O7_40 
ROOT
HETATM    1  C8  UNL     1      -3.822  49.593 -24.034  1.00  0.00     0.002 C 
HETATM    2  C9  UNL     1      -4.607  48.824 -25.123  1.00  0.00     0.038 C 
HETATM    3  C10 UNL     1      -5.876  48.274 -24.428  1.00  0.00     0.132 C 
HETATM    4  C11 UNL     1      -5.949  49.010 -23.052  1.00  0.00     0.017 C 
HETATM    5  C12 UNL     1      -6.621  50.408 -23.244  1.00  0.00     0.023 C 
HETATM    6  C13 UNL     1      -6.697  48.353 -21.882  1.00  0.00    -0.029 C 
HETATM    7  C14 UNL     1      -6.256  48.514 -20.605  1.00  0.00     0.003 C 
HETATM    8  C15 UNL     1      -5.097  49.493 -20.356  1.00  0.00     0.157 C 
HETATM    9  O3  UNL     1      -4.834  49.905 -19.227  1.00  0.00    -0.293 OA
HETATM   10  C16 UNL     1      -4.218  49.949 -21.511  1.00  0.00     0.094 C 
HETATM   11  C17 UNL     1      -4.392  49.018 -22.701  1.00  0.00    -0.016 C 
HETATM   12  C18 UNL     1      -3.891  47.527 -22.408  1.00  0.00     0.011 C 
HETATM   13  C19 UNL     1      -3.074  47.233 -21.128  1.00  0.00     0.001 C 
HETATM   14  C20 UNL     1      -3.461  45.926 -20.418  1.00  0.00     0.000 C 
HETATM   15  C21 UNL     1      -4.930  45.779 -19.992  1.00  0.00     0.001 C 
HETATM   16  C22 UNL     1      -5.458  46.812 -18.966  1.00  0.00     0.015 C 
HETATM   17  C23 UNL     1      -6.737  47.649 -19.404  1.00  0.00    -0.004 C 
HETATM   18  C24 UNL     1      -7.192  48.546 -18.203  1.00  0.00     0.022 C 
HETATM   19  C25 UNL     1      -8.685  48.813 -18.135  1.00  0.00     0.080 C 
HETATM   20  C26 UNL     1      -9.446  47.528 -17.932  1.00  0.00     0.135 C 
HETATM   21  O4  UNL     1     -10.484  47.517 -17.266  1.00  0.00    -0.297 OA
HETATM   22  C27 UNL     1      -8.885  46.260 -18.578  1.00  0.00     0.018 C 
HETATM   23  C28 UNL     1     -10.075  45.397 -19.060  1.00  0.00     0.023 C 
HETATM   24  C29 UNL     1      -8.174  45.445 -17.480  1.00  0.00     0.023 C 
HETATM   25  C30 UNL     1      -7.920  46.636 -19.773  1.00  0.00     0.017 C 
HETATM   26  C31 UNL     1      -8.718  47.130 -20.997  1.00  0.00     0.043 C 
HETATM   27  C32 UNL     1      -7.854  47.447 -22.210  1.00  0.00     0.149 C 
ENDROOT
BRANCH   1  28
HETATM   28  C6  UNL     1      -2.297  49.807 -24.267  1.00  0.00    -0.011 C 
HETATM   29  C7  UNL     1      -1.666  50.303 -22.951  1.00  0.00     0.010 C 
BRANCH  28  30
HETATM   30  C5  UNL     1      -1.894  50.729 -25.435  1.00  0.00     0.040 C 
BRANCH  30  31
HETATM   31  C4  UNL     1      -0.997  51.933 -25.081  1.00  0.00     0.142 C 
BRANCH  31  32
HETATM   32  C3  UNL     1       0.446  51.692 -25.404  1.00  0.00     0.018 C 
HETATM   33  C2  UNL     1       1.021  51.590 -26.621  1.00  0.00     0.010 C 
HETATM   34  C1  UNL     1       0.319  51.656 -27.942  1.00  0.00     0.055 C 
BRANCH  33  35
HETATM   35  C33 UNL     1       2.492  51.377 -26.633  1.00  0.00     0.171 C 
HETATM   36  O6  UNL     1       3.121  50.578 -25.961  1.00  0.00    -0.646 OA
BRANCH  35  37
HETATM   37  O7  UNL     1       3.121  52.202 -27.487  1.00  0.00    -0.773 OA
HETATM   38  H48 UNL     1       4.063  51.953 -27.389  1.00  0.00     0.167 HD
ENDBRANCH  35  37
ENDBRANCH  33  35
ENDBRANCH  31  32
BRANCH  31  39
HETATM   39  O1  UNL     1      -1.399  53.037 -25.890  1.00  0.00    -0.392 OA
HETATM   40  H6  UNL     1      -2.307  53.270 -25.636  1.00  0.00     0.210 HD
ENDBRANCH  31  39
ENDBRANCH  30  31
ENDBRANCH  28  30
ENDBRANCH   1  28
BRANCH   3  41
HETATM   41  O2  UNL     1      -7.040  48.474 -25.217  1.00  0.00    -0.394 OA
HETATM   42  H17 UNL     1      -6.848  48.151 -26.117  1.00  0.00     0.210 HD
ENDBRANCH   3  41
BRANCH  27  43
HETATM   43  O5  UNL     1      -8.743  48.049 -23.142  1.00  0.00    -0.391 OA
HETATM   44  H47 UNL     1      -8.260  48.213 -23.978  1.00  0.00     0.210 HD
ENDBRANCH  27  43
TORSDOF 9
ENDMDL
MODEL 6
REMARK minimizedAffinity -10.5924435
REMARK CNNscore 0.449180484
REMARK CNNaffinity 6.78539133
REMARK  9 active torsions:
REMARK  status: ('A' for Active; 'I' for Inactive)
REMARK    1  A    between atoms: C2_2  and  C33_38 
REMARK    2  A    between atoms: C3_3  and  C4_4 
REMARK    3  A    between atoms: C4_4  and  O1_5 
REMARK    4  A    between atoms: C4_4  and  C5_6 
REMARK    5  A    between atoms: C5_6  and  C6_7 
REMARK    6  A    between atoms: C6_7  and  C8_9 
REMARK    7  A    between atoms: C10_11  and  O2_12 
REMARK    8  A    between atoms: C32_36  and  O5_37 
REMARK    9  A    between atoms: C33_38  and  O7_40 
ROOT
HETATM    1  C8  UNL     1      -1.610  51.661 -22.905  1.00  0.00     0.002 C 
HETATM    2  C9  UNL     1      -2.090  51.519 -24.369  1.00  0.00     0.038 C 
HETATM    3  C10 UNL     1      -3.515  50.919 -24.295  1.00  0.00     0.132 C 
HETATM    4  C11 UNL     1      -3.939  51.036 -22.795  1.00  0.00     0.017 C 
HETATM    5  C12 UNL     1      -4.494  52.471 -22.521  1.00  0.00     0.023 C 
HETATM    6  C13 UNL     1      -4.995  50.074 -22.231  1.00  0.00    -0.029 C 
HETATM    7  C14 UNL     1      -4.913  49.639 -20.945  1.00  0.00     0.003 C 
HETATM    8  C15 UNL     1      -3.839  50.258 -20.036  1.00  0.00     0.157 C 
HETATM    9  O3  UNL     1      -3.881  50.135 -18.813  1.00  0.00    -0.293 OA
HETATM   10  C16 UNL     1      -2.667  51.015 -20.643  1.00  0.00     0.094 C 
HETATM   11  C17 UNL     1      -2.537  50.681 -22.121  1.00  0.00    -0.016 C 
HETATM   12  C18 UNL     1      -2.176  49.145 -22.387  1.00  0.00     0.011 C 
HETATM   13  C19 UNL     1      -1.747  48.245 -21.205  1.00  0.00     0.001 C 
HETATM   14  C20 UNL     1      -2.349  46.831 -21.237  1.00  0.00     0.000 C 
HETATM   15  C21 UNL     1      -3.882  46.733 -21.271  1.00  0.00     0.001 C 
HETATM   16  C22 UNL     1      -4.639  47.324 -20.057  1.00  0.00     0.015 C 
HETATM   17  C23 UNL     1      -5.727  48.438 -20.380  1.00  0.00    -0.004 C 
HETATM   18  C24 UNL     1      -6.466  48.826 -19.054  1.00  0.00     0.022 C 
HETATM   19  C25 UNL     1      -7.913  49.250 -19.230  1.00  0.00     0.080 C 
HETATM   20  C26 UNL     1      -8.737  48.114 -19.781  1.00  0.00     0.135 C 
HETATM   21  O4  UNL     1      -9.916  47.981 -19.448  1.00  0.00    -0.297 OA
HETATM   22  C27 UNL     1      -8.057  47.152 -20.757  1.00  0.00     0.018 C 
HETATM   23  C28 UNL     1      -9.095  46.736 -21.826  1.00  0.00     0.023 C 
HETATM   24  C29 UNL     1      -7.694  45.870 -19.982  1.00  0.00     0.023 C 
HETATM   25  C30 UNL     1      -6.793  47.840 -21.413  1.00  0.00     0.017 C 
HETATM   26  C31 UNL     1      -7.215  48.895 -22.456  1.00  0.00     0.043 C 
HETATM   27  C32 UNL     1      -6.045  49.551 -23.176  1.00  0.00     0.149 C 
ENDROOT
BRANCH   1  28
HETATM   28  C6  UNL     1      -0.073  51.733 -22.660  1.00  0.00    -0.011 C 
HETATM   29  C7  UNL     1       0.169  52.107 -21.185  1.00  0.00     0.010 C 
BRANCH  28  30
HETATM   30  C5  UNL     1       0.736  52.661 -23.587  1.00  0.00     0.040 C 
BRANCH  30  31
HETATM   31  C4  UNL     1       0.745  52.297 -25.086  1.00  0.00     0.142 C 
BRANCH  31  32
HETATM   32  C3  UNL     1       0.121  53.358 -25.940  1.00  0.00     0.018 C 
HETATM   33  C2  UNL     1      -0.224  53.282 -27.243  1.00  0.00     0.010 C 
HETATM   34  C1  UNL     1      -0.015  52.107 -28.148  1.00  0.00     0.055 C 
BRANCH  33  35
HETATM   35  C33 UNL     1      -0.859  54.495 -27.823  1.00  0.00     0.171 C 
HETATM   36  O6  UNL     1      -0.569  55.655 -27.589  1.00  0.00    -0.646 OA
BRANCH  35  37
HETATM   37  O7  UNL     1      -1.856  54.193 -28.670  1.00  0.00    -0.773 OA
HETATM   38  H48 UNL     1      -2.173  55.072 -28.967  1.00  0.00     0.167 HD
ENDBRANCH  35  37
ENDBRANCH  33  35
ENDBRANCH  31  32
BRANCH  31  39
HETATM   39  O1  UNL     1       2.103  52.202 -25.512  1.00  0.00    -0.392 OA
HETATM   40  H6  UNL     1       2.508  51.460 -25.032  1.00  0.00     0.210 HD
ENDBRANCH  31  39
ENDBRANCH  30  31
ENDBRANCH  28  30
ENDBRANCH   1  28
BRANCH   3  41
HETATM   41  O2  UNL     1      -4.415  51.584 -25.170  1.00  0.00    -0.394 OA
HETATM   42  H17 UNL     1      -3.995  51.630 -26.049  1.00  0.00     0.210 HD
ENDBRANCH   3  41
BRANCH  27  43
HETATM   43  O5  UNL     1      -6.629  50.599 -23.940  1.00  0.00    -0.391 OA
HETATM   44  H47 UNL     1      -5.933  51.018 -24.486  1.00  0.00     0.210 HD
ENDBRANCH  27  43
TORSDOF 9
ENDMDL
MODEL 7
REMARK minimizedAffinity -10.6007023
REMARK CNNscore 0.438842654
REMARK CNNaffinity 6.89215326
REMARK  9 active torsions:
REMARK  status: ('A' for Active; 'I' for Inactive)
REMARK    1  A    between atoms: C2_2  and  C33_38 
REMARK    2  A    between atoms: C3_3  and  C4_4 
REMARK    3  A    between atoms: C4_4  and  O1_5 
REMARK    4  A    between atoms: C4_4  and  C5_6 
REMARK    5  A    between atoms: C5_6  and  C6_7 
REMARK    6  A    between atoms: C6_7  and  C8_9 
REMARK    7  A    between atoms: C10_11  and  O2_12 
REMARK    8  A    between atoms: C32_36  and  O5_37 
REMARK    9  A    between atoms: C33_38  and  O7_40 
ROOT
HETATM    1  C8  UNL     1      -1.609  51.247 -23.541  1.00  0.00     0.002 C 
HETATM    2  C9  UNL     1      -1.563  50.630 -24.960  1.00  0.00     0.038 C 
HETATM    3  C10 UNL     1      -2.834  49.755 -25.087  1.00  0.00     0.132 C 
HETATM    4  C11 UNL     1      -3.733  50.149 -23.870  1.00  0.00     0.017 C 
HETATM    5  C12 UNL     1      -4.546  51.437 -24.219  1.00  0.00     0.023 C 
HETATM    6  C13 UNL     1      -4.766  49.144 -23.338  1.00  0.00    -0.029 C 
HETATM    7  C14 UNL     1      -5.044  49.082 -22.008  1.00  0.00     0.003 C 
HETATM    8  C15 UNL     1      -4.423  50.143 -21.086  1.00  0.00     0.157 C 
HETATM    9  O3  UNL     1      -4.841  50.329 -19.945  1.00  0.00    -0.293 OA
HETATM   10  C16 UNL     1      -3.238  50.971 -21.562  1.00  0.00     0.094 C 
HETATM   11  C17 UNL     1      -2.590  50.312 -22.769  1.00  0.00    -0.016 C 
HETATM   12  C18 UNL     1      -1.946  48.885 -22.434  1.00  0.00     0.011 C 
HETATM   13  C19 UNL     1      -1.800  48.440 -20.960  1.00  0.00     0.001 C 
HETATM   14  C20 UNL     1      -2.150  46.965 -20.708  1.00  0.00     0.000 C 
HETATM   15  C21 UNL     1      -3.559  46.509 -21.120  1.00  0.00     0.001 C 
HETATM   16  C22 UNL     1      -4.745  47.197 -20.402  1.00  0.00     0.015 C 
HETATM   17  C23 UNL     1      -5.817  47.909 -21.337  1.00  0.00    -0.004 C 
HETATM   18  C24 UNL     1      -6.993  48.439 -20.447  1.00  0.00     0.022 C 
HETATM   19  C25 UNL     1      -8.350  48.457 -21.128  1.00  0.00     0.080 C 
HETATM   20  C26 UNL     1      -8.779  47.059 -21.496  1.00  0.00     0.135 C 
HETATM   21  O4  UNL     1      -9.971  46.746 -21.467  1.00  0.00    -0.297 OA
HETATM   22  C27 UNL     1      -7.689  46.066 -21.902  1.00  0.00     0.018 C 
HETATM   23  C28 UNL     1      -8.254  45.163 -23.024  1.00  0.00     0.023 C 
HETATM   24  C29 UNL     1      -7.418  45.144 -20.697  1.00  0.00     0.023 C 
HETATM   25  C30 UNL     1      -6.393  46.838 -22.376  1.00  0.00     0.017 C 
HETATM   26  C31 UNL     1      -6.600  47.465 -23.770  1.00  0.00     0.043 C 
HETATM   27  C32 UNL     1      -5.366  48.170 -24.317  1.00  0.00     0.149 C 
ENDROOT
BRANCH   1  28
HETATM   28  C6  UNL     1      -0.262  51.733 -22.929  1.00  0.00    -0.011 C 
HETATM   29  C7  UNL     1      -0.211  51.297 -21.452  1.00  0.00     0.010 C 
BRANCH  28  30
HETATM   30  C5  UNL     1       0.058  53.236 -23.054  1.00  0.00     0.040 C 
BRANCH  30  31
HETATM   31  C4  UNL     1       0.918  53.657 -24.263  1.00  0.00     0.142 C 
BRANCH  31  32
HETATM   32  C3  UNL     1       0.119  53.779 -25.525  1.00  0.00     0.018 C 
HETATM   33  C2  UNL     1       0.265  53.085 -26.673  1.00  0.00     0.010 C 
HETATM   34  C1  UNL     1       1.308  52.047 -26.955  1.00  0.00     0.055 C 
BRANCH  33  35
HETATM   35  C33 UNL     1      -0.701  53.403 -27.757  1.00  0.00     0.171 C 
HETATM   36  O6  UNL     1      -1.875  53.701 -27.625  1.00  0.00    -0.646 OA
BRANCH  35  37
HETATM   37  O7  UNL     1      -0.147  53.312 -28.977  1.00  0.00    -0.773 OA
HETATM   38  H48 UNL     1      -0.886  53.543 -29.577  1.00  0.00     0.167 HD
ENDBRANCH  35  37
ENDBRANCH  33  35
ENDBRANCH  31  32
BRANCH  31  39
HETATM   39  O1  UNL     1       1.439  54.959 -24.003  1.00  0.00    -0.392 OA
HETATM   40  H6  UNL     1       2.033  54.889 -23.237  1.00  0.00     0.210 HD
ENDBRANCH  31  39
ENDBRANCH  30  31
ENDBRANCH  28  30
ENDBRANCH   1  28
BRANCH   3  41
HETATM   41  O2  UNL     1      -3.486  49.949 -26.334  1.00  0.00    -0.394 OA
HETATM   42  H17 UNL     1      -2.815  49.866 -27.036  1.00  0.00     0.210 HD
ENDBRANCH   3  41
BRANCH  27  43
HETATM   43  O5  UNL     1      -5.815  48.824 -25.498  1.00  0.00    -0.391 OA
HETATM   44  H47 UNL     1      -5.047  49.239 -25.940  1.00  0.00     0.210 HD
ENDBRANCH  27  43
TORSDOF 9
ENDMDL
MODEL 8
REMARK minimizedAffinity -10.6000748
REMARK CNNscore 0.382404953
REMARK CNNaffinity 6.70770597
REMARK  9 active torsions:
REMARK  status: ('A' for Active; 'I' for Inactive)
REMARK    1  A    between atoms: C2_2  and  C33_38 
REMARK    2  A    between atoms: C3_3  and  C4_4 
REMARK    3  A    between atoms: C4_4  and  O1_5 
REMARK    4  A    between atoms: C4_4  and  C5_6 
REMARK    5  A    between atoms: C5_6  and  C6_7 
REMARK    6  A    between atoms: C6_7  and  C8_9 
REMARK    7  A    between atoms: C10_11  and  O2_12 
REMARK    8  A    between atoms: C32_36  and  O5_37 
REMARK    9  A    between atoms: C33_38  and  O7_40 
ROOT
HETATM    1  C8  UNL     1      -0.225  51.569 -20.748  1.00  0.00     0.002 C 
HETATM    2  C9  UNL     1      -0.673  52.265 -19.441  1.00  0.00     0.038 C 
HETATM    3  C10 UNL     1      -1.973  51.550 -18.999  1.00  0.00     0.132 C 
HETATM    4  C11 UNL     1      -2.057  50.260 -19.878  1.00  0.00     0.017 C 
HETATM    5  C12 UNL     1      -1.183  49.135 -19.238  1.00  0.00     0.023 C 
HETATM    6  C13 UNL     1      -3.426  49.614 -20.143  1.00  0.00    -0.029 C 
HETATM    7  C14 UNL     1      -3.685  49.015 -21.336  1.00  0.00     0.003 C 
HETATM    8  C15 UNL     1      -2.529  48.861 -22.338  1.00  0.00     0.157 C 
HETATM    9  O3  UNL     1      -2.605  48.095 -23.297  1.00  0.00    -0.293 OA
HETATM   10  C16 UNL     1      -1.265  49.694 -22.182  1.00  0.00     0.094 C 
HETATM   11  C17 UNL     1      -1.525  50.871 -21.253  1.00  0.00    -0.016 C 
HETATM   12  C18 UNL     1      -2.593  51.908 -21.840  1.00  0.00     0.011 C 
HETATM   13  C19 UNL     1      -3.042  51.791 -23.315  1.00  0.00     0.001 C 
HETATM   14  C20 UNL     1      -4.547  52.008 -23.537  1.00  0.00     0.000 C 
HETATM   15  C21 UNL     1      -5.501  51.086 -22.761  1.00  0.00     0.001 C 
HETATM   16  C22 UNL     1      -5.396  49.571 -23.064  1.00  0.00     0.015 C 
HETATM   17  C23 UNL     1      -5.112  48.622 -21.819  1.00  0.00    -0.004 C 
HETATM   18  C24 UNL     1      -5.160  47.131 -22.298  1.00  0.00     0.022 C 
HETATM   19  C25 UNL     1      -5.641  46.140 -21.252  1.00  0.00     0.080 C 
HETATM   20  C26 UNL     1      -7.064  46.436 -20.855  1.00  0.00     0.135 C 
HETATM   21  O4  UNL     1      -7.831  45.519 -20.555  1.00  0.00    -0.297 OA
HETATM   22  C27 UNL     1      -7.508  47.901 -20.839  1.00  0.00     0.018 C 
HETATM   23  C28 UNL     1      -8.483  48.096 -19.654  1.00  0.00     0.023 C 
HETATM   24  C29 UNL     1      -8.324  48.161 -22.121  1.00  0.00     0.023 C 
HETATM   25  C30 UNL     1      -6.251  48.852 -20.719  1.00  0.00     0.017 C 
HETATM   26  C31 UNL     1      -5.665  48.821 -19.293  1.00  0.00     0.043 C 
HETATM   27  C32 UNL     1      -4.490  49.766 -19.088  1.00  0.00     0.149 C 
ENDROOT
BRANCH   1  28
HETATM   28  C6  UNL     1       0.718  52.367 -21.697  1.00  0.00    -0.011 C 
HETATM   29  C7  UNL     1       1.603  53.293 -20.839  1.00  0.00     0.010 C 
BRANCH  28  30
HETATM   30  C5  UNL     1       0.049  53.168 -22.831  1.00  0.00     0.040 C 
BRANCH  30  31
HETATM   31  C4  UNL     1       0.927  53.486 -24.058  1.00  0.00     0.142 C 
BRANCH  31  32
HETATM   32  C3  UNL     1       0.143  53.527 -25.334  1.00  0.00     0.018 C 
HETATM   33  C2  UNL     1      -0.311  52.488 -26.065  1.00  0.00     0.010 C 
HETATM   34  C1  UNL     1      -0.090  51.035 -25.774  1.00  0.00     0.055 C 
BRANCH  33  35
HETATM   35  C33 UNL     1      -1.093  52.835 -27.281  1.00  0.00     0.171 C 
HETATM   36  O6  UNL     1      -2.207  53.329 -27.317  1.00  0.00    -0.646 OA
BRANCH  35  37
HETATM   37  O7  UNL     1      -0.441  52.527 -28.413  1.00  0.00    -0.773 OA
HETATM   38  H48 UNL     1      -1.064  52.805 -29.116  1.00  0.00     0.167 HD
ENDBRANCH  35  37
ENDBRANCH  33  35
ENDBRANCH  31  32
BRANCH  31  39
HETATM   39  O1  UNL     1       1.466  54.796 -23.889  1.00  0.00    -0.392 OA
HETATM   40  H6  UNL     1       2.051  54.774 -23.113  1.00  0.00     0.210 HD
ENDBRANCH  31  39
ENDBRANCH  30  31
ENDBRANCH  28  30
ENDBRANCH   1  28
BRANCH   3  41
HETATM   41  O2  UNL     1      -1.973  51.263 -17.608  1.00  0.00    -0.394 OA
HETATM   42  H17 UNL     1      -1.732  52.082 -17.137  1.00  0.00     0.210 HD
ENDBRANCH   3  41
BRANCH  27  43
HETATM   43  O5  UNL     1      -3.991  49.453 -17.793  1.00  0.00    -0.391 OA
HETATM   44  H47 UNL     1      -3.274  50.080 -17.571  1.00  0.00     0.210 HD
ENDBRANCH  27  43
TORSDOF 9
ENDMDL
MODEL 9
REMARK minimizedAffinity -10.9560184
REMARK CNNscore 0.376338452
REMARK CNNaffinity 6.79367876
REMARK  9 active torsions:
REMARK  status: ('A' for Active; 'I' for Inactive)
REMARK    1  A    between atoms: C2_2  and  C33_38 
REMARK    2  A    between atoms: C3_3  and  C4_4 
REMARK    3  A    between atoms: C4_4  and  O1_5 
REMARK    4  A    between atoms: C4_4  and  C5_6 
REMARK    5  A    between atoms: C5_6  and  C6_7 
REMARK    6  A    between atoms: C6_7  and  C8_9 
REMARK    7  A    between atoms: C10_11  and  O2_12 
REMARK    8  A    between atoms: C32_36  and  O5_37 
REMARK    9  A    between atoms: C33_38  and  O7_40 
ROOT
HETATM    1  C8  UNL     1      -1.395  52.116 -23.840  1.00  0.00     0.002 C 
HETATM    2  C9  UNL     1      -1.394  51.472 -25.247  1.00  0.00     0.038 C 
HETATM    3  C10 UNL     1      -2.559  50.452 -25.253  1.00  0.00     0.132 C 
HETATM    4  C11 UNL     1      -3.396  50.770 -23.972  1.00  0.00     0.017 C 
HETATM    5  C12 UNL     1      -4.380  51.946 -24.271  1.00  0.00     0.023 C 
HETATM    6  C13 UNL     1      -4.256  49.667 -23.338  1.00  0.00    -0.029 C 
HETATM    7  C14 UNL     1      -4.416  49.607 -21.989  1.00  0.00     0.003 C 
HETATM    8  C15 UNL     1      -3.850  50.757 -21.140  1.00  0.00     0.157 C 
HETATM    9  O3  UNL     1      -4.192  50.922 -19.970  1.00  0.00    -0.293 OA
HETATM   10  C16 UNL     1      -2.814  51.704 -21.726  1.00  0.00     0.094 C 
HETATM   11  C17 UNL     1      -2.193  51.093 -22.973  1.00  0.00    -0.016 C 
HETATM   12  C18 UNL     1      -1.361  49.760 -22.671  1.00  0.00     0.011 C 
HETATM   13  C19 UNL     1      -1.043  49.374 -21.208  1.00  0.00     0.001 C 
HETATM   14  C20 UNL     1      -1.196  47.875 -20.903  1.00  0.00     0.000 C 
HETATM   15  C21 UNL     1      -2.570  47.248 -21.187  1.00  0.00     0.001 C 
HETATM   16  C22 UNL     1      -3.766  47.812 -20.383  1.00  0.00     0.015 C 
HETATM   17  C23 UNL     1      -4.987  48.371 -21.235  1.00  0.00    -0.004 C 
HETATM   18  C24 UNL     1      -6.141  48.784 -20.259  1.00  0.00     0.022 C 
HETATM   19  C25 UNL     1      -7.542  48.627 -20.823  1.00  0.00     0.080 C 
HETATM   20  C26 UNL     1      -7.832  47.180 -21.131  1.00  0.00     0.135 C 
HETATM   21  O4  UNL     1      -8.972  46.731 -20.996  1.00  0.00    -0.297 OA
HETATM   22  C27 UNL     1      -6.669  46.309 -21.611  1.00  0.00     0.018 C 
HETATM   23  C28 UNL     1      -7.214  45.318 -22.667  1.00  0.00     0.023 C 
HETATM   24  C29 UNL     1      -6.194  45.456 -20.419  1.00  0.00     0.023 C 
HETATM   25  C30 UNL     1      -5.517  47.213 -22.205  1.00  0.00     0.017 C 
HETATM   26  C31 UNL     1      -5.909  47.776 -23.586  1.00  0.00     0.043 C 
HETATM   27  C32 UNL     1      -4.816  48.604 -24.247  1.00  0.00     0.149 C 
ENDROOT
BRANCH   1  28
HETATM   28  C6  UNL     1      -0.070  52.770 -23.352  1.00  0.00    -0.011 C 
HETATM   29  C7  UNL     1       1.041  52.442 -24.369  1.00  0.00     0.010 C 
BRANCH  28  30
HETATM   30  C5  UNL     1       0.394  52.423 -21.924  1.00  0.00     0.040 C 
BRANCH  30  31
HETATM   31  C4  UNL     1       0.584  53.608 -20.955  1.00  0.00     0.142 C 
BRANCH  31  32
HETATM   32  C3  UNL     1       1.015  53.173 -19.588  1.00  0.00     0.018 C 
HETATM   33  C2  UNL     1       0.282  52.547 -18.644  1.00  0.00     0.010 C 
HETATM   34  C1  UNL     1      -1.167  52.181 -18.745  1.00  0.00     0.055 C 
BRANCH  33  35
HETATM   35  C33 UNL     1       0.991  52.208 -17.382  1.00  0.00     0.171 C 
HETATM   36  O6  UNL     1       1.152  51.096 -16.910  1.00  0.00    -0.646 OA
BRANCH  35  37
HETATM   37  O7  UNL     1       1.459  53.297 -16.751  1.00  0.00    -0.773 OA
HETATM   38  H48 UNL     1       1.892  52.927 -15.954  1.00  0.00     0.167 HD
ENDBRANCH  35  37
ENDBRANCH  33  35
ENDBRANCH  31  32
BRANCH  31  39
HETATM   39  O1  UNL     1       1.641  54.424 -21.456  1.00  0.00    -0.392 OA
HETATM   40  H6  UNL     1       1.349  54.791 -22.307  1.00  0.00     0.210 HD
ENDBRANCH  31  39
ENDBRANCH  30  31
ENDBRANCH  28  30
ENDBRANCH   1  28
BRANCH   3  41
HETATM   41  O2  UNL     1      -3.330  50.537 -26.443  1.00  0.00    -0.394 OA
HETATM   42  H17 UNL     1      -2.713  50.514 -27.198  1.00  0.00     0.210 HD
ENDBRANCH   3  41
BRANCH  27  43
HETATM   43  O5  UNL     1      -5.433  49.171 -25.396  1.00  0.00    -0.391 OA
HETATM   44  H47 UNL     1      -4.758  49.661 -25.908  1.00  0.00     0.210 HD
ENDBRANCH  27  43
TORSDOF 9
ENDMDL
