MODEL 1
REMARK minimizedAffinity -8.68080425
REMARK CNNscore 0.669037104
REMARK CNNaffinity 6.82441139
REMARK  11 active torsions:
REMARK  status: ('A' for Active; 'I' for Inactive)
REMARK    1  A    between atoms: C3_4  and  O2_5 
REMARK    2  A    between atoms: O2_5  and  C4_6 
REMARK    3  A    between atoms: C7_9  and  C8_10 
REMARK    4  A    between atoms: N1_11  and  C9_13 
REMARK    5  A    between atoms: C9_13  and  C10_14 
REMARK    6  A    between atoms: C10_14  and  O3_15 
REMARK    7  A    between atoms: C16_21  and  C17_22 
REMARK    8  A    between atoms: C23_30  and  O6_31 
REMARK    9  A    between atoms: C27_35  and  O7_36 
REMARK   10  A    between atoms: C30_39  and  O8_40 
REMARK   11  A    between atoms: C31_41  and  O9_42 
ROOT
HETATM    1  C4  UNL     1      -7.613  48.654 -24.033  1.00  0.00     0.127 C 
HETATM    2  C5  UNL     1      -7.778  49.949 -23.237  1.00  0.00     0.033 C 
HETATM    3  C6  UNL     1      -6.561  50.349 -22.396  1.00  0.00     0.021 C 
HETATM    4  C7  UNL     1      -5.659  49.189 -21.904  1.00  0.00     0.026 C 
HETATM    5  C11 UNL     1      -4.347  49.793 -21.266  1.00  0.00     0.009 C 
HETATM    6  C12 UNL     1      -4.533  50.658 -20.019  1.00  0.00     0.007 C 
HETATM    7  C13 UNL     1      -3.238  51.418 -19.736  1.00  0.00     0.013 C 
HETATM    8  C14 UNL     1      -1.975  50.521 -19.641  1.00  0.00    -0.005 C 
HETATM    9  C15 UNL     1      -1.364  50.755 -18.233  1.00  0.00     0.019 C 
HETATM   10  C16 UNL     1      -0.927  50.813 -20.766  1.00  0.00     0.028 C 
HETATM   11  C21 UNL     1      -0.025  49.560 -20.770  1.00  0.00     0.013 C 
HETATM   12  C22 UNL     1      -0.854  48.421 -20.161  1.00  0.00     0.040 C 
HETATM   13  C23 UNL     1      -2.257  49.002 -19.906  1.00  0.00     0.070 C 
HETATM   14  C24 UNL     1      -3.295  48.681 -21.039  1.00  0.00     0.026 C 
HETATM   15  C25 UNL     1      -2.770  48.220 -22.412  1.00  0.00     0.011 C 
HETATM   16  C26 UNL     1      -3.798  48.383 -23.542  1.00  0.00     0.039 C 
HETATM   17  C27 UNL     1      -5.272  48.220 -23.101  1.00  0.00     0.073 C 
HETATM   18  C28 UNL     1      -6.144  48.428 -24.362  1.00  0.00     0.071 C 
ENDROOT
BRANCH   1  19
HETATM   19  O2  UNL     1      -8.316  48.755 -25.277  1.00  0.00    -0.356 OA
BRANCH  19  20
HETATM   20  C3  UNL     1      -8.656  47.494 -25.858  1.00  0.00     0.263 C 
HETATM   21  O1  UNL     1      -8.889  47.722 -27.253  1.00  0.00    -0.354 OA
HETATM   22  C2  UNL     1      -9.221  46.520 -27.949  1.00  0.00     0.151 C 
HETATM   23  C1  UNL     1      -9.307  46.854 -29.434  1.00  0.00     0.042 C 
HETATM   24  C31 UNL     1     -10.550  45.959 -27.418  1.00  0.00     0.175 C 
HETATM   25  C30 UNL     1     -10.454  45.736 -25.902  1.00  0.00     0.154 C 
HETATM   26  C29 UNL     1      -9.927  46.971 -25.194  1.00  0.00     0.095 C 
BRANCH  24  27
HETATM   27  O9  UNL     1     -10.871  44.703 -28.026  1.00  0.00    -0.390 OA
HETATM   28  H47 UNL     1     -11.178  44.891 -28.930  1.00  0.00     0.210 HD
ENDBRANCH  24  27
BRANCH  25  29
HETATM   29  O8  UNL     1      -9.582  44.626 -25.637  1.00  0.00    -0.393 OA
HETATM   30  H45 UNL     1      -9.832  43.961 -26.311  1.00  0.00     0.210 HD
ENDBRANCH  25  29
ENDBRANCH  19  20
ENDBRANCH   1  19
BRANCH  17  31
HETATM   31  O7  UNL     1      -5.395  46.846 -22.676  1.00  0.00    -0.389 OA
HETATM   32  H39 UNL     1      -5.433  46.283 -23.471  1.00  0.00     0.210 HD
ENDBRANCH  17  31
BRANCH   4  33
HETATM   33  C8  UNL     1      -6.403  48.410 -20.808  1.00  0.00     0.068 C 
HETATM   34  N1  UNL     1      -7.415  48.911 -20.179  1.00  0.00    -0.399 N 
ATOM     35  H1  UNL     1      -7.714  49.879 -20.294  1.00  0.00     0.158 HD
BRANCH  34  36
HETATM   36  C9  UNL     1      -8.101  47.965 -19.283  1.00  0.00     0.144 C 
BRANCH  36  37
HETATM   37  C10 UNL     1      -8.388  48.665 -17.952  1.00  0.00     0.183 C 
BRANCH  37  38
HETATM   38  O3  UNL     1      -7.848  47.920 -16.860  1.00  0.00    -0.399 OA
HETATM   39  H16 UNL     1      -8.235  47.024 -16.933  1.00  0.00     0.209 HD
ENDBRANCH  37  38
ENDBRANCH  36  37
ENDBRANCH  34  36
ENDBRANCH   4  33
BRANCH  13  40
HETATM   40  O6  UNL     1      -2.816  48.407 -18.726  1.00  0.00    -0.389 OA
HETATM   41  H33 UNL     1      -2.115  48.285 -18.062  1.00  0.00     0.210 HD
ENDBRANCH  13  40
BRANCH  10  42
HETATM   42  C17 UNL     1      -0.183  52.121 -20.721  1.00  0.00    -0.045 A 
HETATM   43  C18 UNL     1       0.474  52.674 -21.740  1.00  0.00     0.087 A 
HETATM   44  C19 UNL     1       1.063  53.922 -21.259  1.00  0.00     0.283 A 
HETATM   45  O4  UNL     1       1.747  54.674 -21.930  1.00  0.00    -0.260 OA
HETATM   46  O5  UNL     1       0.729  54.093 -19.953  1.00  0.00    -0.314 OA
HETATM   47  C20 UNL     1      -0.025  52.964 -19.511  1.00  0.00     0.213 A 
ENDBRANCH  10  42
TORSDOF 11
ENDMDL
MODEL 2
REMARK minimizedAffinity -8.09916782
REMARK CNNscore 0.652935863
REMARK CNNaffinity 6.77031851
REMARK  11 active torsions:
REMARK  status: ('A' for Active; 'I' for Inactive)
REMARK    1  A    between atoms: C3_4  and  O2_5 
REMARK    2  A    between atoms: O2_5  and  C4_6 
REMARK    3  A    between atoms: C7_9  and  C8_10 
REMARK    4  A    between atoms: N1_11  and  C9_13 
REMARK    5  A    between atoms: C9_13  and  C10_14 
REMARK    6  A    between atoms: C10_14  and  O3_15 
REMARK    7  A    between atoms: C16_21  and  C17_22 
REMARK    8  A    between atoms: C23_30  and  O6_31 
REMARK    9  A    between atoms: C27_35  and  O7_36 
REMARK   10  A    between atoms: C30_39  and  O8_40 
REMARK   11  A    between atoms: C31_41  and  O9_42 
ROOT
HETATM    1  C4  UNL     1      -5.697  47.559 -29.767  1.00  0.00     0.127 C 
HETATM    2  C5  UNL     1      -6.665  48.742 -29.780  1.00  0.00     0.033 C 
HETATM    3  C6  UNL     1      -8.111  48.398 -29.407  1.00  0.00     0.021 C 
HETATM    4  C7  UNL     1      -8.572  46.953 -29.724  1.00  0.00     0.026 C 
HETATM    5  C11 UNL     1      -9.987  46.710 -29.067  1.00  0.00     0.009 C 
HETATM    6  C12 UNL     1     -11.136  47.577 -29.586  1.00  0.00     0.007 C 
HETATM    7  C13 UNL     1     -12.327  47.454 -28.636  1.00  0.00     0.013 C 
HETATM    8  C14 UNL     1     -12.776  45.996 -28.355  1.00  0.00    -0.005 C 
HETATM    9  C15 UNL     1     -14.263  45.894 -28.792  1.00  0.00     0.019 C 
HETATM   10  C16 UNL     1     -12.599  45.574 -26.858  1.00  0.00     0.028 C 
HETATM   11  C21 UNL     1     -12.651  44.032 -26.896  1.00  0.00     0.013 C 
HETATM   12  C22 UNL     1     -12.260  43.615 -28.320  1.00  0.00     0.040 C 
HETATM   13  C23 UNL     1     -11.889  44.913 -29.059  1.00  0.00     0.070 C 
HETATM   14  C24 UNL     1     -10.347  45.205 -29.099  1.00  0.00     0.026 C 
HETATM   15  C25 UNL     1      -9.430  44.465 -28.107  1.00  0.00     0.011 C 
HETATM   16  C26 UNL     1      -8.066  45.144 -27.916  1.00  0.00     0.039 C 
HETATM   17  C27 UNL     1      -7.536  45.888 -29.165  1.00  0.00     0.073 C 
HETATM   18  C28 UNL     1      -6.173  46.507 -28.775  1.00  0.00     0.071 C 
ENDROOT
BRANCH   1  19
HETATM   19  O2  UNL     1      -4.402  47.994 -29.337  1.00  0.00    -0.356 OA
BRANCH  19  20
HETATM   20  C3  UNL     1      -4.424  48.844 -28.187  1.00  0.00     0.263 C 
HETATM   21  O1  UNL     1      -3.385  49.815 -28.361  1.00  0.00    -0.354 OA
HETATM   22  C2  UNL     1      -3.323  50.739 -27.274  1.00  0.00     0.151 C 
HETATM   23  C1  UNL     1      -2.287  51.800 -27.628  1.00  0.00     0.042 C 
HETATM   24  C31 UNL     1      -2.952  49.997 -25.978  1.00  0.00     0.175 C 
HETATM   25  C30 UNL     1      -3.961  48.870 -25.715  1.00  0.00     0.154 C 
HETATM   26  C29 UNL     1      -4.151  48.000 -26.945  1.00  0.00     0.095 C 
BRANCH  24  27
HETATM   27  O9  UNL     1      -2.970  50.874 -24.847  1.00  0.00    -0.390 OA
HETATM   28  H47 UNL     1      -2.170  51.426 -24.898  1.00  0.00     0.210 HD
ENDBRANCH  24  27
BRANCH  25  29
HETATM   29  O8  UNL     1      -5.223  49.439 -25.335  1.00  0.00    -0.393 OA
HETATM   30  H45 UNL     1      -4.982  50.163 -24.721  1.00  0.00     0.210 HD
ENDBRANCH  25  29
ENDBRANCH  19  20
ENDBRANCH   1  19
BRANCH  17  31
HETATM   31  O7  UNL     1      -7.310  44.861 -30.155  1.00  0.00    -0.389 OA
HETATM   32  H39 UNL     1      -6.488  44.391 -29.924  1.00  0.00     0.210 HD
ENDBRANCH  17  31
BRANCH   4  33
HETATM   33  C8  UNL     1      -8.724  46.801 -31.245  1.00  0.00     0.068 C 
HETATM   34  N1  UNL     1      -8.472  47.772 -32.059  1.00  0.00    -0.399 N 
ATOM     35  H1  UNL     1      -8.261  48.719 -31.742  1.00  0.00     0.158 HD
BRANCH  34  36
HETATM   36  C9  UNL     1      -8.513  47.398 -33.483  1.00  0.00     0.144 C 
BRANCH  36  37
HETATM   37  C10 UNL     1      -7.103  47.515 -34.066  1.00  0.00     0.183 C 
BRANCH  37  38
HETATM   38  O3  UNL     1      -6.236  46.533 -33.497  1.00  0.00    -0.399 OA
HETATM   39  H16 UNL     1      -6.283  46.667 -32.528  1.00  0.00     0.209 HD
ENDBRANCH  37  38
ENDBRANCH  36  37
ENDBRANCH  34  36
ENDBRANCH   4  33
BRANCH  13  40
HETATM   40  O6  UNL     1     -12.270  44.807 -30.439  1.00  0.00    -0.389 OA
HETATM   41  H33 UNL     1     -13.116  44.330 -30.505  1.00  0.00     0.210 HD
ENDBRANCH  13  40
BRANCH  10  42
HETATM   42  C17 UNL     1     -13.499  46.207 -25.831  1.00  0.00    -0.045 A 
HETATM   43  C18 UNL     1     -14.823  46.326 -25.928  1.00  0.00     0.087 A 
HETATM   44  C19 UNL     1     -15.294  47.014 -24.728  1.00  0.00     0.283 A 
HETATM   45  O4  UNL     1     -16.455  47.301 -24.499  1.00  0.00    -0.260 OA
HETATM   46  O5  UNL     1     -14.228  47.282 -23.927  1.00  0.00    -0.314 OA
HETATM   47  C20 UNL     1     -13.033  46.847 -24.577  1.00  0.00     0.213 A 
ENDBRANCH  10  42
TORSDOF 11
ENDMDL
MODEL 3
REMARK minimizedAffinity -7.21147823
REMARK CNNscore 0.596241653
REMARK CNNaffinity 6.2917943
REMARK  11 active torsions:
REMARK  status: ('A' for Active; 'I' for Inactive)
REMARK    1  A    between atoms: C3_4  and  O2_5 
REMARK    2  A    between atoms: O2_5  and  C4_6 
REMARK    3  A    between atoms: C7_9  and  C8_10 
REMARK    4  A    between atoms: N1_11  and  C9_13 
REMARK    5  A    between atoms: C9_13  and  C10_14 
REMARK    6  A    between atoms: C10_14  and  O3_15 
REMARK    7  A    between atoms: C16_21  and  C17_22 
REMARK    8  A    between atoms: C23_30  and  O6_31 
REMARK    9  A    between atoms: C27_35  and  O7_36 
REMARK   10  A    between atoms: C30_39  and  O8_40 
REMARK   11  A    between atoms: C31_41  and  O9_42 
ROOT
HETATM    1  C4  UNL     1      -6.984  43.738 -33.016  1.00  0.00     0.127 C 
HETATM    2  C5  UNL     1      -7.676  42.597 -32.270  1.00  0.00     0.033 C 
HETATM    3  C6  UNL     1      -6.818  41.343 -32.068  1.00  0.00     0.021 C 
HETATM    4  C7  UNL     1      -5.724  41.086 -33.134  1.00  0.00     0.026 C 
HETATM    5  C11 UNL     1      -4.799  39.903 -32.646  1.00  0.00     0.009 C 
HETATM    6  C12 UNL     1      -5.469  38.538 -32.481  1.00  0.00     0.007 C 
HETATM    7  C13 UNL     1      -4.538  37.611 -31.701  1.00  0.00     0.013 C 
HETATM    8  C14 UNL     1      -3.108  37.492 -32.291  1.00  0.00    -0.005 C 
HETATM    9  C15 UNL     1      -2.876  35.988 -32.602  1.00  0.00     0.019 C 
HETATM   10  C16 UNL     1      -1.999  38.048 -31.337  1.00  0.00     0.028 C 
HETATM   11  C21 UNL     1      -0.781  38.260 -32.263  1.00  0.00     0.013 C 
HETATM   12  C22 UNL     1      -1.334  38.413 -33.686  1.00  0.00     0.040 C 
HETATM   13  C23 UNL     1      -2.868  38.389 -33.554  1.00  0.00     0.070 C 
HETATM   14  C24 UNL     1      -3.527  39.813 -33.523  1.00  0.00     0.026 C 
HETATM   15  C25 UNL     1      -2.636  41.032 -33.215  1.00  0.00     0.011 C 
HETATM   16  C26 UNL     1      -3.429  42.266 -32.759  1.00  0.00     0.039 C 
HETATM   17  C27 UNL     1      -4.844  42.386 -33.374  1.00  0.00     0.073 C 
HETATM   18  C28 UNL     1      -5.480  43.670 -32.792  1.00  0.00     0.071 C 
ENDROOT
BRANCH   1  19
HETATM   19  O2  UNL     1      -7.434  44.998 -32.504  1.00  0.00    -0.356 OA
BRANCH  19  20
HETATM   20  C3  UNL     1      -6.380  45.865 -32.079  1.00  0.00     0.263 C 
HETATM   21  O1  UNL     1      -6.728  46.345 -30.775  1.00  0.00    -0.354 OA
HETATM   22  C2  UNL     1      -5.731  47.213 -30.235  1.00  0.00     0.151 C 
HETATM   23  C1  UNL     1      -6.135  47.546 -28.804  1.00  0.00     0.042 C 
HETATM   24  C31 UNL     1      -5.618  48.480 -31.100  1.00  0.00     0.175 C 
HETATM   25  C30 UNL     1      -5.315  48.093 -32.555  1.00  0.00     0.154 C 
HETATM   26  C29 UNL     1      -6.278  47.032 -33.057  1.00  0.00     0.095 C 
BRANCH  24  27
HETATM   27  O9  UNL     1      -4.564  49.334 -30.645  1.00  0.00    -0.390 OA
HETATM   28  H47 UNL     1      -4.879  49.774 -29.836  1.00  0.00     0.210 HD
ENDBRANCH  24  27
BRANCH  25  29
HETATM   29  O8  UNL     1      -3.970  47.597 -32.646  1.00  0.00    -0.393 OA
HETATM   30  H45 UNL     1      -3.452  48.210 -32.084  1.00  0.00     0.210 HD
ENDBRANCH  25  29
ENDBRANCH  19  20
ENDBRANCH   1  19
BRANCH  17  31
HETATM   31  O7  UNL     1      -4.631  42.576 -34.790  1.00  0.00    -0.389 OA
HETATM   32  H39 UNL     1      -4.347  43.498 -34.933  1.00  0.00     0.210 HD
ENDBRANCH  17  31
BRANCH   4  33
HETATM   33  C8  UNL     1      -6.397  40.650 -34.445  1.00  0.00     0.068 C 
HETATM   34  N1  UNL     1      -7.534  40.035 -34.459  1.00  0.00    -0.399 N 
ATOM     35  H1  UNL     1      -7.999  39.712 -33.610  1.00  0.00     0.158 HD
BRANCH  34  36
HETATM   36  C9  UNL     1      -8.103  39.842 -35.803  1.00  0.00     0.144 C 
BRANCH  36  37
HETATM   37  C10 UNL     1      -7.095  40.340 -36.842  1.00  0.00     0.183 C 
BRANCH  37  38
HETATM   38  O3  UNL     1      -7.594  41.493 -37.521  1.00  0.00    -0.399 OA
HETATM   39  H16 UNL     1      -8.459  41.227 -37.895  1.00  0.00     0.209 HD
ENDBRANCH  37  38
ENDBRANCH  36  37
ENDBRANCH  34  36
ENDBRANCH   4  33
BRANCH  13  40
HETATM   40  O6  UNL     1      -3.440  37.754 -34.707  1.00  0.00    -0.389 OA
HETATM   41  H33 UNL     1      -2.875  37.009 -34.979  1.00  0.00     0.210 HD
ENDBRANCH  13  40
BRANCH  10  42
HETATM   42  C17 UNL     1      -1.702  37.286 -30.075  1.00  0.00    -0.045 A 
HETATM   43  C18 UNL     1      -2.375  37.390 -28.929  1.00  0.00     0.087 A 
HETATM   44  C19 UNL     1      -1.745  36.494 -27.963  1.00  0.00     0.283 A 
HETATM   45  O4  UNL     1      -2.100  36.354 -26.806  1.00  0.00    -0.260 OA
HETATM   46  O5  UNL     1      -0.705  35.858 -28.565  1.00  0.00    -0.314 OA
HETATM   47  C20 UNL     1      -0.571  36.341 -29.902  1.00  0.00     0.213 A 
ENDBRANCH  10  42
TORSDOF 11
ENDMDL
MODEL 4
REMARK minimizedAffinity -8.85807896
REMARK CNNscore 0.573997974
REMARK CNNaffinity 6.71833467
REMARK  11 active torsions:
REMARK  status: ('A' for Active; 'I' for Inactive)
REMARK    1  A    between atoms: C3_4  and  O2_5 
REMARK    2  A    between atoms: O2_5  and  C4_6 
REMARK    3  A    between atoms: C7_9  and  C8_10 
REMARK    4  A    between atoms: N1_11  and  C9_13 
REMARK    5  A    between atoms: C9_13  and  C10_14 
REMARK    6  A    between atoms: C10_14  and  O3_15 
REMARK    7  A    between atoms: C16_21  and  C17_22 
REMARK    8  A    between atoms: C23_30  and  O6_31 
REMARK    9  A    between atoms: C27_35  and  O7_36 
REMARK   10  A    between atoms: C30_39  and  O8_40 
REMARK   11  A    between atoms: C31_41  and  O9_42 
ROOT
HETATM    1  C4  UNL     1      -8.011  47.020 -22.694  1.00  0.00     0.127 C 
HETATM    2  C5  UNL     1      -8.135  48.543 -22.740  1.00  0.00     0.033 C 
HETATM    3  C6  UNL     1      -6.894  49.306 -22.264  1.00  0.00     0.021 C 
HETATM    4  C7  UNL     1      -6.007  48.584 -21.219  1.00  0.00     0.026 C 
HETATM    5  C11 UNL     1      -4.672  49.403 -21.025  1.00  0.00     0.009 C 
HETATM    6  C12 UNL     1      -4.816  50.816 -20.459  1.00  0.00     0.007 C 
HETATM    7  C13 UNL     1      -3.501  51.571 -20.647  1.00  0.00     0.013 C 
HETATM    8  C14 UNL     1      -2.255  50.840 -20.081  1.00  0.00    -0.005 C 
HETATM    9  C15 UNL     1      -1.613  51.794 -19.037  1.00  0.00     0.019 C 
HETATM   10  C16 UNL     1      -1.222  50.437 -21.185  1.00  0.00     0.028 C 
HETATM   11  C21 UNL     1      -0.346  49.364 -20.504  1.00  0.00     0.013 C 
HETATM   12  C22 UNL     1      -1.186  48.770 -19.365  1.00  0.00     0.040 C 
HETATM   13  C23 UNL     1      -2.572  49.434 -19.465  1.00  0.00     0.070 C 
HETATM   14  C24 UNL     1      -3.638  48.571 -20.229  1.00  0.00     0.026 C 
HETATM   15  C25 UNL     1      -3.149  47.417 -21.124  1.00  0.00     0.011 C 
HETATM   16  C26 UNL     1      -4.194  46.960 -22.153  1.00  0.00     0.039 C 
HETATM   17  C27 UNL     1      -5.662  47.106 -21.688  1.00  0.00     0.073 C 
HETATM   18  C28 UNL     1      -6.553  46.610 -22.851  1.00  0.00     0.071 C 
ENDROOT
BRANCH   1  19
HETATM   19  O2  UNL     1      -8.736  46.439 -23.784  1.00  0.00    -0.356 OA
BRANCH  19  20
HETATM   20  C3  UNL     1      -9.629  47.344 -24.438  1.00  0.00     0.263 C 
HETATM   21  O1  UNL     1     -10.832  46.617 -24.720  1.00  0.00    -0.354 OA
HETATM   22  C2  UNL     1     -11.815  47.431 -25.362  1.00  0.00     0.151 C 
HETATM   23  C1  UNL     1     -13.090  46.604 -25.484  1.00  0.00     0.042 C 
HETATM   24  C31 UNL     1     -11.300  47.883 -26.739  1.00  0.00     0.175 C 
HETATM   25  C30 UNL     1      -9.963  48.620 -26.579  1.00  0.00     0.154 C 
HETATM   26  C29 UNL     1      -8.987  47.817 -25.739  1.00  0.00     0.095 C 
BRANCH  24  27
HETATM   27  O9  UNL     1     -12.219  48.777 -27.375  1.00  0.00    -0.390 OA
HETATM   28  H47 UNL     1     -12.964  48.241 -27.701  1.00  0.00     0.210 HD
ENDBRANCH  24  27
BRANCH  25  29
HETATM   29  O8  UNL     1     -10.191  49.894 -25.957  1.00  0.00    -0.393 OA
HETATM   30  H45 UNL     1     -10.996  50.233 -26.400  1.00  0.00     0.210 HD
ENDBRANCH  25  29
ENDBRANCH  19  20
ENDBRANCH   1  19
BRANCH  17  31
HETATM   31  O7  UNL     1      -5.805  46.196 -20.576  1.00  0.00    -0.389 OA
HETATM   32  H39 UNL     1      -5.869  45.291 -20.930  1.00  0.00     0.210 HD
ENDBRANCH  17  31
BRANCH   4  33
HETATM   33  C8  UNL     1      -6.745  48.556 -19.872  1.00  0.00     0.068 C 
HETATM   34  N1  UNL     1      -7.796  47.828 -19.682  1.00  0.00    -0.399 N 
ATOM     35  H1  UNL     1      -8.257  47.316 -20.434  1.00  0.00     0.158 HD
BRANCH  34  36
HETATM   36  C9  UNL     1      -8.272  47.802 -18.289  1.00  0.00     0.144 C 
BRANCH  36  37
HETATM   37  C10 UNL     1      -9.426  48.798 -18.142  1.00  0.00     0.183 C 
BRANCH  37  38
HETATM   38  O3  UNL     1      -9.065  49.865 -17.264  1.00  0.00    -0.399 OA
HETATM   39  H16 UNL     1      -8.794  49.438 -16.425  1.00  0.00     0.209 HD
ENDBRANCH  37  38
ENDBRANCH  36  37
ENDBRANCH  34  36
ENDBRANCH   4  33
BRANCH  13  40
HETATM   40  O6  UNL     1      -3.121  49.601 -18.150  1.00  0.00    -0.389 OA
HETATM   41  H33 UNL     1      -2.410  49.846 -17.531  1.00  0.00     0.210 HD
ENDBRANCH  13  40
BRANCH  10  42
HETATM   42  C17 UNL     1      -0.452  51.533 -21.871  1.00  0.00    -0.045 A 
HETATM   43  C18 UNL     1      -0.670  51.976 -23.109  1.00  0.00     0.087 A 
HETATM   44  C19 UNL     1       0.310  53.025 -23.381  1.00  0.00     0.283 A 
HETATM   45  O4  UNL     1       0.404  53.636 -24.431  1.00  0.00    -0.260 OA
HETATM   46  O5  UNL     1       1.091  53.195 -22.282  1.00  0.00    -0.314 OA
HETATM   47  C20 UNL     1       0.708  52.247 -21.285  1.00  0.00     0.213 A 
ENDBRANCH  10  42
TORSDOF 11
ENDMDL
MODEL 5
REMARK minimizedAffinity -7.10554647
REMARK CNNscore 0.508708894
REMARK CNNaffinity 5.35107422
REMARK  11 active torsions:
REMARK  status: ('A' for Active; 'I' for Inactive)
REMARK    1  A    between atoms: C3_4  and  O2_5 
REMARK    2  A    between atoms: O2_5  and  C4_6 
REMARK    3  A    between atoms: C7_9  and  C8_10 
REMARK    4  A    between atoms: N1_11  and  C9_13 
REMARK    5  A    between atoms: C9_13  and  C10_14 
REMARK    6  A    between atoms: C10_14  and  O3_15 
REMARK    7  A    between atoms: C16_21  and  C17_22 
REMARK    8  A    between atoms: C23_30  and  O6_31 
REMARK    9  A    between atoms: C27_35  and  O7_36 
REMARK   10  A    between atoms: C30_39  and  O8_40 
REMARK   11  A    between atoms: C31_41  and  O9_42 
ROOT
HETATM    1  C4  UNL     1      -2.204  51.837  -9.859  1.00  0.00     0.127 C 
HETATM    2  C5  UNL     1      -1.030  50.860  -9.921  1.00  0.00     0.033 C 
HETATM    3  C6  UNL     1       0.352  51.497  -9.735  1.00  0.00     0.021 C 
HETATM    4  C7  UNL     1       0.487  52.976 -10.177  1.00  0.00     0.026 C 
HETATM    5  C11 UNL     1       1.886  53.529  -9.701  1.00  0.00     0.009 C 
HETATM    6  C12 UNL     1       3.123  52.859 -10.302  1.00  0.00     0.007 C 
HETATM    7  C13 UNL     1       4.358  53.273  -9.502  1.00  0.00     0.013 C 
HETATM    8  C14 UNL     1       4.541  54.806  -9.351  1.00  0.00    -0.005 C 
HETATM    9  C15 UNL     1       5.926  55.154  -9.961  1.00  0.00     0.019 C 
HETATM   10  C16 UNL     1       4.439  55.295  -7.868  1.00  0.00     0.028 C 
HETATM   11  C21 UNL     1       4.184  56.813  -7.992  1.00  0.00     0.013 C 
HETATM   12  C22 UNL     1       3.575  57.044  -9.382  1.00  0.00     0.040 C 
HETATM   13  C23 UNL     1       3.392  55.648 -10.005  1.00  0.00     0.070 C 
HETATM   14  C24 UNL     1       1.941  55.068  -9.852  1.00  0.00     0.026 C 
HETATM   15  C25 UNL     1       1.003  55.693  -8.801  1.00  0.00     0.011 C 
HETATM   16  C26 UNL     1      -0.175  54.785  -8.419  1.00  0.00     0.039 C 
HETATM   17  C27 UNL     1      -0.675  53.865  -9.559  1.00  0.00     0.073 C 
HETATM   18  C28 UNL     1      -1.843  53.030  -8.984  1.00  0.00     0.071 C 
ENDROOT
BRANCH   1  19
HETATM   19  O2  UNL     1      -3.338  51.199  -9.261  1.00  0.00    -0.356 OA
BRANCH  19  20
HETATM   20  C3  UNL     1      -3.760  50.011  -9.934  1.00  0.00     0.263 C 
HETATM   21  O1  UNL     1      -2.885  48.956  -9.517  1.00  0.00    -0.354 OA
HETATM   22  C2  UNL     1      -3.224  47.705 -10.116  1.00  0.00     0.151 C 
HETATM   23  C1  UNL     1      -2.326  46.639  -9.498  1.00  0.00     0.042 C 
HETATM   24  C31 UNL     1      -3.038  47.787 -11.640  1.00  0.00     0.175 C 
HETATM   25  C30 UNL     1      -3.879  48.940 -12.207  1.00  0.00     0.154 C 
HETATM   26  C29 UNL     1      -3.639  50.228 -11.440  1.00  0.00     0.095 C 
BRANCH  24  27
HETATM   27  O9  UNL     1      -3.457  46.580 -12.286  1.00  0.00    -0.390 OA
HETATM   28  H47 UNL     1      -2.769  45.911 -12.122  1.00  0.00     0.210 HD
ENDBRANCH  24  27
BRANCH  25  29
HETATM   29  O8  UNL     1      -5.271  48.595 -12.135  1.00  0.00    -0.393 OA
HETATM   30  H45 UNL     1      -5.299  47.658 -12.417  1.00  0.00     0.210 HD
ENDBRANCH  25  29
ENDBRANCH  19  20
ENDBRANCH   1  19
BRANCH  17  31
HETATM   31  O7  UNL     1      -1.197  54.756 -10.569  1.00  0.00    -0.389 OA
HETATM   32  H39 UNL     1      -2.067  55.078 -10.270  1.00  0.00     0.210 HD
ENDBRANCH  17  31
BRANCH   4  33
HETATM   33  C8  UNL     1       0.449  53.043 -11.712  1.00  0.00     0.068 C 
HETATM   34  N1  UNL     1       0.610  51.992 -12.447  1.00  0.00    -0.399 N 
ATOM     35  H1  UNL     1       0.874  51.084 -12.064  1.00  0.00     0.158 HD
BRANCH  34  36
HETATM   36  C9  UNL     1       0.381  52.215 -13.884  1.00  0.00     0.144 C 
BRANCH  36  37
HETATM   37  C10 UNL     1       1.594  51.700 -14.664  1.00  0.00     0.183 C 
BRANCH  37  38
HETATM   38  O3  UNL     1       1.292  50.465 -15.313  1.00  0.00    -0.399 OA
HETATM   39  H16 UNL     1       0.983  49.862 -14.606  1.00  0.00     0.209 HD
ENDBRANCH  37  38
ENDBRANCH  36  37
ENDBRANCH  34  36
ENDBRANCH   4  33
BRANCH  13  40
HETATM   40  O6  UNL     1       3.601  55.723 -11.422  1.00  0.00    -0.389 OA
HETATM   41  H33 UNL     1       4.326  56.344 -11.610  1.00  0.00     0.210 HD
ENDBRANCH  13  40
BRANCH  10  42
HETATM   42  C17 UNL     1       5.545  54.920  -6.920  1.00  0.00    -0.045 A 
HETATM   43  C18 UNL     1       6.596  55.681  -6.615  1.00  0.00     0.087 A 
HETATM   44  C19 UNL     1       7.428  54.930  -5.677  1.00  0.00     0.283 A 
HETATM   45  O4  UNL     1       8.479  55.325  -5.206  1.00  0.00    -0.260 OA
HETATM   46  O5  UNL     1       6.841  53.729  -5.431  1.00  0.00    -0.314 OA
HETATM   47  C20 UNL     1       5.657  53.616  -6.223  1.00  0.00     0.213 A 
ENDBRANCH  10  42
TORSDOF 11
ENDMDL
MODEL 6
REMARK minimizedAffinity -7.56577015
REMARK CNNscore 0.492127597
REMARK CNNaffinity 6.37432289
REMARK  11 active torsions:
REMARK  status: ('A' for Active; 'I' for Inactive)
REMARK    1  A    between atoms: C3_4  and  O2_5 
REMARK    2  A    between atoms: O2_5  and  C4_6 
REMARK    3  A    between atoms: C7_9  and  C8_10 
REMARK    4  A    between atoms: N1_11  and  C9_13 
REMARK    5  A    between atoms: C9_13  and  C10_14 
REMARK    6  A    between atoms: C10_14  and  O3_15 
REMARK    7  A    between atoms: C16_21  and  C17_22 
REMARK    8  A    between atoms: C23_30  and  O6_31 
REMARK    9  A    between atoms: C27_35  and  O7_36 
REMARK   10  A    between atoms: C30_39  and  O8_40 
REMARK   11  A    between atoms: C31_41  and  O9_42 
ROOT
HETATM    1  C4  UNL     1      -6.250  44.845 -20.803  1.00  0.00     0.127 C 
HETATM    2  C5  UNL     1      -7.011  45.546 -21.928  1.00  0.00     0.033 C 
HETATM    3  C6  UNL     1      -6.317  46.785 -22.502  1.00  0.00     0.021 C 
HETATM    4  C7  UNL     1      -5.383  47.555 -21.535  1.00  0.00     0.026 C 
HETATM    5  C11 UNL     1      -4.583  48.645 -22.351  1.00  0.00     0.009 C 
HETATM    6  C12 UNL     1      -5.414  49.750 -23.006  1.00  0.00     0.007 C 
HETATM    7  C13 UNL     1      -4.542  50.506 -24.009  1.00  0.00     0.013 C 
HETATM    8  C14 UNL     1      -3.211  51.046 -23.422  1.00  0.00    -0.005 C 
HETATM    9  C15 UNL     1      -3.220  52.584 -23.634  1.00  0.00     0.019 C 
HETATM   10  C16 UNL     1      -1.944  50.395 -24.071  1.00  0.00     0.028 C 
HETATM   11  C21 UNL     1      -0.811  50.703 -23.069  1.00  0.00     0.013 C 
HETATM   12  C22 UNL     1      -1.481  50.941 -21.709  1.00  0.00     0.040 C 
HETATM   13  C23 UNL     1      -2.982  50.669 -21.919  1.00  0.00     0.070 C 
HETATM   14  C24 UNL     1      -3.433  49.226 -21.494  1.00  0.00     0.026 C 
HETATM   15  C25 UNL     1      -2.357  48.137 -21.321  1.00  0.00     0.011 C 
HETATM   16  C26 UNL     1      -2.923  46.710 -21.367  1.00  0.00     0.039 C 
HETATM   17  C27 UNL     1      -4.363  46.570 -20.820  1.00  0.00     0.073 C 
HETATM   18  C28 UNL     1      -4.754  45.080 -20.959  1.00  0.00     0.071 C 
ENDROOT
BRANCH   1  19
HETATM   19  O2  UNL     1      -6.469  43.431 -20.875  1.00  0.00    -0.356 OA
BRANCH  19  20
HETATM   20  C3  UNL     1      -5.820  42.687 -19.840  1.00  0.00     0.263 C 
HETATM   21  O1  UNL     1      -5.743  41.327 -20.285  1.00  0.00    -0.354 OA
HETATM   22  C2  UNL     1      -5.091  40.485 -19.334  1.00  0.00     0.151 C 
HETATM   23  C1  UNL     1      -4.940  39.105 -19.965  1.00  0.00     0.042 C 
HETATM   24  C31 UNL     1      -5.916  40.426 -18.037  1.00  0.00     0.175 C 
HETATM   25  C30 UNL     1      -6.133  41.844 -17.492  1.00  0.00     0.154 C 
HETATM   26  C29 UNL     1      -6.659  42.775 -18.569  1.00  0.00     0.095 C 
BRANCH  24  27
HETATM   27  O9  UNL     1      -5.248  39.665 -17.024  1.00  0.00    -0.390 OA
HETATM   28  H47 UNL     1      -5.340  38.725 -17.262  1.00  0.00     0.210 HD
ENDBRANCH  24  27
BRANCH  25  29
HETATM   29  O8  UNL     1      -4.891  42.356 -16.985  1.00  0.00    -0.393 OA
HETATM   30  H45 UNL     1      -4.501  41.598 -16.503  1.00  0.00     0.210 HD
ENDBRANCH  25  29
ENDBRANCH  19  20
ENDBRANCH   1  19
BRANCH  17  31
HETATM   31  O7  UNL     1      -4.274  46.895 -19.416  1.00  0.00    -0.389 OA
HETATM   32  H39 UNL     1      -3.883  46.132 -18.952  1.00  0.00     0.210 HD
ENDBRANCH  17  31
BRANCH   4  33
HETATM   33  C8  UNL     1      -6.242  48.283 -20.489  1.00  0.00     0.068 C 
HETATM   34  N1  UNL     1      -7.530  48.333 -20.575  1.00  0.00    -0.399 N 
ATOM     35  H1  UNL     1      -8.044  47.990 -21.387  1.00  0.00     0.158 HD
BRANCH  34  36
HETATM   36  C9  UNL     1      -8.195  48.929 -19.403  1.00  0.00     0.144 C 
BRANCH  36  37
HETATM   37  C10 UNL     1      -7.478  48.456 -18.136  1.00  0.00     0.183 C 
BRANCH  37  38
HETATM   38  O3  UNL     1      -8.356  48.498 -17.011  1.00  0.00    -0.399 OA
HETATM   39  H16 UNL     1      -8.686  49.420 -16.966  1.00  0.00     0.209 HD
ENDBRANCH  37  38
ENDBRANCH  36  37
ENDBRANCH  34  36
ENDBRANCH   4  33
BRANCH  13  40
HETATM   40  O6  UNL     1      -3.752  51.546 -21.083  1.00  0.00    -0.389 OA
HETATM   41  H33 UNL     1      -3.325  52.420 -21.054  1.00  0.00     0.210 HD
ENDBRANCH  13  40
BRANCH  10  42
HETATM   42  C17 UNL     1      -1.625  50.736 -25.502  1.00  0.00    -0.045 A 
HETATM   43  C18 UNL     1      -0.479  51.259 -25.937  1.00  0.00     0.087 A 
HETATM   44  C19 UNL     1      -0.600  51.447 -27.381  1.00  0.00     0.283 A 
HETATM   45  O4  UNL     1       0.263  51.922 -28.098  1.00  0.00    -0.260 OA
HETATM   46  O5  UNL     1      -1.825  51.015 -27.781  1.00  0.00    -0.314 OA
HETATM   47  C20 UNL     1      -2.568  50.591 -26.637  1.00  0.00     0.213 A 
ENDBRANCH  10  42
TORSDOF 11
ENDMDL
MODEL 7
REMARK minimizedAffinity -8.00229645
REMARK CNNscore 0.483336568
REMARK CNNaffinity 5.84059715
REMARK  11 active torsions:
REMARK  status: ('A' for Active; 'I' for Inactive)
REMARK    1  A    between atoms: C3_4  and  O2_5 
REMARK    2  A    between atoms: O2_5  and  C4_6 
REMARK    3  A    between atoms: C7_9  and  C8_10 
REMARK    4  A    between atoms: N1_11  and  C9_13 
REMARK    5  A    between atoms: C9_13  and  C10_14 
REMARK    6  A    between atoms: C10_14  and  O3_15 
REMARK    7  A    between atoms: C16_21  and  C17_22 
REMARK    8  A    between atoms: C23_30  and  O6_31 
REMARK    9  A    between atoms: C27_35  and  O7_36 
REMARK   10  A    between atoms: C30_39  and  O8_40 
REMARK   11  A    between atoms: C31_41  and  O9_42 
ROOT
HETATM    1  C4  UNL     1      -9.250  47.643 -29.787  1.00  0.00     0.127 C 
HETATM    2  C5  UNL     1     -10.616  48.038 -30.348  1.00  0.00     0.033 C 
HETATM    3  C6  UNL     1     -11.814  47.382 -29.651  1.00  0.00     0.021 C 
HETATM    4  C7  UNL     1     -11.556  45.996 -29.009  1.00  0.00     0.026 C 
HETATM    5  C11 UNL     1     -12.813  45.587 -28.146  1.00  0.00     0.009 C 
HETATM    6  C12 UNL     1     -14.126  45.394 -28.906  1.00  0.00     0.007 C 
HETATM    7  C13 UNL     1     -15.282  45.334 -27.908  1.00  0.00     0.013 C 
HETATM    8  C14 UNL     1     -15.100  44.285 -26.779  1.00  0.00    -0.005 C 
HETATM    9  C15 UNL     1     -16.312  43.317 -26.868  1.00  0.00     0.019 C 
HETATM   10  C16 UNL     1     -14.995  44.925 -25.355  1.00  0.00     0.028 C 
HETATM   11  C21 UNL     1     -14.374  43.809 -24.488  1.00  0.00     0.013 C 
HETATM   12  C22 UNL     1     -13.626  42.874 -25.448  1.00  0.00     0.040 C 
HETATM   13  C23 UNL     1     -13.737  43.515 -26.843  1.00  0.00     0.070 C 
HETATM   14  C24 UNL     1     -12.483  44.366 -27.254  1.00  0.00     0.026 C 
HETATM   15  C25 UNL     1     -11.504  44.818 -26.154  1.00  0.00     0.011 C 
HETATM   16  C26 UNL     1     -10.611  45.993 -26.579  1.00  0.00     0.039 C 
HETATM   17  C27 UNL     1     -10.264  46.026 -28.086  1.00  0.00     0.073 C 
HETATM   18  C28 UNL     1      -9.377  47.272 -28.316  1.00  0.00     0.071 C 
ENDROOT
BRANCH   1  19
HETATM   19  O2  UNL     1      -8.351  48.756 -29.869  1.00  0.00    -0.356 OA
BRANCH  19  20
HETATM   20  C3  UNL     1      -7.350  48.623 -30.881  1.00  0.00     0.263 C 
HETATM   21  O1  UNL     1      -7.957  47.943 -31.987  1.00  0.00    -0.354 OA
HETATM   22  C2  UNL     1      -7.051  47.769 -33.077  1.00  0.00     0.151 C 
HETATM   23  C1  UNL     1      -7.835  47.168 -34.238  1.00  0.00     0.042 C 
HETATM   24  C31 UNL     1      -5.888  46.858 -32.649  1.00  0.00     0.175 C 
HETATM   25  C30 UNL     1      -5.192  47.446 -31.413  1.00  0.00     0.154 C 
HETATM   26  C29 UNL     1      -6.195  47.794 -30.328  1.00  0.00     0.095 C 
BRANCH  24  27
HETATM   27  O9  UNL     1      -4.909  46.733 -33.685  1.00  0.00    -0.390 OA
HETATM   28  H47 UNL     1      -5.279  46.138 -34.361  1.00  0.00     0.210 HD
ENDBRANCH  24  27
BRANCH  25  29
HETATM   29  O8  UNL     1      -4.469  48.628 -31.790  1.00  0.00    -0.393 OA
HETATM   30  H45 UNL     1      -4.046  48.386 -32.640  1.00  0.00     0.210 HD
ENDBRANCH  25  29
ENDBRANCH  19  20
ENDBRANCH   1  19
BRANCH  17  31
HETATM   31  O7  UNL     1      -9.469  44.844 -28.322  1.00  0.00    -0.389 OA
HETATM   32  H39 UNL     1      -8.572  45.007 -27.977  1.00  0.00     0.210 HD
ENDBRANCH  17  31
BRANCH   4  33
HETATM   33  C8  UNL     1     -11.388  44.954 -30.125  1.00  0.00     0.068 C 
HETATM   34  N1  UNL     1     -11.630  45.232 -31.364  1.00  0.00    -0.399 N 
ATOM     35  H1  UNL     1     -12.042  46.116 -31.662  1.00  0.00     0.158 HD
BRANCH  34  36
HETATM   36  C9  UNL     1     -11.260  44.165 -32.310  1.00  0.00     0.144 C 
BRANCH  36  37
HETATM   37  C10 UNL     1      -9.780  44.317 -32.670  1.00  0.00     0.183 C 
BRANCH  37  38
HETATM   38  O3  UNL     1      -9.028  43.194 -32.210  1.00  0.00    -0.399 OA
HETATM   39  H16 UNL     1      -9.203  43.133 -31.248  1.00  0.00     0.209 HD
ENDBRANCH  37  38
ENDBRANCH  36  37
ENDBRANCH  34  36
ENDBRANCH   4  33
BRANCH  13  40
HETATM   40  O6  UNL     1     -13.815  42.486 -27.840  1.00  0.00    -0.389 OA
HETATM   41  H33 UNL     1     -14.354  41.749 -27.502  1.00  0.00     0.210 HD
ENDBRANCH  13  40
BRANCH  10  42
HETATM   42  C17 UNL     1     -16.227  45.562 -24.770  1.00  0.00    -0.045 A 
HETATM   43  C18 UNL     1     -17.044  46.399 -25.408  1.00  0.00     0.087 A 
HETATM   44  C19 UNL     1     -18.095  46.790 -24.471  1.00  0.00     0.283 A 
HETATM   45  O4  UNL     1     -19.003  47.562 -24.723  1.00  0.00    -0.260 OA
HETATM   46  O5  UNL     1     -17.884  46.160 -23.285  1.00  0.00    -0.314 OA
HETATM   47  C20 UNL     1     -16.682  45.394 -23.368  1.00  0.00     0.213 A 
ENDBRANCH  10  42
TORSDOF 11
ENDMDL
MODEL 8
REMARK minimizedAffinity -7.7202363
REMARK CNNscore 0.400670707
REMARK CNNaffinity 6.50232697
REMARK  11 active torsions:
REMARK  status: ('A' for Active; 'I' for Inactive)
REMARK    1  A    between atoms: C3_4  and  O2_5 
REMARK    2  A    between atoms: O2_5  and  C4_6 
REMARK    3  A    between atoms: C7_9  and  C8_10 
REMARK    4  A    between atoms: N1_11  and  C9_13 
REMARK    5  A    between atoms: C9_13  and  C10_14 
REMARK    6  A    between atoms: C10_14  and  O3_15 
REMARK    7  A    between atoms: C16_21  and  C17_22 
REMARK    8  A    between atoms: C23_30  and  O6_31 
REMARK    9  A    between atoms: C27_35  and  O7_36 
REMARK   10  A    between atoms: C30_39  and  O8_40 
REMARK   11  A    between atoms: C31_41  and  O9_42 
ROOT
HETATM    1  C4  UNL     1      -0.184  50.487 -18.263  1.00  0.00     0.127 C 
HETATM    2  C5  UNL     1      -1.243  51.587 -18.178  1.00  0.00     0.033 C 
HETATM    3  C6  UNL     1      -2.600  51.225 -18.792  1.00  0.00     0.021 C 
HETATM    4  C7  UNL     1      -2.573  50.195 -19.950  1.00  0.00     0.026 C 
HETATM    5  C11 UNL     1      -4.054  49.772 -20.295  1.00  0.00     0.009 C 
HETATM    6  C12 UNL     1      -4.974  50.877 -20.817  1.00  0.00     0.007 C 
HETATM    7  C13 UNL     1      -6.421  50.386 -20.782  1.00  0.00     0.013 C 
HETATM    8  C14 UNL     1      -6.658  49.036 -21.509  1.00  0.00    -0.005 C 
HETATM    9  C15 UNL     1      -7.721  49.302 -22.610  1.00  0.00     0.019 C 
HETATM   10  C16 UNL     1      -7.118  47.891 -20.547  1.00  0.00     0.028 C 
HETATM   11  C21 UNL     1      -6.848  46.599 -21.348  1.00  0.00     0.013 C 
HETATM   12  C22 UNL     1      -5.769  46.943 -22.383  1.00  0.00     0.040 C 
HETATM   13  C23 UNL     1      -5.355  48.399 -22.102  1.00  0.00     0.070 C 
HETATM   14  C24 UNL     1      -4.060  48.536 -21.226  1.00  0.00     0.026 C 
HETATM   15  C25 UNL     1      -3.585  47.314 -20.416  1.00  0.00     0.011 C 
HETATM   16  C26 UNL     1      -2.626  47.678 -19.273  1.00  0.00     0.039 C 
HETATM   17  C27 UNL     1      -1.731  48.910 -19.550  1.00  0.00     0.073 C 
HETATM   18  C28 UNL     1      -0.853  49.120 -18.294  1.00  0.00     0.071 C 
ENDROOT
BRANCH   1  19
HETATM   19  O2  UNL     1       0.652  50.526 -17.100  1.00  0.00    -0.356 OA
BRANCH  19  20
HETATM   20  C3  UNL     1      -0.018  50.166 -15.889  1.00  0.00     0.263 C 
HETATM   21  O1  UNL     1       0.056  51.300 -15.015  1.00  0.00    -0.354 OA
HETATM   22  C2  UNL     1      -0.602  51.064 -13.770  1.00  0.00     0.151 C 
HETATM   23  C1  UNL     1      -0.584  52.371 -12.984  1.00  0.00     0.042 C 
HETATM   24  C31 UNL     1       0.113  49.937 -13.007  1.00  0.00     0.175 C 
HETATM   25  C30 UNL     1       0.166  48.671 -13.875  1.00  0.00     0.154 C 
HETATM   26  C29 UNL     1       0.702  48.975 -15.262  1.00  0.00     0.095 C 
BRANCH  24  27
HETATM   27  O9  UNL     1      -0.571  49.607 -11.794  1.00  0.00    -0.390 OA
HETATM   28  H47 UNL     1      -0.382  50.317 -11.154  1.00  0.00     0.210 HD
ENDBRANCH  24  27
BRANCH  25  29
HETATM   29  O8  UNL     1      -1.152  48.113 -13.985  1.00  0.00    -0.393 OA
HETATM   30  H45 UNL     1      -1.517  48.186 -13.079  1.00  0.00     0.210 HD
ENDBRANCH  25  29
ENDBRANCH  19  20
ENDBRANCH   1  19
BRANCH  17  31
HETATM   31  O7  UNL     1      -0.878  48.524 -20.650  1.00  0.00    -0.389 OA
HETATM   32  H39 UNL     1      -0.184  47.934 -20.304  1.00  0.00     0.210 HD
ENDBRANCH  17  31
BRANCH   4  33
HETATM   33  C8  UNL     1      -1.969  50.862 -21.195  1.00  0.00     0.068 C 
HETATM   34  N1  UNL     1      -1.030  51.746 -21.111  1.00  0.00    -0.399 N 
ATOM     35  H1  UNL     1      -0.710  52.130 -20.222  1.00  0.00     0.158 HD
BRANCH  34  36
HETATM   36  C9  UNL     1      -0.462  52.154 -22.408  1.00  0.00     0.144 C 
BRANCH  36  37
HETATM   37  C10 UNL     1       0.798  52.986 -22.155  1.00  0.00     0.183 C 
BRANCH  37  38
HETATM   38  O3  UNL     1       1.351  52.691 -20.872  1.00  0.00    -0.399 OA
HETATM   39  H16 UNL     1       0.630  52.849 -20.229  1.00  0.00     0.209 HD
ENDBRANCH  37  38
ENDBRANCH  36  37
ENDBRANCH  34  36
ENDBRANCH   4  33
BRANCH  13  40
HETATM   40  O6  UNL     1      -5.024  49.051 -23.337  1.00  0.00    -0.389 OA
HETATM   41  H33 UNL     1      -5.633  48.751 -24.035  1.00  0.00     0.210 HD
ENDBRANCH  13  40
BRANCH  10  42
HETATM   42  C17 UNL     1      -8.495  47.979 -19.945  1.00  0.00    -0.045 A 
HETATM   43  C18 UNL     1      -9.612  47.501 -20.493  1.00  0.00     0.087 A 
HETATM   44  C19 UNL     1     -10.717  47.818 -19.590  1.00  0.00     0.283 A 
HETATM   45  O4  UNL     1     -11.885  47.539 -19.792  1.00  0.00    -0.260 OA
HETATM   46  O5  UNL     1     -10.225  48.474 -18.505  1.00  0.00    -0.314 OA
HETATM   47  C20 UNL     1      -8.820  48.667 -18.672  1.00  0.00     0.213 A 
ENDBRANCH  10  42
TORSDOF 11
ENDMDL
MODEL 9
REMARK minimizedAffinity -7.20109463
REMARK CNNscore 0.389745682
REMARK CNNaffinity 6.2777257
REMARK  11 active torsions:
REMARK  status: ('A' for Active; 'I' for Inactive)
REMARK    1  A    between atoms: C3_4  and  O2_5 
REMARK    2  A    between atoms: O2_5  and  C4_6 
REMARK    3  A    between atoms: C7_9  and  C8_10 
REMARK    4  A    between atoms: N1_11  and  C9_13 
REMARK    5  A    between atoms: C9_13  and  C10_14 
REMARK    6  A    between atoms: C10_14  and  O3_15 
REMARK    7  A    between atoms: C16_21  and  C17_22 
REMARK    8  A    between atoms: C23_30  and  O6_31 
REMARK    9  A    between atoms: C27_35  and  O7_36 
REMARK   10  A    between atoms: C30_39  and  O8_40 
REMARK   11  A    between atoms: C31_41  and  O9_42 
ROOT
HETATM    1  C4  UNL     1      -5.428  44.549 -19.934  1.00  0.00     0.127 C 
HETATM    2  C5  UNL     1      -6.471  45.095 -20.910  1.00  0.00     0.033 C 
HETATM    3  C6  UNL     1      -6.057  46.372 -21.649  1.00  0.00     0.021 C 
HETATM    4  C7  UNL     1      -5.057  47.296 -20.909  1.00  0.00     0.026 C 
HETATM    5  C11 UNL     1      -4.568  48.423 -21.901  1.00  0.00     0.009 C 
HETATM    6  C12 UNL     1      -5.638  49.388 -22.416  1.00  0.00     0.007 C 
HETATM    7  C13 UNL     1      -5.075  50.182 -23.594  1.00  0.00     0.013 C 
HETATM    8  C14 UNL     1      -3.732  50.902 -23.298  1.00  0.00    -0.005 C 
HETATM    9  C15 UNL     1      -3.971  52.416 -23.553  1.00  0.00     0.019 C 
HETATM   10  C16 UNL     1      -2.543  50.366 -24.162  1.00  0.00     0.028 C 
HETATM   11  C21 UNL     1      -1.286  50.857 -23.413  1.00  0.00     0.013 C 
HETATM   12  C22 UNL     1      -1.707  51.091 -21.956  1.00  0.00     0.040 C 
HETATM   13  C23 UNL     1      -3.176  50.638 -21.858  1.00  0.00     0.070 C 
HETATM   14  C24 UNL     1      -3.356  49.179 -21.306  1.00  0.00     0.026 C 
HETATM   15  C25 UNL     1      -2.141  48.231 -21.313  1.00  0.00     0.011 C 
HETATM   16  C26 UNL     1      -2.525  46.748 -21.201  1.00  0.00     0.039 C 
HETATM   17  C27 UNL     1      -3.806  46.475 -20.378  1.00  0.00     0.073 C 
HETATM   18  C28 UNL     1      -4.030  44.945 -20.389  1.00  0.00     0.071 C 
ENDROOT
BRANCH   1  19
HETATM   19  O2  UNL     1      -5.481  43.118 -19.917  1.00  0.00    -0.356 OA
BRANCH  19  20
HETATM   20  C3  UNL     1      -5.404  42.547 -18.608  1.00  0.00     0.263 C 
HETATM   21  O1  UNL     1      -5.526  43.625 -17.672  1.00  0.00    -0.354 OA
HETATM   22  C2  UNL     1      -5.482  43.171 -16.318  1.00  0.00     0.151 C 
HETATM   23  C1  UNL     1      -5.760  44.371 -15.420  1.00  0.00     0.042 C 
HETATM   24  C31 UNL     1      -4.109  42.547 -16.020  1.00  0.00     0.175 C 
HETATM   25  C30 UNL     1      -3.824  41.413 -17.015  1.00  0.00     0.154 C 
HETATM   26  C29 UNL     1      -4.050  41.863 -18.446  1.00  0.00     0.095 C 
BRANCH  24  27
HETATM   27  O9  UNL     1      -4.057  41.996 -14.700  1.00  0.00    -0.390 OA
HETATM   28  H47 UNL     1      -3.983  42.742 -14.079  1.00  0.00     0.210 HD
ENDBRANCH  24  27
BRANCH  25  29
HETATM   29  O8  UNL     1      -4.682  40.298 -16.725  1.00  0.00    -0.393 OA
HETATM   30  H45 UNL     1      -4.669  40.236 -15.748  1.00  0.00     0.210 HD
ENDBRANCH  25  29
ENDBRANCH  19  20
ENDBRANCH   1  19
BRANCH  17  31
HETATM   31  O7  UNL     1      -3.490  46.886 -19.030  1.00  0.00    -0.389 OA
HETATM   32  H39 UNL     1      -2.927  46.200 -18.627  1.00  0.00     0.210 HD
ENDBRANCH  17  31
BRANCH   4  33
HETATM   33  C8  UNL     1      -5.783  47.978 -19.739  1.00  0.00     0.068 C 
HETATM   34  N1  UNL     1      -6.317  47.301 -18.777  1.00  0.00    -0.399 N 
ATOM     35  H1  UNL     1      -6.383  46.283 -18.787  1.00  0.00     0.158 HD
BRANCH  34  36
HETATM   36  C9  UNL     1      -6.823  48.122 -17.664  1.00  0.00     0.144 C 
BRANCH  36  37
HETATM   37  C10 UNL     1      -8.113  48.817 -18.109  1.00  0.00     0.183 C 
BRANCH  37  38
HETATM   38  O3  UNL     1      -9.149  48.630 -17.145  1.00  0.00    -0.399 OA
HETATM   39  H16 UNL     1      -9.233  47.661 -17.030  1.00  0.00     0.209 HD
ENDBRANCH  37  38
ENDBRANCH  36  37
ENDBRANCH  34  36
ENDBRANCH   4  33
BRANCH  13  40
HETATM   40  O6  UNL     1      -3.873  51.466 -20.916  1.00  0.00    -0.389 OA
HETATM   41  H33 UNL     1      -3.560  52.384 -20.999  1.00  0.00     0.210 HD
ENDBRANCH  13  40
BRANCH  10  42
HETATM   42  C17 UNL     1      -2.548  50.661 -25.638  1.00  0.00    -0.045 A 
HETATM   43  C18 UNL     1      -3.289  50.034 -26.551  1.00  0.00     0.087 A 
HETATM   44  C19 UNL     1      -2.972  50.617 -27.853  1.00  0.00     0.283 A 
HETATM   45  O4  UNL     1      -3.460  50.266 -28.912  1.00  0.00    -0.260 OA
HETATM   46  O5  UNL     1      -2.048  51.599 -27.683  1.00  0.00    -0.314 OA
HETATM   47  C20 UNL     1      -1.680  51.662 -26.304  1.00  0.00     0.213 A 
ENDBRANCH  10  42
TORSDOF 11
ENDMDL
