MODEL 1
REMARK minimizedAffinity -9.06254578
REMARK  4 active torsions:
REMARK  status: ('A' for Active; 'I' for Inactive)
REMARK    1  A    between atoms: C4_4  and  C5_5 
REMARK    2  A    between atoms: C5_5  and  C6_6 
REMARK    3  A    between atoms: C6_6  and  C7_7 
REMARK    4  A    between atoms: C7_7  and  C9_9 
ROOT
HETATM    1  C9  UNL     1      -2.766   7.863  13.974  1.00  0.00    -0.002 C 
HETATM    2  C10 UNL     1      -2.061   8.517  15.195  1.00  0.00     0.006 C 
HETATM    3  C11 UNL     1      -0.556   8.149  15.102  1.00  0.00     0.011 C 
HETATM    4  C12 UNL     1      -0.377   7.569  13.684  1.00  0.00    -0.032 C 
HETATM    5  C13 UNL     1      -0.222   8.801  12.734  1.00  0.00     0.016 C 
HETATM    6  C14 UNL     1       0.827   6.594  13.443  1.00  0.00     0.004 C 
HETATM    7  C15 UNL     1       2.189   7.200  13.826  1.00  0.00     0.007 C 
HETATM    8  C16 UNL     1       3.216   7.472  12.724  1.00  0.00     0.007 C 
HETATM    9  C17 UNL     1       2.664   7.633  11.299  1.00  0.00     0.010 C 
HETATM   10  C18 UNL     1       3.807   7.797  10.235  1.00  0.00     0.018 C 
HETATM   11  C19 UNL     1       4.598   9.098  10.481  1.00  0.00     0.023 C 
HETATM   12  C20 UNL     1       4.814   6.633  10.217  1.00  0.00     0.023 C 
HETATM   13  C21 UNL     1       3.152   7.875   8.848  1.00  0.00     0.135 C 
HETATM   14  O1  UNL     1       3.366   8.786   8.054  1.00  0.00    -0.297 OA
HETATM   15  C22 UNL     1       2.222   6.747   8.483  1.00  0.00     0.080 C 
HETATM   16  C23 UNL     1       1.112   6.674   9.517  1.00  0.00     0.018 C 
HETATM   17  C24 UNL     1       1.668   6.520  10.925  1.00  0.00    -0.026 A 
HETATM   18  C25 UNL     1       1.862   5.134  11.493  1.00  0.00     0.021 A 
HETATM   19  C26 UNL     1       0.724   5.987  12.022  1.00  0.00    -0.027 A 
HETATM   20  C27 UNL     1      -0.665   5.398  11.700  1.00  0.00     0.011 C 
HETATM   21  C28 UNL     1      -1.850   6.302  12.075  1.00  0.00     0.011 C 
HETATM   22  C29 UNL     1      -1.736   6.781  13.529  1.00  0.00    -0.032 C 
HETATM   23  C30 UNL     1      -1.864   5.536  14.460  1.00  0.00     0.016 C 
ENDROOT
BRANCH   1  24
HETATM   24  C7  UNL     1      -4.253   7.432  14.161  1.00  0.00    -0.014 C 
HETATM   25  C8  UNL     1      -5.255   8.103  13.215  1.00  0.00     0.010 C 
BRANCH  24  26
HETATM   26  C6  UNL     1      -4.364   5.888  14.038  1.00  0.00     0.008 C 
BRANCH  26  27
HETATM   27  C5  UNL     1      -5.650   5.413  13.352  1.00  0.00     0.028 C 
BRANCH  27  28
HETATM   28  C4  UNL     1      -5.403   4.192  12.508  1.00  0.00    -0.025 C 
HETATM   29  C2  UNL     1      -6.218   3.129  12.351  1.00  0.00    -0.091 C 
HETATM   30  C1  UNL     1      -7.545   2.932  13.043  1.00  0.00     0.042 C 
HETATM   31  C3  UNL     1      -5.831   2.001  11.431  1.00  0.00     0.042 C 
ENDBRANCH  27  28
ENDBRANCH  26  27
ENDBRANCH  24  26
ENDBRANCH   1  24
TORSDOF 4
ENDMDL
MODEL 2
REMARK minimizedAffinity -9.02069569
REMARK  4 active torsions:
REMARK  status: ('A' for Active; 'I' for Inactive)
REMARK    1  A    between atoms: C4_4  and  C5_5 
REMARK    2  A    between atoms: C5_5  and  C6_6 
REMARK    3  A    between atoms: C6_6  and  C7_7 
REMARK    4  A    between atoms: C7_7  and  C9_9 
ROOT
HETATM    1  C9  UNL     1      -6.505   7.340  14.084  1.00  0.00    -0.002 C 
HETATM    2  C10 UNL     1      -6.333   8.706  14.805  1.00  0.00     0.006 C 
HETATM    3  C11 UNL     1      -4.833   8.836  15.182  1.00  0.00     0.011 C 
HETATM    4  C12 UNL     1      -4.129   7.708  14.401  1.00  0.00    -0.032 C 
HETATM    5  C13 UNL     1      -3.904   8.264  12.957  1.00  0.00     0.016 C 
HETATM    6  C14 UNL     1      -2.761   7.182  14.957  1.00  0.00     0.004 C 
HETATM    7  C15 UNL     1      -1.709   8.291  15.137  1.00  0.00     0.007 C 
HETATM    8  C16 UNL     1      -0.455   8.273  14.259  1.00  0.00     0.007 C 
HETATM    9  C17 UNL     1      -0.560   7.506  12.931  1.00  0.00     0.010 C 
HETATM   10  C18 UNL     1       0.809   7.457  12.164  1.00  0.00     0.018 C 
HETATM   11  C19 UNL     1       1.249   8.874  11.745  1.00  0.00     0.023 C 
HETATM   12  C20 UNL     1       1.957   6.831  12.977  1.00  0.00     0.023 C 
HETATM   13  C21 UNL     1       0.610   6.610  10.898  1.00  0.00     0.135 C 
HETATM   14  O1  UNL     1       0.899   7.006   9.773  1.00  0.00    -0.297 OA
HETATM   15  C22 UNL     1       0.046   5.228  11.101  1.00  0.00     0.080 C 
HETATM   16  C23 UNL     1      -1.298   5.345  11.797  1.00  0.00     0.018 C 
HETATM   17  C24 UNL     1      -1.186   6.110  13.107  1.00  0.00    -0.026 A 
HETATM   18  C25 UNL     1      -0.941   5.347  14.388  1.00  0.00     0.021 A 
HETATM   19  C26 UNL     1      -2.315   5.942  14.143  1.00  0.00    -0.027 A 
HETATM   20  C27 UNL     1      -3.414   4.869  13.998  1.00  0.00     0.011 C 
HETATM   21  C28 UNL     1      -4.794   5.412  13.594  1.00  0.00     0.011 C 
HETATM   22  C29 UNL     1      -5.217   6.570  14.509  1.00  0.00    -0.032 C 
HETATM   23  C30 UNL     1      -5.410   6.003  15.949  1.00  0.00     0.016 C 
ENDROOT
BRANCH   1  24
HETATM   24  C7  UNL     1      -7.880   6.621  14.243  1.00  0.00    -0.014 C 
HETATM   25  C8  UNL     1      -8.997   7.472  14.858  1.00  0.00     0.010 C 
BRANCH  24  26
HETATM   26  C6  UNL     1      -8.336   6.067  12.867  1.00  0.00     0.008 C 
BRANCH  26  27
HETATM   27  C5  UNL     1      -8.326   4.535  12.782  1.00  0.00     0.028 C 
BRANCH  27  28
HETATM   28  C4  UNL     1      -7.062   4.029  12.142  1.00  0.00    -0.025 C 
HETATM   29  C2  UNL     1      -6.640   2.750  12.068  1.00  0.00    -0.091 C 
HETATM   30  C1  UNL     1      -7.347   1.558  12.665  1.00  0.00     0.042 C 
HETATM   31  C3  UNL     1      -5.359   2.411  11.353  1.00  0.00     0.042 C 
ENDBRANCH  27  28
ENDBRANCH  26  27
ENDBRANCH  24  26
ENDBRANCH   1  24
TORSDOF 4
ENDMDL
MODEL 3
REMARK minimizedAffinity -8.75097084
REMARK  4 active torsions:
REMARK  status: ('A' for Active; 'I' for Inactive)
REMARK    1  A    between atoms: C4_4  and  C5_5 
REMARK    2  A    between atoms: C5_5  and  C6_6 
REMARK    3  A    between atoms: C6_6  and  C7_7 
REMARK    4  A    between atoms: C7_7  and  C9_9 
ROOT
HETATM    1  C9  UNL     1      -4.724   6.107  14.472  1.00  0.00    -0.002 C 
HETATM    2  C10 UNL     1      -3.899   5.388  13.368  1.00  0.00     0.006 C 
HETATM    3  C11 UNL     1      -2.753   6.350  12.959  1.00  0.00     0.011 C 
HETATM    4  C12 UNL     1      -2.752   7.449  14.040  1.00  0.00    -0.032 C 
HETATM    5  C13 UNL     1      -1.946   6.864  15.245  1.00  0.00     0.016 C 
HETATM    6  C14 UNL     1      -2.146   8.845  13.661  1.00  0.00     0.004 C 
HETATM    7  C15 UNL     1      -0.700   8.761  13.143  1.00  0.00     0.007 C 
HETATM    8  C16 UNL     1       0.423   9.386  13.975  1.00  0.00     0.007 C 
HETATM    9  C17 UNL     1       0.140   9.575  15.474  1.00  0.00     0.010 C 
HETATM   10  C18 UNL     1       1.308  10.323  16.209  1.00  0.00     0.018 C 
HETATM   11  C19 UNL     1       2.601   9.483  16.174  1.00  0.00     0.023 C 
HETATM   12  C20 UNL     1       1.633  11.707  15.617  1.00  0.00     0.023 C 
HETATM   13  C21 UNL     1       0.893  10.523  17.674  1.00  0.00     0.135 C 
HETATM   14  O1  UNL     1       1.584  10.166  18.623  1.00  0.00    -0.297 OA
HETATM   15  C22 UNL     1      -0.429  11.209  17.907  1.00  0.00     0.080 C 
HETATM   16  C23 UNL     1      -1.522  10.410  17.218  1.00  0.00     0.018 C 
HETATM   17  C24 UNL     1      -1.231  10.225  15.736  1.00  0.00    -0.026 A 
HETATM   18  C25 UNL     1      -1.774  11.229  14.747  1.00  0.00     0.021 A 
HETATM   19  C26 UNL     1      -2.405   9.851  14.809  1.00  0.00    -0.027 A 
HETATM   20  C27 UNL     1      -3.873   9.886  15.282  1.00  0.00     0.011 C 
HETATM   21  C28 UNL     1      -4.509   8.505  15.513  1.00  0.00     0.011 C 
HETATM   22  C29 UNL     1      -4.304   7.597  14.293  1.00  0.00    -0.032 C 
HETATM   23  C30 UNL     1      -5.091   8.211  13.095  1.00  0.00     0.016 C 
ENDROOT
BRANCH   1  24
HETATM   24  C7  UNL     1      -6.246   5.774  14.550  1.00  0.00    -0.014 C 
HETATM   25  C8  UNL     1      -7.181   6.988  14.602  1.00  0.00     0.010 C 
BRANCH  24  26
HETATM   26  C6  UNL     1      -6.637   4.858  13.360  1.00  0.00     0.008 C 
BRANCH  26  27
HETATM   27  C5  UNL     1      -7.497   3.654  13.761  1.00  0.00     0.028 C 
BRANCH  27  28
HETATM   28  C4  UNL     1      -7.248   2.477  12.858  1.00  0.00    -0.025 C 
HETATM   29  C2  UNL     1      -6.304   2.366  11.902  1.00  0.00    -0.091 C 
HETATM   30  C1  UNL     1      -5.320   3.442  11.512  1.00  0.00     0.042 C 
HETATM   31  C3  UNL     1      -6.168   1.093  11.109  1.00  0.00     0.042 C 
ENDBRANCH  27  28
ENDBRANCH  26  27
ENDBRANCH  24  26
ENDBRANCH   1  24
TORSDOF 4
ENDMDL
MODEL 4
REMARK minimizedAffinity -8.68664646
REMARK  4 active torsions:
REMARK  status: ('A' for Active; 'I' for Inactive)
REMARK    1  A    between atoms: C4_4  and  C5_5 
REMARK    2  A    between atoms: C5_5  and  C6_6 
REMARK    3  A    between atoms: C6_6  and  C7_7 
REMARK    4  A    between atoms: C7_7  and  C9_9 
ROOT
HETATM    1  C9  UNL     1      -1.735   5.517  13.306  1.00  0.00    -0.002 C 
HETATM    2  C10 UNL     1      -1.785   4.976  11.850  1.00  0.00     0.006 C 
HETATM    3  C11 UNL     1      -0.710   5.749  11.041  1.00  0.00     0.011 C 
HETATM    4  C12 UNL     1       0.138   6.477  12.103  1.00  0.00    -0.032 C 
HETATM    5  C13 UNL     1       1.167   5.422  12.627  1.00  0.00     0.016 C 
HETATM    6  C14 UNL     1       0.919   7.761  11.656  1.00  0.00     0.004 C 
HETATM    7  C15 UNL     1       1.857   7.520  10.460  1.00  0.00     0.007 C 
HETATM    8  C16 UNL     1       3.369   7.636  10.668  1.00  0.00     0.007 C 
HETATM    9  C17 UNL     1       3.878   7.455  12.107  1.00  0.00     0.010 C 
HETATM   10  C18 UNL     1       5.423   7.704  12.227  1.00  0.00     0.018 C 
HETATM   11  C19 UNL     1       6.208   6.652  11.416  1.00  0.00     0.023 C 
HETATM   12  C20 UNL     1       5.870   9.096  11.744  1.00  0.00     0.023 C 
HETATM   13  C21 UNL     1       5.810   7.571  13.707  1.00  0.00     0.135 C 
HETATM   14  O1  UNL     1       6.700   6.826  14.105  1.00  0.00    -0.297 OA
HETATM   15  C22 UNL     1       5.041   8.430  14.678  1.00  0.00     0.080 C 
HETATM   16  C23 UNL     1       3.563   8.105  14.553  1.00  0.00     0.018 C 
HETATM   17  C24 UNL     1       3.069   8.282  13.124  1.00  0.00    -0.026 A 
HETATM   18  C25 UNL     1       2.494   9.613  12.703  1.00  0.00     0.021 A 
HETATM   19  C26 UNL     1       1.553   8.439  12.896  1.00  0.00    -0.027 A 
HETATM   20  C27 UNL     1       0.561   8.652  14.059  1.00  0.00     0.011 C 
HETATM   21  C28 UNL     1      -0.307   7.429  14.397  1.00  0.00     0.011 C 
HETATM   22  C29 UNL     1      -0.986   6.874  13.137  1.00  0.00    -0.032 C 
HETATM   23  C30 UNL     1      -1.986   7.950  12.613  1.00  0.00     0.016 C 
ENDROOT
BRANCH   1  24
HETATM   24  C7  UNL     1      -3.069   5.508  14.113  1.00  0.00    -0.014 C 
HETATM   25  C8  UNL     1      -3.081   6.380  15.373  1.00  0.00     0.010 C 
BRANCH  24  26
HETATM   26  C6  UNL     1      -4.242   5.914  13.180  1.00  0.00     0.008 C 
BRANCH  26  27
HETATM   27  C5  UNL     1      -5.459   4.986  13.273  1.00  0.00     0.028 C 
BRANCH  27  28
HETATM   28  C4  UNL     1      -5.296   3.777  12.394  1.00  0.00    -0.025 C 
HETATM   29  C2  UNL     1      -6.188   2.785  12.195  1.00  0.00    -0.091 C 
HETATM   30  C1  UNL     1      -7.536   2.671  12.865  1.00  0.00     0.042 C 
HETATM   31  C3  UNL     1      -5.877   1.660  11.244  1.00  0.00     0.042 C 
ENDBRANCH  27  28
ENDBRANCH  26  27
ENDBRANCH  24  26
ENDBRANCH   1  24
TORSDOF 4
ENDMDL
MODEL 5
REMARK minimizedAffinity -8.62984085
REMARK  4 active torsions:
REMARK  status: ('A' for Active; 'I' for Inactive)
REMARK    1  A    between atoms: C4_4  and  C5_5 
REMARK    2  A    between atoms: C5_5  and  C6_6 
REMARK    3  A    between atoms: C6_6  and  C7_7 
REMARK    4  A    between atoms: C7_7  and  C9_9 
ROOT
HETATM    1  C9  UNL     1      -6.661   7.292  13.956  1.00  0.00    -0.002 C 
HETATM    2  C10 UNL     1      -6.513   8.601  14.781  1.00  0.00     0.006 C 
HETATM    3  C11 UNL     1      -5.031   8.688  15.233  1.00  0.00     0.011 C 
HETATM    4  C12 UNL     1      -4.301   7.611  14.405  1.00  0.00    -0.032 C 
HETATM    5  C13 UNL     1      -4.004   8.266  13.017  1.00  0.00     0.016 C 
HETATM    6  C14 UNL     1      -2.963   7.032  14.983  1.00  0.00     0.004 C 
HETATM    7  C15 UNL     1      -1.912   8.113  15.291  1.00  0.00     0.007 C 
HETATM    8  C16 UNL     1      -0.620   8.145  14.471  1.00  0.00     0.007 C 
HETATM    9  C17 UNL     1      -0.669   7.476  13.088  1.00  0.00     0.010 C 
HETATM   10  C18 UNL     1       0.733   7.467  12.383  1.00  0.00     0.018 C 
HETATM   11  C19 UNL     1       1.203   8.906  12.087  1.00  0.00     0.023 C 
HETATM   12  C20 UNL     1       1.838   6.772  13.199  1.00  0.00     0.023 C 
HETATM   13  C21 UNL     1       0.587   6.716  11.051  1.00  0.00     0.135 C 
HETATM   14  O1  UNL     1       0.929   7.189   9.972  1.00  0.00    -0.297 OA
HETATM   15  C22 UNL     1       0.004   5.328  11.127  1.00  0.00     0.080 C 
HETATM   16  C23 UNL     1      -1.371   5.410  11.768  1.00  0.00     0.018 C 
HETATM   17  C24 UNL     1      -1.313   6.078  13.135  1.00  0.00    -0.026 A 
HETATM   18  C25 UNL     1      -1.133   5.222  14.366  1.00  0.00     0.021 A 
HETATM   19  C26 UNL     1      -2.490   5.848  14.104  1.00  0.00    -0.027 A 
HETATM   20  C27 UNL     1      -3.589   4.800  13.832  1.00  0.00     0.011 C 
HETATM   21  C28 UNL     1      -4.945   5.386  13.405  1.00  0.00     0.011 C 
HETATM   22  C29 UNL     1      -5.401   6.480  14.381  1.00  0.00    -0.032 C 
HETATM   23  C30 UNL     1      -5.664   5.813  15.767  1.00  0.00     0.016 C 
ENDROOT
BRANCH   1  24
HETATM   24  C7  UNL     1      -8.048   6.579  14.000  1.00  0.00    -0.014 C 
HETATM   25  C8  UNL     1      -8.085   5.179  13.378  1.00  0.00     0.010 C 
BRANCH  24  26
HETATM   26  C6  UNL     1      -8.552   6.518  15.467  1.00  0.00     0.008 C 
BRANCH  26  27
HETATM   27  C5  UNL     1      -9.627   7.560  15.797  1.00  0.00     0.028 C 
BRANCH  27  28
HETATM   28  C4  UNL     1     -10.243   8.127  14.547  1.00  0.00    -0.025 C 
HETATM   29  C2  UNL     1     -11.383   7.731  13.945  1.00  0.00    -0.091 C 
HETATM   30  C1  UNL     1     -12.258   6.586  14.394  1.00  0.00     0.042 C 
HETATM   31  C3  UNL     1     -11.880   8.439  12.712  1.00  0.00     0.042 C 
ENDBRANCH  27  28
ENDBRANCH  26  27
ENDBRANCH  24  26
ENDBRANCH   1  24
TORSDOF 4
ENDMDL
MODEL 6
REMARK minimizedAffinity -8.48279858
REMARK  4 active torsions:
REMARK  status: ('A' for Active; 'I' for Inactive)
REMARK    1  A    between atoms: C4_4  and  C5_5 
REMARK    2  A    between atoms: C5_5  and  C6_6 
REMARK    3  A    between atoms: C6_6  and  C7_7 
REMARK    4  A    between atoms: C7_7  and  C9_9 
ROOT
HETATM    1  C9  UNL     1      -5.040   5.925  14.484  1.00  0.00    -0.002 C 
HETATM    2  C10 UNL     1      -4.472   5.091  13.302  1.00  0.00     0.006 C 
HETATM    3  C11 UNL     1      -3.282   5.892  12.711  1.00  0.00     0.011 C 
HETATM    4  C12 UNL     1      -2.994   6.997  13.748  1.00  0.00    -0.032 C 
HETATM    5  C13 UNL     1      -2.109   6.329  14.851  1.00  0.00     0.016 C 
HETATM    6  C14 UNL     1      -2.276   8.297  13.246  1.00  0.00     0.004 C 
HETATM    7  C15 UNL     1      -0.937   8.022  12.541  1.00  0.00     0.007 C 
HETATM    8  C16 UNL     1       0.359   8.509  13.194  1.00  0.00     0.007 C 
HETATM    9  C17 UNL     1       0.312   8.752  14.711  1.00  0.00     0.010 C 
HETATM   10  C18 UNL     1       1.654   9.355  15.258  1.00  0.00     0.018 C 
HETATM   11  C19 UNL     1       2.814   8.354  15.074  1.00  0.00     0.023 C 
HETATM   12  C20 UNL     1       2.065  10.677  14.585  1.00  0.00     0.023 C 
HETATM   13  C21 UNL     1       1.473   9.626  16.759  1.00  0.00     0.135 C 
HETATM   14  O1  UNL     1       2.239   9.196  17.616  1.00  0.00    -0.297 OA
HETATM   15  C22 UNL     1       0.293  10.479  17.146  1.00  0.00     0.080 C 
HETATM   16  C23 UNL     1      -0.976   9.819  16.637  1.00  0.00     0.018 C 
HETATM   17  C24 UNL     1      -0.918   9.577  15.136  1.00  0.00    -0.026 A 
HETATM   18  C25 UNL     1      -1.461  10.629  14.198  1.00  0.00     0.021 A 
HETATM   19  C26 UNL     1      -2.246   9.344  14.388  1.00  0.00    -0.027 A 
HETATM   20  C27 UNL     1      -3.619   9.574  15.053  1.00  0.00     0.011 C 
HETATM   21  C28 UNL     1      -4.384   8.290  15.411  1.00  0.00     0.011 C 
HETATM   22  C29 UNL     1      -4.465   7.346  14.203  1.00  0.00    -0.032 C 
HETATM   23  C30 UNL     1      -5.327   8.040  13.104  1.00  0.00     0.016 C 
ENDROOT
BRANCH   1  24
HETATM   24  C7  UNL     1      -6.566   5.792  14.777  1.00  0.00    -0.014 C 
HETATM   25  C8  UNL     1      -7.246   4.560  14.169  1.00  0.00     0.010 C 
BRANCH  24  26
HETATM   26  C6  UNL     1      -6.804   5.822  16.311  1.00  0.00     0.008 C 
BRANCH  26  27
HETATM   27  C5  UNL     1      -7.622   7.028  16.788  1.00  0.00     0.028 C 
BRANCH  27  28
HETATM   28  C4  UNL     1      -8.960   7.089  16.104  1.00  0.00    -0.025 C 
HETATM   29  C2  UNL     1      -9.474   8.120  15.403  1.00  0.00    -0.091 C 
HETATM   30  C1  UNL     1      -8.809   9.460  15.202  1.00  0.00     0.042 C 
HETATM   31  C3  UNL     1     -10.824   7.998  14.747  1.00  0.00     0.042 C 
ENDBRANCH  27  28
ENDBRANCH  26  27
ENDBRANCH  24  26
ENDBRANCH   1  24
TORSDOF 4
ENDMDL
MODEL 7
REMARK minimizedAffinity -8.34696198
REMARK  4 active torsions:
REMARK  status: ('A' for Active; 'I' for Inactive)
REMARK    1  A    between atoms: C4_4  and  C5_5 
REMARK    2  A    between atoms: C5_5  and  C6_6 
REMARK    3  A    between atoms: C6_6  and  C7_7 
REMARK    4  A    between atoms: C7_7  and  C9_9 
ROOT
HETATM    1  C9  UNL     1      -4.240   7.852  14.022  1.00  0.00    -0.002 C 
HETATM    2  C10 UNL     1      -4.070   9.397  14.054  1.00  0.00     0.006 C 
HETATM    3  C11 UNL     1      -2.546   9.687  14.027  1.00  0.00     0.011 C 
HETATM    4  C12 UNL     1      -1.892   8.338  13.665  1.00  0.00    -0.032 C 
HETATM    5  C13 UNL     1      -1.984   8.222  12.108  1.00  0.00     0.016 C 
HETATM    6  C14 UNL     1      -0.402   8.111  14.098  1.00  0.00     0.004 C 
HETATM    7  C15 UNL     1       0.556   9.198  13.581  1.00  0.00     0.007 C 
HETATM    8  C16 UNL     1       1.627   8.815  12.555  1.00  0.00     0.007 C 
HETATM    9  C17 UNL     1       1.356   7.552  11.722  1.00  0.00     0.010 C 
HETATM   10  C18 UNL     1       2.562   7.189  10.786  1.00  0.00     0.018 C 
HETATM   11  C19 UNL     1       2.785   8.293   9.732  1.00  0.00     0.023 C 
HETATM   12  C20 UNL     1       3.892   6.980  11.533  1.00  0.00     0.023 C 
HETATM   13  C21 UNL     1       2.218   5.880  10.059  1.00  0.00     0.135 C 
HETATM   14  O1  UNL     1       2.260   5.758   8.839  1.00  0.00    -0.297 OA
HETATM   15  C22 UNL     1       1.833   4.713  10.932  1.00  0.00     0.080 C 
HETATM   16  C23 UNL     1       0.631   5.108  11.772  1.00  0.00     0.018 C 
HETATM   17  C24 UNL     1       0.906   6.361  12.589  1.00  0.00    -0.026 A 
HETATM   18  C25 UNL     1       1.449   6.222  13.992  1.00  0.00     0.021 A 
HETATM   19  C26 UNL     1       0.003   6.645  13.807  1.00  0.00    -0.027 A 
HETATM   20  C27 UNL     1      -0.998   5.605  14.351  1.00  0.00     0.011 C 
HETATM   21  C28 UNL     1      -2.474   5.912  14.047  1.00  0.00     0.011 C 
HETATM   22  C29 UNL     1      -2.831   7.348  14.458  1.00  0.00    -0.032 C 
HETATM   23  C30 UNL     1      -2.706   7.451  16.009  1.00  0.00     0.016 C 
ENDROOT
BRANCH   1  24
HETATM   24  C7  UNL     1      -5.490   7.261  14.743  1.00  0.00    -0.014 C 
HETATM   25  C8  UNL     1      -6.479   8.294  15.295  1.00  0.00     0.010 C 
BRANCH  24  26
HETATM   26  C6  UNL     1      -6.227   6.286  13.786  1.00  0.00     0.008 C 
BRANCH  26  27
HETATM   27  C5  UNL     1      -6.792   5.042  14.483  1.00  0.00     0.028 C 
BRANCH  27  28
HETATM   28  C4  UNL     1      -7.044   3.930  13.502  1.00  0.00    -0.025 C 
HETATM   29  C2  UNL     1      -6.146   3.339  12.688  1.00  0.00    -0.091 C 
HETATM   30  C1  UNL     1      -4.690   3.717  12.568  1.00  0.00     0.042 C 
HETATM   31  C3  UNL     1      -6.563   2.206  11.788  1.00  0.00     0.042 C 
ENDBRANCH  27  28
ENDBRANCH  26  27
ENDBRANCH  24  26
ENDBRANCH   1  24
TORSDOF 4
ENDMDL
MODEL 8
REMARK minimizedAffinity -8.11126709
REMARK  4 active torsions:
REMARK  status: ('A' for Active; 'I' for Inactive)
REMARK    1  A    between atoms: C4_4  and  C5_5 
REMARK    2  A    between atoms: C5_5  and  C6_6 
REMARK    3  A    between atoms: C6_6  and  C7_7 
REMARK    4  A    between atoms: C7_7  and  C9_9 
ROOT
HETATM    1  C9  UNL     1      -2.415  10.255  14.445  1.00  0.00    -0.002 C 
HETATM    2  C10 UNL     1      -1.187   9.438  13.956  1.00  0.00     0.006 C 
HETATM    3  C11 UNL     1      -1.569   7.938  14.060  1.00  0.00     0.011 C 
HETATM    4  C12 UNL     1      -3.092   7.932  14.300  1.00  0.00    -0.032 C 
HETATM    5  C13 UNL     1      -3.749   8.089  12.890  1.00  0.00     0.016 C 
HETATM    6  C14 UNL     1      -3.713   6.677  15.006  1.00  0.00     0.004 C 
HETATM    7  C15 UNL     1      -3.394   5.353  14.290  1.00  0.00     0.007 C 
HETATM    8  C16 UNL     1      -4.536   4.567  13.641  1.00  0.00     0.007 C 
HETATM    9  C17 UNL     1      -5.796   5.367  13.277  1.00  0.00     0.010 C 
HETATM   10  C18 UNL     1      -6.943   4.449  12.723  1.00  0.00     0.018 C 
HETATM   11  C19 UNL     1      -6.519   3.790  11.394  1.00  0.00     0.023 C 
HETATM   12  C20 UNL     1      -7.364   3.326  13.688  1.00  0.00     0.023 C 
HETATM   13  C21 UNL     1      -8.172   5.332  12.462  1.00  0.00     0.135 C 
HETATM   14  O1  UNL     1      -8.759   5.366  11.385  1.00  0.00    -0.297 OA
HETATM   15  C22 UNL     1      -8.652   6.168  13.621  1.00  0.00     0.080 C 
HETATM   16  C23 UNL     1      -7.518   7.070  14.076  1.00  0.00     0.018 C 
HETATM   17  C24 UNL     1      -6.273   6.271  14.429  1.00  0.00    -0.026 A 
HETATM   18  C25 UNL     1      -6.068   5.818  15.856  1.00  0.00     0.021 A 
HETATM   19  C26 UNL     1      -5.207   6.945  15.316  1.00  0.00    -0.027 A 
HETATM   20  C27 UNL     1      -5.460   8.287  16.034  1.00  0.00     0.011 C 
HETATM   21  C28 UNL     1      -4.728   9.492  15.421  1.00  0.00     0.011 C 
HETATM   22  C29 UNL     1      -3.234   9.192  15.240  1.00  0.00    -0.032 C 
HETATM   23  C30 UNL     1      -2.602   9.011  16.654  1.00  0.00     0.016 C 
ENDROOT
BRANCH   1  24
HETATM   24  C7  UNL     1      -2.128  11.626  15.130  1.00  0.00    -0.014 C 
HETATM   25  C8  UNL     1      -3.306  12.236  15.898  1.00  0.00     0.010 C 
BRANCH  24  26
HETATM   26  C6  UNL     1      -0.900  11.488  16.071  1.00  0.00     0.008 C 
BRANCH  26  27
HETATM   27  C5  UNL     1      -1.144  12.018  17.489  1.00  0.00     0.028 C 
BRANCH  27  28
HETATM   28  C4  UNL     1      -0.371  11.229  18.510  1.00  0.00    -0.025 C 
HETATM   29  C2  UNL     1       0.331  11.713  19.555  1.00  0.00    -0.091 C 
HETATM   30  C1  UNL     1       0.518  13.174  19.885  1.00  0.00     0.042 C 
HETATM   31  C3  UNL     1       1.020  10.774  20.510  1.00  0.00     0.042 C 
ENDBRANCH  27  28
ENDBRANCH  26  27
ENDBRANCH  24  26
ENDBRANCH   1  24
TORSDOF 4
ENDMDL
MODEL 9
REMARK minimizedAffinity -8.05932522
REMARK  4 active torsions:
REMARK  status: ('A' for Active; 'I' for Inactive)
REMARK    1  A    between atoms: C4_4  and  C5_5 
REMARK    2  A    between atoms: C5_5  and  C6_6 
REMARK    3  A    between atoms: C6_6  and  C7_7 
REMARK    4  A    between atoms: C7_7  and  C9_9 
ROOT
HETATM    1  C9  UNL     1      -3.024   7.601  13.612  1.00  0.00    -0.002 C 
HETATM    2  C10 UNL     1      -2.433   8.264  14.887  1.00  0.00     0.006 C 
HETATM    3  C11 UNL     1      -0.913   7.951  14.899  1.00  0.00     0.011 C 
HETATM    4  C12 UNL     1      -0.611   7.397  13.492  1.00  0.00    -0.032 C 
HETATM    5  C13 UNL     1      -0.434   8.647  12.569  1.00  0.00     0.016 C 
HETATM    6  C14 UNL     1       0.643   6.470  13.328  1.00  0.00     0.004 C 
HETATM    7  C15 UNL     1       1.950   7.118  13.816  1.00  0.00     0.007 C 
HETATM    8  C16 UNL     1       3.043   7.443  12.794  1.00  0.00     0.007 C 
HETATM    9  C17 UNL     1       2.589   7.603  11.334  1.00  0.00     0.010 C 
HETATM   10  C18 UNL     1       3.799   7.822  10.357  1.00  0.00     0.018 C 
HETATM   11  C19 UNL     1       4.521   9.147  10.674  1.00  0.00     0.023 C 
HETATM   12  C20 UNL     1       4.847   6.695  10.400  1.00  0.00     0.023 C 
HETATM   13  C21 UNL     1       3.243   7.895   8.927  1.00  0.00     0.135 C 
HETATM   14  O1  UNL     1       3.480   8.824   8.161  1.00  0.00    -0.297 OA
HETATM   15  C22 UNL     1       2.384   6.739   8.484  1.00  0.00     0.080 C 
HETATM   16  C23 UNL     1       1.206   6.613   9.434  1.00  0.00     0.018 C 
HETATM   17  C24 UNL     1       1.664   6.460  10.877  1.00  0.00    -0.026 A 
HETATM   18  C25 UNL     1       1.868   5.074  11.443  1.00  0.00     0.021 A 
HETATM   19  C26 UNL     1       0.665   5.878  11.897  1.00  0.00    -0.027 A 
HETATM   20  C27 UNL     1      -0.675   5.244  11.469  1.00  0.00     0.011 C 
HETATM   21  C28 UNL     1      -1.917   6.099  11.766  1.00  0.00     0.011 C 
HETATM   22  C29 UNL     1      -1.925   6.563  13.230  1.00  0.00    -0.032 C 
HETATM   23  C30 UNL     1      -2.074   5.302  14.136  1.00  0.00     0.016 C 
ENDROOT
BRANCH   1  24
HETATM   24  C7  UNL     1      -4.503   7.114  13.686  1.00  0.00    -0.014 C 
HETATM   25  C8  UNL     1      -4.754   5.693  13.167  1.00  0.00     0.010 C 
BRANCH  24  26
HETATM   26  C6  UNL     1      -5.017   7.240  15.146  1.00  0.00     0.008 C 
BRANCH  26  27
HETATM   27  C5  UNL     1      -6.237   8.157  15.296  1.00  0.00     0.028 C 
BRANCH  27  28
HETATM   28  C4  UNL     1      -7.506   7.451  14.903  1.00  0.00    -0.025 C 
HETATM   29  C2  UNL     1      -8.762   7.940  14.953  1.00  0.00    -0.091 C 
HETATM   30  C1  UNL     1      -9.151   9.305  15.466  1.00  0.00     0.042 C 
HETATM   31  C3  UNL     1      -9.924   7.106  14.482  1.00  0.00     0.042 C 
ENDBRANCH  27  28
ENDBRANCH  26  27
ENDBRANCH  24  26
ENDBRANCH   1  24
TORSDOF 4
ENDMDL
