MODEL 1
REMARK minimizedAffinity -8.07336998
REMARK CNNscore 0.817199945
REMARK CNNaffinity 7.37168455
REMARK  12 active torsions:
REMARK  status: ('A' for Active; 'I' for Inactive)
REMARK    1  A    between atoms: C4_5  and  C5_6 
REMARK    2  A    between atoms: C5_6  and  O2_7 
REMARK    3  A    between atoms: C5_6  and  C6_8 
REMARK    4  A    between atoms: C6_8  and  O3_10 
REMARK    5  A    between atoms: C6_8  and  C8_11 
REMARK    6  A    between atoms: C11_14  and  O4_15 
REMARK    7  A    between atoms: C17_22  and  O6_23 
REMARK    8  A    between atoms: O6_23  and  C18_24 
REMARK    9  A    between atoms: C18_24  and  C19_25 
REMARK   10  A    between atoms: C19_25  and  C20_26 
REMARK   11  A    between atoms: C35_41  and  C36_42 
REMARK   12  A    between atoms: C36_42  and  O7_43 
ROOT
HETATM    1  C8  UNL     1      -1.828  52.438 -10.264  1.00  0.00     0.034 C 
HETATM    2  C9  UNL     1      -3.170  53.090 -10.719  1.00  0.00     0.012 C 
HETATM    3  C10 UNL     1      -3.454  52.621 -12.162  1.00  0.00     0.044 C 
HETATM    4  C11 UNL     1      -2.580  51.378 -12.306  1.00  0.00     0.089 C 
HETATM    5  C12 UNL     1      -2.270  50.770 -13.649  1.00  0.00    -0.037 C 
HETATM    6  C13 UNL     1      -2.659  51.312 -14.810  1.00  0.00     0.057 C 
HETATM    7  C14 UNL     1      -2.213  50.765 -16.106  1.00  0.00     0.154 C 
HETATM    8  O5  UNL     1      -2.679  51.265 -17.129  1.00  0.00    -0.293 OA
HETATM    9  C15 UNL     1      -1.156  49.659 -16.114  1.00  0.00     0.071 C 
HETATM   10  C16 UNL     1      -1.230  48.894 -17.450  1.00  0.00     0.045 C 
HETATM   11  C17 UNL     1      -2.522  48.088 -17.586  1.00  0.00     0.122 C 
HETATM   12  C26 UNL     1      -2.692  47.131 -16.403  1.00  0.00     0.033 C 
HETATM   13  C27 UNL     1      -2.582  47.844 -15.054  1.00  0.00     0.013 C 
HETATM   14  C28 UNL     1      -1.291  48.710 -14.890  1.00  0.00    -0.026 C 
HETATM   15  C29 UNL     1      -0.074  47.750 -14.828  1.00  0.00     0.016 C 
HETATM   16  C30 UNL     1      -1.406  49.515 -13.541  1.00  0.00     0.026 C 
HETATM   17  C31 UNL     1      -0.078  49.902 -12.839  1.00  0.00     0.011 C 
HETATM   18  C32 UNL     1      -0.300  50.627 -11.483  1.00  0.00     0.014 C 
HETATM   19  C33 UNL     1      -1.255  51.841 -11.608  1.00  0.00    -0.002 C 
HETATM   20  C34 UNL     1      -0.511  52.933 -12.430  1.00  0.00     0.019 C 
ENDROOT
BRANCH   1  21
HETATM   21  C6  UNL     1      -0.910  53.287  -9.310  1.00  0.00     0.087 C 
HETATM   22  C7  UNL     1      -1.361  53.353  -7.844  1.00  0.00     0.049 C 
BRANCH  21  23
HETATM   23  C5  UNL     1       0.626  52.923  -9.376  1.00  0.00     0.181 C 
BRANCH  23  24
HETATM   24  C4  UNL     1       1.633  54.060  -9.648  1.00  0.00     0.159 C 
HETATM   25  O1  UNL     1       2.466  54.338  -8.515  1.00  0.00    -0.382 OA
HETATM   26  C3  UNL     1       3.751  54.780  -8.962  1.00  0.00     0.173 C 
HETATM   27  C2  UNL     1       3.691  54.917 -10.475  1.00  0.00     0.014 C 
HETATM   28  C1  UNL     1       3.311  56.342 -10.894  1.00  0.00     0.012 C 
HETATM   29  C35 UNL     1       2.604  53.893 -10.830  1.00  0.00     0.046 C 
BRANCH  29  30
HETATM   30  C36 UNL     1       3.199  52.487 -10.985  1.00  0.00     0.172 C 
BRANCH  30  31
HETATM   31  O7  UNL     1       2.940  51.995 -12.296  1.00  0.00    -0.400 OA
HETATM   32  H52 UNL     1       3.319  51.104 -12.345  1.00  0.00     0.209 HD
ENDBRANCH  30  31
ENDBRANCH  29  30
ENDBRANCH  23  24
BRANCH  23  33
HETATM   33  O2  UNL     1       0.972  52.173  -8.197  1.00  0.00    -0.390 OA
HETATM   34  H9  UNL     1       0.187  51.617  -8.021  1.00  0.00     0.210 HD
ENDBRANCH  23  33
ENDBRANCH  21  23
BRANCH  21  35
HETATM   35  O3  UNL     1      -0.957  54.649  -9.830  1.00  0.00    -0.387 OA
HETATM   36  H13 UNL     1      -0.682  55.259  -9.118  1.00  0.00     0.210 HD
ENDBRANCH  21  35
ENDBRANCH   1  21
BRANCH   4  37
HETATM   37  O4  UNL     1      -3.296  50.345 -11.599  1.00  0.00    -0.384 OA
HETATM   38  H19 UNL     1      -2.762  50.024 -10.854  1.00  0.00     0.211 HD
ENDBRANCH   4  37
BRANCH  11  39
HETATM   39  O6  UNL     1      -2.449  47.354 -18.814  1.00  0.00    -0.386 OA
BRANCH  39  40
HETATM   40  C18 UNL     1      -2.718  48.167 -19.963  1.00  0.00     0.172 C 
BRANCH  40  41
HETATM   41  C19 UNL     1      -1.521  48.096 -20.913  1.00  0.00     0.064 C 
BRANCH  41  42
HETATM   42  C20 UNL     1      -1.112  49.463 -21.400  1.00  0.00    -0.056 A 
HETATM   43  C21 UNL     1      -1.607  49.966 -22.613  1.00  0.00     0.007 A 
HETATM   44  C22 UNL     1      -1.182  51.209 -23.089  1.00  0.00     0.001 A 
HETATM   45  C23 UNL     1      -0.264  51.965 -22.357  1.00  0.00     0.000 A 
HETATM   46  C24 UNL     1       0.235  51.469 -21.154  1.00  0.00     0.001 A 
HETATM   47  C25 UNL     1      -0.187  50.228 -20.675  1.00  0.00     0.007 A 
ENDBRANCH  41  42
ENDBRANCH  40  41
ENDBRANCH  39  40
ENDBRANCH  11  39
TORSDOF 12
ENDMDL
MODEL 2
REMARK minimizedAffinity -8.72520542
REMARK CNNscore 0.65686518
REMARK CNNaffinity 6.65366554
REMARK  12 active torsions:
REMARK  status: ('A' for Active; 'I' for Inactive)
REMARK    1  A    between atoms: C4_5  and  C5_6 
REMARK    2  A    between atoms: C5_6  and  O2_7 
REMARK    3  A    between atoms: C5_6  and  C6_8 
REMARK    4  A    between atoms: C6_8  and  O3_10 
REMARK    5  A    between atoms: C6_8  and  C8_11 
REMARK    6  A    between atoms: C11_14  and  O4_15 
REMARK    7  A    between atoms: C17_22  and  O6_23 
REMARK    8  A    between atoms: O6_23  and  C18_24 
REMARK    9  A    between atoms: C18_24  and  C19_25 
REMARK   10  A    between atoms: C19_25  and  C20_26 
REMARK   11  A    between atoms: C35_41  and  C36_42 
REMARK   12  A    between atoms: C36_42  and  O7_43 
ROOT
HETATM    1  C8  UNL     1     -11.261  44.476 -34.905  1.00  0.00     0.034 C 
HETATM    2  C9  UNL     1     -11.665  43.270 -34.003  1.00  0.00     0.012 C 
HETATM    3  C10 UNL     1     -10.869  43.383 -32.685  1.00  0.00     0.044 C 
HETATM    4  C11 UNL     1     -10.435  44.847 -32.661  1.00  0.00     0.089 C 
HETATM    5  C12 UNL     1      -9.357  45.345 -31.735  1.00  0.00    -0.037 C 
HETATM    6  C13 UNL     1      -8.645  44.543 -30.934  1.00  0.00     0.057 C 
HETATM    7  C14 UNL     1      -7.502  45.050 -30.150  1.00  0.00     0.154 C 
HETATM    8  O5  UNL     1      -6.950  44.270 -29.374  1.00  0.00    -0.293 OA
HETATM    9  C15 UNL     1      -7.025  46.484 -30.387  1.00  0.00     0.071 C 
HETATM   10  C16 UNL     1      -6.228  46.964 -29.158  1.00  0.00     0.045 C 
HETATM   11  C17 UNL     1      -7.114  47.133 -27.923  1.00  0.00     0.122 C 
HETATM   12  C26 UNL     1      -8.282  48.079 -28.217  1.00  0.00     0.033 C 
HETATM   13  C27 UNL     1      -9.074  47.662 -29.457  1.00  0.00     0.013 C 
HETATM   14  C28 UNL     1      -8.199  47.443 -30.734  1.00  0.00    -0.026 C 
HETATM   15  C29 UNL     1      -7.642  48.821 -31.176  1.00  0.00     0.016 C 
HETATM   16  C30 UNL     1      -9.118  46.848 -31.866  1.00  0.00     0.026 C 
HETATM   17  C31 UNL     1      -8.709  47.146 -33.332  1.00  0.00     0.011 C 
HETATM   18  C32 UNL     1      -9.718  46.581 -34.369  1.00  0.00     0.014 C 
HETATM   19  C33 UNL     1     -10.010  45.074 -34.153  1.00  0.00    -0.002 C 
HETATM   20  C34 UNL     1      -8.714  44.294 -34.517  1.00  0.00     0.019 C 
ENDROOT
BRANCH   1  21
HETATM   21  C6  UNL     1     -11.214  44.220 -36.457  1.00  0.00     0.087 C 
HETATM   22  C7  UNL     1     -11.543  42.787 -36.902  1.00  0.00     0.049 C 
BRANCH  21  23
HETATM   23  C5  UNL     1     -12.049  45.247 -37.321  1.00  0.00     0.181 C 
BRANCH  23  24
HETATM   24  C4  UNL     1     -11.367  46.564 -37.745  1.00  0.00     0.159 C 
HETATM   25  O1  UNL     1     -10.998  46.570 -39.130  1.00  0.00    -0.382 OA
HETATM   26  C3  UNL     1     -11.080  47.903 -39.642  1.00  0.00     0.173 C 
HETATM   27  C2  UNL     1     -11.395  48.827 -38.477  1.00  0.00     0.014 C 
HETATM   28  C1  UNL     1     -10.117  49.393 -37.848  1.00  0.00     0.012 C 
HETATM   29  C35 UNL     1     -12.141  47.876 -37.529  1.00  0.00     0.046 C 
BRANCH  29  30
HETATM   30  C36 UNL     1     -13.635  47.811 -37.876  1.00  0.00     0.172 C 
BRANCH  30  31
HETATM   31  O7  UNL     1     -14.400  48.388 -36.823  1.00  0.00    -0.400 OA
HETATM   32  H52 UNL     1     -15.333  48.314 -37.077  1.00  0.00     0.209 HD
ENDBRANCH  30  31
ENDBRANCH  29  30
ENDBRANCH  23  24
BRANCH  23  33
HETATM   33  O2  UNL     1     -12.612  44.550 -38.447  1.00  0.00    -0.390 OA
HETATM   34  H9  UNL     1     -12.845  43.667 -38.097  1.00  0.00     0.210 HD
ENDBRANCH  23  33
ENDBRANCH  21  23
BRANCH  21  35
HETATM   35  O3  UNL     1      -9.837  44.483 -36.857  1.00  0.00    -0.387 OA
HETATM   36  H13 UNL     1      -9.676  44.042 -37.714  1.00  0.00     0.210 HD
ENDBRANCH  21  35
ENDBRANCH   1  21
BRANCH   4  37
HETATM   37  O4  UNL     1     -11.618  45.570 -32.262  1.00  0.00    -0.384 OA
HETATM   38  H19 UNL     1     -11.885  46.180 -32.969  1.00  0.00     0.211 HD
ENDBRANCH   4  37
BRANCH  11  39
HETATM   39  O6  UNL     1      -6.298  47.662 -26.872  1.00  0.00    -0.386 OA
BRANCH  39  40
HETATM   40  C18 UNL     1      -5.013  48.098 -27.334  1.00  0.00     0.172 C 
BRANCH  40  41
HETATM   41  C19 UNL     1      -4.134  48.424 -26.125  1.00  0.00     0.064 C 
BRANCH  41  42
HETATM   42  C20 UNL     1      -3.111  49.483 -26.448  1.00  0.00    -0.056 A 
HETATM   43  C21 UNL     1      -3.291  50.338 -27.546  1.00  0.00     0.007 A 
HETATM   44  C22 UNL     1      -2.315  51.282 -27.876  1.00  0.00     0.001 A 
HETATM   45  C23 UNL     1      -1.150  51.383 -27.112  1.00  0.00     0.000 A 
HETATM   46  C24 UNL     1      -0.963  50.534 -26.023  1.00  0.00     0.001 A 
HETATM   47  C25 UNL     1      -1.936  49.592 -25.690  1.00  0.00     0.007 A 
ENDBRANCH  41  42
ENDBRANCH  40  41
ENDBRANCH  39  40
ENDBRANCH  11  39
TORSDOF 12
ENDMDL
MODEL 3
REMARK minimizedAffinity -7.97003412
REMARK CNNscore 0.513846695
REMARK CNNaffinity 6.32625198
REMARK  12 active torsions:
REMARK  status: ('A' for Active; 'I' for Inactive)
REMARK    1  A    between atoms: C4_5  and  C5_6 
REMARK    2  A    between atoms: C5_6  and  O2_7 
REMARK    3  A    between atoms: C5_6  and  C6_8 
REMARK    4  A    between atoms: C6_8  and  O3_10 
REMARK    5  A    between atoms: C6_8  and  C8_11 
REMARK    6  A    between atoms: C11_14  and  O4_15 
REMARK    7  A    between atoms: C17_22  and  O6_23 
REMARK    8  A    between atoms: O6_23  and  C18_24 
REMARK    9  A    between atoms: C18_24  and  C19_25 
REMARK   10  A    between atoms: C19_25  and  C20_26 
REMARK   11  A    between atoms: C35_41  and  C36_42 
REMARK   12  A    between atoms: C36_42  and  O7_43 
ROOT
HETATM    1  C8  UNL     1      -3.150  50.108 -19.985  1.00  0.00     0.034 C 
HETATM    2  C9  UNL     1      -4.070  49.203 -19.110  1.00  0.00     0.012 C 
HETATM    3  C10 UNL     1      -3.338  48.940 -17.777  1.00  0.00     0.044 C 
HETATM    4  C11 UNL     1      -2.298  50.057 -17.721  1.00  0.00     0.089 C 
HETATM    5  C12 UNL     1      -1.133  50.017 -16.768  1.00  0.00    -0.037 C 
HETATM    6  C13 UNL     1      -0.872  48.975 -15.967  1.00  0.00     0.057 C 
HETATM    7  C14 UNL     1       0.359  48.914 -15.155  1.00  0.00     0.154 C 
HETATM    8  O5  UNL     1       0.487  47.966 -14.382  1.00  0.00    -0.293 OA
HETATM    9  C15 UNL     1       1.430  49.987 -15.360  1.00  0.00     0.071 C 
HETATM   10  C16 UNL     1       2.328  50.054 -14.109  1.00  0.00     0.045 C 
HETATM   11  C17 UNL     1       1.582  50.592 -12.887  1.00  0.00     0.122 C 
HETATM   12  C26 UNL     1       0.965  51.961 -13.187  1.00  0.00     0.033 C 
HETATM   13  C27 UNL     1       0.099  51.949 -14.448  1.00  0.00     0.013 C 
HETATM   14  C28 UNL     1       0.815  51.371 -15.712  1.00  0.00    -0.026 C 
HETATM   15  C29 UNL     1       1.937  52.360 -16.121  1.00  0.00     0.016 C 
HETATM   16  C30 UNL     1      -0.246  51.256 -16.870  1.00  0.00     0.026 C 
HETATM   17  C31 UNL     1       0.287  51.350 -18.323  1.00  0.00     0.011 C 
HETATM   18  C32 UNL     1      -0.844  51.301 -19.387  1.00  0.00     0.014 C 
HETATM   19  C33 UNL     1      -1.782  50.081 -19.201  1.00  0.00    -0.002 C 
HETATM   20  C34 UNL     1      -0.961  48.807 -19.555  1.00  0.00     0.019 C 
ENDROOT
BRANCH   1  21
HETATM   21  C6  UNL     1      -3.186  49.868 -21.540  1.00  0.00     0.087 C 
HETATM   22  C7  UNL     1      -2.832  48.446 -21.998  1.00  0.00     0.049 C 
BRANCH  21  23
HETATM   23  C5  UNL     1      -4.518  50.337 -22.250  1.00  0.00     0.181 C 
BRANCH  23  24
HETATM   24  C4  UNL     1      -5.603  49.277 -22.531  1.00  0.00     0.159 C 
HETATM   25  O1  UNL     1      -6.905  49.855 -22.697  1.00  0.00    -0.382 OA
HETATM   26  C3  UNL     1      -7.665  49.069 -23.619  1.00  0.00     0.173 C 
HETATM   27  C2  UNL     1      -6.841  47.838 -23.964  1.00  0.00     0.014 C 
HETATM   28  C1  UNL     1      -7.177  46.662 -23.041  1.00  0.00     0.012 C 
HETATM   29  C35 UNL     1      -5.412  48.359 -23.752  1.00  0.00     0.046 C 
BRANCH  29  30
HETATM   30  C36 UNL     1      -4.887  49.060 -25.012  1.00  0.00     0.172 C 
BRANCH  30  31
HETATM   31  O7  UNL     1      -4.981  50.473 -24.853  1.00  0.00    -0.400 OA
HETATM   32  H52 UNL     1      -4.653  50.873 -25.672  1.00  0.00     0.209 HD
ENDBRANCH  30  31
ENDBRANCH  29  30
ENDBRANCH  23  24
BRANCH  23  33
HETATM   33  O2  UNL     1      -5.047  51.467 -21.534  1.00  0.00    -0.390 OA
HETATM   34  H9  UNL     1      -4.258  51.972 -21.253  1.00  0.00     0.210 HD
ENDBRANCH  23  33
ENDBRANCH  21  23
BRANCH  21  35
HETATM   35  O3  UNL     1      -2.175  50.759 -22.098  1.00  0.00    -0.387 OA
HETATM   36  H13 UNL     1      -1.932  50.429 -22.985  1.00  0.00     0.210 HD
ENDBRANCH  21  35
ENDBRANCH   1  21
BRANCH   4  37
HETATM   37  O4  UNL     1      -3.043  51.229 -17.331  1.00  0.00    -0.384 OA
HETATM   38  H19 UNL     1      -2.995  51.899 -18.033  1.00  0.00     0.211 HD
ENDBRANCH   4  37
BRANCH  11  39
HETATM   39  O6  UNL     1       2.524  50.694 -11.813  1.00  0.00    -0.386 OA
BRANCH  39  40
HETATM   40  C18 UNL     1       2.730  52.046 -11.384  1.00  0.00     0.172 C 
BRANCH  40  41
HETATM   41  C19 UNL     1       2.885  52.066  -9.862  1.00  0.00     0.064 C 
BRANCH  41  42
HETATM   42  C20 UNL     1       4.333  52.020  -9.447  1.00  0.00    -0.056 A 
HETATM   43  C21 UNL     1       5.108  53.190  -9.432  1.00  0.00     0.007 A 
HETATM   44  C22 UNL     1       6.465  53.137  -9.101  1.00  0.00     0.001 A 
HETATM   45  C23 UNL     1       7.060  51.915  -8.778  1.00  0.00     0.000 A 
HETATM   46  C24 UNL     1       6.297  50.749  -8.796  1.00  0.00     0.001 A 
HETATM   47  C25 UNL     1       4.943  50.799  -9.125  1.00  0.00     0.007 A 
ENDBRANCH  41  42
ENDBRANCH  40  41
ENDBRANCH  39  40
ENDBRANCH  11  39
TORSDOF 12
ENDMDL
MODEL 4
REMARK minimizedAffinity -8.12919998
REMARK CNNscore 0.449332088
REMARK CNNaffinity 6.35545969
REMARK  12 active torsions:
REMARK  status: ('A' for Active; 'I' for Inactive)
REMARK    1  A    between atoms: C4_5  and  C5_6 
REMARK    2  A    between atoms: C5_6  and  O2_7 
REMARK    3  A    between atoms: C5_6  and  C6_8 
REMARK    4  A    between atoms: C6_8  and  O3_10 
REMARK    5  A    between atoms: C6_8  and  C8_11 
REMARK    6  A    between atoms: C11_14  and  O4_15 
REMARK    7  A    between atoms: C17_22  and  O6_23 
REMARK    8  A    between atoms: O6_23  and  C18_24 
REMARK    9  A    between atoms: C18_24  and  C19_25 
REMARK   10  A    between atoms: C19_25  and  C20_26 
REMARK   11  A    between atoms: C35_41  and  C36_42 
REMARK   12  A    between atoms: C36_42  and  O7_43 
ROOT
HETATM    1  C8  UNL     1     -10.428  44.120 -33.916  1.00  0.00     0.034 C 
HETATM    2  C9  UNL     1      -9.274  43.091 -34.120  1.00  0.00     0.012 C 
HETATM    3  C10 UNL     1      -8.010  43.664 -33.445  1.00  0.00     0.044 C 
HETATM    4  C11 UNL     1      -8.568  44.712 -32.485  1.00  0.00     0.089 C 
HETATM    5  C12 UNL     1      -7.694  45.762 -31.852  1.00  0.00    -0.037 C 
HETATM    6  C13 UNL     1      -6.395  45.912 -32.142  1.00  0.00     0.057 C 
HETATM    7  C14 UNL     1      -5.610  47.043 -31.610  1.00  0.00     0.154 C 
HETATM    8  O5  UNL     1      -4.404  47.066 -31.854  1.00  0.00    -0.293 OA
HETATM    9  C15 UNL     1      -6.338  48.151 -30.846  1.00  0.00     0.071 C 
HETATM   10  C16 UNL     1      -5.329  48.904 -29.958  1.00  0.00     0.045 C 
HETATM   11  C17 UNL     1      -4.801  48.036 -28.815  1.00  0.00     0.122 C 
HETATM   12  C26 UNL     1      -5.955  47.483 -27.976  1.00  0.00     0.033 C 
HETATM   13  C27 UNL     1      -7.004  46.763 -28.826  1.00  0.00     0.013 C 
HETATM   14  C28 UNL     1      -7.542  47.605 -30.028  1.00  0.00    -0.026 C 
HETATM   15  C29 UNL     1      -8.370  48.785 -29.456  1.00  0.00     0.016 C 
HETATM   16  C30 UNL     1      -8.467  46.678 -30.905  1.00  0.00     0.026 C 
HETATM   17  C31 UNL     1      -9.591  47.373 -31.714  1.00  0.00     0.011 C 
HETATM   18  C32 UNL     1     -10.492  46.367 -32.485  1.00  0.00     0.014 C 
HETATM   19  C33 UNL     1      -9.672  45.392 -33.367  1.00  0.00    -0.002 C 
HETATM   20  C34 UNL     1      -9.060  46.223 -34.532  1.00  0.00     0.019 C 
ENDROOT
BRANCH   1  21
HETATM   21  C6  UNL     1     -11.477  44.255 -35.080  1.00  0.00     0.087 C 
HETATM   22  C7  UNL     1     -10.965  44.937 -36.357  1.00  0.00     0.049 C 
BRANCH  21  23
HETATM   23  C5  UNL     1     -12.218  42.911 -35.459  1.00  0.00     0.181 C 
BRANCH  23  24
HETATM   24  C4  UNL     1     -12.247  42.490 -36.943  1.00  0.00     0.159 C 
HETATM   25  O1  UNL     1     -12.301  43.614 -37.831  1.00  0.00    -0.382 OA
HETATM   26  C3  UNL     1     -11.617  43.298 -39.048  1.00  0.00     0.173 C 
HETATM   27  C2  UNL     1     -11.213  41.834 -38.982  1.00  0.00     0.014 C 
HETATM   28  C1  UNL     1     -12.277  40.929 -39.615  1.00  0.00     0.012 C 
HETATM   29  C35 UNL     1     -11.091  41.619 -37.466  1.00  0.00     0.046 C 
BRANCH  29  30
HETATM   30  C36 UNL     1      -9.698  42.023 -36.962  1.00  0.00     0.172 C 
BRANCH  30  31
HETATM   31  O7  UNL     1      -8.727  41.759 -37.970  1.00  0.00    -0.400 OA
HETATM   32  H52 UNL     1      -7.865  42.014 -37.607  1.00  0.00     0.209 HD
ENDBRANCH  30  31
ENDBRANCH  29  30
ENDBRANCH  23  24
BRANCH  23  33
HETATM   33  O2  UNL     1     -11.721  41.858 -34.614  1.00  0.00    -0.390 OA
HETATM   34  H9  UNL     1     -11.573  42.286 -33.748  1.00  0.00     0.210 HD
ENDBRANCH  23  33
ENDBRANCH  21  23
BRANCH  21  35
HETATM   35  O3  UNL     1     -12.546  45.092 -34.551  1.00  0.00    -0.387 OA
HETATM   36  H13 UNL     1     -13.045  45.466 -35.304  1.00  0.00     0.210 HD
ENDBRANCH  21  35
ENDBRANCH   1  21
BRANCH   4  37
HETATM   37  O4  UNL     1      -9.081  43.950 -31.372  1.00  0.00    -0.384 OA
HETATM   38  H19 UNL     1     -10.038  44.090 -31.291  1.00  0.00     0.211 HD
ENDBRANCH   4  37
BRANCH  11  39
HETATM   39  O6  UNL     1      -3.945  48.853 -28.008  1.00  0.00    -0.386 OA
BRANCH  39  40
HETATM   40  C18 UNL     1      -3.987  48.498 -26.620  1.00  0.00     0.172 C 
BRANCH  40  41
HETATM   41  C19 UNL     1      -2.644  48.848 -25.977  1.00  0.00     0.064 C 
BRANCH  41  42
HETATM   42  C20 UNL     1      -2.752  50.055 -25.080  1.00  0.00    -0.056 A 
HETATM   43  C21 UNL     1      -1.960  50.159 -23.926  1.00  0.00     0.007 A 
HETATM   44  C22 UNL     1      -2.102  51.252 -23.067  1.00  0.00     0.001 A 
HETATM   45  C23 UNL     1      -3.032  52.254 -23.353  1.00  0.00     0.000 A 
HETATM   46  C24 UNL     1      -3.825  52.154 -24.495  1.00  0.00     0.001 A 
HETATM   47  C25 UNL     1      -3.685  51.064 -25.355  1.00  0.00     0.007 A 
ENDBRANCH  41  42
ENDBRANCH  40  41
ENDBRANCH  39  40
ENDBRANCH  11  39
TORSDOF 12
ENDMDL
MODEL 5
REMARK minimizedAffinity -9.60537434
REMARK CNNscore 0.426844329
REMARK CNNaffinity 7.30498552
REMARK  12 active torsions:
REMARK  status: ('A' for Active; 'I' for Inactive)
REMARK    1  A    between atoms: C4_5  and  C5_6 
REMARK    2  A    between atoms: C5_6  and  O2_7 
REMARK    3  A    between atoms: C5_6  and  C6_8 
REMARK    4  A    between atoms: C6_8  and  O3_10 
REMARK    5  A    between atoms: C6_8  and  C8_11 
REMARK    6  A    between atoms: C11_14  and  O4_15 
REMARK    7  A    between atoms: C17_22  and  O6_23 
REMARK    8  A    between atoms: O6_23  and  C18_24 
REMARK    9  A    between atoms: C18_24  and  C19_25 
REMARK   10  A    between atoms: C19_25  and  C20_26 
REMARK   11  A    between atoms: C35_41  and  C36_42 
REMARK   12  A    between atoms: C36_42  and  O7_43 
ROOT
HETATM    1  C8  UNL     1      -2.117  51.365 -21.261  1.00  0.00     0.034 C 
HETATM    2  C9  UNL     1      -3.221  50.325 -20.897  1.00  0.00     0.012 C 
HETATM    3  C10 UNL     1      -2.871  49.735 -19.514  1.00  0.00     0.044 C 
HETATM    4  C11 UNL     1      -1.908  50.764 -18.926  1.00  0.00     0.089 C 
HETATM    5  C12 UNL     1      -1.043  50.458 -17.732  1.00  0.00    -0.037 C 
HETATM    6  C13 UNL     1      -0.987  49.251 -17.153  1.00  0.00     0.057 C 
HETATM    7  C14 UNL     1      -0.021  48.954 -16.078  1.00  0.00     0.154 C 
HETATM    8  O5  UNL     1      -0.087  47.850 -15.539  1.00  0.00    -0.293 OA
HETATM    9  C15 UNL     1       1.044  49.998 -15.736  1.00  0.00     0.071 C 
HETATM   10  C16 UNL     1       1.570  49.740 -14.310  1.00  0.00     0.045 C 
HETATM   11  C17 UNL     1       0.510  50.018 -13.243  1.00  0.00     0.122 C 
HETATM   12  C26 UNL     1      -0.030  51.444 -13.372  1.00  0.00     0.033 C 
HETATM   13  C27 UNL     1      -0.523  51.757 -14.787  1.00  0.00     0.013 C 
HETATM   14  C28 UNL     1       0.519  51.451 -15.911  1.00  0.00    -0.026 C 
HETATM   15  C29 UNL     1       1.690  52.457 -15.766  1.00  0.00     0.016 C 
HETATM   16  C30 UNL     1      -0.187  51.648 -17.305  1.00  0.00     0.026 C 
HETATM   17  C31 UNL     1       0.717  52.046 -18.500  1.00  0.00     0.011 C 
HETATM   18  C32 UNL     1      -0.083  52.290 -19.810  1.00  0.00     0.014 C 
HETATM   19  C33 UNL     1      -1.011  51.101 -20.167  1.00  0.00    -0.002 C 
HETATM   20  C34 UNL     1      -0.100  49.906 -20.572  1.00  0.00     0.019 C 
ENDROOT
BRANCH   1  21
HETATM   21  C6  UNL     1      -1.727  51.487 -22.780  1.00  0.00     0.087 C 
HETATM   22  C7  UNL     1      -2.673  52.337 -23.641  1.00  0.00     0.049 C 
BRANCH  21  23
HETATM   23  C5  UNL     1      -0.232  51.927 -23.044  1.00  0.00     0.181 C 
BRANCH  23  24
HETATM   24  C4  UNL     1       0.386  51.614 -24.422  1.00  0.00     0.159 C 
HETATM   25  O1  UNL     1      -0.509  50.885 -25.272  1.00  0.00    -0.382 OA
HETATM   26  C3  UNL     1      -0.270  51.241 -26.637  1.00  0.00     0.173 C 
HETATM   27  C2  UNL     1       0.943  52.157 -26.670  1.00  0.00     0.014 C 
HETATM   28  C1  UNL     1       2.237  51.366 -26.889  1.00  0.00     0.012 C 
HETATM   29  C35 UNL     1       0.878  52.797 -25.275  1.00  0.00     0.046 C 
BRANCH  29  30
HETATM   30  C36 UNL     1      -0.044  54.023 -25.273  1.00  0.00     0.172 C 
BRANCH  30  31
HETATM   31  O7  UNL     1       0.294  54.882 -26.357  1.00  0.00    -0.400 OA
HETATM   32  H52 UNL     1      -0.301  55.646 -26.310  1.00  0.00     0.209 HD
ENDBRANCH  30  31
ENDBRANCH  29  30
ENDBRANCH  23  24
BRANCH  23  33
HETATM   33  O2  UNL     1      -0.095  53.318 -22.700  1.00  0.00    -0.390 OA
HETATM   34  H9  UNL     1      -0.670  53.435 -21.918  1.00  0.00     0.210 HD
ENDBRANCH  23  33
ENDBRANCH  21  23
BRANCH  21  35
HETATM   35  O3  UNL     1      -1.777  50.129 -23.309  1.00  0.00    -0.387 OA
HETATM   36  H13 UNL     1      -1.862  50.181 -24.281  1.00  0.00     0.210 HD
ENDBRANCH  21  35
ENDBRANCH   1  21
BRANCH   4  37
HETATM   37  O4  UNL     1      -2.754  51.848 -18.491  1.00  0.00    -0.384 OA
HETATM   38  H19 UNL     1      -2.531  52.657 -18.980  1.00  0.00     0.211 HD
ENDBRANCH   4  37
BRANCH  11  39
HETATM   39  O6  UNL     1       1.124  49.832 -11.962  1.00  0.00    -0.386 OA
BRANCH  39  40
HETATM   40  C18 UNL     1       1.145  51.032 -11.179  1.00  0.00     0.172 C 
BRANCH  40  41
HETATM   41  C19 UNL     1       2.590  51.518 -11.051  1.00  0.00     0.064 C 
BRANCH  41  42
HETATM   42  C20 UNL     1       2.661  53.006 -10.822  1.00  0.00    -0.056 A 
HETATM   43  C21 UNL     1       1.492  53.783 -10.811  1.00  0.00     0.007 A 
HETATM   44  C22 UNL     1       1.565  55.169 -10.654  1.00  0.00     0.001 A 
HETATM   45  C23 UNL     1       2.805  55.794 -10.502  1.00  0.00     0.000 A 
HETATM   46  C24 UNL     1       3.970  55.029 -10.517  1.00  0.00     0.001 A 
HETATM   47  C25 UNL     1       3.901  53.644 -10.673  1.00  0.00     0.007 A 
ENDBRANCH  41  42
ENDBRANCH  40  41
ENDBRANCH  39  40
ENDBRANCH  11  39
TORSDOF 12
ENDMDL
MODEL 6
REMARK minimizedAffinity -8.38869953
REMARK CNNscore 0.398440242
REMARK CNNaffinity 6.60643578
REMARK  12 active torsions:
REMARK  status: ('A' for Active; 'I' for Inactive)
REMARK    1  A    between atoms: C4_5  and  C5_6 
REMARK    2  A    between atoms: C5_6  and  O2_7 
REMARK    3  A    between atoms: C5_6  and  C6_8 
REMARK    4  A    between atoms: C6_8  and  O3_10 
REMARK    5  A    between atoms: C6_8  and  C8_11 
REMARK    6  A    between atoms: C11_14  and  O4_15 
REMARK    7  A    between atoms: C17_22  and  O6_23 
REMARK    8  A    between atoms: O6_23  and  C18_24 
REMARK    9  A    between atoms: C18_24  and  C19_25 
REMARK   10  A    between atoms: C19_25  and  C20_26 
REMARK   11  A    between atoms: C35_41  and  C36_42 
REMARK   12  A    between atoms: C36_42  and  O7_43 
ROOT
HETATM    1  C8  UNL     1      -0.821  54.117  -8.591  1.00  0.00     0.034 C 
HETATM    2  C9  UNL     1      -0.146  55.252  -9.420  1.00  0.00     0.012 C 
HETATM    3  C10 UNL     1       0.013  54.744 -10.868  1.00  0.00     0.044 C 
HETATM    4  C11 UNL     1      -0.982  53.589 -10.947  1.00  0.00     0.089 C 
HETATM    5  C12 UNL     1      -0.943  52.576 -12.061  1.00  0.00    -0.037 C 
HETATM    6  C13 UNL     1       0.004  52.558 -13.007  1.00  0.00     0.057 C 
HETATM    7  C14 UNL     1       0.088  51.464 -13.995  1.00  0.00     0.154 C 
HETATM    8  O5  UNL     1       0.934  51.561 -14.884  1.00  0.00    -0.293 OA
HETATM    9  C15 UNL     1      -0.825  50.248 -13.827  1.00  0.00     0.071 C 
HETATM   10  C16 UNL     1      -0.961  49.524 -15.181  1.00  0.00     0.045 C 
HETATM   11  C17 UNL     1      -1.735  50.353 -16.207  1.00  0.00     0.122 C 
HETATM   12  C26 UNL     1      -3.110  50.746 -15.661  1.00  0.00     0.033 C 
HETATM   13  C27 UNL     1      -3.023  51.431 -14.296  1.00  0.00     0.013 C 
HETATM   14  C28 UNL     1      -2.208  50.631 -13.228  1.00  0.00    -0.026 C 
HETATM   15  C29 UNL     1      -3.005  49.348 -12.877  1.00  0.00     0.016 C 
HETATM   16  C30 UNL     1      -2.055  51.534 -11.947  1.00  0.00     0.026 C 
HETATM   17  C31 UNL     1      -1.895  50.803 -10.589  1.00  0.00     0.011 C 
HETATM   18  C32 UNL     1      -1.827  51.779  -9.381  1.00  0.00     0.014 C 
HETATM   19  C33 UNL     1      -0.751  52.880  -9.567  1.00  0.00    -0.002 C 
HETATM   20  C34 UNL     1       0.640  52.186  -9.491  1.00  0.00     0.019 C 
ENDROOT
BRANCH   1  21
HETATM   21  C6  UNL     1      -0.381  53.974  -7.087  1.00  0.00     0.087 C 
HETATM   22  C7  UNL     1      -1.172  52.950  -6.260  1.00  0.00     0.049 C 
BRANCH  21  23
HETATM   23  C5  UNL     1       1.168  53.745  -6.872  1.00  0.00     0.181 C 
BRANCH  23  24
HETATM   24  C4  UNL     1       2.113  54.952  -7.044  1.00  0.00     0.159 C 
HETATM   25  O1  UNL     1       2.672  55.392  -5.800  1.00  0.00    -0.382 OA
HETATM   26  C3  UNL     1       3.982  55.925  -6.025  1.00  0.00     0.173 C 
HETATM   27  C2  UNL     1       4.220  55.944  -7.526  1.00  0.00     0.014 C 
HETATM   28  C1  UNL     1       3.819  57.289  -8.141  1.00  0.00     0.012 C 
HETATM   29  C35 UNL     1       3.314  54.794  -7.992  1.00  0.00     0.046 C 
BRANCH  29  30
HETATM   30  C36 UNL     1       4.041  53.446  -7.898  1.00  0.00     0.172 C 
BRANCH  30  31
HETATM   31  O7  UNL     1       5.325  53.547  -8.505  1.00  0.00    -0.400 OA
HETATM   32  H52 UNL     1       5.742  52.674  -8.435  1.00  0.00     0.209 HD
ENDBRANCH  30  31
ENDBRANCH  29  30
ENDBRANCH  23  24
BRANCH  23  33
HETATM   33  O2  UNL     1       1.364  53.088  -5.606  1.00  0.00    -0.390 OA
HETATM   34  H9  UNL     1       0.607  52.474  -5.528  1.00  0.00     0.210 HD
ENDBRANCH  23  33
ENDBRANCH  21  23
BRANCH  21  35
HETATM   35  O3  UNL     1      -0.616  55.280  -6.483  1.00  0.00    -0.387 OA
HETATM   36  H13 UNL     1      -0.670  55.165  -5.514  1.00  0.00     0.210 HD
ENDBRANCH  21  35
ENDBRANCH   1  21
BRANCH   4  37
HETATM   37  O4  UNL     1      -2.269  54.225 -11.082  1.00  0.00    -0.384 OA
HETATM   38  H19 UNL     1      -2.829  53.999 -10.322  1.00  0.00     0.211 HD
ENDBRANCH   4  37
BRANCH  11  39
HETATM   39  O6  UNL     1      -1.877  49.558 -17.390  1.00  0.00    -0.386 OA
BRANCH  39  40
HETATM   40  C18 UNL     1      -1.094  50.048 -18.485  1.00  0.00     0.172 C 
BRANCH  40  41
HETATM   41  C19 UNL     1      -1.254  51.567 -18.570  1.00  0.00     0.064 C 
BRANCH  41  42
HETATM   42  C20 UNL     1      -0.343  52.168 -19.610  1.00  0.00    -0.056 A 
HETATM   43  C21 UNL     1       0.179  53.460 -19.441  1.00  0.00     0.007 A 
HETATM   44  C22 UNL     1       0.977  54.036 -20.433  1.00  0.00     0.001 A 
HETATM   45  C23 UNL     1       1.266  53.327 -21.601  1.00  0.00     0.000 A 
HETATM   46  C24 UNL     1       0.746  52.045 -21.777  1.00  0.00     0.001 A 
HETATM   47  C25 UNL     1      -0.050  51.467 -20.789  1.00  0.00     0.007 A 
ENDBRANCH  41  42
ENDBRANCH  40  41
ENDBRANCH  39  40
ENDBRANCH  11  39
TORSDOF 12
ENDMDL
MODEL 7
REMARK minimizedAffinity -9.72375393
REMARK CNNscore 0.383988529
REMARK CNNaffinity 7.41516066
REMARK  12 active torsions:
REMARK  status: ('A' for Active; 'I' for Inactive)
REMARK    1  A    between atoms: C4_5  and  C5_6 
REMARK    2  A    between atoms: C5_6  and  O2_7 
REMARK    3  A    between atoms: C5_6  and  C6_8 
REMARK    4  A    between atoms: C6_8  and  O3_10 
REMARK    5  A    between atoms: C6_8  and  C8_11 
REMARK    6  A    between atoms: C11_14  and  O4_15 
REMARK    7  A    between atoms: C17_22  and  O6_23 
REMARK    8  A    between atoms: O6_23  and  C18_24 
REMARK    9  A    between atoms: C18_24  and  C19_25 
REMARK   10  A    between atoms: C19_25  and  C20_26 
REMARK   11  A    between atoms: C35_41  and  C36_42 
REMARK   12  A    between atoms: C36_42  and  O7_43 
ROOT
HETATM    1  C8  UNL     1      -3.615  50.067 -24.761  1.00  0.00     0.034 C 
HETATM    2  C9  UNL     1      -4.967  49.387 -24.386  1.00  0.00     0.012 C 
HETATM    3  C10 UNL     1      -4.894  48.987 -22.898  1.00  0.00     0.044 C 
HETATM    4  C11 UNL     1      -3.762  49.856 -22.355  1.00  0.00     0.089 C 
HETATM    5  C12 UNL     1      -3.106  49.577 -21.029  1.00  0.00    -0.037 C 
HETATM    6  C13 UNL     1      -3.398  48.511 -20.272  1.00  0.00     0.057 C 
HETATM    7  C14 UNL     1      -2.631  48.196 -19.051  1.00  0.00     0.154 C 
HETATM    8  O5  UNL     1      -3.013  47.249 -18.364  1.00  0.00    -0.293 OA
HETATM    9  C15 UNL     1      -1.376  49.014 -18.739  1.00  0.00     0.071 C 
HETATM   10  C16 UNL     1      -1.056  48.899 -17.235  1.00  0.00     0.045 C 
HETATM   11  C17 UNL     1      -2.103  49.595 -16.364  1.00  0.00     0.122 C 
HETATM   12  C26 UNL     1      -2.263  51.061 -16.775  1.00  0.00     0.033 C 
HETATM   13  C27 UNL     1      -2.539  51.223 -18.271  1.00  0.00     0.013 C 
HETATM   14  C28 UNL     1      -1.511  50.494 -19.196  1.00  0.00    -0.026 C 
HETATM   15  C29 UNL     1      -0.146  51.216 -19.058  1.00  0.00     0.016 C 
HETATM   16  C30 UNL     1      -2.024  50.597 -20.681  1.00  0.00     0.026 C 
HETATM   17  C31 UNL     1      -0.949  50.562 -21.799  1.00  0.00     0.011 C 
HETATM   18  C32 UNL     1      -1.549  50.745 -23.221  1.00  0.00     0.014 C 
HETATM   19  C33 UNL     1      -2.706  49.756 -23.509  1.00  0.00    -0.002 C 
HETATM   20  C34 UNL     1      -2.085  48.332 -23.611  1.00  0.00     0.019 C 
ENDROOT
BRANCH   1  21
HETATM   21  C6  UNL     1      -3.076  49.826 -26.220  1.00  0.00     0.087 C 
HETATM   22  C7  UNL     1      -4.079  49.202 -27.201  1.00  0.00     0.049 C 
BRANCH  21  23
HETATM   23  C5  UNL     1      -2.395  51.086 -26.888  1.00  0.00     0.181 C 
BRANCH  23  24
HETATM   24  C4  UNL     1      -0.855  51.128 -26.961  1.00  0.00     0.159 C 
HETATM   25  O1  UNL     1      -0.375  51.395 -28.285  1.00  0.00    -0.382 OA
HETATM   26  C3  UNL     1       0.854  52.124 -28.211  1.00  0.00     0.173 C 
HETATM   27  C2  UNL     1       1.249  52.215 -26.746  1.00  0.00     0.014 C 
HETATM   28  C1  UNL     1       2.176  51.063 -26.343  1.00  0.00     0.012 C 
HETATM   29  C35 UNL     1      -0.120  52.132 -26.056  1.00  0.00     0.046 C 
BRANCH  29  30
HETATM   30  C36 UNL     1      -0.775  53.517 -25.962  1.00  0.00     0.172 C 
BRANCH  30  31
HETATM   31  O7  UNL     1       0.228  54.528 -25.998  1.00  0.00    -0.400 OA
HETATM   32  H52 UNL     1      -0.226  55.381 -25.923  1.00  0.00     0.209 HD
ENDBRANCH  30  31
ENDBRANCH  29  30
ENDBRANCH  23  24
BRANCH  23  33
HETATM   33  O2  UNL     1      -2.998  51.304 -28.177  1.00  0.00    -0.390 OA
HETATM   34  H9  UNL     1      -3.940  51.075 -28.050  1.00  0.00     0.210 HD
ENDBRANCH  23  33
ENDBRANCH  21  23
BRANCH  21  35
HETATM   35  O3  UNL     1      -1.974  48.881 -26.080  1.00  0.00    -0.387 OA
HETATM   36  H13 UNL     1      -1.821  48.459 -26.948  1.00  0.00     0.210 HD
ENDBRANCH  21  35
ENDBRANCH   1  21
BRANCH   4  37
HETATM   37  O4  UNL     1      -4.351  51.164 -22.198  1.00  0.00    -0.384 OA
HETATM   38  H19 UNL     1      -3.894  51.801 -22.772  1.00  0.00     0.211 HD
ENDBRANCH   4  37
BRANCH  11  39
HETATM   39  O6  UNL     1      -1.666  49.504 -15.004  1.00  0.00    -0.386 OA
BRANCH  39  40
HETATM   40  C18 UNL     1      -0.886  50.635 -14.595  1.00  0.00     0.172 C 
BRANCH  40  41
HETATM   41  C19 UNL     1       0.522  50.162 -14.229  1.00  0.00     0.064 C 
BRANCH  41  42
HETATM   42  C20 UNL     1       1.584  51.012 -14.879  1.00  0.00    -0.056 A 
HETATM   43  C21 UNL     1       1.270  51.831 -15.974  1.00  0.00     0.007 A 
HETATM   44  C22 UNL     1       2.267  52.576 -16.610  1.00  0.00     0.001 A 
HETATM   45  C23 UNL     1       3.586  52.513 -16.156  1.00  0.00     0.000 A 
HETATM   46  C24 UNL     1       3.905  51.698 -15.071  1.00  0.00     0.001 A 
HETATM   47  C25 UNL     1       2.912  50.954 -14.434  1.00  0.00     0.007 A 
ENDBRANCH  41  42
ENDBRANCH  40  41
ENDBRANCH  39  40
ENDBRANCH  11  39
TORSDOF 12
ENDMDL
MODEL 8
REMARK minimizedAffinity -9.82938576
REMARK CNNscore 0.351721436
REMARK CNNaffinity 6.61327219
REMARK  12 active torsions:
REMARK  status: ('A' for Active; 'I' for Inactive)
REMARK    1  A    between atoms: C4_5  and  C5_6 
REMARK    2  A    between atoms: C5_6  and  O2_7 
REMARK    3  A    between atoms: C5_6  and  C6_8 
REMARK    4  A    between atoms: C6_8  and  O3_10 
REMARK    5  A    between atoms: C6_8  and  C8_11 
REMARK    6  A    between atoms: C11_14  and  O4_15 
REMARK    7  A    between atoms: C17_22  and  O6_23 
REMARK    8  A    between atoms: O6_23  and  C18_24 
REMARK    9  A    between atoms: C18_24  and  C19_25 
REMARK   10  A    between atoms: C19_25  and  C20_26 
REMARK   11  A    between atoms: C35_41  and  C36_42 
REMARK   12  A    between atoms: C36_42  and  O7_43 
ROOT
HETATM    1  C8  UNL     1      -7.419  49.180 -24.310  1.00  0.00     0.034 C 
HETATM    2  C9  UNL     1      -7.975  49.677 -22.940  1.00  0.00     0.012 C 
HETATM    3  C10 UNL     1      -6.772  50.095 -22.069  1.00  0.00     0.044 C 
HETATM    4  C11 UNL     1      -5.653  50.296 -23.088  1.00  0.00     0.089 C 
HETATM    5  C12 UNL     1      -4.206  50.384 -22.679  1.00  0.00    -0.037 C 
HETATM    6  C13 UNL     1      -3.785  50.210 -21.420  1.00  0.00     0.057 C 
HETATM    7  C14 UNL     1      -2.348  50.161 -21.085  1.00  0.00     0.154 C 
HETATM    8  O5  UNL     1      -2.040  50.082 -19.896  1.00  0.00    -0.293 OA
HETATM    9  C15 UNL     1      -1.327  50.146 -22.225  1.00  0.00     0.071 C 
HETATM   10  C16 UNL     1       0.039  50.620 -21.690  1.00  0.00     0.045 C 
HETATM   11  C17 UNL     1       0.028  52.100 -21.304  1.00  0.00     0.122 C 
HETATM   12  C26 UNL     1      -0.424  52.965 -22.483  1.00  0.00     0.033 C 
HETATM   13  C27 UNL     1      -1.757  52.501 -23.073  1.00  0.00     0.013 C 
HETATM   14  C28 UNL     1      -1.799  50.983 -23.446  1.00  0.00    -0.026 C 
HETATM   15  C29 UNL     1      -0.840  50.757 -24.644  1.00  0.00     0.016 C 
HETATM   16  C30 UNL     1      -3.273  50.619 -23.865  1.00  0.00     0.026 C 
HETATM   17  C31 UNL     1      -3.450  49.443 -24.859  1.00  0.00     0.011 C 
HETATM   18  C32 UNL     1      -4.932  49.212 -25.266  1.00  0.00     0.014 C 
HETATM   19  C33 UNL     1      -5.868  49.069 -24.040  1.00  0.00    -0.002 C 
HETATM   20  C34 UNL     1      -5.519  47.721 -23.344  1.00  0.00     0.019 C 
ENDROOT
BRANCH   1  21
HETATM   21  C6  UNL     1      -8.195  48.005 -25.011  1.00  0.00     0.087 C 
HETATM   22  C7  UNL     1      -8.905  47.025 -24.065  1.00  0.00     0.049 C 
BRANCH  21  23
HETATM   23  C5  UNL     1      -9.192  48.459 -26.150  1.00  0.00     0.181 C 
BRANCH  23  24
HETATM   24  C4  UNL     1     -10.487  47.645 -26.349  1.00  0.00     0.159 C 
HETATM   25  O1  UNL     1     -11.654  48.475 -26.402  1.00  0.00    -0.382 OA
HETATM   26  C3  UNL     1     -12.628  47.879 -27.265  1.00  0.00     0.173 C 
HETATM   27  C2  UNL     1     -12.099  46.518 -27.687  1.00  0.00     0.014 C 
HETATM   28  C1  UNL     1     -12.590  45.410 -26.749  1.00  0.00     0.012 C 
HETATM   29  C35 UNL     1     -10.582  46.738 -27.589  1.00  0.00     0.046 C 
BRANCH  29  30
HETATM   30  C36 UNL     1     -10.028  47.351 -28.883  1.00  0.00     0.172 C 
BRANCH  30  31
HETATM   31  O7  UNL     1     -10.785  48.507 -29.230  1.00  0.00    -0.400 OA
HETATM   32  H52 UNL     1     -10.411  48.852 -30.055  1.00  0.00     0.209 HD
ENDBRANCH  30  31
ENDBRANCH  29  30
ENDBRANCH  23  24
BRANCH  23  33
HETATM   33  O2  UNL     1      -9.462  49.863 -25.991  1.00  0.00    -0.390 OA
HETATM   34  H9  UNL     1      -8.613  50.245 -25.692  1.00  0.00     0.210 HD
ENDBRANCH  23  33
ENDBRANCH  21  23
BRANCH  21  35
HETATM   35  O3  UNL     1      -7.184  47.241 -25.732  1.00  0.00    -0.387 OA
HETATM   36  H13 UNL     1      -7.541  46.349 -25.908  1.00  0.00     0.210 HD
ENDBRANCH  21  35
ENDBRANCH   1  21
BRANCH   4  37
HETATM   37  O4  UNL     1      -5.936  51.575 -23.692  1.00  0.00    -0.384 OA
HETATM   38  H19 UNL     1      -6.102  51.461 -24.642  1.00  0.00     0.211 HD
ENDBRANCH   4  37
BRANCH  11  39
HETATM   39  O6  UNL     1       1.357  52.455 -20.906  1.00  0.00    -0.386 OA
BRANCH  39  40
HETATM   40  C18 UNL     1       1.386  53.245 -19.710  1.00  0.00     0.172 C 
BRANCH  40  41
HETATM   41  C19 UNL     1       0.244  52.801 -18.794  1.00  0.00     0.064 C 
BRANCH  41  42
HETATM   42  C20 UNL     1       0.753  52.040 -17.596  1.00  0.00    -0.056 A 
HETATM   43  C21 UNL     1       0.142  50.839 -17.202  1.00  0.00     0.007 A 
HETATM   44  C22 UNL     1       0.579  50.165 -16.059  1.00  0.00     0.001 A 
HETATM   45  C23 UNL     1       1.632  50.681 -15.300  1.00  0.00     0.000 A 
HETATM   46  C24 UNL     1       2.239  51.875 -15.683  1.00  0.00     0.001 A 
HETATM   47  C25 UNL     1       1.805  52.551 -16.824  1.00  0.00     0.007 A 
ENDBRANCH  41  42
ENDBRANCH  40  41
ENDBRANCH  39  40
ENDBRANCH  11  39
TORSDOF 12
ENDMDL
MODEL 9
REMARK minimizedAffinity -9.75890541
REMARK CNNscore 0.35007599
REMARK CNNaffinity 7.02166033
REMARK  12 active torsions:
REMARK  status: ('A' for Active; 'I' for Inactive)
REMARK    1  A    between atoms: C4_5  and  C5_6 
REMARK    2  A    between atoms: C5_6  and  O2_7 
REMARK    3  A    between atoms: C5_6  and  C6_8 
REMARK    4  A    between atoms: C6_8  and  O3_10 
REMARK    5  A    between atoms: C6_8  and  C8_11 
REMARK    6  A    between atoms: C11_14  and  O4_15 
REMARK    7  A    between atoms: C17_22  and  O6_23 
REMARK    8  A    between atoms: O6_23  and  C18_24 
REMARK    9  A    between atoms: C18_24  and  C19_25 
REMARK   10  A    between atoms: C19_25  and  C20_26 
REMARK   11  A    between atoms: C35_41  and  C36_42 
REMARK   12  A    between atoms: C36_42  and  O7_43 
ROOT
HETATM    1  C8  UNL     1      -3.287  50.866 -23.049  1.00  0.00     0.034 C 
HETATM    2  C9  UNL     1      -4.678  50.232 -22.740  1.00  0.00     0.012 C 
HETATM    3  C10 UNL     1      -4.616  49.634 -21.318  1.00  0.00     0.044 C 
HETATM    4  C11 UNL     1      -3.422  50.348 -20.689  1.00  0.00     0.089 C 
HETATM    5  C12 UNL     1      -2.771  49.853 -19.424  1.00  0.00    -0.037 C 
HETATM    6  C13 UNL     1      -3.127  48.718 -18.808  1.00  0.00     0.057 C 
HETATM    7  C14 UNL     1      -2.369  48.195 -17.655  1.00  0.00     0.154 C 
HETATM    8  O5  UNL     1      -2.806  47.192 -17.091  1.00  0.00    -0.293 OA
HETATM    9  C15 UNL     1      -1.058  48.880 -17.262  1.00  0.00     0.071 C 
HETATM   10  C16 UNL     1      -0.730  48.546 -15.794  1.00  0.00     0.045 C 
HETATM   11  C17 UNL     1      -1.718  49.188 -14.819  1.00  0.00     0.122 C 
HETATM   12  C26 UNL     1      -1.783  50.702 -15.030  1.00  0.00     0.033 C 
HETATM   13  C27 UNL     1      -2.065  51.079 -16.486  1.00  0.00     0.013 C 
HETATM   14  C28 UNL     1      -1.098  50.413 -17.518  1.00  0.00    -0.026 C 
HETATM   15  C29 UNL     1       0.314  51.019 -17.314  1.00  0.00     0.016 C 
HETATM   16  C30 UNL     1      -1.619  50.746 -18.967  1.00  0.00     0.026 C 
HETATM   17  C31 UNL     1      -0.562  50.788 -20.100  1.00  0.00     0.011 C 
HETATM   18  C32 UNL     1      -1.163  51.197 -21.474  1.00  0.00     0.014 C 
HETATM   19  C33 UNL     1      -2.387  50.333 -21.867  1.00  0.00    -0.002 C 
HETATM   20  C34 UNL     1      -1.865  48.898 -22.167  1.00  0.00     0.019 C 
ENDROOT
BRANCH   1  21
HETATM   21  C6  UNL     1      -2.781  50.785 -24.537  1.00  0.00     0.087 C 
HETATM   22  C7  UNL     1      -3.666  49.971 -25.493  1.00  0.00     0.049 C 
BRANCH  21  23
HETATM   23  C5  UNL     1      -2.438  52.181 -25.193  1.00  0.00     0.181 C 
BRANCH  23  24
HETATM   24  C4  UNL     1      -1.397  52.213 -26.331  1.00  0.00     0.159 C 
HETATM   25  O1  UNL     1      -1.757  53.123 -27.379  1.00  0.00    -0.382 OA
HETATM   26  C3  UNL     1      -0.573  53.672 -27.966  1.00  0.00     0.173 C 
HETATM   27  C2  UNL     1       0.621  52.969 -27.339  1.00  0.00     0.014 C 
HETATM   28  C1  UNL     1       1.052  51.752 -28.165  1.00  0.00     0.012 C 
HETATM   29  C35 UNL     1       0.055  52.573 -25.967  1.00  0.00     0.046 C 
BRANCH  29  30
HETATM   30  C36 UNL     1       0.204  53.719 -24.957  1.00  0.00     0.172 C 
BRANCH  30  31
HETATM   31  O7  UNL     1       0.172  54.969 -25.639  1.00  0.00    -0.400 OA
HETATM   32  H52 UNL     1       0.282  55.661 -24.969  1.00  0.00     0.209 HD
ENDBRANCH  30  31
ENDBRANCH  29  30
ENDBRANCH  23  24
BRANCH  23  33
HETATM   33  O2  UNL     1      -3.667  52.825 -25.575  1.00  0.00    -0.390 OA
HETATM   34  H9  UNL     1      -4.299  52.587 -24.868  1.00  0.00     0.210 HD
ENDBRANCH  23  33
ENDBRANCH  21  23
BRANCH  21  35
HETATM   35  O3  UNL     1      -1.489  50.113 -24.477  1.00  0.00    -0.387 OA
HETATM   36  H13 UNL     1      -1.288  49.756 -25.364  1.00  0.00     0.210 HD
ENDBRANCH  21  35
ENDBRANCH   1  21
BRANCH   4  37
HETATM   37  O4  UNL     1      -3.919  51.659 -20.350  1.00  0.00    -0.384 OA
HETATM   38  H19 UNL     1      -3.427  52.336 -20.844  1.00  0.00     0.211 HD
ENDBRANCH   4  37
BRANCH  11  39
HETATM   39  O6  UNL     1      -1.273  48.889 -13.491  1.00  0.00    -0.386 OA
BRANCH  39  40
HETATM   40  C18 UNL     1      -2.158  49.395 -12.483  1.00  0.00     0.172 C 
BRANCH  40  41
HETATM   41  C19 UNL     1      -1.376  50.333 -11.561  1.00  0.00     0.064 C 
BRANCH  41  42
HETATM   42  C20 UNL     1      -2.173  51.563 -11.208  1.00  0.00    -0.056 A 
HETATM   43  C21 UNL     1      -3.388  51.835 -11.857  1.00  0.00     0.007 A 
HETATM   44  C22 UNL     1      -4.097  53.004 -11.569  1.00  0.00     0.001 A 
HETATM   45  C23 UNL     1      -3.603  53.911 -10.628  1.00  0.00     0.000 A 
HETATM   46  C24 UNL     1      -2.395  53.648  -9.984  1.00  0.00     0.001 A 
HETATM   47  C25 UNL     1      -1.685  52.482 -10.269  1.00  0.00     0.007 A 
ENDBRANCH  41  42
ENDBRANCH  40  41
ENDBRANCH  39  40
ENDBRANCH  11  39
TORSDOF 12
ENDMDL
