MODEL 1
REMARK minimizedAffinity -7.88787985
REMARK CNNscore 0.831271887
REMARK CNNaffinity 6.75763321
REMARK  8 active torsions:
REMARK  status: ('A' for Active; 'I' for Inactive)
REMARK    1  A    between atoms: C2_2  and  C3_3 
REMARK    2  A    between atoms: C2_2  and  C9_12 
REMARK    3  A    between atoms: C3_3  and  C4_4 
REMARK    4  A    between atoms: C4_4  and  O1_5 
REMARK    5  A    between atoms: C4_4  and  C5_6 
REMARK    6  A    between atoms: C5_6  and  O2_7 
REMARK    7  A    between atoms: C5_6  and  C6_8 
REMARK    8  A    between atoms: C6_8  and  O3_11 
ROOT
HETATM    1  C9  UNL     1       1.347  54.689 -10.374  1.00  0.00    -0.001 C 
HETATM    2  C10 UNL     1       2.252  53.699 -11.165  1.00  0.00     0.007 C 
HETATM    3  C11 UNL     1       3.671  53.810 -10.569  1.00  0.00     0.015 C 
HETATM    4  C12 UNL     1       3.645  55.085  -9.697  1.00  0.00    -0.004 C 
HETATM    5  C13 UNL     1       3.891  56.297 -10.649  1.00  0.00     0.021 C 
HETATM    6  C14 UNL     1       4.640  55.287  -8.556  1.00  0.00     0.007 C 
HETATM    7  C15 UNL     1       4.335  55.998  -7.439  1.00  0.00     0.007 C 
HETATM    8  C16 UNL     1       2.947  56.616  -7.352  1.00  0.00     0.157 C 
HETATM    9  O4  UNL     1       2.676  57.423  -6.459  1.00  0.00    -0.293 OA
HETATM   10  C17 UNL     1       1.877  56.265  -8.372  1.00  0.00     0.094 C 
HETATM   11  C18 UNL     1       2.191  54.959  -9.096  1.00  0.00    -0.022 C 
HETATM   12  C19 UNL     1       2.067  53.767  -8.090  1.00  0.00     0.017 C 
HETATM   13  C20 UNL     1       5.305  56.253  -6.261  1.00  0.00    -0.007 C 
HETATM   14  C21 UNL     1       5.786  57.722  -6.373  1.00  0.00     0.021 C 
HETATM   15  C22 UNL     1       4.589  56.050  -4.884  1.00  0.00     0.022 C 
HETATM   16  C23 UNL     1       5.465  55.555  -3.736  1.00  0.00     0.080 C 
HETATM   17  C24 UNL     1       6.910  55.932  -3.926  1.00  0.00     0.135 C 
HETATM   18  O5  UNL     1       7.518  56.564  -3.065  1.00  0.00    -0.297 OA
HETATM   19  C25 UNL     1       7.584  55.411  -5.203  1.00  0.00     0.018 C 
HETATM   20  C26 UNL     1       8.743  56.346  -5.602  1.00  0.00     0.023 C 
HETATM   21  C27 UNL     1       8.202  54.043  -4.842  1.00  0.00     0.023 C 
HETATM   22  C28 UNL     1       6.494  55.228  -6.320  1.00  0.00     0.021 C 
HETATM   23  C29 UNL     1       7.087  55.150  -7.727  1.00  0.00     0.090 C 
HETATM   24  C30 UNL     1       6.031  54.763  -8.731  1.00  0.00     0.157 C 
HETATM   25  O6  UNL     1       6.335  54.074  -9.702  1.00  0.00    -0.293 OA
ENDROOT
BRANCH   1  26
HETATM   26  C2  UNL     1      -0.142  54.220 -10.354  1.00  0.00    -0.011 C 
HETATM   27  C1  UNL     1      -1.227  55.280 -10.159  1.00  0.00     0.010 C 
BRANCH  26  28
HETATM   28  C3  UNL     1      -0.470  53.349 -11.612  1.00  0.00     0.039 C 
BRANCH  28  29
HETATM   29  C4  UNL     1      -1.010  51.927 -11.320  1.00  0.00     0.150 C 
BRANCH  29  30
HETATM   30  O1  UNL     1      -0.830  51.638  -9.934  1.00  0.00    -0.393 OA
HETATM   31  H8  UNL     1      -1.400  50.868  -9.719  1.00  0.00     0.210 HD
ENDBRANCH  29  30
BRANCH  29  32
HETATM   32  C5  UNL     1      -2.497  51.752 -11.756  1.00  0.00     0.180 C 
BRANCH  32  33
HETATM   33  O2  UNL     1      -2.785  52.628 -12.857  1.00  0.00    -0.390 OA
HETATM   34  H10 UNL     1      -2.442  52.221 -13.673  1.00  0.00     0.210 HD
ENDBRANCH  32  33
BRANCH  32  35
HETATM   35  C6  UNL     1      -3.527  52.092 -10.634  1.00  0.00     0.079 C 
HETATM   36  C7  UNL     1      -4.174  53.465 -10.874  1.00  0.00     0.048 C 
HETATM   37  C8  UNL     1      -4.624  51.035 -10.485  1.00  0.00     0.048 C 
BRANCH  35  38
HETATM   38  O3  UNL     1      -2.818  52.166  -9.388  1.00  0.00    -0.388 OA
HETATM   39  H17 UNL     1      -2.086  52.801  -9.553  1.00  0.00     0.210 HD
ENDBRANCH  35  38
ENDBRANCH  32  35
ENDBRANCH  29  32
ENDBRANCH  28  29
ENDBRANCH  26  28
ENDBRANCH   1  26
TORSDOF 8
ENDMDL
MODEL 2
REMARK minimizedAffinity -7.25019407
REMARK CNNscore 0.69362694
REMARK CNNaffinity 6.719028
REMARK  8 active torsions:
REMARK  status: ('A' for Active; 'I' for Inactive)
REMARK    1  A    between atoms: C2_2  and  C3_3 
REMARK    2  A    between atoms: C2_2  and  C9_12 
REMARK    3  A    between atoms: C3_3  and  C4_4 
REMARK    4  A    between atoms: C4_4  and  O1_5 
REMARK    5  A    between atoms: C4_4  and  C5_6 
REMARK    6  A    between atoms: C5_6  and  O2_7 
REMARK    7  A    between atoms: C5_6  and  C6_8 
REMARK    8  A    between atoms: C6_8  and  O3_11 
ROOT
HETATM    1  C9  UNL     1       1.569  53.813 -10.874  1.00  0.00    -0.001 C 
HETATM    2  C10 UNL     1       2.976  53.278 -11.274  1.00  0.00     0.007 C 
HETATM    3  C11 UNL     1       4.005  53.998 -10.377  1.00  0.00     0.015 C 
HETATM    4  C12 UNL     1       3.230  55.166  -9.729  1.00  0.00    -0.004 C 
HETATM    5  C13 UNL     1       3.224  56.340 -10.758  1.00  0.00     0.021 C 
HETATM    6  C14 UNL     1       3.701  55.804  -8.425  1.00  0.00     0.007 C 
HETATM    7  C15 UNL     1       2.840  56.352  -7.527  1.00  0.00     0.007 C 
HETATM    8  C16 UNL     1       1.357  56.325  -7.865  1.00  0.00     0.157 C 
HETATM    9  O4  UNL     1       0.548  56.967  -7.188  1.00  0.00    -0.293 OA
HETATM   10  C17 UNL     1       0.845  55.524  -9.050  1.00  0.00     0.094 C 
HETATM   11  C18 UNL     1       1.843  54.453  -9.483  1.00  0.00    -0.022 C 
HETATM   12  C19 UNL     1       1.932  53.352  -8.375  1.00  0.00     0.017 C 
HETATM   13  C20 UNL     1       3.258  57.028  -6.200  1.00  0.00    -0.007 C 
HETATM   14  C21 UNL     1       3.121  58.558  -6.402  1.00  0.00     0.021 C 
HETATM   15  C22 UNL     1       2.331  56.581  -5.020  1.00  0.00     0.022 C 
HETATM   16  C23 UNL     1       2.974  56.538  -3.637  1.00  0.00     0.080 C 
HETATM   17  C24 UNL     1       4.139  57.487  -3.527  1.00  0.00     0.135 C 
HETATM   18  O5  UNL     1       4.177  58.342  -2.645  1.00  0.00    -0.297 OA
HETATM   19  C25 UNL     1       5.291  57.263  -4.516  1.00  0.00     0.018 C 
HETATM   20  C26 UNL     1       6.039  58.589  -4.755  1.00  0.00     0.023 C 
HETATM   21  C27 UNL     1       6.277  56.297  -3.825  1.00  0.00     0.023 C 
HETATM   22  C28 UNL     1       4.722  56.603  -5.824  1.00  0.00     0.021 C 
HETATM   23  C29 UNL     1       5.662  56.742  -7.022  1.00  0.00     0.090 C 
HETATM   24  C30 UNL     1       5.173  55.915  -8.183  1.00  0.00     0.157 C 
HETATM   25  O6  UNL     1       5.985  55.391  -8.944  1.00  0.00    -0.293 OA
ENDROOT
BRANCH   1  26
HETATM   26  C2  UNL     1       0.451  52.758 -11.144  1.00  0.00    -0.011 C 
HETATM   27  C1  UNL     1       0.719  51.308 -10.742  1.00  0.00     0.010 C 
BRANCH  26  28
HETATM   28  C3  UNL     1      -0.918  53.231 -10.550  1.00  0.00     0.039 C 
BRANCH  28  29
HETATM   29  C4  UNL     1      -1.462  52.388  -9.370  1.00  0.00     0.150 C 
BRANCH  29  30
HETATM   30  O1  UNL     1      -1.603  53.229  -8.225  1.00  0.00    -0.393 OA
HETATM   31  H8  UNL     1      -2.180  52.759  -7.585  1.00  0.00     0.210 HD
ENDBRANCH  29  30
BRANCH  29  32
HETATM   32  C5  UNL     1      -2.797  51.664  -9.719  1.00  0.00     0.180 C 
BRANCH  32  33
HETATM   33  O2  UNL     1      -2.518  50.344 -10.212  1.00  0.00    -0.390 OA
HETATM   34  H10 UNL     1      -2.340  49.762  -9.451  1.00  0.00     0.210 HD
ENDBRANCH  32  33
BRANCH  32  35
HETATM   35  C6  UNL     1      -3.636  52.383 -10.822  1.00  0.00     0.079 C 
HETATM   36  C7  UNL     1      -3.816  53.873 -10.498  1.00  0.00     0.048 C 
HETATM   37  C8  UNL     1      -3.036  52.239 -12.223  1.00  0.00     0.048 C 
BRANCH  35  38
HETATM   38  O3  UNL     1      -4.943  51.789 -10.842  1.00  0.00    -0.388 OA
HETATM   39  H17 UNL     1      -5.257  51.843  -9.913  1.00  0.00     0.210 HD
ENDBRANCH  35  38
ENDBRANCH  32  35
ENDBRANCH  29  32
ENDBRANCH  28  29
ENDBRANCH  26  28
ENDBRANCH   1  26
TORSDOF 8
ENDMDL
MODEL 3
REMARK minimizedAffinity -8.23097134
REMARK CNNscore 0.504958451
REMARK CNNaffinity 6.36976099
REMARK  8 active torsions:
REMARK  status: ('A' for Active; 'I' for Inactive)
REMARK    1  A    between atoms: C2_2  and  C3_3 
REMARK    2  A    between atoms: C2_2  and  C9_12 
REMARK    3  A    between atoms: C3_3  and  C4_4 
REMARK    4  A    between atoms: C4_4  and  O1_5 
REMARK    5  A    between atoms: C4_4  and  C5_6 
REMARK    6  A    between atoms: C5_6  and  O2_7 
REMARK    7  A    between atoms: C5_6  and  C6_8 
REMARK    8  A    between atoms: C6_8  and  O3_11 
ROOT
HETATM    1  C9  UNL     1      -9.177  45.839 -30.088  1.00  0.00    -0.001 C 
HETATM    2  C10 UNL     1      -7.978  46.825 -30.227  1.00  0.00     0.007 C 
HETATM    3  C11 UNL     1      -7.796  47.104 -31.734  1.00  0.00     0.015 C 
HETATM    4  C12 UNL     1      -8.645  46.031 -32.450  1.00  0.00    -0.004 C 
HETATM    5  C13 UNL     1      -7.777  44.737 -32.529  1.00  0.00     0.021 C 
HETATM    6  C14 UNL     1      -9.151  46.240 -33.876  1.00  0.00     0.007 C 
HETATM    7  C15 UNL     1     -10.314  45.701 -34.325  1.00  0.00     0.007 C 
HETATM    8  C16 UNL     1     -11.119  44.851 -33.352  1.00  0.00     0.157 C 
HETATM    9  O4  UNL     1     -12.078  44.183 -33.750  1.00  0.00    -0.293 OA
HETATM   10  C17 UNL     1     -10.747  44.792 -31.881  1.00  0.00     0.094 C 
HETATM   11  C18 UNL     1      -9.880  45.979 -31.468  1.00  0.00    -0.022 C 
HETATM   12  C19 UNL     1     -10.736  47.287 -31.523  1.00  0.00     0.017 C 
HETATM   13  C20 UNL     1     -10.868  45.861 -35.760  1.00  0.00    -0.007 C 
HETATM   14  C21 UNL     1     -10.626  44.520 -36.498  1.00  0.00     0.021 C 
HETATM   15  C22 UNL     1     -12.402  46.170 -35.744  1.00  0.00     0.022 C 
HETATM   16  C23 UNL     1     -12.929  47.028 -36.891  1.00  0.00     0.080 C 
HETATM   17  C24 UNL     1     -12.069  46.912 -38.123  1.00  0.00     0.135 C 
HETATM   18  O5  UNL     1     -12.553  46.580 -39.203  1.00  0.00    -0.297 OA
HETATM   19  C25 UNL     1     -10.597  47.312 -37.962  1.00  0.00     0.018 C 
HETATM   20  C26 UNL     1      -9.735  46.564 -38.998  1.00  0.00     0.023 C 
HETATM   21  C27 UNL     1     -10.514  48.817 -38.296  1.00  0.00     0.023 C 
HETATM   22  C28 UNL     1     -10.160  47.070 -36.471  1.00  0.00     0.021 C 
HETATM   23  C29 UNL     1      -8.643  47.003 -36.296  1.00  0.00     0.090 C 
HETATM   24  C30 UNL     1      -8.275  46.985 -34.834  1.00  0.00     0.157 C 
HETATM   25  O6  UNL     1      -7.239  47.530 -34.459  1.00  0.00    -0.293 OA
ENDROOT
BRANCH   1  26
HETATM   26  C2  UNL     1      -9.904  46.004 -28.717  1.00  0.00    -0.011 C 
HETATM   27  C1  UNL     1      -9.287  45.331 -27.491  1.00  0.00     0.010 C 
BRANCH  26  28
HETATM   28  C3  UNL     1     -10.184  47.513 -28.411  1.00  0.00     0.039 C 
BRANCH  28  29
HETATM   29  C4  UNL     1      -9.070  48.255 -27.631  1.00  0.00     0.150 C 
BRANCH  29  30
HETATM   30  O1  UNL     1      -8.688  49.419 -28.362  1.00  0.00    -0.393 OA
HETATM   31  H8  UNL     1      -8.189  50.001 -27.748  1.00  0.00     0.210 HD
ENDBRANCH  29  30
BRANCH  29  32
HETATM   32  C5  UNL     1      -9.495  48.606 -26.172  1.00  0.00     0.180 C 
BRANCH  32  33
HETATM   33  O2  UNL     1      -9.619  50.030 -26.034  1.00  0.00    -0.390 OA
HETATM   34  H10 UNL     1     -10.476  50.304 -26.406  1.00  0.00     0.210 HD
ENDBRANCH  32  33
BRANCH  32  35
HETATM   35  C6  UNL     1      -8.475  48.139 -25.087  1.00  0.00     0.079 C 
HETATM   36  C7  UNL     1      -7.179  47.624 -25.731  1.00  0.00     0.048 C 
HETATM   37  C8  UNL     1      -8.136  49.232 -24.072  1.00  0.00     0.048 C 
BRANCH  35  38
HETATM   38  O3  UNL     1      -9.062  47.042 -24.370  1.00  0.00    -0.388 OA
HETATM   39  H17 UNL     1      -9.325  46.400 -25.066  1.00  0.00     0.210 HD
ENDBRANCH  35  38
ENDBRANCH  32  35
ENDBRANCH  29  32
ENDBRANCH  28  29
ENDBRANCH  26  28
ENDBRANCH   1  26
TORSDOF 8
ENDMDL
MODEL 4
REMARK minimizedAffinity -8.65497971
REMARK CNNscore 0.49375686
REMARK CNNaffinity 6.59767962
REMARK  8 active torsions:
REMARK  status: ('A' for Active; 'I' for Inactive)
REMARK    1  A    between atoms: C2_2  and  C3_3 
REMARK    2  A    between atoms: C2_2  and  C9_12 
REMARK    3  A    between atoms: C3_3  and  C4_4 
REMARK    4  A    between atoms: C4_4  and  O1_5 
REMARK    5  A    between atoms: C4_4  and  C5_6 
REMARK    6  A    between atoms: C5_6  and  O2_7 
REMARK    7  A    between atoms: C5_6  and  C6_8 
REMARK    8  A    between atoms: C6_8  and  O3_11 
ROOT
HETATM    1  C9  UNL     1      -3.747  49.953 -23.698  1.00  0.00    -0.001 C 
HETATM    2  C10 UNL     1      -3.010  51.064 -22.891  1.00  0.00     0.007 C 
HETATM    3  C11 UNL     1      -3.147  50.702 -21.397  1.00  0.00     0.015 C 
HETATM    4  C12 UNL     1      -4.232  49.604 -21.344  1.00  0.00    -0.004 C 
HETATM    5  C13 UNL     1      -5.616  50.326 -21.352  1.00  0.00     0.021 C 
HETATM    6  C14 UNL     1      -4.317  48.628 -20.172  1.00  0.00     0.007 C 
HETATM    7  C15 UNL     1      -4.779  47.358 -20.312  1.00  0.00     0.007 C 
HETATM    8  C16 UNL     1      -5.233  46.921 -21.697  1.00  0.00     0.157 C 
HETATM    9  O4  UNL     1      -5.834  45.854 -21.851  1.00  0.00    -0.293 OA
HETATM   10  C17 UNL     1      -4.973  47.796 -22.911  1.00  0.00     0.094 C 
HETATM   11  C18 UNL     1      -3.858  48.806 -22.653  1.00  0.00    -0.022 C 
HETATM   12  C19 UNL     1      -2.496  48.048 -22.517  1.00  0.00     0.017 C 
HETATM   13  C20 UNL     1      -4.906  46.332 -19.162  1.00  0.00    -0.007 C 
HETATM   14  C21 UNL     1      -6.410  46.230 -18.802  1.00  0.00     0.021 C 
HETATM   15  C22 UNL     1      -4.386  44.922 -19.600  1.00  0.00     0.022 C 
HETATM   16  C23 UNL     1      -3.776  44.056 -18.501  1.00  0.00     0.080 C 
HETATM   17  C24 UNL     1      -4.319  44.407 -17.141  1.00  0.00     0.135 C 
HETATM   18  O5  UNL     1      -4.839  43.551 -16.427  1.00  0.00    -0.297 OA
HETATM   19  C25 UNL     1      -4.108  45.855 -16.680  1.00  0.00     0.018 C 
HETATM   20  C26 UNL     1      -5.208  46.250 -15.674  1.00  0.00     0.023 C 
HETATM   21  C27 UNL     1      -2.763  45.879 -15.922  1.00  0.00     0.023 C 
HETATM   22  C28 UNL     1      -4.029  46.789 -17.942  1.00  0.00     0.021 C 
HETATM   23  C29 UNL     1      -4.267  48.263 -17.611  1.00  0.00     0.090 C 
HETATM   24  C30 UNL     1      -3.970  49.132 -18.807  1.00  0.00     0.157 C 
HETATM   25  O6  UNL     1      -3.503  50.257 -18.642  1.00  0.00    -0.293 OA
ENDROOT
BRANCH   1  26
HETATM   26  C2  UNL     1      -3.141  49.778 -25.126  1.00  0.00    -0.011 C 
HETATM   27  C1  UNL     1      -3.487  48.507 -25.902  1.00  0.00     0.010 C 
BRANCH  26  28
HETATM   28  C3  UNL     1      -3.426  51.036 -26.011  1.00  0.00     0.039 C 
BRANCH  28  29
HETATM   29  C4  UNL     1      -2.406  51.300 -27.147  1.00  0.00     0.150 C 
BRANCH  29  30
HETATM   30  O1  UNL     1      -3.091  51.279 -28.399  1.00  0.00    -0.393 OA
HETATM   31  H8  UNL     1      -2.501  51.698 -29.063  1.00  0.00     0.210 HD
ENDBRANCH  29  30
BRANCH  29  32
HETATM   32  C5  UNL     1      -1.618  52.630 -26.945  1.00  0.00     0.180 C 
BRANCH  32  33
HETATM   33  O2  UNL     1      -1.899  53.529 -28.029  1.00  0.00    -0.390 OA
HETATM   34  H10 UNL     1      -2.760  53.952 -27.864  1.00  0.00     0.210 HD
ENDBRANCH  32  33
BRANCH  32  35
HETATM   35  C6  UNL     1      -0.069  52.446 -26.908  1.00  0.00     0.079 C 
HETATM   36  C7  UNL     1       0.349  51.494 -25.778  1.00  0.00     0.048 C 
HETATM   37  C8  UNL     1       0.509  51.944 -28.233  1.00  0.00     0.048 C 
BRANCH  35  38
HETATM   38  O3  UNL     1       0.522  53.725 -26.628  1.00  0.00    -0.388 OA
HETATM   39  H17 UNL     1       0.073  54.036 -25.812  1.00  0.00     0.210 HD
ENDBRANCH  35  38
ENDBRANCH  32  35
ENDBRANCH  29  32
ENDBRANCH  28  29
ENDBRANCH  26  28
ENDBRANCH   1  26
TORSDOF 8
ENDMDL
MODEL 5
REMARK minimizedAffinity -8.08931065
REMARK CNNscore 0.489219368
REMARK CNNaffinity 5.67078161
REMARK  8 active torsions:
REMARK  status: ('A' for Active; 'I' for Inactive)
REMARK    1  A    between atoms: C2_2  and  C3_3 
REMARK    2  A    between atoms: C2_2  and  C9_12 
REMARK    3  A    between atoms: C3_3  and  C4_4 
REMARK    4  A    between atoms: C4_4  and  O1_5 
REMARK    5  A    between atoms: C4_4  and  C5_6 
REMARK    6  A    between atoms: C5_6  and  O2_7 
REMARK    7  A    between atoms: C5_6  and  C6_8 
REMARK    8  A    between atoms: C6_8  and  O3_11 
ROOT
HETATM    1  C9  UNL     1       4.090  67.930 -36.739  1.00  0.00    -0.001 C 
HETATM    2  C10 UNL     1       3.376  68.834 -35.689  1.00  0.00     0.007 C 
HETATM    3  C11 UNL     1       2.266  69.602 -36.437  1.00  0.00     0.015 C 
HETATM    4  C12 UNL     1       2.573  69.400 -37.937  1.00  0.00    -0.004 C 
HETATM    5  C13 UNL     1       3.648  70.460 -38.332  1.00  0.00     0.021 C 
HETATM    6  C14 UNL     1       1.483  69.548 -38.996  1.00  0.00     0.007 C 
HETATM    7  C15 UNL     1       1.494  68.842 -40.158  1.00  0.00     0.007 C 
HETATM    8  C16 UNL     1       2.654  67.885 -40.391  1.00  0.00     0.157 C 
HETATM    9  O4  UNL     1       2.821  67.361 -41.496  1.00  0.00    -0.293 OA
HETATM   10  C17 UNL     1       3.636  67.570 -39.276  1.00  0.00     0.094 C 
HETATM   11  C18 UNL     1       3.058  67.898 -37.902  1.00  0.00    -0.022 C 
HETATM   12  C19 UNL     1       1.892  66.906 -37.582  1.00  0.00     0.017 C 
HETATM   13  C20 UNL     1       0.431  68.962 -41.275  1.00  0.00    -0.007 C 
HETATM   14  C21 UNL     1       1.069  69.776 -42.430  1.00  0.00     0.021 C 
HETATM   15  C22 UNL     1       0.011  67.553 -41.811  1.00  0.00     0.022 C 
HETATM   16  C23 UNL     1      -1.422  67.424 -42.319  1.00  0.00     0.080 C 
HETATM   17  C24 UNL     1      -1.973  68.743 -42.793  1.00  0.00     0.135 C 
HETATM   18  O5  UNL     1      -2.425  68.868 -43.930  1.00  0.00    -0.297 OA
HETATM   19  C25 UNL     1      -2.010  69.874 -41.757  1.00  0.00     0.018 C 
HETATM   20  C26 UNL     1      -1.945  71.239 -42.470  1.00  0.00     0.023 C 
HETATM   21  C27 UNL     1      -3.386  69.784 -41.062  1.00  0.00     0.023 C 
HETATM   22  C28 UNL     1      -0.864  69.645 -40.707  1.00  0.00     0.021 C 
HETATM   23  C29 UNL     1      -0.520  70.905 -39.912  1.00  0.00     0.090 C 
HETATM   24  C30 UNL     1       0.424  70.582 -38.782  1.00  0.00     0.157 C 
HETATM   25  O6  UNL     1       0.349  71.208 -37.726  1.00  0.00    -0.293 OA
ENDROOT
BRANCH   1  26
HETATM   26  C2  UNL     1       4.703  66.654 -36.080  1.00  0.00    -0.011 C 
HETATM   27  C1  UNL     1       5.551  65.731 -36.956  1.00  0.00     0.010 C 
BRANCH  26  28
HETATM   28  C3  UNL     1       5.487  67.020 -34.777  1.00  0.00     0.039 C 
BRANCH  28  29
HETATM   29  C4  UNL     1       5.948  65.820 -33.913  1.00  0.00     0.150 C 
BRANCH  29  30
HETATM   30  O1  UNL     1       7.046  66.228 -33.099  1.00  0.00    -0.393 OA
HETATM   31  H8  UNL     1       7.151  65.558 -32.389  1.00  0.00     0.210 HD
ENDBRANCH  29  30
BRANCH  29  32
HETATM   32  C5  UNL     1       4.790  65.220 -33.059  1.00  0.00     0.180 C 
BRANCH  32  33
HETATM   33  O2  UNL     1       5.175  65.192 -31.675  1.00  0.00    -0.390 OA
HETATM   34  H10 UNL     1       5.056  66.085 -31.304  1.00  0.00     0.210 HD
ENDBRANCH  32  33
BRANCH  32  35
HETATM   35  C6  UNL     1       4.413  63.756 -33.446  1.00  0.00     0.079 C 
HETATM   36  C7  UNL     1       5.588  63.045 -34.135  1.00  0.00     0.048 C 
HETATM   37  C8  UNL     1       3.945  62.919 -32.253  1.00  0.00     0.048 C 
BRANCH  35  38
HETATM   38  O3  UNL     1       3.334  63.811 -34.392  1.00  0.00    -0.388 OA
HETATM   39  H17 UNL     1       3.654  64.411 -35.102  1.00  0.00     0.210 HD
ENDBRANCH  35  38
ENDBRANCH  32  35
ENDBRANCH  29  32
ENDBRANCH  28  29
ENDBRANCH  26  28
ENDBRANCH   1  26
TORSDOF 8
ENDMDL
MODEL 6
REMARK minimizedAffinity -7.41496515
REMARK CNNscore 0.441421032
REMARK CNNaffinity 5.96105337
REMARK  8 active torsions:
REMARK  status: ('A' for Active; 'I' for Inactive)
REMARK    1  A    between atoms: C2_2  and  C3_3 
REMARK    2  A    between atoms: C2_2  and  C9_12 
REMARK    3  A    between atoms: C3_3  and  C4_4 
REMARK    4  A    between atoms: C4_4  and  O1_5 
REMARK    5  A    between atoms: C4_4  and  C5_6 
REMARK    6  A    between atoms: C5_6  and  O2_7 
REMARK    7  A    between atoms: C5_6  and  C6_8 
REMARK    8  A    between atoms: C6_8  and  O3_11 
ROOT
HETATM    1  C9  UNL     1       6.474  66.643 -36.921  1.00  0.00    -0.001 C 
HETATM    2  C10 UNL     1       7.259  67.988 -36.981  1.00  0.00     0.007 C 
HETATM    3  C11 UNL     1       6.305  69.040 -37.586  1.00  0.00     0.015 C 
HETATM    4  C12 UNL     1       5.131  68.229 -38.177  1.00  0.00    -0.004 C 
HETATM    5  C13 UNL     1       5.576  67.740 -39.591  1.00  0.00     0.021 C 
HETATM    6  C14 UNL     1       3.762  68.867 -38.407  1.00  0.00     0.007 C 
HETATM    7  C15 UNL     1       2.605  68.159 -38.331  1.00  0.00     0.007 C 
HETATM    8  C16 UNL     1       2.705  66.674 -38.015  1.00  0.00     0.157 C 
HETATM    9  O4  UNL     1       1.715  65.944 -38.118  1.00  0.00    -0.293 OA
HETATM   10  C17 UNL     1       4.026  66.060 -37.586  1.00  0.00     0.094 C 
HETATM   11  C18 UNL     1       4.999  67.115 -37.066  1.00  0.00    -0.022 C 
HETATM   12  C19 UNL     1       4.466  67.688 -35.712  1.00  0.00     0.017 C 
HETATM   13  C20 UNL     1       1.193  68.745 -38.572  1.00  0.00    -0.007 C 
HETATM   14  C21 UNL     1       0.729  68.261 -39.970  1.00  0.00     0.021 C 
HETATM   15  C22 UNL     1       0.179  68.241 -37.491  1.00  0.00     0.022 C 
HETATM   16  C23 UNL     1      -0.956  69.197 -37.135  1.00  0.00     0.080 C 
HETATM   17  C24 UNL     1      -1.274  70.140 -38.264  1.00  0.00     0.135 C 
HETATM   18  O5  UNL     1      -2.414  70.222 -38.719  1.00  0.00    -0.297 OA
HETATM   19  C25 UNL     1      -0.125  71.038 -38.743  1.00  0.00     0.018 C 
HETATM   20  C26 UNL     1      -0.343  71.426 -40.218  1.00  0.00     0.023 C 
HETATM   21  C27 UNL     1      -0.208  72.334 -37.909  1.00  0.00     0.023 C 
HETATM   22  C28 UNL     1       1.241  70.311 -38.467  1.00  0.00     0.021 C 
HETATM   23  C29 UNL     1       2.400  70.884 -39.284  1.00  0.00     0.090 C 
HETATM   24  C30 UNL     1       3.713  70.302 -38.829  1.00  0.00     0.157 C 
HETATM   25  O6  UNL     1       4.731  70.991 -38.863  1.00  0.00    -0.293 OA
ENDROOT
BRANCH   1  26
HETATM   26  C2  UNL     1       6.988  65.725 -35.767  1.00  0.00    -0.011 C 
HETATM   27  C1  UNL     1       8.297  64.965 -35.982  1.00  0.00     0.010 C 
BRANCH  26  28
HETATM   28  C3  UNL     1       7.044  66.509 -34.414  1.00  0.00     0.039 C 
BRANCH  28  29
HETATM   29  C4  UNL     1       6.823  65.659 -33.138  1.00  0.00     0.150 C 
BRANCH  29  30
HETATM   30  O1  UNL     1       7.314  66.380 -32.009  1.00  0.00    -0.393 OA
HETATM   31  H8  UNL     1       6.937  65.959 -31.206  1.00  0.00     0.210 HD
ENDBRANCH  29  30
BRANCH  29  32
HETATM   32  C5  UNL     1       5.332  65.242 -32.951  1.00  0.00     0.180 C 
BRANCH  32  33
HETATM   33  O2  UNL     1       4.948  65.423 -31.579  1.00  0.00    -0.390 OA
HETATM   34  H10 UNL     1       4.757  66.367 -31.433  1.00  0.00     0.210 HD
ENDBRANCH  32  33
BRANCH  32  35
HETATM   35  C6  UNL     1       5.046  63.748 -33.300  1.00  0.00     0.079 C 
HETATM   36  C7  UNL     1       3.887  63.625 -34.300  1.00  0.00     0.048 C 
HETATM   37  C8  UNL     1       6.270  63.015 -33.853  1.00  0.00     0.048 C 
BRANCH  35  38
HETATM   38  O3  UNL     1       4.642  63.080 -32.095  1.00  0.00    -0.388 OA
HETATM   39  H17 UNL     1       3.903  63.624 -31.742  1.00  0.00     0.210 HD
ENDBRANCH  35  38
ENDBRANCH  32  35
ENDBRANCH  29  32
ENDBRANCH  28  29
ENDBRANCH  26  28
ENDBRANCH   1  26
TORSDOF 8
ENDMDL
MODEL 7
REMARK minimizedAffinity -8.71685886
REMARK CNNscore 0.362963736
REMARK CNNaffinity 6.96803999
REMARK  8 active torsions:
REMARK  status: ('A' for Active; 'I' for Inactive)
REMARK    1  A    between atoms: C2_2  and  C3_3 
REMARK    2  A    between atoms: C2_2  and  C9_12 
REMARK    3  A    between atoms: C3_3  and  C4_4 
REMARK    4  A    between atoms: C4_4  and  O1_5 
REMARK    5  A    between atoms: C4_4  and  C5_6 
REMARK    6  A    between atoms: C5_6  and  O2_7 
REMARK    7  A    between atoms: C5_6  and  C6_8 
REMARK    8  A    between atoms: C6_8  and  O3_11 
ROOT
HETATM    1  C9  UNL     1      -1.844  50.395 -21.710  1.00  0.00    -0.001 C 
HETATM    2  C10 UNL     1      -0.863  51.530 -22.131  1.00  0.00     0.007 C 
HETATM    3  C11 UNL     1      -0.150  52.008 -20.849  1.00  0.00     0.015 C 
HETATM    4  C12 UNL     1      -0.961  51.401 -19.684  1.00  0.00    -0.004 C 
HETATM    5  C13 UNL     1      -2.175  52.348 -19.428  1.00  0.00     0.021 C 
HETATM    6  C14 UNL     1      -0.339  51.196 -18.305  1.00  0.00     0.007 C 
HETATM    7  C15 UNL     1      -0.720  50.191 -17.473  1.00  0.00     0.007 C 
HETATM    8  C16 UNL     1      -1.819  49.256 -17.955  1.00  0.00     0.157 C 
HETATM    9  O4  UNL     1      -2.338  48.447 -17.179  1.00  0.00    -0.293 OA
HETATM   10  C17 UNL     1      -2.312  49.311 -19.391  1.00  0.00     0.094 C 
HETATM   11  C18 UNL     1      -1.301  49.992 -20.310  1.00  0.00    -0.022 C 
HETATM   12  C19 UNL     1      -0.035  49.084 -20.448  1.00  0.00     0.017 C 
HETATM   13  C20 UNL     1      -0.141  49.945 -16.060  1.00  0.00    -0.007 C 
HETATM   14  C21 UNL     1      -1.204  50.423 -15.039  1.00  0.00     0.021 C 
HETATM   15  C22 UNL     1       0.151  48.425 -15.825  1.00  0.00     0.022 C 
HETATM   16  C23 UNL     1       1.311  48.099 -14.888  1.00  0.00     0.080 C 
HETATM   17  C24 UNL     1       1.565  49.205 -13.898  1.00  0.00     0.135 C 
HETATM   18  O5  UNL     1       1.568  48.983 -12.689  1.00  0.00    -0.297 OA
HETATM   19  C25 UNL     1       1.897  50.581 -14.490  1.00  0.00     0.018 C 
HETATM   20  C26 UNL     1       1.489  51.689 -13.499  1.00  0.00     0.023 C 
HETATM   21  C27 UNL     1       3.434  50.635 -14.632  1.00  0.00     0.023 C 
HETATM   22  C28 UNL     1       1.224  50.707 -15.904  1.00  0.00     0.021 C 
HETATM   23  C29 UNL     1       1.106  52.154 -16.384  1.00  0.00     0.090 C 
HETATM   24  C30 UNL     1       0.655  52.205 -17.822  1.00  0.00     0.157 C 
HETATM   25  O6  UNL     1       1.064  53.101 -18.558  1.00  0.00    -0.293 OA
ENDROOT
BRANCH   1  26
HETATM   26  C2  UNL     1      -2.093  49.385 -22.874  1.00  0.00    -0.011 C 
HETATM   27  C1  UNL     1      -2.812  48.076 -22.548  1.00  0.00     0.010 C 
BRANCH  26  28
HETATM   28  C3  UNL     1      -2.794  50.088 -24.084  1.00  0.00     0.039 C 
BRANCH  28  29
HETATM   29  C4  UNL     1      -1.933  50.234 -25.363  1.00  0.00     0.150 C 
BRANCH  29  30
HETATM   30  O1  UNL     1      -2.541  49.491 -26.420  1.00  0.00    -0.393 OA
HETATM   31  H8  UNL     1      -2.143  49.800 -27.262  1.00  0.00     0.210 HD
ENDBRANCH  29  30
BRANCH  29  32
HETATM   32  C5  UNL     1      -1.707  51.724 -25.764  1.00  0.00     0.180 C 
BRANCH  32  33
HETATM   33  O2  UNL     1      -2.917  52.264 -26.321  1.00  0.00    -0.390 OA
HETATM   34  H10 UNL     1      -3.516  52.496 -25.589  1.00  0.00     0.210 HD
ENDBRANCH  32  33
BRANCH  32  35
HETATM   35  C6  UNL     1      -0.593  51.927 -26.838  1.00  0.00     0.079 C 
HETATM   36  C7  UNL     1      -0.140  53.393 -26.896  1.00  0.00     0.048 C 
HETATM   37  C8  UNL     1       0.626  51.029 -26.617  1.00  0.00     0.048 C 
BRANCH  35  38
HETATM   38  O3  UNL     1      -1.150  51.601 -28.121  1.00  0.00    -0.388 OA
HETATM   39  H17 UNL     1      -1.964  52.148 -28.188  1.00  0.00     0.210 HD
ENDBRANCH  35  38
ENDBRANCH  32  35
ENDBRANCH  29  32
ENDBRANCH  28  29
ENDBRANCH  26  28
ENDBRANCH   1  26
TORSDOF 8
ENDMDL
MODEL 8
REMARK minimizedAffinity -7.55164099
REMARK CNNscore 0.3339068
REMARK CNNaffinity 5.82129049
REMARK  8 active torsions:
REMARK  status: ('A' for Active; 'I' for Inactive)
REMARK    1  A    between atoms: C2_2  and  C3_3 
REMARK    2  A    between atoms: C2_2  and  C9_12 
REMARK    3  A    between atoms: C3_3  and  C4_4 
REMARK    4  A    between atoms: C4_4  and  O1_5 
REMARK    5  A    between atoms: C4_4  and  C5_6 
REMARK    6  A    between atoms: C5_6  and  O2_7 
REMARK    7  A    between atoms: C5_6  and  C6_8 
REMARK    8  A    between atoms: C6_8  and  O3_11 
ROOT
HETATM    1  C9  UNL     1       4.229  67.557 -36.928  1.00  0.00    -0.001 C 
HETATM    2  C10 UNL     1       4.878  66.903 -38.185  1.00  0.00     0.007 C 
HETATM    3  C11 UNL     1       3.937  67.184 -39.376  1.00  0.00     0.015 C 
HETATM    4  C12 UNL     1       2.619  67.682 -38.743  1.00  0.00    -0.004 C 
HETATM    5  C13 UNL     1       1.804  66.418 -38.327  1.00  0.00     0.021 C 
HETATM    6  C14 UNL     1       1.629  68.531 -39.536  1.00  0.00     0.007 C 
HETATM    7  C15 UNL     1       0.829  69.459 -38.949  1.00  0.00     0.007 C 
HETATM    8  C16 UNL     1       0.935  69.630 -37.440  1.00  0.00     0.157 C 
HETATM    9  O4  UNL     1       0.111  70.314 -36.828  1.00  0.00    -0.293 OA
HETATM   10  C17 UNL     1       2.045  68.948 -36.659  1.00  0.00     0.094 C 
HETATM   11  C18 UNL     1       3.209  68.547 -37.561  1.00  0.00    -0.022 C 
HETATM   12  C19 UNL     1       3.933  69.835 -38.074  1.00  0.00     0.017 C 
HETATM   13  C20 UNL     1      -0.205  70.335 -39.695  1.00  0.00    -0.007 C 
HETATM   14  C21 UNL     1      -1.608  69.758 -39.379  1.00  0.00     0.021 C 
HETATM   15  C22 UNL     1      -0.140  71.823 -39.213  1.00  0.00     0.022 C 
HETATM   16  C23 UNL     1      -0.502  72.883 -40.249  1.00  0.00     0.080 C 
HETATM   17  C24 UNL     1      -1.424  72.344 -41.310  1.00  0.00     0.135 C 
HETATM   18  O5  UNL     1      -2.503  72.886 -41.546  1.00  0.00    -0.297 OA
HETATM   19  C25 UNL     1      -0.903  71.149 -42.119  1.00  0.00     0.018 C 
HETATM   20  C26 UNL     1      -2.088  70.317 -42.647  1.00  0.00     0.023 C 
HETATM   21  C27 UNL     1      -0.172  71.738 -43.345  1.00  0.00     0.023 C 
HETATM   22  C28 UNL     1       0.108  70.333 -41.234  1.00  0.00     0.021 C 
HETATM   23  C29 UNL     1       0.343  68.913 -41.748  1.00  0.00     0.090 C 
HETATM   24  C30 UNL     1       1.471  68.253 -40.998  1.00  0.00     0.157 C 
HETATM   25  O6  UNL     1       2.207  67.457 -41.578  1.00  0.00    -0.293 OA
ENDROOT
BRANCH   1  26
HETATM   26  C2  UNL     1       5.302  67.967 -35.871  1.00  0.00    -0.011 C 
HETATM   27  C1  UNL     1       5.320  69.419 -35.392  1.00  0.00     0.010 C 
BRANCH  26  28
HETATM   28  C3  UNL     1       5.270  67.001 -34.640  1.00  0.00     0.039 C 
BRANCH  28  29
HETATM   29  C4  UNL     1       5.585  65.516 -34.947  1.00  0.00     0.150 C 
BRANCH  29  30
HETATM   30  O1  UNL     1       6.822  65.440 -35.654  1.00  0.00    -0.393 OA
HETATM   31  H8  UNL     1       7.130  64.508 -35.607  1.00  0.00     0.210 HD
ENDBRANCH  29  30
BRANCH  29  32
HETATM   32  C5  UNL     1       5.601  64.632 -33.662  1.00  0.00     0.180 C 
BRANCH  32  33
HETATM   33  O2  UNL     1       6.892  64.021 -33.512  1.00  0.00    -0.390 OA
HETATM   34  H10 UNL     1       7.502  64.678 -33.132  1.00  0.00     0.210 HD
ENDBRANCH  32  33
BRANCH  32  35
HETATM   35  C6  UNL     1       4.558  63.471 -33.682  1.00  0.00     0.079 C 
HETATM   36  C7  UNL     1       5.123  62.231 -34.389  1.00  0.00     0.048 C 
HETATM   37  C8  UNL     1       4.070  63.079 -32.285  1.00  0.00     0.048 C 
BRANCH  35  38
HETATM   38  O3  UNL     1       3.419  63.912 -34.437  1.00  0.00    -0.388 OA
HETATM   39  H17 UNL     1       3.789  64.217 -35.294  1.00  0.00     0.210 HD
ENDBRANCH  35  38
ENDBRANCH  32  35
ENDBRANCH  29  32
ENDBRANCH  28  29
ENDBRANCH  26  28
ENDBRANCH   1  26
TORSDOF 8
ENDMDL
MODEL 9
REMARK minimizedAffinity -8.50461483
REMARK CNNscore 0.31992358
REMARK CNNaffinity 6.25582743
REMARK  8 active torsions:
REMARK  status: ('A' for Active; 'I' for Inactive)
REMARK    1  A    between atoms: C2_2  and  C3_3 
REMARK    2  A    between atoms: C2_2  and  C9_12 
REMARK    3  A    between atoms: C3_3  and  C4_4 
REMARK    4  A    between atoms: C4_4  and  O1_5 
REMARK    5  A    between atoms: C4_4  and  C5_6 
REMARK    6  A    between atoms: C5_6  and  O2_7 
REMARK    7  A    between atoms: C5_6  and  C6_8 
REMARK    8  A    between atoms: C6_8  and  O3_11 
ROOT
HETATM    1  C9  UNL     1      -3.261  47.674 -19.716  1.00  0.00    -0.001 C 
HETATM    2  C10 UNL     1      -3.662  46.553 -20.721  1.00  0.00     0.007 C 
HETATM    3  C11 UNL     1      -3.543  47.154 -22.137  1.00  0.00     0.015 C 
HETATM    4  C12 UNL     1      -3.416  48.678 -21.922  1.00  0.00    -0.004 C 
HETATM    5  C13 UNL     1      -4.862  49.239 -21.746  1.00  0.00     0.021 C 
HETATM    6  C14 UNL     1      -2.782  49.579 -22.979  1.00  0.00     0.007 C 
HETATM    7  C15 UNL     1      -2.111  50.717 -22.662  1.00  0.00     0.007 C 
HETATM    8  C16 UNL     1      -2.012  51.091 -21.190  1.00  0.00     0.157 C 
HETATM    9  O4  UNL     1      -1.584  52.198 -20.853  1.00  0.00    -0.293 OA
HETATM   10  C17 UNL     1      -2.454  50.117 -20.111  1.00  0.00     0.094 C 
HETATM   11  C18 UNL     1      -2.508  48.683 -20.630  1.00  0.00    -0.022 C 
HETATM   12  C19 UNL     1      -1.055  48.185 -20.925  1.00  0.00     0.017 C 
HETATM   13  C20 UNL     1      -1.465  51.678 -23.688  1.00  0.00    -0.007 C 
HETATM   14  C21 UNL     1      -2.380  52.925 -23.787  1.00  0.00     0.021 C 
HETATM   15  C22 UNL     1      -0.038  52.124 -23.226  1.00  0.00     0.022 C 
HETATM   16  C23 UNL     1       0.966  52.425 -24.335  1.00  0.00     0.080 C 
HETATM   17  C24 UNL     1       0.286  52.844 -25.612  1.00  0.00     0.135 C 
HETATM   18  O5  UNL     1       0.567  53.909 -26.159  1.00  0.00    -0.297 OA
HETATM   19  C25 UNL     1      -0.697  51.834 -26.219  1.00  0.00     0.018 C 
HETATM   20  C26 UNL     1      -1.755  52.575 -27.060  1.00  0.00     0.023 C 
HETATM   21  C27 UNL     1       0.124  50.954 -27.186  1.00  0.00     0.023 C 
HETATM   22  C28 UNL     1      -1.298  50.949 -25.068  1.00  0.00     0.021 C 
HETATM   23  C29 UNL     1      -2.587  50.233 -25.475  1.00  0.00     0.090 C 
HETATM   24  C30 UNL     1      -3.001  49.239 -24.420  1.00  0.00     0.157 C 
HETATM   25  O6  UNL     1      -3.560  48.196 -24.751  1.00  0.00    -0.293 OA
ENDROOT
BRANCH   1  26
HETATM   26  C2  UNL     1      -2.670  47.083 -18.397  1.00  0.00    -0.011 C 
HETATM   27  C1  UNL     1      -2.222  48.060 -17.310  1.00  0.00     0.010 C 
BRANCH  26  28
HETATM   28  C3  UNL     1      -3.633  46.013 -17.785  1.00  0.00     0.039 C 
BRANCH  28  29
HETATM   29  C4  UNL     1      -4.804  46.571 -16.938  1.00  0.00     0.150 C 
BRANCH  29  30
HETATM   30  O1  UNL     1      -4.271  47.296 -15.830  1.00  0.00    -0.393 OA
HETATM   31  H8  UNL     1      -4.995  47.849 -15.466  1.00  0.00     0.210 HD
ENDBRANCH  29  30
BRANCH  29  32
HETATM   32  C5  UNL     1      -5.785  47.444 -17.778  1.00  0.00     0.180 C 
BRANCH  32  33
HETATM   33  O2  UNL     1      -5.555  48.834 -17.500  1.00  0.00    -0.390 OA
HETATM   34  H10 UNL     1      -4.777  49.126 -18.008  1.00  0.00     0.210 HD
ENDBRANCH  32  33
BRANCH  32  35
HETATM   35  C6  UNL     1      -7.291  47.172 -17.472  1.00  0.00     0.079 C 
HETATM   36  C7  UNL     1      -8.183  48.280 -18.052  1.00  0.00     0.048 C 
HETATM   37  C8  UNL     1      -7.773  45.814 -17.988  1.00  0.00     0.048 C 
BRANCH  35  38
HETATM   38  O3  UNL     1      -7.464  47.186 -16.047  1.00  0.00    -0.388 OA
HETATM   39  H17 UNL     1      -7.079  48.042 -15.756  1.00  0.00     0.210 HD
ENDBRANCH  35  38
ENDBRANCH  32  35
ENDBRANCH  29  32
ENDBRANCH  28  29
ENDBRANCH  26  28
ENDBRANCH   1  26
TORSDOF 8
ENDMDL
