MODEL 1
REMARK minimizedAffinity -7.45189905
REMARK CNNscore 0.454024613
REMARK CNNaffinity 6.64991331
REMARK  4 active torsions:
REMARK  status: ('A' for Active; 'I' for Inactive)
REMARK    1  A    between atoms: C4_4  and  C5_5 
REMARK    2  A    between atoms: C5_5  and  C6_6 
REMARK    3  A    between atoms: C6_6  and  C7_7 
REMARK    4  A    between atoms: C7_7  and  C9_9 
ROOT
HETATM    1  C9  UNL     1      -1.270   7.057  12.385  1.00  0.00    -0.002 C 
HETATM    2  C10 UNL     1      -2.344   6.172  13.098  1.00  0.00     0.006 C 
HETATM    3  C11 UNL     1      -2.539   6.720  14.526  1.00  0.00     0.011 C 
HETATM    4  C12 UNL     1      -1.858   8.095  14.505  1.00  0.00    -0.032 C 
HETATM    5  C13 UNL     1      -2.886   9.076  13.859  1.00  0.00     0.016 C 
HETATM    6  C14 UNL     1      -1.385   8.654  15.879  1.00  0.00     0.004 C 
HETATM    7  C15 UNL     1      -2.454   8.761  16.972  1.00  0.00     0.007 C 
HETATM    8  C16 UNL     1      -3.287  10.035  17.053  1.00  0.00     0.007 C 
HETATM    9  C17 UNL     1      -2.741  11.323  16.405  1.00  0.00     0.010 C 
HETATM   10  C18 UNL     1      -3.041  12.630  17.221  1.00  0.00     0.018 C 
HETATM   11  C19 UNL     1      -4.559  12.853  17.333  1.00  0.00     0.023 C 
HETATM   12  C20 UNL     1      -2.420  12.632  18.631  1.00  0.00     0.023 C 
HETATM   13  C21 UNL     1      -2.460  13.842  16.473  1.00  0.00     0.135 C 
HETATM   14  O1  UNL     1      -2.451  14.973  16.965  1.00  0.00    -0.297 OA
HETATM   15  C22 UNL     1      -1.949  13.610  15.074  1.00  0.00     0.080 C 
HETATM   16  C23 UNL     1      -0.908  12.501  15.076  1.00  0.00     0.018 C 
HETATM   17  C24 UNL     1      -1.283  11.299  15.944  1.00  0.00    -0.026 A 
HETATM   18  C25 UNL     1      -0.222  10.770  16.885  1.00  0.00     0.021 A 
HETATM   19  C26 UNL     1      -0.592   9.952  15.667  1.00  0.00    -0.027 A 
HETATM   20  C27 UNL     1       0.529   9.829  14.625  1.00  0.00     0.011 C 
HETATM   21  C28 UNL     1       0.107   9.131  13.318  1.00  0.00     0.011 C 
HETATM   22  C29 UNL     1      -0.597   7.788  13.591  1.00  0.00    -0.032 C 
HETATM   23  C30 UNL     1       0.441   6.812  14.232  1.00  0.00     0.016 C 
ENDROOT
BRANCH   1  24
HETATM   24  C7  UNL     1      -0.415   6.223  11.378  1.00  0.00    -0.014 C 
HETATM   25  C8  UNL     1       0.112   4.926  12.001  1.00  0.00     0.010 C 
BRANCH  24  26
HETATM   26  C6  UNL     1       0.771   7.087  10.857  1.00  0.00     0.008 C 
BRANCH  26  27
HETATM   27  C5  UNL     1       0.427   8.205   9.863  1.00  0.00     0.028 C 
BRANCH  27  28
HETATM   28  C4  UNL     1       0.601   7.813   8.421  1.00  0.00    -0.025 C 
HETATM   29  C2  UNL     1       1.748   7.808   7.714  1.00  0.00    -0.091 C 
HETATM   30  C1  UNL     1       3.078   8.275   8.238  1.00  0.00     0.042 C 
HETATM   31  C3  UNL     1       1.774   7.326   6.288  1.00  0.00     0.042 C 
ENDBRANCH  27  28
ENDBRANCH  26  27
ENDBRANCH  24  26
ENDBRANCH   1  24
TORSDOF 4
ENDMDL
MODEL 2
REMARK minimizedAffinity -6.27794647
REMARK CNNscore 0.420179456
REMARK CNNaffinity 6.22564077
REMARK  4 active torsions:
REMARK  status: ('A' for Active; 'I' for Inactive)
REMARK    1  A    between atoms: C4_4  and  C5_5 
REMARK    2  A    between atoms: C5_5  and  C6_6 
REMARK    3  A    between atoms: C6_6  and  C7_7 
REMARK    4  A    between atoms: C7_7  and  C9_9 
ROOT
HETATM    1  C9  UNL     1       6.946  16.441  23.860  1.00  0.00    -0.002 C 
HETATM    2  C10 UNL     1       6.206  17.522  23.006  1.00  0.00     0.006 C 
HETATM    3  C11 UNL     1       5.628  16.827  21.757  1.00  0.00     0.011 C 
HETATM    4  C12 UNL     1       5.730  15.329  22.071  1.00  0.00    -0.032 C 
HETATM    5  C13 UNL     1       4.501  14.993  22.973  1.00  0.00     0.016 C 
HETATM    6  C14 UNL     1       5.766  14.366  20.848  1.00  0.00     0.004 C 
HETATM    7  C15 UNL     1       4.602  14.483  19.858  1.00  0.00     0.007 C 
HETATM    8  C16 UNL     1       3.343  13.662  20.115  1.00  0.00     0.007 C 
HETATM    9  C17 UNL     1       3.437  12.421  21.023  1.00  0.00     0.010 C 
HETATM   10  C18 UNL     1       2.555  11.211  20.551  1.00  0.00     0.018 C 
HETATM   11  C19 UNL     1       1.066  11.599  20.560  1.00  0.00     0.023 C 
HETATM   12  C20 UNL     1       2.935  10.679  19.155  1.00  0.00     0.023 C 
HETATM   13  C21 UNL     1       2.723  10.042  21.537  1.00  0.00     0.135 C 
HETATM   14  O1  UNL     1       2.235   8.930  21.324  1.00  0.00    -0.297 OA
HETATM   15  C22 UNL     1       3.466  10.322  22.819  1.00  0.00     0.080 C 
HETATM   16  C23 UNL     1       4.840  10.895  22.512  1.00  0.00     0.018 C 
HETATM   17  C24 UNL     1       4.841  11.948  21.403  1.00  0.00    -0.026 A 
HETATM   18  C25 UNL     1       5.889  11.807  20.319  1.00  0.00     0.021 A 
HETATM   19  C26 UNL     1       6.024  12.929  21.325  1.00  0.00    -0.027 A 
HETATM   20  C27 UNL     1       7.235  12.795  22.259  1.00  0.00     0.011 C 
HETATM   21  C28 UNL     1       7.289  13.848  23.383  1.00  0.00     0.011 C 
HETATM   22  C29 UNL     1       7.122  15.277  22.831  1.00  0.00    -0.032 C 
HETATM   23  C30 UNL     1       8.359  15.605  21.935  1.00  0.00     0.016 C 
ENDROOT
BRANCH   1  24
HETATM   24  C7  UNL     1       8.180  17.042  24.605  1.00  0.00    -0.014 C 
HETATM   25  C8  UNL     1       8.977  15.973  25.361  1.00  0.00     0.010 C 
BRANCH  24  26
HETATM   26  C6  UNL     1       7.709  18.154  25.588  1.00  0.00     0.008 C 
BRANCH  26  27
HETATM   27  C5  UNL     1       6.723  17.733  26.686  1.00  0.00     0.028 C 
BRANCH  27  28
HETATM   28  C4  UNL     1       7.341  17.626  28.053  1.00  0.00    -0.025 C 
HETATM   29  C2  UNL     1       6.820  17.010  29.133  1.00  0.00    -0.091 C 
HETATM   30  C1  UNL     1       5.461  16.369  29.180  1.00  0.00     0.042 C 
HETATM   31  C3  UNL     1       7.592  16.932  30.424  1.00  0.00     0.042 C 
ENDBRANCH  27  28
ENDBRANCH  26  27
ENDBRANCH  24  26
ENDBRANCH   1  24
TORSDOF 4
ENDMDL
MODEL 3
REMARK minimizedAffinity -6.87075901
REMARK CNNscore 0.381573826
REMARK CNNaffinity 5.33493757
REMARK  4 active torsions:
REMARK  status: ('A' for Active; 'I' for Inactive)
REMARK    1  A    between atoms: C4_4  and  C5_5 
REMARK    2  A    between atoms: C5_5  and  C6_6 
REMARK    3  A    between atoms: C6_6  and  C7_7 
REMARK    4  A    between atoms: C7_7  and  C9_9 
ROOT
HETATM    1  C9  UNL     1       5.906   8.292  11.719  1.00  0.00    -0.002 C 
HETATM    2  C10 UNL     1       5.001   9.566  11.775  1.00  0.00     0.006 C 
HETATM    3  C11 UNL     1       5.521  10.468  12.912  1.00  0.00     0.011 C 
HETATM    4  C12 UNL     1       6.900   9.892  13.258  1.00  0.00    -0.032 C 
HETATM    5  C13 UNL     1       7.886  10.464  12.191  1.00  0.00     0.016 C 
HETATM    6  C14 UNL     1       7.436  10.193  14.688  1.00  0.00     0.004 C 
HETATM    7  C15 UNL     1       7.515  11.671  15.086  1.00  0.00     0.007 C 
HETATM    8  C16 UNL     1       8.782  12.449  14.749  1.00  0.00     0.007 C 
HETATM    9  C17 UNL     1      10.085  11.670  14.485  1.00  0.00     0.010 C 
HETATM   10  C18 UNL     1      11.375  12.363  15.052  1.00  0.00     0.018 C 
HETATM   11  C19 UNL     1      11.585  13.730  14.378  1.00  0.00     0.023 C 
HETATM   12  C20 UNL     1      11.355  12.546  16.582  1.00  0.00     0.023 C 
HETATM   13  C21 UNL     1      12.605  11.501  14.719  1.00  0.00     0.135 C 
HETATM   14  O1  UNL     1      13.726  11.761  15.162  1.00  0.00    -0.297 OA
HETATM   15  C22 UNL     1      12.403  10.346  13.772  1.00  0.00     0.080 C 
HETATM   16  C23 UNL     1      11.301   9.434  14.289  1.00  0.00     0.018 C 
HETATM   17  C24 UNL     1      10.080  10.179  14.830  1.00  0.00    -0.026 A 
HETATM   18  C25 UNL     1       9.541   9.736  16.173  1.00  0.00     0.021 A 
HETATM   19  C26 UNL     1       8.744   9.423  14.926  1.00  0.00    -0.027 A 
HETATM   20  C27 UNL     1       8.648   7.926  14.598  1.00  0.00     0.011 C 
HETATM   21  C28 UNL     1       7.972   7.613  13.249  1.00  0.00     0.011 C 
HETATM   22  C29 UNL     1       6.619   8.337  13.110  1.00  0.00    -0.032 C 
HETATM   23  C30 UNL     1       5.638   7.755  14.177  1.00  0.00     0.016 C 
ENDROOT
BRANCH   1  24
HETATM   24  C7  UNL     1       5.098   7.030  11.277  1.00  0.00    -0.014 C 
HETATM   25  C8  UNL     1       6.013   5.860  10.899  1.00  0.00     0.010 C 
BRANCH  24  26
HETATM   26  C6  UNL     1       4.171   7.394  10.080  1.00  0.00     0.008 C 
BRANCH  26  27
HETATM   27  C5  UNL     1       3.102   6.362   9.696  1.00  0.00     0.028 C 
BRANCH  27  28
HETATM   28  C4  UNL     1       2.719   6.394   8.242  1.00  0.00    -0.025 C 
HETATM   29  C2  UNL     1       1.874   7.257   7.644  1.00  0.00    -0.091 C 
HETATM   30  C1  UNL     1       1.090   8.321   8.359  1.00  0.00     0.042 C 
HETATM   31  C3  UNL     1       1.639   7.201   6.157  1.00  0.00     0.042 C 
ENDBRANCH  27  28
ENDBRANCH  26  27
ENDBRANCH  24  26
ENDBRANCH   1  24
TORSDOF 4
ENDMDL
MODEL 4
REMARK minimizedAffinity -7.25807428
REMARK CNNscore 0.365743935
REMARK CNNaffinity 6.8013382
REMARK  4 active torsions:
REMARK  status: ('A' for Active; 'I' for Inactive)
REMARK    1  A    between atoms: C4_4  and  C5_5 
REMARK    2  A    between atoms: C5_5  and  C6_6 
REMARK    3  A    between atoms: C6_6  and  C7_7 
REMARK    4  A    between atoms: C7_7  and  C9_9 
ROOT
HETATM    1  C9  UNL     1      -0.085   6.740  12.210  1.00  0.00    -0.002 C 
HETATM    2  C10 UNL     1       0.449   5.746  13.294  1.00  0.00     0.006 C 
HETATM    3  C11 UNL     1      -0.499   5.812  14.508  1.00  0.00     0.011 C 
HETATM    4  C12 UNL     1      -1.736   6.556  13.988  1.00  0.00    -0.032 C 
HETATM    5  C13 UNL     1      -2.590   5.495  13.227  1.00  0.00     0.016 C 
HETATM    6  C14 UNL     1      -2.612   7.273  15.057  1.00  0.00     0.004 C 
HETATM    7  C15 UNL     1      -3.131   6.400  16.204  1.00  0.00     0.007 C 
HETATM    8  C16 UNL     1      -4.453   5.662  16.018  1.00  0.00     0.007 C 
HETATM    9  C17 UNL     1      -5.442   6.168  14.950  1.00  0.00     0.010 C 
HETATM   10  C18 UNL     1      -6.950   6.075  15.375  1.00  0.00     0.018 C 
HETATM   11  C19 UNL     1      -7.346   4.609  15.622  1.00  0.00     0.023 C 
HETATM   12  C20 UNL     1      -7.291   6.913  16.623  1.00  0.00     0.023 C 
HETATM   13  C21 UNL     1      -7.835   6.596  14.230  1.00  0.00     0.135 C 
HETATM   14  O1  UNL     1      -9.053   6.747  14.359  1.00  0.00    -0.297 OA
HETATM   15  C22 UNL     1      -7.166   6.864  12.907  1.00  0.00     0.080 C 
HETATM   16  C23 UNL     1      -6.005   7.828  13.094  1.00  0.00     0.018 C 
HETATM   17  C24 UNL     1      -5.143   7.530  14.321  1.00  0.00    -0.026 A 
HETATM   18  C25 UNL     1      -4.800   8.697  15.223  1.00  0.00     0.021 A 
HETATM   19  C26 UNL     1      -3.711   8.093  14.364  1.00  0.00    -0.027 A 
HETATM   20  C27 UNL     1      -3.186   9.025  13.263  1.00  0.00     0.011 C 
HETATM   21  C28 UNL     1      -2.191   8.361  12.290  1.00  0.00     0.011 C 
HETATM   22  C29 UNL     1      -1.058   7.637  13.043  1.00  0.00    -0.032 C 
HETATM   23  C30 UNL     1      -0.206   8.708  13.796  1.00  0.00     0.016 C 
ENDROOT
BRANCH   1  24
HETATM   24  C7  UNL     1       1.081   7.376  11.388  1.00  0.00    -0.014 C 
HETATM   25  C8  UNL     1       1.445   8.778  11.889  1.00  0.00     0.010 C 
BRANCH  24  26
HETATM   26  C6  UNL     1       0.692   7.430   9.882  1.00  0.00     0.008 C 
BRANCH  26  27
HETATM   27  C5  UNL     1       1.845   7.389   8.870  1.00  0.00     0.028 C 
BRANCH  27  28
HETATM   28  C4  UNL     1       2.446   6.022   8.684  1.00  0.00    -0.025 C 
HETATM   29  C2  UNL     1       3.464   5.482   9.383  1.00  0.00    -0.091 C 
HETATM   30  C1  UNL     1       4.245   6.197  10.449  1.00  0.00     0.042 C 
HETATM   31  C3  UNL     1       3.914   4.068   9.122  1.00  0.00     0.042 C 
ENDBRANCH  27  28
ENDBRANCH  26  27
ENDBRANCH  24  26
ENDBRANCH   1  24
TORSDOF 4
ENDMDL
MODEL 5
REMARK minimizedAffinity -6.53971529
REMARK CNNscore 0.302042335
REMARK CNNaffinity 5.78437424
REMARK  4 active torsions:
REMARK  status: ('A' for Active; 'I' for Inactive)
REMARK    1  A    between atoms: C4_4  and  C5_5 
REMARK    2  A    between atoms: C5_5  and  C6_6 
REMARK    3  A    between atoms: C6_6  and  C7_7 
REMARK    4  A    between atoms: C7_7  and  C9_9 
ROOT
HETATM    1  C9  UNL     1       2.292  11.869  20.534  1.00  0.00    -0.002 C 
HETATM    2  C10 UNL     1       3.078  13.091  19.955  1.00  0.00     0.006 C 
HETATM    3  C11 UNL     1       2.270  13.655  18.768  1.00  0.00     0.011 C 
HETATM    4  C12 UNL     1       0.892  12.994  18.894  1.00  0.00    -0.032 C 
HETATM    5  C13 UNL     1       0.115  13.819  19.969  1.00  0.00     0.016 C 
HETATM    6  C14 UNL     1       0.047  12.899  17.590  1.00  0.00     0.004 C 
HETATM    7  C15 UNL     1      -0.213  14.217  16.853  1.00  0.00     0.007 C 
HETATM    8  C16 UNL     1      -1.431  15.044  17.250  1.00  0.00     0.007 C 
HETATM    9  C17 UNL     1      -2.594  14.350  17.986  1.00  0.00     0.010 C 
HETATM   10  C18 UNL     1      -4.017  14.856  17.559  1.00  0.00     0.018 C 
HETATM   11  C19 UNL     1      -4.174  16.351  17.888  1.00  0.00     0.023 C 
HETATM   12  C20 UNL     1      -4.332  14.626  16.068  1.00  0.00     0.023 C 
HETATM   13  C21 UNL     1      -5.089  14.101  18.364  1.00  0.00     0.135 C 
HETATM   14  O1  UNL     1      -6.293  14.223  18.128  1.00  0.00    -0.297 OA
HETATM   15  C22 UNL     1      -4.615  13.241  19.508  1.00  0.00     0.080 C 
HETATM   16  C23 UNL     1      -3.587  12.235  19.013  1.00  0.00     0.018 C 
HETATM   17  C24 UNL     1      -2.560  12.822  18.043  1.00  0.00    -0.026 A 
HETATM   18  C25 UNL     1      -2.286  12.043  16.774  1.00  0.00     0.021 A 
HETATM   19  C26 UNL     1      -1.225  12.080  17.852  1.00  0.00    -0.027 A 
HETATM   20  C27 UNL     1      -0.962  10.725  18.524  1.00  0.00     0.011 C 
HETATM   21  C28 UNL     1       0.002  10.789  19.725  1.00  0.00     0.011 C 
HETATM   22  C29 UNL     1       1.302  11.537  19.371  1.00  0.00    -0.032 C 
HETATM   23  C30 UNL     1       2.074  10.702  18.301  1.00  0.00     0.016 C 
ENDROOT
BRANCH   1  24
HETATM   24  C7  UNL     1       3.259  10.779  21.096  1.00  0.00    -0.014 C 
HETATM   25  C8  UNL     1       2.750  10.176  22.411  1.00  0.00     0.010 C 
BRANCH  24  26
HETATM   26  C6  UNL     1       4.677  11.388  21.300  1.00  0.00     0.008 C 
BRANCH  26  27
HETATM   27  C5  UNL     1       5.147  11.575  22.749  1.00  0.00     0.028 C 
BRANCH  27  28
HETATM   28  C4  UNL     1       5.888  12.862  22.988  1.00  0.00    -0.025 C 
HETATM   29  C2  UNL     1       7.219  13.018  23.131  1.00  0.00    -0.091 C 
HETATM   30  C1  UNL     1       8.215  11.892  23.149  1.00  0.00     0.042 C 
HETATM   31  C3  UNL     1       7.822  14.387  23.302  1.00  0.00     0.042 C 
ENDBRANCH  27  28
ENDBRANCH  26  27
ENDBRANCH  24  26
ENDBRANCH   1  24
TORSDOF 4
ENDMDL
MODEL 6
REMARK minimizedAffinity -8.08687019
REMARK CNNscore 0.298951417
REMARK CNNaffinity 6.53792715
REMARK  4 active torsions:
REMARK  status: ('A' for Active; 'I' for Inactive)
REMARK    1  A    between atoms: C4_4  and  C5_5 
REMARK    2  A    between atoms: C5_5  and  C6_6 
REMARK    3  A    between atoms: C6_6  and  C7_7 
REMARK    4  A    between atoms: C7_7  and  C9_9 
ROOT
HETATM    1  C9  UNL     1      -0.871   9.988  17.061  1.00  0.00    -0.002 C 
HETATM    2  C10 UNL     1      -1.948  10.448  18.097  1.00  0.00     0.006 C 
HETATM    3  C11 UNL     1      -3.338  10.240  17.461  1.00  0.00     0.011 C 
HETATM    4  C12 UNL     1      -3.070   9.353  16.238  1.00  0.00    -0.032 C 
HETATM    5  C13 UNL     1      -2.967   7.892  16.779  1.00  0.00     0.016 C 
HETATM    6  C14 UNL     1      -4.122   9.419  15.092  1.00  0.00     0.004 C 
HETATM    7  C15 UNL     1      -5.573   9.121  15.486  1.00  0.00     0.007 C 
HETATM    8  C16 UNL     1      -6.050   7.673  15.465  1.00  0.00     0.007 C 
HETATM    9  C17 UNL     1      -5.274   6.647  14.616  1.00  0.00     0.010 C 
HETATM   10  C18 UNL     1      -6.184   5.588  13.898  1.00  0.00     0.018 C 
HETATM   11  C19 UNL     1      -6.949   4.749  14.936  1.00  0.00     0.023 C 
HETATM   12  C20 UNL     1      -7.185   6.208  12.905  1.00  0.00     0.023 C 
HETATM   13  C21 UNL     1      -5.300   4.618  13.095  1.00  0.00     0.135 C 
HETATM   14  O1  UNL     1      -5.777   3.769  12.339  1.00  0.00    -0.297 OA
HETATM   15  C22 UNL     1      -3.810   4.701  13.312  1.00  0.00     0.080 C 
HETATM   16  C23 UNL     1      -3.323   6.118  13.057  1.00  0.00     0.018 C 
HETATM   17  C24 UNL     1      -4.227   7.201  13.650  1.00  0.00    -0.026 A 
HETATM   18  C25 UNL     1      -4.597   8.360  12.748  1.00  0.00     0.021 A 
HETATM   19  C26 UNL     1      -3.632   8.601  13.889  1.00  0.00    -0.027 A 
HETATM   20  C27 UNL     1      -2.205   8.948  13.443  1.00  0.00     0.011 C 
HETATM   21  C28 UNL     1      -1.186   9.041  14.596  1.00  0.00     0.011 C 
HETATM   22  C29 UNL     1      -1.691   9.953  15.730  1.00  0.00    -0.032 C 
HETATM   23  C30 UNL     1      -1.787  11.413  15.181  1.00  0.00     0.016 C 
ENDROOT
BRANCH   1  24
HETATM   24  C7  UNL     1       0.435  10.838  17.172  1.00  0.00    -0.014 C 
HETATM   25  C8  UNL     1       1.698   9.979  17.041  1.00  0.00     0.010 C 
BRANCH  24  26
HETATM   26  C6  UNL     1       0.447  11.605  18.526  1.00  0.00     0.008 C 
BRANCH  26  27
HETATM   27  C5  UNL     1       0.748  10.781  19.785  1.00  0.00     0.028 C 
BRANCH  27  28
HETATM   28  C4  UNL     1       1.712  11.443  20.731  1.00  0.00    -0.025 C 
HETATM   29  C2  UNL     1       2.517  10.835  21.625  1.00  0.00    -0.091 C 
HETATM   30  C1  UNL     1       2.540   9.356  21.890  1.00  0.00     0.042 C 
HETATM   31  C3  UNL     1       3.481  11.634  22.463  1.00  0.00     0.042 C 
ENDBRANCH  27  28
ENDBRANCH  26  27
ENDBRANCH  24  26
ENDBRANCH   1  24
TORSDOF 4
ENDMDL
MODEL 7
REMARK minimizedAffinity -6.51370382
REMARK CNNscore 0.296570152
REMARK CNNaffinity 6.15012121
REMARK  4 active torsions:
REMARK  status: ('A' for Active; 'I' for Inactive)
REMARK    1  A    between atoms: C4_4  and  C5_5 
REMARK    2  A    between atoms: C5_5  and  C6_6 
REMARK    3  A    between atoms: C6_6  and  C7_7 
REMARK    4  A    between atoms: C7_7  and  C9_9 
ROOT
HETATM    1  C9  UNL     1      -2.366  12.112  16.714  1.00  0.00    -0.002 C 
HETATM    2  C10 UNL     1      -1.333  11.785  17.842  1.00  0.00     0.006 C 
HETATM    3  C11 UNL     1      -0.790  10.364  17.591  1.00  0.00     0.011 C 
HETATM    4  C12 UNL     1      -1.234  10.031  16.161  1.00  0.00    -0.032 C 
HETATM    5  C13 UNL     1      -0.200  10.722  15.217  1.00  0.00     0.016 C 
HETATM    6  C14 UNL     1      -1.347   8.519  15.805  1.00  0.00     0.004 C 
HETATM    7  C15 UNL     1      -0.089   7.673  16.035  1.00  0.00     0.007 C 
HETATM    8  C16 UNL     1       0.938   7.576  14.913  1.00  0.00     0.007 C 
HETATM    9  C17 UNL     1       0.495   7.890  13.470  1.00  0.00     0.010 C 
HETATM   10  C18 UNL     1       1.148   6.966  12.382  1.00  0.00     0.018 C 
HETATM   11  C19 UNL     1       2.676   7.144  12.377  1.00  0.00     0.023 C 
HETATM   12  C20 UNL     1       0.809   5.473  12.557  1.00  0.00     0.023 C 
HETATM   13  C21 UNL     1       0.640   7.380  10.991  1.00  0.00     0.135 C 
HETATM   14  O1  UNL     1       0.904   6.731   9.976  1.00  0.00    -0.297 OA
HETATM   15  C22 UNL     1      -0.154   8.659  10.898  1.00  0.00     0.080 C 
HETATM   16  C23 UNL     1      -1.340   8.607  11.847  1.00  0.00     0.018 C 
HETATM   17  C24 UNL     1      -1.008   8.032  13.225  1.00  0.00    -0.026 A 
HETATM   18  C25 UNL     1      -1.947   6.980  13.778  1.00  0.00     0.021 A 
HETATM   19  C26 UNL     1      -1.946   8.359  14.401  1.00  0.00    -0.027 A 
HETATM   20  C27 UNL     1      -3.247   9.146  14.189  1.00  0.00     0.011 C 
HETATM   21  C28 UNL     1      -3.193  10.605  14.685  1.00  0.00     0.011 C 
HETATM   22  C29 UNL     1      -2.676  10.693  16.135  1.00  0.00    -0.032 C 
HETATM   23  C30 UNL     1      -3.719  10.005  17.071  1.00  0.00     0.016 C 
ENDROOT
BRANCH   1  24
HETATM   24  C7  UNL     1      -3.516  13.031  17.235  1.00  0.00    -0.014 C 
HETATM   25  C8  UNL     1      -4.121  13.890  16.119  1.00  0.00     0.010 C 
BRANCH  24  26
HETATM   26  C6  UNL     1      -2.983  13.940  18.381  1.00  0.00     0.008 C 
BRANCH  26  27
HETATM   27  C5  UNL     1      -3.743  13.888  19.713  1.00  0.00     0.028 C 
BRANCH  27  28
HETATM   28  C4  UNL     1      -5.236  13.785  19.559  1.00  0.00    -0.025 C 
HETATM   29  C2  UNL     1      -6.137  13.541  20.532  1.00  0.00    -0.091 C 
HETATM   30  C1  UNL     1      -5.791  13.250  21.965  1.00  0.00     0.042 C 
HETATM   31  C3  UNL     1      -7.613  13.530  20.232  1.00  0.00     0.042 C 
ENDBRANCH  27  28
ENDBRANCH  26  27
ENDBRANCH  24  26
ENDBRANCH   1  24
TORSDOF 4
ENDMDL
MODEL 8
REMARK minimizedAffinity -7.2254982
REMARK CNNscore 0.28367725
REMARK CNNaffinity 6.60623598
REMARK  4 active torsions:
REMARK  status: ('A' for Active; 'I' for Inactive)
REMARK    1  A    between atoms: C4_4  and  C5_5 
REMARK    2  A    between atoms: C5_5  and  C6_6 
REMARK    3  A    between atoms: C6_6  and  C7_7 
REMARK    4  A    between atoms: C7_7  and  C9_9 
ROOT
HETATM    1  C9  UNL     1      -4.978   7.311  15.083  1.00  0.00    -0.002 C 
HETATM    2  C10 UNL     1      -5.287   7.260  13.551  1.00  0.00     0.006 C 
HETATM    3  C11 UNL     1      -4.151   7.995  12.812  1.00  0.00     0.011 C 
HETATM    4  C12 UNL     1      -3.046   8.149  13.865  1.00  0.00    -0.032 C 
HETATM    5  C13 UNL     1      -2.296   6.781  13.906  1.00  0.00     0.016 C 
HETATM    6  C14 UNL     1      -2.027   9.304  13.636  1.00  0.00     0.004 C 
HETATM    7  C15 UNL     1      -1.293   9.303  12.291  1.00  0.00     0.007 C 
HETATM    8  C16 UNL     1       0.003   8.508  12.170  1.00  0.00     0.007 C 
HETATM    9  C17 UNL     1       0.780   8.154  13.453  1.00  0.00     0.010 C 
HETATM   10  C18 UNL     1       2.341   8.228  13.300  1.00  0.00     0.018 C 
HETATM   11  C19 UNL     1       2.823   7.213  12.249  1.00  0.00     0.023 C 
HETATM   12  C20 UNL     1       2.858   9.631  12.929  1.00  0.00     0.023 C 
HETATM   13  C21 UNL     1       3.002   7.845  14.635  1.00  0.00     0.135 C 
HETATM   14  O1  UNL     1       4.218   7.945  14.817  1.00  0.00    -0.297 OA
HETATM   15  C22 UNL     1       2.111   7.278  15.710  1.00  0.00     0.080 C 
HETATM   16  C23 UNL     1       0.965   8.236  15.998  1.00  0.00     0.018 C 
HETATM   17  C24 UNL     1       0.333   8.841  14.744  1.00  0.00    -0.026 A 
HETATM   18  C25 UNL     1       0.106  10.338  14.740  1.00  0.00     0.021 A 
HETATM   19  C26 UNL     1      -1.090   9.419  14.847  1.00  0.00    -0.027 A 
HETATM   20  C27 UNL     1      -1.825   9.495  16.193  1.00  0.00     0.011 C 
HETATM   21  C28 UNL     1      -2.946   8.451  16.364  1.00  0.00     0.011 C 
HETATM   22  C29 UNL     1      -3.910   8.450  15.162  1.00  0.00    -0.032 C 
HETATM   23  C30 UNL     1      -4.660   9.821  15.133  1.00  0.00     0.016 C 
ENDROOT
BRANCH   1  24
HETATM   24  C7  UNL     1      -6.287   7.383  15.932  1.00  0.00    -0.014 C 
HETATM   25  C8  UNL     1      -6.762   5.997  16.383  1.00  0.00     0.010 C 
BRANCH  24  26
HETATM   26  C6  UNL     1      -7.405   8.093  15.114  1.00  0.00     0.008 C 
BRANCH  26  27
HETATM   27  C5  UNL     1      -8.741   7.349  14.980  1.00  0.00     0.028 C 
BRANCH  27  28
HETATM   28  C4  UNL     1      -9.946   8.204  15.262  1.00  0.00    -0.025 C 
HETATM   29  C2  UNL     1     -11.218   7.960  14.891  1.00  0.00    -0.091 C 
HETATM   30  C1  UNL     1     -11.655   6.798  14.044  1.00  0.00     0.042 C 
HETATM   31  C3  UNL     1     -12.333   8.884  15.306  1.00  0.00     0.042 C 
ENDBRANCH  27  28
ENDBRANCH  26  27
ENDBRANCH  24  26
ENDBRANCH   1  24
TORSDOF 4
ENDMDL
MODEL 9
REMARK minimizedAffinity -7.33571005
REMARK CNNscore 0.204728484
REMARK CNNaffinity 6.11872149
REMARK  4 active torsions:
REMARK  status: ('A' for Active; 'I' for Inactive)
REMARK    1  A    between atoms: C4_4  and  C5_5 
REMARK    2  A    between atoms: C5_5  and  C6_6 
REMARK    3  A    between atoms: C6_6  and  C7_7 
REMARK    4  A    between atoms: C7_7  and  C9_9 
ROOT
HETATM    1  C9  UNL     1     -10.424   7.990  15.037  1.00  0.00    -0.002 C 
HETATM    2  C10 UNL     1     -10.061   9.487  14.763  1.00  0.00     0.006 C 
HETATM    3  C11 UNL     1     -11.201  10.106  13.929  1.00  0.00     0.011 C 
HETATM    4  C12 UNL     1     -12.346   9.090  14.031  1.00  0.00    -0.032 C 
HETATM    5  C13 UNL     1     -13.042   9.360  15.402  1.00  0.00     0.016 C 
HETATM    6  C14 UNL     1     -13.403   9.120  12.887  1.00  0.00     0.004 C 
HETATM    7  C15 UNL     1     -14.091  10.466  12.636  1.00  0.00     0.007 C 
HETATM    8  C16 UNL     1     -15.349  10.800  13.431  1.00  0.00     0.007 C 
HETATM    9  C17 UNL     1     -16.154   9.649  14.067  1.00  0.00     0.010 C 
HETATM   10  C18 UNL     1     -17.710   9.847  14.014  1.00  0.00     0.018 C 
HETATM   11  C19 UNL     1     -18.116  11.102  14.807  1.00  0.00     0.023 C 
HETATM   12  C20 UNL     1     -18.271   9.945  12.582  1.00  0.00     0.023 C 
HETATM   13  C21 UNL     1     -18.400   8.647  14.684  1.00  0.00     0.135 C 
HETATM   14  O1  UNL     1     -19.624   8.498  14.663  1.00  0.00    -0.297 OA
HETATM   15  C22 UNL     1     -17.522   7.675  15.430  1.00  0.00     0.080 C 
HETATM   16  C23 UNL     1     -16.427   7.151  14.515  1.00  0.00     0.018 C 
HETATM   17  C24 UNL     1     -15.778   8.228  13.644  1.00  0.00    -0.026 A 
HETATM   18  C25 UNL     1     -15.612   7.917  12.172  1.00  0.00     0.021 A 
HETATM   19  C26 UNL     1     -14.383   7.951  13.054  1.00  0.00    -0.027 A 
HETATM   20  C27 UNL     1     -13.698   6.588  13.232  1.00  0.00     0.011 C 
HETATM   21  C28 UNL     1     -12.542   6.588  14.252  1.00  0.00     0.011 C 
HETATM   22  C29 UNL     1     -11.539   7.725  13.974  1.00  0.00    -0.032 C 
HETATM   23  C30 UNL     1     -10.844   7.443  12.603  1.00  0.00     0.016 C 
ENDROOT
BRANCH   1  24
HETATM   24  C7  UNL     1      -9.148   7.092  15.098  1.00  0.00    -0.014 C 
HETATM   25  C8  UNL     1      -7.865   7.917  15.248  1.00  0.00     0.010 C 
BRANCH  24  26
HETATM   26  C6  UNL     1      -9.069   6.205  13.821  1.00  0.00     0.008 C 
BRANCH  26  27
HETATM   27  C5  UNL     1      -7.672   5.740  13.388  1.00  0.00     0.028 C 
BRANCH  27  28
HETATM   28  C4  UNL     1      -7.639   4.341  12.835  1.00  0.00    -0.025 C 
HETATM   29  C2  UNL     1      -6.551   3.570  12.643  1.00  0.00    -0.091 C 
HETATM   30  C1  UNL     1      -5.135   4.011  12.887  1.00  0.00     0.042 C 
HETATM   31  C3  UNL     1      -6.686   2.158  12.138  1.00  0.00     0.042 C 
ENDBRANCH  27  28
ENDBRANCH  26  27
ENDBRANCH  24  26
ENDBRANCH   1  24
TORSDOF 4
ENDMDL
