MODEL 1
REMARK minimizedAffinity -8.20617104
REMARK  4 active torsions:
REMARK  status: ('A' for Active; 'I' for Inactive)
REMARK    1  A    between atoms: C2_2  and  C4_4 
REMARK    2  A    between atoms: C13_13  and  C15_15 
REMARK    3  A    between atoms: C15_15  and  O1_16 
REMARK    4  A    between atoms: C18_19  and  O2_20 
ROOT
HETATM    1  C4  UNL     1      -5.748   4.702  12.876  1.00  0.00     0.021 C 
HETATM    2  C5  UNL     1      -4.865   3.532  12.392  1.00  0.00     0.008 C 
HETATM    3  C6  UNL     1      -3.346   3.810  12.374  1.00  0.00     0.009 C 
HETATM    4  C7  UNL     1      -2.960   5.284  12.624  1.00  0.00     0.034 C 
HETATM    5  C8  UNL     1      -1.407   5.601  12.572  1.00  0.00    -0.033 C 
HETATM    6  C9  UNL     1      -0.574   4.439  13.166  1.00  0.00     0.016 C 
HETATM    7  C10 UNL     1      -1.003   5.756  11.080  1.00  0.00     0.010 C 
HETATM    8  C11 UNL     1       0.375   6.377  10.882  1.00  0.00     0.002 C 
HETATM    9  C12 UNL     1       0.445   7.757  11.519  1.00  0.00     0.012 C 
HETATM   10  C13 UNL     1       0.141   7.765  13.039  1.00  0.00    -0.018 C 
HETATM   11  C14 UNL     1       1.372   7.230  13.803  1.00  0.00     0.018 C 
HETATM   12  C16 UNL     1      -1.193   6.968  13.321  1.00  0.00     0.007 C 
HETATM   13  C17 UNL     1      -1.555   6.856  14.823  1.00  0.00     0.041 C 
HETATM   14  C18 UNL     1      -2.740   5.928  15.122  1.00  0.00     0.156 C 
HETATM   15  C19 UNL     1      -3.611   5.728  13.919  1.00  0.00     0.118 A 
HETATM   16  O3  UNL     1      -4.648   6.717  13.781  1.00  0.00    -0.366 OA
HETATM   17  C20 UNL     1      -5.076   5.375  14.050  1.00  0.00     0.165 A 
ENDROOT
BRANCH  10  18
HETATM   18  C15 UNL     1      -0.066   9.249  13.478  1.00  0.00     0.173 C 
BRANCH  18  19
HETATM   19  O1  UNL     1      -1.097   9.896  12.740  1.00  0.00    -0.400 OA
HETATM   20  H28 UNL     1      -0.747  10.099  11.856  1.00  0.00     0.209 HD
ENDBRANCH  18  19
ENDBRANCH  10  18
BRANCH  14  21
HETATM   21  O2  UNL     1      -3.485   6.481  16.211  1.00  0.00    -0.392 OA
HETATM   22  H33 UNL     1      -4.048   7.177  15.818  1.00  0.00     0.210 HD
ENDBRANCH  14  21
BRANCH   1  23
HETATM   23  C2  UNL     1      -7.198   4.267  13.222  1.00  0.00    -0.016 C 
HETATM   24  C1  UNL     1      -7.441   2.778  12.952  1.00  0.00     0.010 C 
HETATM   25  C3  UNL     1      -8.225   5.087  12.429  1.00  0.00     0.010 C 
ENDBRANCH   1  23
TORSDOF 4
ENDMDL
MODEL 2
REMARK minimizedAffinity -7.75943661
REMARK  4 active torsions:
REMARK  status: ('A' for Active; 'I' for Inactive)
REMARK    1  A    between atoms: C2_2  and  C4_4 
REMARK    2  A    between atoms: C13_13  and  C15_15 
REMARK    3  A    between atoms: C15_15  and  O1_16 
REMARK    4  A    between atoms: C18_19  and  O2_20 
ROOT
HETATM    1  C4  UNL     1       1.127   7.129   9.824  1.00  0.00     0.021 C 
HETATM    2  C5  UNL     1       1.313   8.344  10.758  1.00  0.00     0.008 C 
HETATM    3  C6  UNL     1       0.297   8.452  11.917  1.00  0.00     0.009 C 
HETATM    4  C7  UNL     1      -0.883   7.461  11.830  1.00  0.00     0.034 C 
HETATM    5  C8  UNL     1      -1.960   7.579  12.988  1.00  0.00    -0.033 C 
HETATM    6  C9  UNL     1      -1.295   7.923  14.343  1.00  0.00     0.016 C 
HETATM    7  C10 UNL     1      -2.922   8.743  12.626  1.00  0.00     0.010 C 
HETATM    8  C11 UNL     1      -4.191   8.772  13.469  1.00  0.00     0.002 C 
HETATM    9  C12 UNL     1      -4.971   7.474  13.320  1.00  0.00     0.012 C 
HETATM   10  C13 UNL     1      -4.169   6.209  13.721  1.00  0.00    -0.018 C 
HETATM   11  C14 UNL     1      -4.103   6.119  15.261  1.00  0.00     0.018 C 
HETATM   12  C16 UNL     1      -2.758   6.223  13.011  1.00  0.00     0.007 C 
HETATM   13  C17 UNL     1      -1.846   5.032  13.398  1.00  0.00     0.041 C 
HETATM   14  C18 UNL     1      -0.410   5.135  12.866  1.00  0.00     0.156 C 
HETATM   15  C19 UNL     1      -0.314   6.062  11.693  1.00  0.00     0.118 A 
HETATM   16  O3  UNL     1      -0.550   5.421  10.425  1.00  0.00    -0.366 OA
HETATM   17  C20 UNL     1       0.776   5.917  10.654  1.00  0.00     0.165 A 
ENDROOT
BRANCH  10  18
HETATM   18  C15 UNL     1      -4.964   4.961  13.220  1.00  0.00     0.173 C 
BRANCH  18  19
HETATM   19  O1  UNL     1      -4.142   3.804  13.104  1.00  0.00    -0.400 OA
HETATM   20  H28 UNL     1      -3.597   3.905  12.305  1.00  0.00     0.209 HD
ENDBRANCH  18  19
ENDBRANCH  10  18
BRANCH  14  21
HETATM   21  O2  UNL     1       0.041   3.821  12.523  1.00  0.00    -0.392 OA
HETATM   22  H33 UNL     1      -0.340   3.634  11.642  1.00  0.00     0.210 HD
ENDBRANCH  14  21
BRANCH   1  23
HETATM   23  C2  UNL     1       2.361   6.863   8.919  1.00  0.00    -0.016 C 
HETATM   24  C1  UNL     1       3.622   7.569   9.429  1.00  0.00     0.010 C 
HETATM   25  C3  UNL     1       2.094   7.310   7.475  1.00  0.00     0.010 C 
ENDBRANCH   1  23
TORSDOF 4
ENDMDL
MODEL 3
REMARK minimizedAffinity -7.4428606
REMARK  4 active torsions:
REMARK  status: ('A' for Active; 'I' for Inactive)
REMARK    1  A    between atoms: C2_2  and  C4_4 
REMARK    2  A    between atoms: C13_13  and  C15_15 
REMARK    3  A    between atoms: C15_15  and  O1_16 
REMARK    4  A    between atoms: C18_19  and  O2_20 
ROOT
HETATM    1  C4  UNL     1      -5.946   4.335  13.532  1.00  0.00     0.021 C 
HETATM    2  C5  UNL     1      -6.573   5.724  13.287  1.00  0.00     0.008 C 
HETATM    3  C6  UNL     1      -5.596   6.917  13.365  1.00  0.00     0.009 C 
HETATM    4  C7  UNL     1      -4.192   6.562  13.899  1.00  0.00     0.034 C 
HETATM    5  C8  UNL     1      -3.181   7.779  14.025  1.00  0.00    -0.033 C 
HETATM    6  C9  UNL     1      -3.371   8.791  12.868  1.00  0.00     0.016 C 
HETATM    7  C10 UNL     1      -3.492   8.518  15.354  1.00  0.00     0.010 C 
HETATM    8  C11 UNL     1      -2.407   9.505  15.772  1.00  0.00     0.002 C 
HETATM    9  C12 UNL     1      -1.070   8.799  15.945  1.00  0.00     0.012 C 
HETATM   10  C13 UNL     1      -0.575   8.068  14.670  1.00  0.00    -0.018 C 
HETATM   11  C14 UNL     1      -0.020   9.110  13.674  1.00  0.00     0.018 C 
HETATM   12  C16 UNL     1      -1.733   7.167  14.087  1.00  0.00     0.007 C 
HETATM   13  C17 UNL     1      -1.364   6.442  12.769  1.00  0.00     0.041 C 
HETATM   14  C18 UNL     1      -2.537   5.717  12.095  1.00  0.00     0.156 C 
HETATM   15  C19 UNL     1      -3.643   5.423  13.062  1.00  0.00     0.118 A 
HETATM   16  O3  UNL     1      -3.493   4.167  13.751  1.00  0.00    -0.366 OA
HETATM   17  C20 UNL     1      -4.601   4.273  12.846  1.00  0.00     0.165 A 
ENDROOT
BRANCH  10  18
HETATM   18  C15 UNL     1       0.615   7.143  15.081  1.00  0.00     0.173 C 
BRANCH  18  19
HETATM   19  O1  UNL     1       0.576   6.788  16.459  1.00  0.00    -0.400 OA
HETATM   20  H28 UNL     1       0.866   7.561  16.973  1.00  0.00     0.209 HD
ENDBRANCH  18  19
ENDBRANCH  10  18
BRANCH  14  21
HETATM   21  O2  UNL     1      -2.044   4.516  11.496  1.00  0.00    -0.392 OA
HETATM   22  H33 UNL     1      -1.978   3.866  12.223  1.00  0.00     0.210 HD
ENDBRANCH  14  21
BRANCH   1  23
HETATM   23  C2  UNL     1      -6.866   3.165  13.089  1.00  0.00    -0.016 C 
HETATM   24  C1  UNL     1      -6.348   2.458  11.833  1.00  0.00     0.010 C 
HETATM   25  C3  UNL     1      -8.297   3.657  12.825  1.00  0.00     0.010 C 
ENDBRANCH   1  23
TORSDOF 4
ENDMDL
MODEL 4
REMARK minimizedAffinity -7.34656572
REMARK  4 active torsions:
REMARK  status: ('A' for Active; 'I' for Inactive)
REMARK    1  A    between atoms: C2_2  and  C4_4 
REMARK    2  A    between atoms: C13_13  and  C15_15 
REMARK    3  A    between atoms: C15_15  and  O1_16 
REMARK    4  A    between atoms: C18_19  and  O2_20 
ROOT
HETATM    1  C4  UNL     1      -0.725   6.099  11.313  1.00  0.00     0.021 C 
HETATM    2  C5  UNL     1      -0.589   6.809  12.677  1.00  0.00     0.008 C 
HETATM    3  C6  UNL     1      -1.840   6.755  13.581  1.00  0.00     0.009 C 
HETATM    4  C7  UNL     1      -3.105   6.198  12.894  1.00  0.00     0.034 C 
HETATM    5  C8  UNL     1      -4.412   6.168  13.792  1.00  0.00    -0.033 C 
HETATM    6  C9  UNL     1      -4.078   5.824  15.264  1.00  0.00     0.016 C 
HETATM    7  C10 UNL     1      -5.036   7.590  13.770  1.00  0.00     0.010 C 
HETATM    8  C11 UNL     1      -6.458   7.641  14.315  1.00  0.00     0.002 C 
HETATM    9  C12 UNL     1      -7.378   6.728  13.517  1.00  0.00     0.012 C 
HETATM   10  C13 UNL     1      -6.933   5.243  13.505  1.00  0.00    -0.018 C 
HETATM   11  C14 UNL     1      -7.289   4.597  14.862  1.00  0.00     0.018 C 
HETATM   12  C16 UNL     1      -5.404   5.146  13.122  1.00  0.00     0.007 C 
HETATM   13  C17 UNL     1      -4.839   3.705  13.147  1.00  0.00     0.041 C 
HETATM   14  C18 UNL     1      -3.317   3.618  12.963  1.00  0.00     0.156 C 
HETATM   15  C19 UNL     1      -2.762   4.844  12.304  1.00  0.00     0.118 A 
HETATM   16  O3  UNL     1      -2.762   4.780  10.865  1.00  0.00    -0.366 OA
HETATM   17  C20 UNL     1      -1.479   4.803  11.505  1.00  0.00     0.165 A 
ENDROOT
BRANCH  10  18
HETATM   18  C15 UNL     1      -7.766   4.504  12.409  1.00  0.00     0.173 C 
BRANCH  18  19
HETATM   19  O1  UNL     1      -8.683   3.567  12.964  1.00  0.00    -0.400 OA
HETATM   20  H28 UNL     1      -8.176   2.788  13.249  1.00  0.00     0.209 HD
ENDBRANCH  18  19
ENDBRANCH  10  18
BRANCH  14  21
HETATM   21  O2  UNL     1      -3.019   2.444  12.202  1.00  0.00    -0.392 OA
HETATM   22  H33 UNL     1      -3.181   2.687  11.269  1.00  0.00     0.210 HD
ENDBRANCH  14  21
BRANCH   1  23
HETATM   23  C2  UNL     1       0.641   5.865  10.611  1.00  0.00    -0.016 C 
HETATM   24  C1  UNL     1       1.779   5.633  11.610  1.00  0.00     0.010 C 
HETATM   25  C3  UNL     1       1.008   7.051   9.709  1.00  0.00     0.010 C 
ENDBRANCH   1  23
TORSDOF 4
ENDMDL
MODEL 5
REMARK minimizedAffinity -7.257761
REMARK  4 active torsions:
REMARK  status: ('A' for Active; 'I' for Inactive)
REMARK    1  A    between atoms: C2_2  and  C4_4 
REMARK    2  A    between atoms: C13_13  and  C15_15 
REMARK    3  A    between atoms: C15_15  and  O1_16 
REMARK    4  A    between atoms: C18_19  and  O2_20 
ROOT
HETATM    1  C4  UNL     1      -4.933   6.748  13.973  1.00  0.00     0.021 C 
HETATM    2  C5  UNL     1      -5.040   7.237  15.433  1.00  0.00     0.008 C 
HETATM    3  C6  UNL     1      -6.443   7.706  15.875  1.00  0.00     0.009 C 
HETATM    4  C7  UNL     1      -7.469   7.829  14.728  1.00  0.00     0.034 C 
HETATM    5  C8  UNL     1      -8.908   8.346  15.151  1.00  0.00    -0.033 C 
HETATM    6  C9  UNL     1      -9.316   7.802  16.542  1.00  0.00     0.016 C 
HETATM    7  C10 UNL     1      -8.845   9.895  15.250  1.00  0.00     0.010 C 
HETATM    8  C11 UNL     1     -10.216  10.557  15.330  1.00  0.00     0.002 C 
HETATM    9  C12 UNL     1     -11.056  10.213  14.109  1.00  0.00     0.012 C 
HETATM   10  C13 UNL     1     -11.281   8.692  13.909  1.00  0.00    -0.018 C 
HETATM   11  C14 UNL     1     -12.345   8.201  14.915  1.00  0.00     0.018 C 
HETATM   12  C16 UNL     1      -9.900   7.931  14.003  1.00  0.00     0.007 C 
HETATM   13  C17 UNL     1     -10.020   6.391  13.884  1.00  0.00     0.041 C 
HETATM   14  C18 UNL     1      -8.716   5.631  14.161  1.00  0.00     0.156 C 
HETATM   15  C19 UNL     1      -7.511   6.505  13.989  1.00  0.00     0.118 A 
HETATM   16  O3  UNL     1      -7.001   6.533  12.643  1.00  0.00    -0.366 OA
HETATM   17  C20 UNL     1      -6.158   5.930  13.635  1.00  0.00     0.165 A 
ENDROOT
BRANCH  10  18
HETATM   18  C15 UNL     1     -11.868   8.480  12.477  1.00  0.00     0.173 C 
BRANCH  18  19
HETATM   19  O1  UNL     1     -11.877   9.680  11.710  1.00  0.00    -0.400 OA
HETATM   20  H28 UNL     1     -12.605  10.235  12.037  1.00  0.00     0.209 HD
ENDBRANCH  18  19
ENDBRANCH  10  18
BRANCH  14  21
HETATM   21  O2  UNL     1      -8.658   4.497  13.291  1.00  0.00    -0.392 OA
HETATM   22  H33 UNL     1      -8.348   4.841  12.431  1.00  0.00     0.210 HD
ENDBRANCH  14  21
BRANCH   1  23
HETATM   23  C2  UNL     1      -3.626   5.958  13.690  1.00  0.00    -0.016 C 
HETATM   24  C1  UNL     1      -2.589   6.797  12.936  1.00  0.00     0.010 C 
HETATM   25  C3  UNL     1      -3.913   4.684  12.883  1.00  0.00     0.010 C 
ENDBRANCH   1  23
TORSDOF 4
ENDMDL
MODEL 6
REMARK minimizedAffinity -7.15181494
REMARK  4 active torsions:
REMARK  status: ('A' for Active; 'I' for Inactive)
REMARK    1  A    between atoms: C2_2  and  C4_4 
REMARK    2  A    between atoms: C13_13  and  C15_15 
REMARK    3  A    between atoms: C15_15  and  O1_16 
REMARK    4  A    between atoms: C18_19  and  O2_20 
ROOT
HETATM    1  C4  UNL     1      -1.154   9.609  14.286  1.00  0.00     0.021 C 
HETATM    2  C5  UNL     1      -2.172   8.926  13.348  1.00  0.00     0.008 C 
HETATM    3  C6  UNL     1      -1.562   8.147  12.162  1.00  0.00     0.009 C 
HETATM    4  C7  UNL     1      -0.046   8.361  11.966  1.00  0.00     0.034 C 
HETATM    5  C8  UNL     1       0.597   7.601  10.730  1.00  0.00    -0.033 C 
HETATM    6  C9  UNL     1      -0.055   6.212  10.521  1.00  0.00     0.016 C 
HETATM    7  C10 UNL     1       0.321   8.447   9.457  1.00  0.00     0.010 C 
HETATM    8  C11 UNL     1       1.146   8.019   8.249  1.00  0.00     0.002 C 
HETATM    9  C12 UNL     1       2.635   8.117   8.547  1.00  0.00     0.012 C 
HETATM   10  C13 UNL     1       3.092   7.259   9.756  1.00  0.00    -0.018 C 
HETATM   11  C14 UNL     1       3.164   5.777   9.326  1.00  0.00     0.018 C 
HETATM   12  C16 UNL     1       2.147   7.530  10.991  1.00  0.00     0.007 C 
HETATM   13  C17 UNL     1       2.475   6.670  12.236  1.00  0.00     0.041 C 
HETATM   14  C18 UNL     1       1.452   6.786  13.374  1.00  0.00     0.156 C 
HETATM   15  C19 UNL     1       0.648   8.046  13.277  1.00  0.00     0.118 A 
HETATM   16  O3  UNL     1       1.250   9.173  13.942  1.00  0.00    -0.366 OA
HETATM   17  C20 UNL     1       0.021   8.684  14.498  1.00  0.00     0.165 A 
ENDROOT
BRANCH  10  18
HETATM   18  C15 UNL     1       4.542   7.701  10.134  1.00  0.00     0.173 C 
BRANCH  18  19
HETATM   19  O1  UNL     1       5.417   6.593  10.319  1.00  0.00    -0.400 OA
HETATM   20  H28 UNL     1       5.206   6.189  11.177  1.00  0.00     0.209 HD
ENDBRANCH  18  19
ENDBRANCH  10  18
BRANCH  14  21
HETATM   21  O2  UNL     1       2.150   6.715  14.621  1.00  0.00    -0.392 OA
HETATM   22  H33 UNL     1       2.512   7.610  14.771  1.00  0.00     0.210 HD
ENDBRANCH  14  21
BRANCH   1  23
HETATM   23  C2  UNL     1      -1.778  10.056  15.636  1.00  0.00    -0.016 C 
HETATM   24  C1  UNL     1      -2.014   8.879  16.589  1.00  0.00     0.010 C 
HETATM   25  C3  UNL     1      -3.109  10.789  15.415  1.00  0.00     0.010 C 
ENDBRANCH   1  23
TORSDOF 4
ENDMDL
MODEL 7
REMARK minimizedAffinity -7.10812807
REMARK  4 active torsions:
REMARK  status: ('A' for Active; 'I' for Inactive)
REMARK    1  A    between atoms: C2_2  and  C4_4 
REMARK    2  A    between atoms: C13_13  and  C15_15 
REMARK    3  A    between atoms: C15_15  and  O1_16 
REMARK    4  A    between atoms: C18_19  and  O2_20 
ROOT
HETATM    1  C4  UNL     1      -3.406   3.614  12.273  1.00  0.00     0.021 C 
HETATM    2  C5  UNL     1      -4.442   4.733  12.515  1.00  0.00     0.008 C 
HETATM    3  C6  UNL     1      -3.863   6.078  13.008  1.00  0.00     0.009 C 
HETATM    4  C7  UNL     1      -2.372   6.028  13.402  1.00  0.00     0.034 C 
HETATM    5  C8  UNL     1      -1.764   7.388  13.948  1.00  0.00    -0.033 C 
HETATM    6  C9  UNL     1      -2.363   8.610  13.209  1.00  0.00     0.016 C 
HETATM    7  C10 UNL     1      -2.148   7.510  15.448  1.00  0.00     0.010 C 
HETATM    8  C11 UNL     1      -1.372   8.592  16.191  1.00  0.00     0.002 C 
HETATM    9  C12 UNL     1       0.125   8.329  16.123  1.00  0.00     0.012 C 
HETATM   10  C13 UNL     1       0.687   8.255  14.680  1.00  0.00    -0.018 C 
HETATM   11  C14 UNL     1       0.802   9.686  14.109  1.00  0.00     0.018 C 
HETATM   12  C16 UNL     1      -0.201   7.280  13.810  1.00  0.00     0.007 C 
HETATM   13  C17 UNL     1       0.235   7.186  12.327  1.00  0.00     0.041 C 
HETATM   14  C18 UNL     1      -0.729   6.393  11.433  1.00  0.00     0.156 C 
HETATM   15  C19 UNL     1      -1.593   5.464  12.229  1.00  0.00     0.118 A 
HETATM   16  O3  UNL     1      -1.007   4.167  12.445  1.00  0.00    -0.366 OA
HETATM   17  C20 UNL     1      -2.180   4.209  11.620  1.00  0.00     0.165 A 
ENDROOT
BRANCH  10  18
HETATM   18  C15 UNL     1       2.133   7.672  14.759  1.00  0.00     0.173 C 
BRANCH  18  19
HETATM   19  O1  UNL     1       2.142   6.251  14.856  1.00  0.00    -0.400 OA
HETATM   20  H28 UNL     1       1.887   6.014  15.763  1.00  0.00     0.209 HD
ENDBRANCH  18  19
ENDBRANCH  10  18
BRANCH  14  21
HETATM   21  O2  UNL     1       0.040   5.677  10.462  1.00  0.00    -0.392 OA
HETATM   22  H33 UNL     1       0.369   4.880  10.922  1.00  0.00     0.210 HD
ENDBRANCH  14  21
BRANCH   1  23
HETATM   23  C2  UNL     1      -3.974   2.429  11.445  1.00  0.00    -0.016 C 
HETATM   24  C1  UNL     1      -5.453   2.163  11.744  1.00  0.00     0.010 C 
HETATM   25  C3  UNL     1      -3.178   1.142  11.705  1.00  0.00     0.010 C 
ENDBRANCH   1  23
TORSDOF 4
ENDMDL
MODEL 8
REMARK minimizedAffinity -7.08064938
REMARK  4 active torsions:
REMARK  status: ('A' for Active; 'I' for Inactive)
REMARK    1  A    between atoms: C2_2  and  C4_4 
REMARK    2  A    between atoms: C13_13  and  C15_15 
REMARK    3  A    between atoms: C15_15  and  O1_16 
REMARK    4  A    between atoms: C18_19  and  O2_20 
ROOT
HETATM    1  C4  UNL     1      -0.779   5.085  12.130  1.00  0.00     0.021 C 
HETATM    2  C5  UNL     1      -1.066   6.456  12.777  1.00  0.00     0.008 C 
HETATM    3  C6  UNL     1       0.145   7.410  12.877  1.00  0.00     0.009 C 
HETATM    4  C7  UNL     1       1.502   6.764  12.524  1.00  0.00     0.034 C 
HETATM    5  C8  UNL     1       2.765   7.713  12.657  1.00  0.00    -0.033 C 
HETATM    6  C9  UNL     1       2.428   9.163  12.229  1.00  0.00     0.016 C 
HETATM    7  C10 UNL     1       3.179   7.747  14.153  1.00  0.00     0.010 C 
HETATM    8  C11 UNL     1       4.558   8.351  14.392  1.00  0.00     0.002 C 
HETATM    9  C12 UNL     1       5.629   7.573  13.641  1.00  0.00     0.012 C 
HETATM   10  C13 UNL     1       5.402   7.510  12.108  1.00  0.00    -0.018 C 
HETATM   11  C14 UNL     1       5.795   8.867  11.483  1.00  0.00     0.018 C 
HETATM   12  C16 UNL     1       3.918   7.064  11.805  1.00  0.00     0.007 C 
HETATM   13  C17 UNL     1       3.564   7.034  10.298  1.00  0.00     0.041 C 
HETATM   14  C18 UNL     1       2.079   6.786  10.000  1.00  0.00     0.156 C 
HETATM   15  C19 UNL     1       1.379   6.131  11.152  1.00  0.00     0.118 A 
HETATM   16  O3  UNL     1       1.443   4.693  11.127  1.00  0.00    -0.366 OA
HETATM   17  C20 UNL     1       0.146   5.280  10.950  1.00  0.00     0.165 A 
ENDROOT
BRANCH  10  18
HETATM   18  C15 UNL     1       6.373   6.435  11.525  1.00  0.00     0.173 C 
BRANCH  18  19
HETATM   19  O1  UNL     1       7.166   6.941  10.457  1.00  0.00    -0.400 OA
HETATM   20  H28 UNL     1       6.599   7.004   9.670  1.00  0.00     0.209 HD
ENDBRANCH  18  19
ENDBRANCH  10  18
BRANCH  14  21
HETATM   21  O2  UNL     1       1.981   5.989   8.816  1.00  0.00    -0.392 OA
HETATM   22  H33 UNL     1       2.141   5.069   9.105  1.00  0.00     0.210 HD
ENDBRANCH  14  21
BRANCH   1  23
HETATM   23  C2  UNL     1      -2.069   4.322  11.723  1.00  0.00    -0.016 C 
HETATM   24  C1  UNL     1      -3.124   4.327  12.833  1.00  0.00     0.010 C 
HETATM   25  C3  UNL     1      -1.755   2.868  11.344  1.00  0.00     0.010 C 
ENDBRANCH   1  23
TORSDOF 4
ENDMDL
MODEL 9
REMARK minimizedAffinity -7.05537653
REMARK  4 active torsions:
REMARK  status: ('A' for Active; 'I' for Inactive)
REMARK    1  A    between atoms: C2_2  and  C4_4 
REMARK    2  A    between atoms: C13_13  and  C15_15 
REMARK    3  A    between atoms: C15_15  and  O1_16 
REMARK    4  A    between atoms: C18_19  and  O2_20 
ROOT
HETATM    1  C4  UNL     1       4.986   6.878  11.596  1.00  0.00     0.021 C 
HETATM    2  C5  UNL     1       4.328   6.344  10.306  1.00  0.00     0.008 C 
HETATM    3  C6  UNL     1       2.788   6.232  10.343  1.00  0.00     0.009 C 
HETATM    4  C7  UNL     1       2.163   6.453  11.737  1.00  0.00     0.034 C 
HETATM    5  C8  UNL     1       0.585   6.305  11.809  1.00  0.00    -0.033 C 
HETATM    6  C9  UNL     1      -0.091   6.850  10.527  1.00  0.00     0.016 C 
HETATM    7  C10 UNL     1       0.255   4.791  11.909  1.00  0.00     0.010 C 
HETATM    8  C11 UNL     1      -1.189   4.506  12.308  1.00  0.00     0.002 C 
HETATM    9  C12 UNL     1      -1.512   5.134  13.657  1.00  0.00     0.012 C 
HETATM   10  C13 UNL     1      -1.307   6.670  13.701  1.00  0.00    -0.018 C 
HETATM   11  C14 UNL     1      -2.484   7.358  12.975  1.00  0.00     0.018 C 
HETATM   12  C16 UNL     1       0.115   7.036  13.120  1.00  0.00     0.007 C 
HETATM   13  C17 UNL     1       0.397   8.557  13.056  1.00  0.00     0.041 C 
HETATM   14  C18 UNL     1       1.692   8.932  12.323  1.00  0.00     0.156 C 
HETATM   15  C19 UNL     1       2.656   7.785  12.269  1.00  0.00     0.118 A 
HETATM   16  O3  UNL     1       3.532   7.709  13.409  1.00  0.00    -0.366 OA
HETATM   17  C20 UNL     1       4.147   8.007  12.148  1.00  0.00     0.165 A 
ENDROOT
BRANCH  10  18
HETATM   18  C15 UNL     1      -1.362   7.116  15.197  1.00  0.00     0.173 C 
BRANCH  18  19
HETATM   19  O1  UNL     1      -0.294   6.573  15.966  1.00  0.00    -0.400 OA
HETATM   20  H28 UNL     1      -0.494   5.636  16.132  1.00  0.00     0.209 HD
ENDBRANCH  18  19
ENDBRANCH  10  18
BRANCH  14  21
HETATM   21  O2  UNL     1       2.274  10.063  12.978  1.00  0.00    -0.392 OA
HETATM   22  H33 UNL     1       2.744   9.703  13.756  1.00  0.00     0.210 HD
ENDBRANCH  14  21
BRANCH   1  23
HETATM   23  C2  UNL     1       6.463   7.314  11.390  1.00  0.00    -0.016 C 
HETATM   24  C1  UNL     1       7.276   7.252  12.687  1.00  0.00     0.010 C 
HETATM   25  C3  UNL     1       6.544   8.738  10.822  1.00  0.00     0.010 C 
ENDBRANCH   1  23
TORSDOF 4
ENDMDL
