MODEL 1
REMARK minimizedAffinity -9.84366035
REMARK  8 active torsions:
REMARK  status: ('A' for Active; 'I' for Inactive)
REMARK    1  A    between atoms: C4_4  and  C5_5 
REMARK    2  A    between atoms: C5_5  and  C6_6 
REMARK    3  A    between atoms: C6_6  and  C7_7 
REMARK    4  A    between atoms: C7_7  and  C9_9 
REMARK    5  A    between atoms: C15_15  and  O1_16 
REMARK    6  A    between atoms: C18_19  and  C20_21 
REMARK    7  A    between atoms: C20_21  and  O3_23 
REMARK    8  A    between atoms: C21_24  and  O4_25 
ROOT
HETATM    1  C9  UNL     1      -1.508  49.193 -18.199  1.00  0.00    -0.002 C 
HETATM    2  C10 UNL     1      -2.781  48.350 -18.466  1.00  0.00     0.006 C 
HETATM    3  C11 UNL     1      -3.100  48.438 -19.968  1.00  0.00     0.011 C 
HETATM    4  C12 UNL     1      -1.868  49.104 -20.610  1.00  0.00    -0.030 C 
HETATM    5  C13 UNL     1      -0.847  47.958 -20.888  1.00  0.00     0.016 C 
HETATM    6  C14 UNL     1      -2.156  49.898 -21.922  1.00  0.00     0.032 C 
HETATM    7  C15 UNL     1      -2.473  49.038 -23.163  1.00  0.00     0.124 C 
HETATM    8  C16 UNL     1      -2.815  49.936 -24.354  1.00  0.00     0.039 C 
HETATM    9  C17 UNL     1      -1.575  50.705 -24.831  1.00  0.00     0.018 C 
HETATM   10  C18 UNL     1      -1.826  51.689 -26.029  1.00  0.00     0.072 C 
HETATM   11  C19 UNL     1      -3.142  52.487 -25.915  1.00  0.00     0.030 C 
HETATM   12  C21 UNL     1      -0.622  52.679 -26.210  1.00  0.00     0.137 C 
HETATM   13  C22 UNL     1       0.677  52.109 -25.636  1.00  0.00     0.034 C 
HETATM   14  C23 UNL     1       0.575  51.857 -24.130  1.00  0.00     0.013 C 
HETATM   15  C24 UNL     1      -0.816  51.392 -23.697  1.00  0.00    -0.026 A 
HETATM   16  C25 UNL     1      -1.546  52.285 -22.724  1.00  0.00     0.021 A 
HETATM   17  C26 UNL     1      -1.046  50.940 -22.228  1.00  0.00    -0.025 A 
HETATM   18  C27 UNL     1       0.176  50.941 -21.312  1.00  0.00     0.011 C 
HETATM   19  C28 UNL     1      -0.066  50.687 -19.816  1.00  0.00     0.011 C 
HETATM   20  C29 UNL     1      -1.445  50.106 -19.471  1.00  0.00    -0.032 C 
HETATM   21  C30 UNL     1      -2.434  51.298 -19.288  1.00  0.00     0.016 C 
ENDROOT
BRANCH   1  22
HETATM   22  C7  UNL     1      -1.482  49.826 -16.772  1.00  0.00    -0.014 C 
HETATM   23  C8  UNL     1      -2.888  50.224 -16.297  1.00  0.00     0.010 C 
BRANCH  22  24
HETATM   24  C6  UNL     1      -0.600  51.107 -16.707  1.00  0.00     0.008 C 
BRANCH  24  25
HETATM   25  C5  UNL     1       0.528  51.065 -15.669  1.00  0.00     0.028 C 
BRANCH  25  26
HETATM   26  C4  UNL     1       1.744  51.803 -16.166  1.00  0.00    -0.025 C 
HETATM   27  C2  UNL     1       2.954  51.878 -15.578  1.00  0.00    -0.091 C 
HETATM   28  C1  UNL     1       4.064  52.682 -16.199  1.00  0.00     0.042 C 
HETATM   29  C3  UNL     1       3.335  51.187 -14.297  1.00  0.00     0.042 C 
ENDBRANCH  25  26
ENDBRANCH  24  25
ENDBRANCH  22  24
ENDBRANCH   1  22
BRANCH   7  30
HETATM   30  O1  UNL     1      -3.601  48.202 -22.906  1.00  0.00    -0.395 OA
HETATM   31  H26 UNL     1      -3.738  47.649 -23.692  1.00  0.00     0.210 HD
ENDBRANCH   7  30
BRANCH  10  32
HETATM   32  C20 UNL     1      -1.865  50.832 -27.299  1.00  0.00     0.151 C 
HETATM   33  O2  UNL     1      -2.541  49.829 -27.475  1.00  0.00    -0.649 OA
BRANCH  32  34
HETATM   34  O3  UNL     1      -1.100  51.290 -28.307  1.00  0.00    -0.776 OA
HETATM   35  H33 UNL     1      -1.236  50.639 -29.028  1.00  0.00     0.167 HD
ENDBRANCH  32  34
ENDBRANCH  10  32
BRANCH  12  36
HETATM   36  O4  UNL     1      -0.842  53.946 -25.579  1.00  0.00    -0.394 OA
HETATM   37  H35 UNL     1      -1.432  54.470 -26.146  1.00  0.00     0.210 HD
ENDBRANCH  12  36
TORSDOF 8
ENDMDL
MODEL 2
REMARK minimizedAffinity -9.51189041
REMARK  8 active torsions:
REMARK  status: ('A' for Active; 'I' for Inactive)
REMARK    1  A    between atoms: C4_4  and  C5_5 
REMARK    2  A    between atoms: C5_5  and  C6_6 
REMARK    3  A    between atoms: C6_6  and  C7_7 
REMARK    4  A    between atoms: C7_7  and  C9_9 
REMARK    5  A    between atoms: C15_15  and  O1_16 
REMARK    6  A    between atoms: C18_19  and  C20_21 
REMARK    7  A    between atoms: C20_21  and  O3_23 
REMARK    8  A    between atoms: C21_24  and  O4_25 
ROOT
HETATM    1  C9  UNL     1      -3.659  50.447 -24.856  1.00  0.00    -0.002 C 
HETATM    2  C10 UNL     1      -5.138  50.078 -24.575  1.00  0.00     0.006 C 
HETATM    3  C11 UNL     1      -5.316  49.967 -23.050  1.00  0.00     0.011 C 
HETATM    4  C12 UNL     1      -4.019  50.535 -22.444  1.00  0.00    -0.030 C 
HETATM    5  C13 UNL     1      -4.214  52.080 -22.361  1.00  0.00     0.016 C 
HETATM    6  C14 UNL     1      -3.641  49.964 -21.042  1.00  0.00     0.032 C 
HETATM    7  C15 UNL     1      -4.526  50.442 -19.871  1.00  0.00     0.124 C 
HETATM    8  C16 UNL     1      -4.102  49.748 -18.574  1.00  0.00     0.039 C 
HETATM    9  C17 UNL     1      -2.719  50.233 -18.122  1.00  0.00     0.018 C 
HETATM   10  C18 UNL     1      -2.172  49.553 -16.817  1.00  0.00     0.072 C 
HETATM   11  C19 UNL     1      -2.435  48.034 -16.748  1.00  0.00     0.030 C 
HETATM   12  C21 UNL     1      -0.638  49.831 -16.633  1.00  0.00     0.137 C 
HETATM   13  C22 UNL     1      -0.197  51.103 -17.360  1.00  0.00     0.034 C 
HETATM   14  C23 UNL     1      -0.419  51.005 -18.872  1.00  0.00     0.013 C 
HETATM   15  C24 UNL     1      -1.676  50.214 -19.238  1.00  0.00    -0.026 A 
HETATM   16  C25 UNL     1      -1.463  48.964 -20.058  1.00  0.00     0.021 A 
HETATM   17  C26 UNL     1      -2.133  50.154 -20.722  1.00  0.00    -0.025 A 
HETATM   18  C27 UNL     1      -1.306  50.954 -21.727  1.00  0.00     0.011 C 
HETATM   19  C28 UNL     1      -1.623  50.753 -23.217  1.00  0.00     0.011 C 
HETATM   20  C29 UNL     1      -2.960  50.058 -23.509  1.00  0.00    -0.032 C 
HETATM   21  C30 UNL     1      -2.711  48.518 -23.495  1.00  0.00     0.016 C 
ENDROOT
BRANCH   1  22
HETATM   22  C7  UNL     1      -3.133  49.878 -26.211  1.00  0.00    -0.014 C 
HETATM   23  C8  UNL     1      -3.411  48.372 -26.345  1.00  0.00     0.010 C 
BRANCH  22  24
HETATM   24  C6  UNL     1      -1.598  50.075 -26.382  1.00  0.00     0.008 C 
BRANCH  24  25
HETATM   25  C5  UNL     1      -1.190  51.296 -27.213  1.00  0.00     0.028 C 
BRANCH  25  26
HETATM   26  C4  UNL     1       0.294  51.299 -27.472  1.00  0.00    -0.025 C 
HETATM   27  C2  UNL     1       1.269  51.729 -26.648  1.00  0.00    -0.091 C 
HETATM   28  C1  UNL     1       2.713  51.683 -27.071  1.00  0.00     0.042 C 
HETATM   29  C3  UNL     1       1.050  52.270 -25.261  1.00  0.00     0.042 C 
ENDBRANCH  25  26
ENDBRANCH  24  25
ENDBRANCH  22  24
ENDBRANCH   1  22
BRANCH   7  30
HETATM   30  O1  UNL     1      -5.891  50.111 -20.120  1.00  0.00    -0.395 OA
HETATM   31  H26 UNL     1      -6.416  50.465 -19.385  1.00  0.00     0.210 HD
ENDBRANCH   7  30
BRANCH  10  32
HETATM   32  C20 UNL     1      -2.871  50.240 -15.639  1.00  0.00     0.151 C 
HETATM   33  O2  UNL     1      -3.223  51.410 -15.588  1.00  0.00    -0.649 OA
BRANCH  32  34
HETATM   34  O3  UNL     1      -3.145  49.429 -14.600  1.00  0.00    -0.776 OA
HETATM   35  H33 UNL     1      -3.582  50.014 -13.946  1.00  0.00     0.167 HD
ENDBRANCH  32  34
ENDBRANCH  10  32
BRANCH  12  36
HETATM   36  O4  UNL     1       0.185  48.762 -17.118  1.00  0.00    -0.394 OA
HETATM   37  H35 UNL     1       0.177  48.050 -16.457  1.00  0.00     0.210 HD
ENDBRANCH  12  36
TORSDOF 8
ENDMDL
MODEL 3
REMARK minimizedAffinity -9.41145706
REMARK  8 active torsions:
REMARK  status: ('A' for Active; 'I' for Inactive)
REMARK    1  A    between atoms: C4_4  and  C5_5 
REMARK    2  A    between atoms: C5_5  and  C6_6 
REMARK    3  A    between atoms: C6_6  and  C7_7 
REMARK    4  A    between atoms: C7_7  and  C9_9 
REMARK    5  A    between atoms: C15_15  and  O1_16 
REMARK    6  A    between atoms: C18_19  and  C20_21 
REMARK    7  A    between atoms: C20_21  and  O3_23 
REMARK    8  A    between atoms: C21_24  and  O4_25 
ROOT
HETATM    1  C9  UNL     1      -5.890  48.862 -22.249  1.00  0.00    -0.002 C 
HETATM    2  C10 UNL     1      -6.168  47.977 -23.490  1.00  0.00     0.006 C 
HETATM    3  C11 UNL     1      -5.089  48.285 -24.543  1.00  0.00     0.011 C 
HETATM    4  C12 UNL     1      -4.038  49.141 -23.812  1.00  0.00    -0.030 C 
HETATM    5  C13 UNL     1      -3.072  48.140 -23.106  1.00  0.00     0.016 C 
HETATM    6  C14 UNL     1      -3.230  50.115 -24.726  1.00  0.00     0.032 C 
HETATM    7  C15 UNL     1      -2.198  49.447 -25.658  1.00  0.00     0.124 C 
HETATM    8  C16 UNL     1      -1.537  50.500 -26.553  1.00  0.00     0.039 C 
HETATM    9  C17 UNL     1      -0.639  51.431 -25.728  1.00  0.00     0.018 C 
HETATM   10  C18 UNL     1       0.058  52.575 -26.547  1.00  0.00     0.072 C 
HETATM   11  C19 UNL     1      -0.859  53.238 -27.596  1.00  0.00     0.030 C 
HETATM   12  C21 UNL     1       0.651  53.673 -25.594  1.00  0.00     0.137 C 
HETATM   13  C22 UNL     1       0.941  53.120 -24.198  1.00  0.00     0.034 C 
HETATM   14  C23 UNL     1      -0.328  52.617 -23.505  1.00  0.00     0.013 C 
HETATM   15  C24 UNL     1      -1.322  51.980 -24.477  1.00  0.00    -0.026 A 
HETATM   16  C25 UNL     1      -2.675  52.641 -24.577  1.00  0.00     0.021 A 
HETATM   17  C26 UNL     1      -2.590  51.277 -23.917  1.00  0.00    -0.025 A 
HETATM   18  C27 UNL     1      -2.730  51.223 -22.397  1.00  0.00     0.011 C 
HETATM   19  C28 UNL     1      -4.062  50.709 -21.831  1.00  0.00     0.011 C 
HETATM   20  C29 UNL     1      -4.956  49.973 -22.839  1.00  0.00    -0.032 C 
HETATM   21  C30 UNL     1      -5.833  51.037 -23.566  1.00  0.00     0.016 C 
ENDROOT
BRANCH   1  22
HETATM   22  C7  UNL     1      -7.186  49.252 -21.472  1.00  0.00    -0.014 C 
HETATM   23  C8  UNL     1      -6.898  49.550 -19.991  1.00  0.00     0.010 C 
BRANCH  22  24
HETATM   24  C6  UNL     1      -8.263  48.128 -21.509  1.00  0.00     0.008 C 
BRANCH  24  25
HETATM   25  C5  UNL     1      -8.735  47.638 -20.135  1.00  0.00     0.028 C 
BRANCH  25  26
HETATM   26  C4  UNL     1     -10.235  47.722 -20.021  1.00  0.00    -0.025 C 
HETATM   27  C2  UNL     1     -10.971  47.725 -18.893  1.00  0.00    -0.091 C 
HETATM   28  C1  UNL     1     -12.474  47.792 -18.954  1.00  0.00     0.042 C 
HETATM   29  C3  UNL     1     -10.413  47.679 -17.497  1.00  0.00     0.042 C 
ENDBRANCH  25  26
ENDBRANCH  24  25
ENDBRANCH  22  24
ENDBRANCH   1  22
BRANCH   7  30
HETATM   30  O1  UNL     1      -2.842  48.495 -26.503  1.00  0.00    -0.395 OA
HETATM   31  H26 UNL     1      -2.155  48.069 -27.039  1.00  0.00     0.210 HD
ENDBRANCH   7  30
BRANCH  10  32
HETATM   32  C20 UNL     1       1.258  51.937 -27.256  1.00  0.00     0.151 C 
HETATM   33  O2  UNL     1       1.250  51.411 -28.360  1.00  0.00    -0.649 OA
BRANCH  32  34
HETATM   34  O3  UNL     1       2.420  52.029 -26.584  1.00  0.00    -0.776 OA
HETATM   35  H33 UNL     1       3.070  51.581 -27.164  1.00  0.00     0.167 HD
ENDBRANCH  32  34
ENDBRANCH  10  32
BRANCH  12  36
HETATM   36  O4  UNL     1      -0.221  54.798 -25.430  1.00  0.00    -0.394 OA
HETATM   37  H35 UNL     1      -0.144  55.360 -26.219  1.00  0.00     0.210 HD
ENDBRANCH  12  36
TORSDOF 8
ENDMDL
MODEL 4
REMARK minimizedAffinity -9.34496307
REMARK  8 active torsions:
REMARK  status: ('A' for Active; 'I' for Inactive)
REMARK    1  A    between atoms: C4_4  and  C5_5 
REMARK    2  A    between atoms: C5_5  and  C6_6 
REMARK    3  A    between atoms: C6_6  and  C7_7 
REMARK    4  A    between atoms: C7_7  and  C9_9 
REMARK    5  A    between atoms: C15_15  and  O1_16 
REMARK    6  A    between atoms: C18_19  and  C20_21 
REMARK    7  A    between atoms: C20_21  and  O3_23 
REMARK    8  A    between atoms: C21_24  and  O4_25 
ROOT
HETATM    1  C9  UNL     1      -0.781  51.282 -17.647  1.00  0.00    -0.002 C 
HETATM    2  C10 UNL     1       0.697  51.746 -17.603  1.00  0.00     0.006 C 
HETATM    3  C11 UNL     1       1.096  52.188 -19.022  1.00  0.00     0.011 C 
HETATM    4  C12 UNL     1      -0.219  52.236 -19.821  1.00  0.00    -0.030 C 
HETATM    5  C13 UNL     1      -0.843  53.640 -19.553  1.00  0.00     0.016 C 
HETATM    6  C14 UNL     1      -0.068  51.999 -21.356  1.00  0.00     0.032 C 
HETATM    7  C15 UNL     1       0.580  53.155 -22.145  1.00  0.00     0.124 C 
HETATM    8  C16 UNL     1       0.744  52.763 -23.616  1.00  0.00     0.039 C 
HETATM    9  C17 UNL     1      -0.622  52.657 -24.307  1.00  0.00     0.018 C 
HETATM   10  C18 UNL     1      -0.569  52.220 -25.815  1.00  0.00     0.072 C 
HETATM   11  C19 UNL     1       0.449  51.097 -26.103  1.00  0.00     0.030 C 
HETATM   12  C21 UNL     1      -1.988  51.792 -26.330  1.00  0.00     0.137 C 
HETATM   13  C22 UNL     1      -3.110  52.433 -25.511  1.00  0.00     0.034 C 
HETATM   14  C23 UNL     1      -3.061  52.008 -24.041  1.00  0.00     0.013 C 
HETATM   15  C24 UNL     1      -1.635  51.824 -23.522  1.00  0.00    -0.026 A 
HETATM   16  C25 UNL     1      -1.271  50.441 -23.040  1.00  0.00     0.021 A 
HETATM   17  C26 UNL     1      -1.402  51.549 -22.011  1.00  0.00    -0.025 A 
HETATM   18  C27 UNL     1      -2.643  51.534 -21.119  1.00  0.00     0.011 C 
HETATM   19  C28 UNL     1      -2.457  51.074 -19.665  1.00  0.00     0.011 C 
HETATM   20  C29 UNL     1      -1.002  51.030 -19.177  1.00  0.00    -0.032 C 
HETATM   21  C30 UNL     1      -0.415  49.634 -19.550  1.00  0.00     0.016 C 
ENDROOT
BRANCH   1  22
HETATM   22  C7  UNL     1      -1.102  50.162 -16.608  1.00  0.00    -0.014 C 
HETATM   23  C8  UNL     1      -1.878  50.709 -15.399  1.00  0.00     0.010 C 
BRANCH  22  24
HETATM   24  C6  UNL     1       0.183  49.480 -16.053  1.00  0.00     0.008 C 
BRANCH  24  25
HETATM   25  C5  UNL     1       0.733  50.091 -14.760  1.00  0.00     0.028 C 
BRANCH  25  26
HETATM   26  C4  UNL     1       1.798  51.115 -15.059  1.00  0.00    -0.025 C 
HETATM   27  C2  UNL     1       3.084  51.100 -14.657  1.00  0.00    -0.091 C 
HETATM   28  C1  UNL     1       4.020  52.220 -15.028  1.00  0.00     0.042 C 
HETATM   29  C3  UNL     1       3.721  50.009 -13.841  1.00  0.00     0.042 C 
ENDBRANCH  25  26
ENDBRANCH  24  25
ENDBRANCH  22  24
ENDBRANCH   1  22
BRANCH   7  30
HETATM   30  O1  UNL     1       1.876  53.442 -21.621  1.00  0.00    -0.395 OA
HETATM   31  H26 UNL     1       2.229  54.200 -22.114  1.00  0.00     0.210 HD
ENDBRANCH   7  30
BRANCH  10  32
HETATM   32  C20 UNL     1      -0.185  53.467 -26.618  1.00  0.00     0.151 C 
HETATM   33  O2  UNL     1       0.121  54.559 -26.160  1.00  0.00    -0.649 OA
BRANCH  32  34
HETATM   34  O3  UNL     1      -0.149  53.286 -27.952  1.00  0.00    -0.776 OA
HETATM   35  H33 UNL     1       0.107  54.162 -28.308  1.00  0.00     0.167 HD
ENDBRANCH  32  34
ENDBRANCH  10  32
BRANCH  12  36
HETATM   36  O4  UNL     1      -2.192  50.374 -26.288  1.00  0.00    -0.394 OA
HETATM   37  H35 UNL     1      -1.734  49.979 -27.049  1.00  0.00     0.210 HD
ENDBRANCH  12  36
TORSDOF 8
ENDMDL
MODEL 5
REMARK minimizedAffinity -9.32354927
REMARK  8 active torsions:
REMARK  status: ('A' for Active; 'I' for Inactive)
REMARK    1  A    between atoms: C4_4  and  C5_5 
REMARK    2  A    between atoms: C5_5  and  C6_6 
REMARK    3  A    between atoms: C6_6  and  C7_7 
REMARK    4  A    between atoms: C7_7  and  C9_9 
REMARK    5  A    between atoms: C15_15  and  O1_16 
REMARK    6  A    between atoms: C18_19  and  C20_21 
REMARK    7  A    between atoms: C20_21  and  O3_23 
REMARK    8  A    between atoms: C21_24  and  O4_25 
ROOT
HETATM    1  C9  UNL     1      -0.821  51.242 -17.454  1.00  0.00    -0.002 C 
HETATM    2  C10 UNL     1       0.655  51.713 -17.391  1.00  0.00     0.006 C 
HETATM    3  C11 UNL     1       1.068  52.167 -18.802  1.00  0.00     0.011 C 
HETATM    4  C12 UNL     1      -0.239  52.215 -19.615  1.00  0.00    -0.030 C 
HETATM    5  C13 UNL     1      -0.873  53.614 -19.344  1.00  0.00     0.016 C 
HETATM    6  C14 UNL     1      -0.070  51.989 -21.150  1.00  0.00     0.032 C 
HETATM    7  C15 UNL     1       0.582  53.154 -21.924  1.00  0.00     0.124 C 
HETATM    8  C16 UNL     1       0.764  52.773 -23.396  1.00  0.00     0.039 C 
HETATM    9  C17 UNL     1      -0.594  52.666 -24.102  1.00  0.00     0.018 C 
HETATM   10  C18 UNL     1      -0.522  52.241 -25.613  1.00  0.00     0.072 C 
HETATM   11  C19 UNL     1       0.504  51.124 -25.898  1.00  0.00     0.030 C 
HETATM   12  C21 UNL     1      -1.934  51.810 -26.147  1.00  0.00     0.137 C 
HETATM   13  C22 UNL     1      -3.068  52.439 -25.336  1.00  0.00     0.034 C 
HETATM   14  C23 UNL     1      -3.033  52.004 -23.869  1.00  0.00     0.013 C 
HETATM   15  C24 UNL     1      -1.611  51.823 -23.335  1.00  0.00    -0.026 A 
HETATM   16  C25 UNL     1      -1.247  50.438 -22.859  1.00  0.00     0.021 A 
HETATM   17  C26 UNL     1      -1.395  51.538 -21.823  1.00  0.00    -0.025 A 
HETATM   18  C27 UNL     1      -2.645  51.511 -20.945  1.00  0.00     0.011 C 
HETATM   19  C28 UNL     1      -2.473  51.041 -19.493  1.00  0.00     0.011 C 
HETATM   20  C29 UNL     1      -1.024  51.000 -18.989  1.00  0.00    -0.032 C 
HETATM   21  C30 UNL     1      -0.425  49.610 -19.365  1.00  0.00     0.016 C 
ENDROOT
BRANCH   1  22
HETATM   22  C7  UNL     1      -1.148  50.113 -16.428  1.00  0.00    -0.014 C 
HETATM   23  C8  UNL     1      -1.322  48.749 -17.115  1.00  0.00     0.010 C 
BRANCH  22  24
HETATM   24  C6  UNL     1      -2.458  50.393 -15.634  1.00  0.00     0.008 C 
BRANCH  24  25
HETATM   25  C5  UNL     1      -2.289  50.467 -14.112  1.00  0.00     0.028 C 
BRANCH  25  26
HETATM   26  C4  UNL     1      -3.135  51.570 -13.530  1.00  0.00    -0.025 C 
HETATM   27  C2  UNL     1      -2.972  52.189 -12.345  1.00  0.00    -0.091 C 
HETATM   28  C1  UNL     1      -3.927  53.264 -11.899  1.00  0.00     0.042 C 
HETATM   29  C3  UNL     1      -1.861  51.908 -11.370  1.00  0.00     0.042 C 
ENDBRANCH  25  26
ENDBRANCH  24  25
ENDBRANCH  22  24
ENDBRANCH   1  22
BRANCH   7  30
HETATM   30  O1  UNL     1       1.870  53.443 -21.383  1.00  0.00    -0.395 OA
HETATM   31  H26 UNL     1       2.225  54.206 -21.867  1.00  0.00     0.210 HD
ENDBRANCH   7  30
BRANCH  10  32
HETATM   32  C20 UNL     1      -0.135  53.495 -26.403  1.00  0.00     0.151 C 
HETATM   33  O2  UNL     1       0.195  54.574 -25.932  1.00  0.00    -0.649 OA
BRANCH  32  34
HETATM   34  O3  UNL     1      -0.127  53.335 -27.740  1.00  0.00    -0.776 OA
HETATM   35  H33 UNL     1       0.135  54.214 -28.086  1.00  0.00     0.167 HD
ENDBRANCH  32  34
ENDBRANCH  10  32
BRANCH  12  36
HETATM   36  O4  UNL     1      -2.131  50.391 -26.118  1.00  0.00    -0.394 OA
HETATM   37  H35 UNL     1      -1.663  50.003 -26.876  1.00  0.00     0.210 HD
ENDBRANCH  12  36
TORSDOF 8
ENDMDL
MODEL 6
REMARK minimizedAffinity -9.18177032
REMARK  8 active torsions:
REMARK  status: ('A' for Active; 'I' for Inactive)
REMARK    1  A    between atoms: C4_4  and  C5_5 
REMARK    2  A    between atoms: C5_5  and  C6_6 
REMARK    3  A    between atoms: C6_6  and  C7_7 
REMARK    4  A    between atoms: C7_7  and  C9_9 
REMARK    5  A    between atoms: C15_15  and  O1_16 
REMARK    6  A    between atoms: C18_19  and  C20_21 
REMARK    7  A    between atoms: C20_21  and  O3_23 
REMARK    8  A    between atoms: C21_24  and  O4_25 
ROOT
HETATM    1  C9  UNL     1      -0.546  50.122 -21.406  1.00  0.00    -0.002 C 
HETATM    2  C10 UNL     1      -0.815  49.573 -19.981  1.00  0.00     0.006 C 
HETATM    3  C11 UNL     1      -2.137  48.787 -20.019  1.00  0.00     0.011 C 
HETATM    4  C12 UNL     1      -2.490  48.651 -21.513  1.00  0.00    -0.030 C 
HETATM    5  C13 UNL     1      -1.721  47.397 -22.032  1.00  0.00     0.016 C 
HETATM    6  C14 UNL     1      -4.013  48.515 -21.820  1.00  0.00     0.032 C 
HETATM    7  C15 UNL     1      -4.649  47.162 -21.436  1.00  0.00     0.124 C 
HETATM    8  C16 UNL     1      -6.155  47.190 -21.714  1.00  0.00     0.039 C 
HETATM    9  C17 UNL     1      -6.430  47.233 -23.222  1.00  0.00     0.018 C 
HETATM   10  C18 UNL     1      -7.949  47.303 -23.617  1.00  0.00     0.072 C 
HETATM   11  C19 UNL     1      -8.781  48.251 -22.727  1.00  0.00     0.030 C 
HETATM   12  C21 UNL     1      -8.125  47.703 -25.124  1.00  0.00     0.137 C 
HETATM   13  C22 UNL     1      -6.889  47.354 -25.955  1.00  0.00     0.034 C 
HETATM   14  C23 UNL     1      -5.644  48.103 -25.474  1.00  0.00     0.013 C 
HETATM   15  C24 UNL     1      -5.616  48.297 -23.957  1.00  0.00    -0.026 A 
HETATM   16  C25 UNL     1      -5.609  49.723 -23.465  1.00  0.00     0.021 A 
HETATM   17  C26 UNL     1      -4.348  48.897 -23.288  1.00  0.00    -0.025 A 
HETATM   18  C27 UNL     1      -3.170  49.209 -24.210  1.00  0.00     0.011 C 
HETATM   19  C28 UNL     1      -1.988  49.979 -23.602  1.00  0.00     0.011 C 
HETATM   20  C29 UNL     1      -1.962  50.028 -22.068  1.00  0.00    -0.032 C 
HETATM   21  C30 UNL     1      -2.815  51.252 -21.615  1.00  0.00     0.016 C 
ENDROOT
BRANCH   1  22
HETATM   22  C7  UNL     1       0.236  51.473 -21.404  1.00  0.00    -0.014 C 
HETATM   23  C8  UNL     1       0.032  52.250 -20.093  1.00  0.00     0.010 C 
BRANCH  22  24
HETATM   24  C6  UNL     1      -0.202  52.415 -22.564  1.00  0.00     0.008 C 
BRANCH  24  25
HETATM   25  C5  UNL     1       0.810  52.546 -23.708  1.00  0.00     0.028 C 
BRANCH  25  26
HETATM   26  C4  UNL     1       0.189  52.148 -25.022  1.00  0.00    -0.025 C 
HETATM   27  C2  UNL     1       0.816  51.651 -26.106  1.00  0.00    -0.091 C 
HETATM   28  C1  UNL     1       0.046  51.323 -27.358  1.00  0.00     0.042 C 
HETATM   29  C3  UNL     1       2.289  51.361 -26.194  1.00  0.00     0.042 C 
ENDBRANCH  25  26
ENDBRANCH  24  25
ENDBRANCH  22  24
ENDBRANCH   1  22
BRANCH   7  30
HETATM   30  O1  UNL     1      -4.464  46.911 -20.044  1.00  0.00    -0.395 OA
HETATM   31  H26 UNL     1      -4.838  46.036 -19.854  1.00  0.00     0.210 HD
ENDBRANCH   7  30
BRANCH  10  32
HETATM   32  C20 UNL     1      -8.500  45.879 -23.489  1.00  0.00     0.151 C 
HETATM   33  O2  UNL     1      -9.385  45.510 -22.730  1.00  0.00    -0.649 OA
BRANCH  32  34
HETATM   34  O3  UNL     1      -7.964  44.991 -24.348  1.00  0.00    -0.776 OA
HETATM   35  H33 UNL     1      -8.416  44.148 -24.137  1.00  0.00     0.167 HD
ENDBRANCH  32  34
ENDBRANCH  10  32
BRANCH  12  36
HETATM   36  O4  UNL     1      -8.373  49.103 -25.304  1.00  0.00    -0.394 OA
HETATM   37  H35 UNL     1      -9.305  49.276 -25.090  1.00  0.00     0.210 HD
ENDBRANCH  12  36
TORSDOF 8
ENDMDL
MODEL 7
REMARK minimizedAffinity -9.12522221
REMARK  8 active torsions:
REMARK  status: ('A' for Active; 'I' for Inactive)
REMARK    1  A    between atoms: C4_4  and  C5_5 
REMARK    2  A    between atoms: C5_5  and  C6_6 
REMARK    3  A    between atoms: C6_6  and  C7_7 
REMARK    4  A    between atoms: C7_7  and  C9_9 
REMARK    5  A    between atoms: C15_15  and  O1_16 
REMARK    6  A    between atoms: C18_19  and  C20_21 
REMARK    7  A    between atoms: C20_21  and  O3_23 
REMARK    8  A    between atoms: C21_24  and  O4_25 
ROOT
HETATM    1  C9  UNL     1      -5.952  48.857 -22.317  1.00  0.00    -0.002 C 
HETATM    2  C10 UNL     1      -6.198  47.984 -23.573  1.00  0.00     0.006 C 
HETATM    3  C11 UNL     1      -5.074  48.277 -24.581  1.00  0.00     0.011 C 
HETATM    4  C12 UNL     1      -4.035  49.109 -23.806  1.00  0.00    -0.030 C 
HETATM    5  C13 UNL     1      -3.117  48.086 -23.069  1.00  0.00     0.016 C 
HETATM    6  C14 UNL     1      -3.175  50.072 -24.681  1.00  0.00     0.032 C 
HETATM    7  C15 UNL     1      -2.120  49.390 -25.576  1.00  0.00     0.124 C 
HETATM    8  C16 UNL     1      -1.405  50.435 -26.439  1.00  0.00     0.039 C 
HETATM    9  C17 UNL     1      -0.523  51.344 -25.574  1.00  0.00     0.018 C 
HETATM   10  C18 UNL     1       0.227  52.479 -26.358  1.00  0.00     0.072 C 
HETATM   11  C19 UNL     1      -0.636  53.166 -27.438  1.00  0.00     0.030 C 
HETATM   12  C21 UNL     1       0.803  53.561 -25.377  1.00  0.00     0.137 C 
HETATM   13  C22 UNL     1       1.029  52.995 -23.973  1.00  0.00     0.034 C 
HETATM   14  C23 UNL     1      -0.276  52.512 -23.334  1.00  0.00     0.013 C 
HETATM   15  C24 UNL     1      -1.244  51.899 -24.347  1.00  0.00    -0.026 A 
HETATM   16  C25 UNL     1      -2.579  52.587 -24.496  1.00  0.00     0.021 A 
HETATM   17  C26 UNL     1      -2.545  51.217 -23.841  1.00  0.00    -0.025 A 
HETATM   18  C27 UNL     1      -2.744  51.158 -22.328  1.00  0.00     0.011 C 
HETATM   19  C28 UNL     1      -4.107  50.666 -21.817  1.00  0.00     0.011 C 
HETATM   20  C29 UNL     1      -4.975  49.953 -22.864  1.00  0.00    -0.032 C 
HETATM   21  C30 UNL     1      -5.804  51.038 -23.618  1.00  0.00     0.016 C 
ENDROOT
BRANCH   1  22
HETATM   22  C7  UNL     1      -7.270  49.267 -21.588  1.00  0.00    -0.014 C 
HETATM   23  C8  UNL     1      -6.992  49.879 -20.205  1.00  0.00     0.010 C 
BRANCH  22  24
HETATM   24  C6  UNL     1      -8.228  48.060 -21.367  1.00  0.00     0.008 C 
BRANCH  24  25
HETATM   25  C5  UNL     1      -7.715  46.997 -20.389  1.00  0.00     0.028 C 
BRANCH  25  26
HETATM   26  C4  UNL     1      -7.583  45.659 -21.070  1.00  0.00    -0.025 C 
HETATM   27  C2  UNL     1      -6.447  45.003 -21.372  1.00  0.00    -0.091 C 
HETATM   28  C1  UNL     1      -6.489  43.674 -22.078  1.00  0.00     0.042 C 
HETATM   29  C3  UNL     1      -5.059  45.483 -21.045  1.00  0.00     0.042 C 
ENDBRANCH  25  26
ENDBRANCH  24  25
ENDBRANCH  22  24
ENDBRANCH   1  22
BRANCH   7  30
HETATM   30  O1  UNL     1      -2.749  48.455 -26.451  1.00  0.00    -0.395 OA
HETATM   31  H26 UNL     1      -2.049  48.019 -26.964  1.00  0.00     0.210 HD
ENDBRANCH   7  30
BRANCH  10  32
HETATM   32  C20 UNL     1       1.441  51.823 -27.025  1.00  0.00     0.151 C 
HETATM   33  O2  UNL     1       2.372  51.273 -26.453  1.00  0.00    -0.649 OA
BRANCH  32  34
HETATM   34  O3  UNL     1       1.416  51.835 -28.370  1.00  0.00    -0.776 OA
HETATM   35  H33 UNL     1       2.248  51.386 -28.631  1.00  0.00     0.167 HD
ENDBRANCH  32  34
ENDBRANCH  10  32
BRANCH  12  36
HETATM   36  O4  UNL     1      -0.053  54.701 -25.239  1.00  0.00    -0.394 OA
HETATM   37  H35 UNL     1       0.065  55.266 -26.021  1.00  0.00     0.210 HD
ENDBRANCH  12  36
TORSDOF 8
ENDMDL
MODEL 8
REMARK minimizedAffinity -9.06350803
REMARK  8 active torsions:
REMARK  status: ('A' for Active; 'I' for Inactive)
REMARK    1  A    between atoms: C4_4  and  C5_5 
REMARK    2  A    between atoms: C5_5  and  C6_6 
REMARK    3  A    between atoms: C6_6  and  C7_7 
REMARK    4  A    between atoms: C7_7  and  C9_9 
REMARK    5  A    between atoms: C15_15  and  O1_16 
REMARK    6  A    between atoms: C18_19  and  C20_21 
REMARK    7  A    between atoms: C20_21  and  O3_23 
REMARK    8  A    between atoms: C21_24  and  O4_25 
ROOT
HETATM    1  C9  UNL     1      -2.550  50.371 -21.864  1.00  0.00    -0.002 C 
HETATM    2  C10 UNL     1      -2.077  51.804 -22.223  1.00  0.00     0.006 C 
HETATM    3  C11 UNL     1      -1.142  52.288 -21.101  1.00  0.00     0.011 C 
HETATM    4  C12 UNL     1      -0.860  51.045 -20.238  1.00  0.00    -0.030 C 
HETATM    5  C13 UNL     1       0.331  50.301 -20.917  1.00  0.00     0.016 C 
HETATM    6  C14 UNL     1      -0.527  51.342 -18.742  1.00  0.00     0.032 C 
HETATM    7  C15 UNL     1       0.859  51.969 -18.484  1.00  0.00     0.124 C 
HETATM    8  C16 UNL     1       1.025  52.284 -16.995  1.00  0.00     0.039 C 
HETATM    9  C17 UNL     1       1.123  50.993 -16.172  1.00  0.00     0.018 C 
HETATM   10  C18 UNL     1       1.258  51.204 -14.622  1.00  0.00     0.072 C 
HETATM   11  C19 UNL     1       0.350  52.320 -14.064  1.00  0.00     0.030 C 
HETATM   12  C21 UNL     1       0.990  49.867 -13.843  1.00  0.00     0.137 C 
HETATM   13  C22 UNL     1       1.253  48.637 -14.714  1.00  0.00     0.034 C 
HETATM   14  C23 UNL     1       0.332  48.592 -15.936  1.00  0.00     0.013 C 
HETATM   15  C24 UNL     1       0.028  49.980 -16.503  1.00  0.00    -0.026 A 
HETATM   16  C25 UNL     1      -1.422  50.400 -16.501  1.00  0.00     0.021 A 
HETATM   17  C26 UNL     1      -0.761  50.103 -17.835  1.00  0.00    -0.025 A 
HETATM   18  C27 UNL     1      -1.140  48.796 -18.530  1.00  0.00     0.011 C 
HETATM   19  C28 UNL     1      -2.084  48.891 -19.739  1.00  0.00     0.011 C 
HETATM   20  C29 UNL     1      -2.245  50.299 -20.329  1.00  0.00    -0.032 C 
HETATM   21  C30 UNL     1      -3.392  51.015 -19.552  1.00  0.00     0.016 C 
ENDROOT
BRANCH   1  22
HETATM   22  C7  UNL     1      -3.979  50.045 -22.402  1.00  0.00    -0.014 C 
HETATM   23  C8  UNL     1      -4.460  48.660 -21.941  1.00  0.00     0.010 C 
BRANCH  22  24
HETATM   24  C6  UNL     1      -4.045  50.056 -23.957  1.00  0.00     0.008 C 
BRANCH  24  25
HETATM   25  C5  UNL     1      -3.152  49.022 -24.651  1.00  0.00     0.028 C 
BRANCH  25  26
HETATM   26  C4  UNL     1      -3.849  48.424 -25.845  1.00  0.00    -0.025 C 
HETATM   27  C2  UNL     1      -3.869  48.899 -27.105  1.00  0.00    -0.091 C 
HETATM   28  C1  UNL     1      -4.637  48.186 -28.186  1.00  0.00     0.042 C 
HETATM   29  C3  UNL     1      -3.147  50.133 -27.573  1.00  0.00     0.042 C 
ENDBRANCH  25  26
ENDBRANCH  24  25
ENDBRANCH  22  24
ENDBRANCH   1  22
BRANCH   7  30
HETATM   30  O1  UNL     1       0.986  53.192 -19.208  1.00  0.00    -0.395 OA
HETATM   31  H26 UNL     1       1.883  53.530 -19.053  1.00  0.00     0.210 HD
ENDBRANCH   7  30
BRANCH  10  32
HETATM   32  C20 UNL     1       2.723  51.563 -14.354  1.00  0.00     0.151 C 
HETATM   33  O2  UNL     1       3.519  50.912 -13.694  1.00  0.00    -0.649 OA
BRANCH  32  34
HETATM   34  O3  UNL     1       3.144  52.688 -14.962  1.00  0.00    -0.776 OA
HETATM   35  H33 UNL     1       4.082  52.772 -14.691  1.00  0.00     0.167 HD
ENDBRANCH  32  34
ENDBRANCH  10  32
BRANCH  12  36
HETATM   36  O4  UNL     1      -0.356  49.763 -13.361  1.00  0.00    -0.394 OA
HETATM   37  H35 UNL     1      -0.435  50.311 -12.562  1.00  0.00     0.210 HD
ENDBRANCH  12  36
TORSDOF 8
ENDMDL
MODEL 9
REMARK minimizedAffinity -9.02424526
REMARK  8 active torsions:
REMARK  status: ('A' for Active; 'I' for Inactive)
REMARK    1  A    between atoms: C4_4  and  C5_5 
REMARK    2  A    between atoms: C5_5  and  C6_6 
REMARK    3  A    between atoms: C6_6  and  C7_7 
REMARK    4  A    between atoms: C7_7  and  C9_9 
REMARK    5  A    between atoms: C15_15  and  O1_16 
REMARK    6  A    between atoms: C18_19  and  C20_21 
REMARK    7  A    between atoms: C20_21  and  O3_23 
REMARK    8  A    between atoms: C21_24  and  O4_25 
ROOT
HETATM    1  C9  UNL     1      -2.482  48.957 -18.423  1.00  0.00    -0.002 C 
HETATM    2  C10 UNL     1      -1.085  49.372 -17.893  1.00  0.00     0.006 C 
HETATM    3  C11 UNL     1      -0.400  50.220 -18.979  1.00  0.00     0.011 C 
HETATM    4  C12 UNL     1      -1.498  50.521 -20.016  1.00  0.00    -0.030 C 
HETATM    5  C13 UNL     1      -2.255  51.783 -19.499  1.00  0.00     0.016 C 
HETATM    6  C14 UNL     1      -0.984  50.760 -21.470  1.00  0.00     0.032 C 
HETATM    7  C15 UNL     1      -0.247  52.095 -21.702  1.00  0.00     0.124 C 
HETATM    8  C16 UNL     1       0.274  52.167 -23.140  1.00  0.00     0.039 C 
HETATM    9  C17 UNL     1      -0.887  52.288 -24.135  1.00  0.00     0.018 C 
HETATM   10  C18 UNL     1      -0.463  52.330 -25.647  1.00  0.00     0.072 C 
HETATM   11  C19 UNL     1       0.663  51.338 -26.006  1.00  0.00     0.030 C 
HETATM   12  C21 UNL     1      -1.696  52.093 -26.588  1.00  0.00     0.137 C 
HETATM   13  C22 UNL     1      -3.014  52.465 -25.907  1.00  0.00     0.034 C 
HETATM   14  C23 UNL     1      -3.277  51.613 -24.663  1.00  0.00     0.013 C 
HETATM   15  C24 UNL     1      -1.998  51.267 -23.898  1.00  0.00    -0.026 A 
HETATM   16  C25 UNL     1      -1.668  49.799 -23.777  1.00  0.00     0.021 A 
HETATM   17  C26 UNL     1      -2.102  50.543 -22.527  1.00  0.00    -0.025 A 
HETATM   18  C27 UNL     1      -3.510  50.270 -22.001  1.00  0.00     0.011 C 
HETATM   19  C28 UNL     1      -3.634  49.387 -20.749  1.00  0.00     0.011 C 
HETATM   20  C29 UNL     1      -2.329  49.184 -19.966  1.00  0.00    -0.032 C 
HETATM   21  C30 UNL     1      -1.585  47.962 -20.586  1.00  0.00     0.016 C 
ENDROOT
BRANCH   1  22
HETATM   22  C7  UNL     1      -2.960  47.577 -17.872  1.00  0.00    -0.014 C 
HETATM   23  C8  UNL     1      -2.996  46.503 -18.972  1.00  0.00     0.010 C 
BRANCH  22  24
HETATM   24  C6  UNL     1      -4.389  47.646 -17.257  1.00  0.00     0.008 C 
BRANCH  24  25
HETATM   25  C5  UNL     1      -5.504  47.082 -18.145  1.00  0.00     0.028 C 
BRANCH  25  26
HETATM   26  C4  UNL     1      -6.836  47.685 -17.784  1.00  0.00    -0.025 C 
HETATM   27  C2  UNL     1      -7.501  48.656 -18.438  1.00  0.00    -0.091 C 
HETATM   28  C1  UNL     1      -8.823  49.165 -17.928  1.00  0.00     0.042 C 
HETATM   29  C3  UNL     1      -7.036  49.314 -19.709  1.00  0.00     0.042 C 
ENDBRANCH  25  26
ENDBRANCH  24  25
ENDBRANCH  22  24
ENDBRANCH   1  22
BRANCH   7  30
HETATM   30  O1  UNL     1       0.874  52.196 -20.824  1.00  0.00    -0.395 OA
HETATM   31  H26 UNL     1       1.282  53.065 -20.971  1.00  0.00     0.210 HD
ENDBRANCH   7  30
BRANCH  10  32
HETATM   32  C20 UNL     1       0.015  53.759 -25.928  1.00  0.00     0.151 C 
HETATM   33  O2  UNL     1      -0.217  54.416 -26.933  1.00  0.00    -0.649 OA
BRANCH  32  34
HETATM   34  O3  UNL     1       0.715  54.323 -24.926  1.00  0.00    -0.776 OA
HETATM   35  H33 UNL     1       0.941  55.216 -25.262  1.00  0.00     0.167 HD
ENDBRANCH  32  34
ENDBRANCH  10  32
BRANCH  12  36
HETATM   36  O4  UNL     1      -1.814  50.731 -27.020  1.00  0.00    -0.394 OA
HETATM   37  H35 UNL     1      -1.169  50.581 -27.731  1.00  0.00     0.210 HD
ENDBRANCH  12  36
TORSDOF 8
ENDMDL
