MODEL 1
REMARK minimizedAffinity -7.61419296
REMARK CNNscore 0.408631682
REMARK CNNaffinity 6.00481415
REMARK  10 active torsions:
REMARK  status: ('A' for Active; 'I' for Inactive)
REMARK    1  A    between atoms: C3_3  and  O1_4 
REMARK    2  A    between atoms: N1_14  and  O2_16 
REMARK    3  A    between atoms: O2_16  and  C13_17 
REMARK    4  A    between atoms: C13_17  and  C14_18 
REMARK       I    between atoms: C14_18  and  N2_20 
REMARK    5  A    between atoms: N2_20  and  C15_21 
REMARK    6  A    between atoms: C15_21  and  C16_22 
REMARK       I    between atoms: C16_22  and  N3_24 
REMARK    7  A    between atoms: N3_24  and  C17_25 
REMARK    8  A    between atoms: C17_25  and  C18_26 
REMARK    9  A    between atoms: C17_25  and  C19_29 
REMARK   10  A    between atoms: C18_26  and  O6_28 
ROOT
HETATM    1  C1  UNL     1      -4.462   4.789  12.842  1.00  0.00     0.015 C 
HETATM    2  C2  UNL     1      -3.844   5.525  13.563  1.00  0.00    -0.078 C 
HETATM    3  C3  UNL     1      -3.084   6.408  14.463  1.00  0.00     0.128 C 
HETATM    4  C4  UNL     1      -1.594   6.443  14.110  1.00  0.00     0.052 C 
HETATM    5  C5  UNL     1      -1.091   7.627  14.930  1.00  0.00     0.010 C 
HETATM    6  C6  UNL     1      -2.179   8.692  14.737  1.00  0.00     0.002 C 
HETATM    7  C7  UNL     1      -2.248   9.812  15.800  1.00  0.00    -0.004 C 
HETATM    8  C8  UNL     1      -2.086   9.387  17.270  1.00  0.00     0.010 C 
HETATM    9  C9  UNL     1      -2.112  10.591  18.210  1.00  0.00     0.035 C 
HETATM   10  C10 UNL     1      -3.282  11.524  17.989  1.00  0.00    -0.069 C 
HETATM   11  C11 UNL     1      -3.957  12.009  19.046  1.00  0.00     0.030 C 
HETATM   12  C12 UNL     1      -4.980  13.078  18.905  1.00  0.00     0.032 C 
HETATM   13  N1  UNL     1      -5.563  13.501  19.991  1.00  0.00    -0.271 N 
ATOM     14  H1  UNL     1      -5.406  13.105  20.918  1.00  0.00     0.194 HD
HETATM   15  C22 UNL     1      -5.211  13.666  17.526  1.00  0.00     0.060 C 
HETATM   16  C23 UNL     1      -4.974  12.617  16.445  1.00  0.00     0.020 C 
HETATM   17  C24 UNL     1      -3.587  11.917  16.546  1.00  0.00    -0.016 C 
HETATM   18  C25 UNL     1      -2.514  12.937  16.081  1.00  0.00     0.020 C 
HETATM   19  C26 UNL     1      -3.547  10.640  15.616  1.00  0.00     0.002 C 
HETATM   20  C27 UNL     1      -4.803   9.738  15.749  1.00  0.00     0.007 C 
HETATM   21  C28 UNL     1      -4.605   8.246  15.466  1.00  0.00     0.014 C 
HETATM   22  C29 UNL     1      -3.510   7.921  14.437  1.00  0.00     0.003 C 
HETATM   23  C30 UNL     1      -4.009   8.354  13.031  1.00  0.00     0.020 C 
ENDROOT
BRANCH   3  24
HETATM   24  O1  UNL     1      -3.177   5.878  15.791  1.00  0.00    -0.377 OA
HETATM   25  H2  UNL     1      -3.165   4.909  15.712  1.00  0.00     0.211 HD
ENDBRANCH   3  24
BRANCH  13  26
HETATM   26  O2  UNL     1      -6.432  14.568  19.730  1.00  0.00    -0.271 OA
BRANCH  26  27
HETATM   27  C13 UNL     1      -7.723  14.245  20.242  1.00  0.00     0.303 C 
BRANCH  27  28
HETATM   28  C14 UNL     1      -7.667  14.106  21.760  1.00  0.00     0.244 C 
HETATM   29  O3  UNL     1      -6.807  14.652  22.446  1.00  0.00    -0.271 OA
HETATM   30  N2  UNL     1      -8.710  13.385  22.304  1.00  0.00    -0.350 N 
HETATM   31  H16 UNL     1      -9.184  12.749  21.665  1.00  0.00     0.163 HD
BRANCH  30  32
HETATM   32  C15 UNL     1      -8.706  13.006  23.702  1.00  0.00     0.225 C 
BRANCH  32  33
HETATM   33  C16 UNL     1     -10.019  12.297  24.050  1.00  0.00     0.236 C 
HETATM   34  O4  UNL     1     -10.822  12.754  24.863  1.00  0.00    -0.272 OA
HETATM   35  N3  UNL     1     -10.178  11.072  23.435  1.00  0.00    -0.345 N 
HETATM   36  H19 UNL     1      -9.697  10.969  22.547  1.00  0.00     0.163 HD
BRANCH  35  37
HETATM   37  C17 UNL     1     -11.462  10.363  23.508  1.00  0.00     0.185 C 
BRANCH  37  38
HETATM   38  C18 UNL     1     -11.867   9.836  22.122  1.00  0.00     0.163 C 
HETATM   39  O5  UNL     1     -13.002   9.598  21.741  1.00  0.00    -0.648 OA
BRANCH  38  40
HETATM   40  O6  UNL     1     -10.812   9.567  21.319  1.00  0.00    -0.775 OA
HETATM   41  H21 UNL     1     -11.221   9.266  20.478  1.00  0.00     0.167 HD
ENDBRANCH  38  40
ENDBRANCH  37  38
BRANCH  37  42
HETATM   42  C19 UNL     1     -11.426   9.210  24.534  1.00  0.00     0.010 C 
HETATM   43  C20 UNL     1     -12.681   9.135  25.411  1.00  0.00     0.012 C 
HETATM   44  C21 UNL     1     -11.198   7.864  23.839  1.00  0.00     0.012 C 
ENDBRANCH  37  42
ENDBRANCH  35  37
ENDBRANCH  32  33
ENDBRANCH  30  32
ENDBRANCH  27  28
ENDBRANCH  26  27
ENDBRANCH  13  26
TORSDOF 10
ENDMDL
MODEL 2
REMARK minimizedAffinity -8.71302986
REMARK CNNscore 0.3605358
REMARK CNNaffinity 7.13653135
REMARK  10 active torsions:
REMARK  status: ('A' for Active; 'I' for Inactive)
REMARK    1  A    between atoms: C3_3  and  O1_4 
REMARK    2  A    between atoms: N1_14  and  O2_16 
REMARK    3  A    between atoms: O2_16  and  C13_17 
REMARK    4  A    between atoms: C13_17  and  C14_18 
REMARK       I    between atoms: C14_18  and  N2_20 
REMARK    5  A    between atoms: N2_20  and  C15_21 
REMARK    6  A    between atoms: C15_21  and  C16_22 
REMARK       I    between atoms: C16_22  and  N3_24 
REMARK    7  A    between atoms: N3_24  and  C17_25 
REMARK    8  A    between atoms: C17_25  and  C18_26 
REMARK    9  A    between atoms: C17_25  and  C19_29 
REMARK   10  A    between atoms: C18_26  and  O6_28 
ROOT
HETATM    1  C1  UNL     1       0.019   9.873  14.219  1.00  0.00     0.015 C 
HETATM    2  C2  UNL     1      -0.695   8.919  14.069  1.00  0.00    -0.078 C 
HETATM    3  C3  UNL     1      -1.561   7.747  13.861  1.00  0.00     0.128 C 
HETATM    4  C4  UNL     1      -0.908   6.454  14.361  1.00  0.00     0.052 C 
HETATM    5  C5  UNL     1      -2.076   5.472  14.346  1.00  0.00     0.010 C 
HETATM    6  C6  UNL     1      -3.241   6.282  14.929  1.00  0.00     0.002 C 
HETATM    7  C7  UNL     1      -4.665   5.776  14.605  1.00  0.00    -0.004 C 
HETATM    8  C8  UNL     1      -4.927   5.312  13.162  1.00  0.00     0.010 C 
HETATM    9  C9  UNL     1      -6.350   4.781  12.991  1.00  0.00     0.035 C 
HETATM   10  C10 UNL     1      -7.424   5.707  13.519  1.00  0.00    -0.069 C 
HETATM   11  C11 UNL     1      -8.537   5.918  12.796  1.00  0.00     0.030 C 
HETATM   12  C12 UNL     1      -9.707   6.652  13.346  1.00  0.00     0.032 C 
HETATM   13  N1  UNL     1     -10.751   6.784  12.576  1.00  0.00    -0.271 N 
ATOM     14  H1  UNL     1     -10.791   6.471  11.606  1.00  0.00     0.194 HD
HETATM   15  C22 UNL     1      -9.644   7.115  14.788  1.00  0.00     0.060 C 
HETATM   16  C23 UNL     1      -8.210   7.453  15.185  1.00  0.00     0.020 C 
HETATM   17  C24 UNL     1      -7.197   6.303  14.906  1.00  0.00    -0.016 C 
HETATM   18  C25 UNL     1      -7.448   5.194  15.962  1.00  0.00     0.020 C 
HETATM   19  C26 UNL     1      -5.714   6.836  15.032  1.00  0.00     0.002 C 
HETATM   20  C27 UNL     1      -5.475   8.181  14.296  1.00  0.00     0.007 C 
HETATM   21  C28 UNL     1      -4.055   8.435  13.784  1.00  0.00     0.014 C 
HETATM   22  C29 UNL     1      -2.939   7.787  14.618  1.00  0.00     0.003 C 
HETATM   23  C30 UNL     1      -2.830   8.544  15.970  1.00  0.00     0.020 C 
ENDROOT
BRANCH   3  24
HETATM   24  O1  UNL     1      -1.762   7.585  12.451  1.00  0.00    -0.377 OA
HETATM   25  H2  UNL     1      -0.928   7.828  12.016  1.00  0.00     0.211 HD
ENDBRANCH   3  24
BRANCH  13  26
HETATM   26  O2  UNL     1     -11.810   7.409  13.246  1.00  0.00    -0.271 OA
BRANCH  26  27
HETATM   27  C13 UNL     1     -12.094   6.680  14.437  1.00  0.00     0.303 C 
BRANCH  27  28
HETATM   28  C14 UNL     1     -13.569   6.817  14.801  1.00  0.00     0.244 C 
HETATM   29  O3  UNL     1     -14.068   7.879  15.162  1.00  0.00    -0.271 OA
HETATM   30  N2  UNL     1     -14.311   5.669  14.611  1.00  0.00    -0.350 N 
HETATM   31  H16 UNL     1     -13.780   4.800  14.597  1.00  0.00     0.163 HD
BRANCH  30  32
HETATM   32  C15 UNL     1     -15.679   5.579  15.081  1.00  0.00     0.225 C 
BRANCH  32  33
HETATM   33  C16 UNL     1     -16.064   4.109  15.269  1.00  0.00     0.236 C 
HETATM   34  O4  UNL     1     -17.011   3.758  15.974  1.00  0.00    -0.272 OA
HETATM   35  N3  UNL     1     -15.211   3.218  14.649  1.00  0.00    -0.345 N 
HETATM   36  H19 UNL     1     -14.735   3.578  13.828  1.00  0.00     0.163 HD
BRANCH  35  37
HETATM   37  C17 UNL     1     -15.554   1.792  14.569  1.00  0.00     0.185 C 
BRANCH  37  38
HETATM   38  C18 UNL     1     -15.275   1.094  15.909  1.00  0.00     0.163 C 
HETATM   39  O5  UNL     1     -16.061   0.963  16.834  1.00  0.00    -0.648 OA
BRANCH  38  40
HETATM   40  O6  UNL     1     -13.999   0.666  16.039  1.00  0.00    -0.775 OA
HETATM   41  H21 UNL     1     -13.979   0.230  16.918  1.00  0.00     0.167 HD
ENDBRANCH  38  40
ENDBRANCH  37  38
BRANCH  37  42
HETATM   42  C19 UNL     1     -17.023   1.575  14.144  1.00  0.00     0.010 C 
HETATM   43  C20 UNL     1     -17.382   2.264  12.822  1.00  0.00     0.012 C 
HETATM   44  C21 UNL     1     -17.355   0.083  14.059  1.00  0.00     0.012 C 
ENDBRANCH  37  42
ENDBRANCH  35  37
ENDBRANCH  32  33
ENDBRANCH  30  32
ENDBRANCH  27  28
ENDBRANCH  26  27
ENDBRANCH  13  26
TORSDOF 10
ENDMDL
MODEL 3
REMARK minimizedAffinity -7.47494221
REMARK CNNscore 0.292247027
REMARK CNNaffinity 6.68586302
REMARK  10 active torsions:
REMARK  status: ('A' for Active; 'I' for Inactive)
REMARK    1  A    between atoms: C3_3  and  O1_4 
REMARK    2  A    between atoms: N1_14  and  O2_16 
REMARK    3  A    between atoms: O2_16  and  C13_17 
REMARK    4  A    between atoms: C13_17  and  C14_18 
REMARK       I    between atoms: C14_18  and  N2_20 
REMARK    5  A    between atoms: N2_20  and  C15_21 
REMARK    6  A    between atoms: C15_21  and  C16_22 
REMARK       I    between atoms: C16_22  and  N3_24 
REMARK    7  A    between atoms: N3_24  and  C17_25 
REMARK    8  A    between atoms: C17_25  and  C18_26 
REMARK    9  A    between atoms: C17_25  and  C19_29 
REMARK   10  A    between atoms: C18_26  and  O6_28 
ROOT
HETATM    1  C1  UNL     1      -9.160   6.898  14.848  1.00  0.00     0.015 C 
HETATM    2  C2  UNL     1      -8.047   6.463  14.732  1.00  0.00    -0.078 C 
HETATM    3  C3  UNL     1      -6.685   5.915  14.610  1.00  0.00     0.128 C 
HETATM    4  C4  UNL     1      -6.639   4.692  13.689  1.00  0.00     0.052 C 
HETATM    5  C5  UNL     1      -5.141   4.510  13.462  1.00  0.00     0.010 C 
HETATM    6  C6  UNL     1      -4.632   5.940  13.234  1.00  0.00     0.002 C 
HETATM    7  C7  UNL     1      -3.123   6.182  13.466  1.00  0.00    -0.004 C 
HETATM    8  C8  UNL     1      -2.493   5.516  14.701  1.00  0.00     0.010 C 
HETATM    9  C9  UNL     1      -0.990   5.783  14.780  1.00  0.00     0.035 C 
HETATM   10  C10 UNL     1      -0.612   7.240  14.635  1.00  0.00    -0.069 C 
HETATM   11  C11 UNL     1       0.313   7.773  15.453  1.00  0.00     0.030 C 
HETATM   12  C12 UNL     1       0.869   9.134  15.233  1.00  0.00     0.032 C 
HETATM   13  N1  UNL     1       1.780   9.554  16.065  1.00  0.00    -0.271 N 
ATOM     14  H1  UNL     1       2.089   9.034  16.887  1.00  0.00     0.194 HD
HETATM   15  C22 UNL     1       0.409   9.902  14.009  1.00  0.00     0.060 C 
HETATM   16  C23 UNL     1      -1.031   9.543  13.656  1.00  0.00     0.020 C 
HETATM   17  C24 UNL     1      -1.272   8.013  13.497  1.00  0.00    -0.016 C 
HETATM   18  C25 UNL     1      -0.616   7.573  12.161  1.00  0.00     0.020 C 
HETATM   19  C26 UNL     1      -2.822   7.703  13.458  1.00  0.00     0.002 C 
HETATM   20  C27 UNL     1      -3.627   8.434  14.565  1.00  0.00     0.007 C 
HETATM   21  C28 UNL     1      -4.906   7.743  15.047  1.00  0.00     0.014 C 
HETATM   22  C29 UNL     1      -5.622   6.892  13.987  1.00  0.00     0.003 C 
HETATM   23  C30 UNL     1      -6.261   7.845  12.938  1.00  0.00     0.020 C 
ENDROOT
BRANCH   3  24
HETATM   24  O1  UNL     1      -6.266   5.469  15.905  1.00  0.00    -0.377 OA
HETATM   25  H2  UNL     1      -7.049   5.099  16.345  1.00  0.00     0.211 HD
ENDBRANCH   3  24
BRANCH  13  26
HETATM   26  O2  UNL     1       2.284  10.806  15.691  1.00  0.00    -0.271 OA
BRANCH  26  27
HETATM   27  C13 UNL     1       3.385  11.128  16.537  1.00  0.00     0.303 C 
BRANCH  27  28
HETATM   28  C14 UNL     1       2.910  11.950  17.730  1.00  0.00     0.244 C 
HETATM   29  O3  UNL     1       1.743  11.955  18.112  1.00  0.00    -0.271 OA
HETATM   30  N2  UNL     1       3.915  12.623  18.395  1.00  0.00    -0.350 N 
HETATM   31  H16 UNL     1       4.762  12.793  17.854  1.00  0.00     0.163 HD
BRANCH  30  32
HETATM   32  C15 UNL     1       3.609  13.589  19.430  1.00  0.00     0.225 C 
BRANCH  32  33
HETATM   33  C16 UNL     1       2.820  12.911  20.553  1.00  0.00     0.236 C 
HETATM   34  O4  UNL     1       1.806  13.408  21.043  1.00  0.00    -0.272 OA
HETATM   35  N3  UNL     1       3.390  11.742  21.017  1.00  0.00    -0.345 N 
HETATM   36  H19 UNL     1       3.957  11.241  20.340  1.00  0.00     0.163 HD
BRANCH  35  37
HETATM   37  C17 UNL     1       2.658  10.875  21.948  1.00  0.00     0.185 C 
BRANCH  37  38
HETATM   38  C18 UNL     1       2.461   9.476  21.341  1.00  0.00     0.163 C 
HETATM   39  O5  UNL     1       2.236   8.445  21.955  1.00  0.00    -0.648 OA
BRANCH  38  40
HETATM   40  O6  UNL     1       2.635   9.442  20.000  1.00  0.00    -0.775 OA
HETATM   41  H21 UNL     1       2.459   8.507  19.759  1.00  0.00     0.167 HD
ENDBRANCH  38  40
ENDBRANCH  37  38
BRANCH  37  42
HETATM   42  C19 UNL     1       3.363  10.773  23.318  1.00  0.00     0.010 C 
HETATM   43  C20 UNL     1       2.675   9.807  24.288  1.00  0.00     0.012 C 
HETATM   44  C21 UNL     1       4.834  10.380  23.150  1.00  0.00     0.012 C 
ENDBRANCH  37  42
ENDBRANCH  35  37
ENDBRANCH  32  33
ENDBRANCH  30  32
ENDBRANCH  27  28
ENDBRANCH  26  27
ENDBRANCH  13  26
TORSDOF 10
ENDMDL
MODEL 4
REMARK minimizedAffinity -7.15796566
REMARK CNNscore 0.269545406
REMARK CNNaffinity 6.02858114
REMARK  10 active torsions:
REMARK  status: ('A' for Active; 'I' for Inactive)
REMARK    1  A    between atoms: C3_3  and  O1_4 
REMARK    2  A    between atoms: N1_14  and  O2_16 
REMARK    3  A    between atoms: O2_16  and  C13_17 
REMARK    4  A    between atoms: C13_17  and  C14_18 
REMARK       I    between atoms: C14_18  and  N2_20 
REMARK    5  A    between atoms: N2_20  and  C15_21 
REMARK    6  A    between atoms: C15_21  and  C16_22 
REMARK       I    between atoms: C16_22  and  N3_24 
REMARK    7  A    between atoms: N3_24  and  C17_25 
REMARK    8  A    between atoms: C17_25  and  C18_26 
REMARK    9  A    between atoms: C17_25  and  C19_29 
REMARK   10  A    between atoms: C18_26  and  O6_28 
ROOT
HETATM    1  C1  UNL     1      -5.719   6.987  14.152  1.00  0.00     0.015 C 
HETATM    2  C2  UNL     1      -4.625   7.480  14.117  1.00  0.00    -0.078 C 
HETATM    3  C3  UNL     1      -3.274   8.064  14.067  1.00  0.00     0.128 C 
HETATM    4  C4  UNL     1      -3.016   8.802  12.749  1.00  0.00     0.052 C 
HETATM    5  C5  UNL     1      -1.733   9.571  13.051  1.00  0.00     0.010 C 
HETATM    6  C6  UNL     1      -1.963  10.122  14.464  1.00  0.00     0.002 C 
HETATM    7  C7  UNL     1      -0.702  10.518  15.266  1.00  0.00    -0.004 C 
HETATM    8  C8  UNL     1       0.500   9.562  15.189  1.00  0.00     0.010 C 
HETATM    9  C9  UNL     1       1.698  10.099  15.973  1.00  0.00     0.035 C 
HETATM   10  C10 UNL     1       1.370  10.525  17.386  1.00  0.00    -0.069 C 
HETATM   11  C11 UNL     1       2.196  10.188  18.393  1.00  0.00     0.030 C 
HETATM   12  C12 UNL     1       2.037  10.742  19.762  1.00  0.00     0.032 C 
HETATM   13  N1  UNL     1       2.902  10.375  20.665  1.00  0.00    -0.271 N 
ATOM     14  H1  UNL     1       3.640   9.688  20.506  1.00  0.00     0.194 HD
HETATM   15  C22 UNL     1       0.940  11.763  19.995  1.00  0.00     0.060 C 
HETATM   16  C23 UNL     1      -0.251  11.494  19.081  1.00  0.00     0.020 C 
HETATM   17  C24 UNL     1       0.127  11.391  17.574  1.00  0.00    -0.016 C 
HETATM   18  C25 UNL     1       0.450  12.824  17.075  1.00  0.00     0.020 C 
HETATM   19  C26 UNL     1      -1.079  10.796  16.745  1.00  0.00     0.002 C 
HETATM   20  C27 UNL     1      -1.721   9.543  17.398  1.00  0.00     0.007 C 
HETATM   21  C28 UNL     1      -2.375   8.536  16.447  1.00  0.00     0.014 C 
HETATM   22  C29 UNL     1      -2.967   9.145  15.166  1.00  0.00     0.003 C 
HETATM   23  C30 UNL     1      -4.238   9.955  15.546  1.00  0.00     0.020 C 
ENDROOT
BRANCH   3  24
HETATM   24  O1  UNL     1      -2.323   6.994  14.129  1.00  0.00    -0.377 OA
HETATM   25  H2  UNL     1      -2.700   6.250  13.630  1.00  0.00     0.211 HD
ENDBRANCH   3  24
BRANCH  13  26
HETATM   26  O2  UNL     1       2.695  11.039  21.881  1.00  0.00    -0.271 OA
BRANCH  26  27
HETATM   27  C13 UNL     1       3.872  10.916  22.677  1.00  0.00     0.303 C 
BRANCH  27  28
HETATM   28  C14 UNL     1       4.920  11.927  22.226  1.00  0.00     0.244 C 
HETATM   29  O3  UNL     1       4.936  12.411  21.097  1.00  0.00    -0.271 OA
HETATM   30  N2  UNL     1       5.799  12.316  23.217  1.00  0.00    -0.350 N 
HETATM   31  H16 UNL     1       5.892  11.670  23.999  1.00  0.00     0.163 HD
BRANCH  30  32
HETATM   32  C15 UNL     1       6.962  13.124  22.909  1.00  0.00     0.225 C 
BRANCH  32  33
HETATM   33  C16 UNL     1       8.069  12.237  22.331  1.00  0.00     0.236 C 
HETATM   34  O4  UNL     1       8.783  11.526  23.038  1.00  0.00    -0.272 OA
HETATM   35  N3  UNL     1       8.245  12.371  20.968  1.00  0.00    -0.345 N 
HETATM   36  H19 UNL     1       7.416  12.651  20.452  1.00  0.00     0.163 HD
BRANCH  35  37
HETATM   37  C17 UNL     1       9.125  11.450  20.237  1.00  0.00     0.185 C 
BRANCH  37  38
HETATM   38  C18 UNL     1       8.588  11.203  18.818  1.00  0.00     0.163 C 
HETATM   39  O5  UNL     1       7.861  10.287  18.469  1.00  0.00    -0.648 OA
BRANCH  38  40
HETATM   40  O6  UNL     1       9.060  12.081  17.904  1.00  0.00    -0.775 OA
HETATM   41  H21 UNL     1       8.620  11.816  17.067  1.00  0.00     0.167 HD
ENDBRANCH  38  40
ENDBRANCH  37  38
BRANCH  37  42
HETATM   42  C19 UNL     1      10.579  11.966  20.181  1.00  0.00     0.010 C 
HETATM   43  C20 UNL     1      11.457  11.205  19.182  1.00  0.00     0.012 C 
HETATM   44  C21 UNL     1      10.618  13.465  19.870  1.00  0.00     0.012 C 
ENDBRANCH  37  42
ENDBRANCH  35  37
ENDBRANCH  32  33
ENDBRANCH  30  32
ENDBRANCH  27  28
ENDBRANCH  26  27
ENDBRANCH  13  26
TORSDOF 10
ENDMDL
MODEL 5
REMARK minimizedAffinity -8.26865673
REMARK CNNscore 0.258790791
REMARK CNNaffinity 5.75703239
REMARK  10 active torsions:
REMARK  status: ('A' for Active; 'I' for Inactive)
REMARK    1  A    between atoms: C3_3  and  O1_4 
REMARK    2  A    between atoms: N1_14  and  O2_16 
REMARK    3  A    between atoms: O2_16  and  C13_17 
REMARK    4  A    between atoms: C13_17  and  C14_18 
REMARK       I    between atoms: C14_18  and  N2_20 
REMARK    5  A    between atoms: N2_20  and  C15_21 
REMARK    6  A    between atoms: C15_21  and  C16_22 
REMARK       I    between atoms: C16_22  and  N3_24 
REMARK    7  A    between atoms: N3_24  and  C17_25 
REMARK    8  A    between atoms: C17_25  and  C18_26 
REMARK    9  A    between atoms: C17_25  and  C19_29 
REMARK   10  A    between atoms: C18_26  and  O6_28 
ROOT
HETATM    1  C1  UNL     1      11.031  13.572  19.682  1.00  0.00     0.015 C 
HETATM    2  C2  UNL     1      10.169  13.105  20.375  1.00  0.00    -0.078 C 
HETATM    3  C3  UNL     1       9.122  12.509  21.223  1.00  0.00     0.128 C 
HETATM    4  C4  UNL     1       9.467  12.603  22.712  1.00  0.00     0.052 C 
HETATM    5  C5  UNL     1       8.144  12.239  23.378  1.00  0.00     0.010 C 
HETATM    6  C6  UNL     1       7.099  13.004  22.554  1.00  0.00     0.002 C 
HETATM    7  C7  UNL     1       5.644  12.487  22.630  1.00  0.00    -0.004 C 
HETATM    8  C8  UNL     1       5.444  10.963  22.575  1.00  0.00     0.010 C 
HETATM    9  C9  UNL     1       3.971  10.583  22.720  1.00  0.00     0.035 C 
HETATM   10  C10 UNL     1       3.044  11.336  21.792  1.00  0.00    -0.069 C 
HETATM   11  C11 UNL     1       2.067  10.675  21.145  1.00  0.00     0.030 C 
HETATM   12  C12 UNL     1       1.008  11.385  20.381  1.00  0.00     0.032 C 
HETATM   13  N1  UNL     1       0.089  10.658  19.810  1.00  0.00    -0.271 N 
ATOM     14  H1  UNL     1       0.087   9.638  19.802  1.00  0.00     0.194 HD
HETATM   15  C22 UNL     1       1.014  12.901  20.395  1.00  0.00     0.060 C 
HETATM   16  C23 UNL     1       2.438  13.434  20.500  1.00  0.00     0.020 C 
HETATM   17  C24 UNL     1       3.240  12.846  21.698  1.00  0.00    -0.016 C 
HETATM   18  C25 UNL     1       2.682  13.492  22.994  1.00  0.00     0.020 C 
HETATM   19  C26 UNL     1       4.776  13.187  21.551  1.00  0.00     0.002 C 
HETATM   20  C27 UNL     1       5.336  12.918  20.129  1.00  0.00     0.007 C 
HETATM   21  C28 UNL     1       6.822  12.562  20.036  1.00  0.00     0.014 C 
HETATM   22  C29 UNL     1       7.709  13.191  21.123  1.00  0.00     0.003 C 
HETATM   23  C30 UNL     1       7.823  14.715  20.846  1.00  0.00     0.020 C 
ENDROOT
BRANCH   3  24
HETATM   24  O1  UNL     1       9.035  11.114  20.910  1.00  0.00    -0.377 OA
HETATM   25  H2  UNL     1       9.939  10.807  20.727  1.00  0.00     0.211 HD
ENDBRANCH   3  24
BRANCH  13  26
HETATM   26  O2  UNL     1      -0.895  11.451  19.206  1.00  0.00    -0.271 OA
BRANCH  26  27
HETATM   27  C13 UNL     1      -2.008  10.624  18.870  1.00  0.00     0.303 C 
BRANCH  27  28
HETATM   28  C14 UNL     1      -1.784   9.967  17.512  1.00  0.00     0.244 C 
HETATM   29  O3  UNL     1      -0.800  10.200  16.814  1.00  0.00    -0.271 OA
HETATM   30  N2  UNL     1      -2.735   9.027  17.171  1.00  0.00    -0.350 N 
HETATM   31  H16 UNL     1      -3.630   9.115  17.650  1.00  0.00     0.163 HD
BRANCH  30  32
HETATM   32  C15 UNL     1      -2.771   8.449  15.843  1.00  0.00     0.225 C 
BRANCH  32  33
HETATM   33  C16 UNL     1      -4.190   7.969  15.526  1.00  0.00     0.236 C 
HETATM   34  O4  UNL     1      -5.061   8.722  15.090  1.00  0.00    -0.272 OA
HETATM   35  N3  UNL     1      -4.424   6.647  15.850  1.00  0.00    -0.345 N 
HETATM   36  H19 UNL     1      -3.605   6.048  15.830  1.00  0.00     0.163 HD
BRANCH  35  37
HETATM   37  C17 UNL     1      -5.665   5.986  15.427  1.00  0.00     0.185 C 
BRANCH  37  38
HETATM   38  C18 UNL     1      -6.851   6.960  15.508  1.00  0.00     0.163 C 
HETATM   39  O5  UNL     1      -7.425   7.481  14.565  1.00  0.00    -0.648 OA
BRANCH  38  40
HETATM   40  O6  UNL     1      -7.197   7.283  16.775  1.00  0.00    -0.775 OA
HETATM   41  H21 UNL     1      -7.967   7.883  16.668  1.00  0.00     0.167 HD
ENDBRANCH  38  40
ENDBRANCH  37  38
BRANCH  37  42
HETATM   42  C19 UNL     1      -5.548   5.397  14.004  1.00  0.00     0.010 C 
HETATM   43  C20 UNL     1      -6.901   5.212  13.308  1.00  0.00     0.012 C 
HETATM   44  C21 UNL     1      -4.626   6.252  13.130  1.00  0.00     0.012 C 
ENDBRANCH  37  42
ENDBRANCH  35  37
ENDBRANCH  32  33
ENDBRANCH  30  32
ENDBRANCH  27  28
ENDBRANCH  26  27
ENDBRANCH  13  26
TORSDOF 10
ENDMDL
MODEL 6
REMARK minimizedAffinity -8.16593552
REMARK CNNscore 0.233778149
REMARK CNNaffinity 5.67549562
REMARK  10 active torsions:
REMARK  status: ('A' for Active; 'I' for Inactive)
REMARK    1  A    between atoms: C3_3  and  O1_4 
REMARK    2  A    between atoms: N1_14  and  O2_16 
REMARK    3  A    between atoms: O2_16  and  C13_17 
REMARK    4  A    between atoms: C13_17  and  C14_18 
REMARK       I    between atoms: C14_18  and  N2_20 
REMARK    5  A    between atoms: N2_20  and  C15_21 
REMARK    6  A    between atoms: C15_21  and  C16_22 
REMARK       I    between atoms: C16_22  and  N3_24 
REMARK    7  A    between atoms: N3_24  and  C17_25 
REMARK    8  A    between atoms: C17_25  and  C18_26 
REMARK    9  A    between atoms: C17_25  and  C19_29 
REMARK   10  A    between atoms: C18_26  and  O6_28 
ROOT
HETATM    1  C1  UNL     1      -1.000   5.791  10.878  1.00  0.00     0.015 C 
HETATM    2  C2  UNL     1       0.179   5.966  10.728  1.00  0.00    -0.078 C 
HETATM    3  C3  UNL     1       1.627   6.157  10.540  1.00  0.00     0.128 C 
HETATM    4  C4  UNL     1       1.971   6.552   9.101  1.00  0.00     0.052 C 
HETATM    5  C5  UNL     1       3.425   7.000   9.224  1.00  0.00     0.010 C 
HETATM    6  C6  UNL     1       3.440   7.836  10.510  1.00  0.00     0.002 C 
HETATM    7  C7  UNL     1       4.812   8.026  11.196  1.00  0.00    -0.004 C 
HETATM    8  C8  UNL     1       5.725   6.791  11.279  1.00  0.00     0.010 C 
HETATM    9  C9  UNL     1       7.070   7.127  11.922  1.00  0.00     0.035 C 
HETATM   10  C10 UNL     1       6.960   7.871  13.234  1.00  0.00    -0.069 C 
HETATM   11  C11 UNL     1       7.741   7.516  14.269  1.00  0.00     0.030 C 
HETATM   12  C12 UNL     1       7.822   8.329  15.510  1.00  0.00     0.032 C 
HETATM   13  N1  UNL     1       8.627   7.916  16.449  1.00  0.00    -0.271 N 
ATOM     14  H1  UNL     1       9.154   7.043  16.410  1.00  0.00     0.194 HD
HETATM   15  C22 UNL     1       7.039   9.626  15.565  1.00  0.00     0.060 C 
HETATM   16  C23 UNL     1       5.758   9.518  14.744  1.00  0.00     0.020 C 
HETATM   17  C24 UNL     1       5.993   9.051  13.278  1.00  0.00    -0.016 C 
HETATM   18  C25 UNL     1       6.633  10.236  12.507  1.00  0.00     0.020 C 
HETATM   19  C26 UNL     1       4.621   8.654  12.601  1.00  0.00     0.002 C 
HETATM   20  C27 UNL     1       3.729   7.751  13.495  1.00  0.00     0.007 C 
HETATM   21  C28 UNL     1       2.778   6.797  12.768  1.00  0.00     0.014 C 
HETATM   22  C29 UNL     1       2.272   7.299  11.406  1.00  0.00     0.003 C 
HETATM   23  C30 UNL     1       1.278   8.468  11.649  1.00  0.00     0.020 C 
ENDROOT
BRANCH   3  24
HETATM   24  O1  UNL     1       2.277   4.904  10.787  1.00  0.00    -0.377 OA
HETATM   25  H2  UNL     1       1.691   4.208  10.447  1.00  0.00     0.211 HD
ENDBRANCH   3  24
BRANCH  13  26
HETATM   26  O2  UNL     1       8.679   8.819  17.519  1.00  0.00    -0.271 OA
BRANCH  26  27
HETATM   27  C13 UNL     1       9.699   9.780  17.258  1.00  0.00     0.303 C 
BRANCH  27  28
HETATM   28  C14 UNL     1       9.381  11.091  17.969  1.00  0.00     0.244 C 
HETATM   29  O3  UNL     1       8.254  11.579  17.991  1.00  0.00    -0.271 OA
HETATM   30  N2  UNL     1      10.446  11.641  18.653  1.00  0.00    -0.350 N 
HETATM   31  H16 UNL     1      11.369  11.340  18.344  1.00  0.00     0.163 HD
BRANCH  30  32
HETATM   32  C15 UNL     1      10.362  12.971  19.222  1.00  0.00     0.225 C 
BRANCH  32  33
HETATM   33  C16 UNL     1       9.815  12.887  20.650  1.00  0.00     0.236 C 
HETATM   34  O4  UNL     1      10.543  12.721  21.629  1.00  0.00    -0.272 OA
HETATM   35  N3  UNL     1       8.437  12.932  20.730  1.00  0.00    -0.345 N 
HETATM   36  H19 UNL     1       7.978  13.432  19.976  1.00  0.00     0.163 HD
BRANCH  35  37
HETATM   37  C17 UNL     1       7.771  13.062  22.033  1.00  0.00     0.185 C 
BRANCH  37  38
HETATM   38  C18 UNL     1       8.656  12.489  23.151  1.00  0.00     0.163 C 
HETATM   39  O5  UNL     1       8.800  11.308  23.426  1.00  0.00    -0.648 OA
BRANCH  38  40
HETATM   40  O6  UNL     1       9.251  13.439  23.908  1.00  0.00    -0.775 OA
HETATM   41  H21 UNL     1       9.790  12.931  24.552  1.00  0.00     0.167 HD
ENDBRANCH  38  40
ENDBRANCH  37  38
BRANCH  37  42
HETATM   42  C19 UNL     1       7.394  14.528  22.342  1.00  0.00     0.010 C 
HETATM   43  C20 UNL     1       7.266  15.401  21.090  1.00  0.00     0.012 C 
HETATM   44  C21 UNL     1       6.102  14.600  23.161  1.00  0.00     0.012 C 
ENDBRANCH  37  42
ENDBRANCH  35  37
ENDBRANCH  32  33
ENDBRANCH  30  32
ENDBRANCH  27  28
ENDBRANCH  26  27
ENDBRANCH  13  26
TORSDOF 10
ENDMDL
MODEL 7
REMARK minimizedAffinity -7.27697134
REMARK CNNscore 0.201375112
REMARK CNNaffinity 5.91788864
REMARK  10 active torsions:
REMARK  status: ('A' for Active; 'I' for Inactive)
REMARK    1  A    between atoms: C3_3  and  O1_4 
REMARK    2  A    between atoms: N1_14  and  O2_16 
REMARK    3  A    between atoms: O2_16  and  C13_17 
REMARK    4  A    between atoms: C13_17  and  C14_18 
REMARK       I    between atoms: C14_18  and  N2_20 
REMARK    5  A    between atoms: N2_20  and  C15_21 
REMARK    6  A    between atoms: C15_21  and  C16_22 
REMARK       I    between atoms: C16_22  and  N3_24 
REMARK    7  A    between atoms: N3_24  and  C17_25 
REMARK    8  A    between atoms: C17_25  and  C18_26 
REMARK    9  A    between atoms: C17_25  and  C19_29 
REMARK   10  A    between atoms: C18_26  and  O6_28 
ROOT
HETATM    1  C1  UNL     1       3.034   8.633   7.724  1.00  0.00     0.015 C 
HETATM    2  C2  UNL     1       2.511   7.979   8.584  1.00  0.00    -0.078 C 
HETATM    3  C3  UNL     1       1.852   7.170   9.623  1.00  0.00     0.128 C 
HETATM    4  C4  UNL     1       2.453   5.764   9.724  1.00  0.00     0.052 C 
HETATM    5  C5  UNL     1       1.862   5.249  11.033  1.00  0.00     0.010 C 
HETATM    6  C6  UNL     1       1.982   6.447  11.983  1.00  0.00     0.002 C 
HETATM    7  C7  UNL     1       1.049   6.448  13.216  1.00  0.00    -0.004 C 
HETATM    8  C8  UNL     1      -0.409   6.016  12.986  1.00  0.00     0.010 C 
HETATM    9  C9  UNL     1      -1.205   6.003  14.290  1.00  0.00     0.035 C 
HETATM   10  C10 UNL     1      -1.085   7.274  15.101  1.00  0.00    -0.069 C 
HETATM   11  C11 UNL     1      -2.182   7.814  15.661  1.00  0.00     0.030 C 
HETATM   12  C12 UNL     1      -2.101   8.940  16.627  1.00  0.00     0.032 C 
HETATM   13  N1  UNL     1      -3.219   9.379  17.135  1.00  0.00    -0.271 N 
ATOM     14  H1  UNL     1      -4.143   9.040  16.867  1.00  0.00     0.194 HD
HETATM   15  C22 UNL     1      -0.727   9.440  17.025  1.00  0.00     0.060 C 
HETATM   16  C23 UNL     1       0.260   9.283  15.872  1.00  0.00     0.020 C 
HETATM   17  C24 UNL     1       0.320   7.839  15.293  1.00  0.00    -0.016 C 
HETATM   18  C25 UNL     1       1.066   6.953  16.325  1.00  0.00     0.020 C 
HETATM   19  C26 UNL     1       1.100   7.830  13.919  1.00  0.00     0.002 C 
HETATM   20  C27 UNL     1       0.661   8.961  12.951  1.00  0.00     0.007 C 
HETATM   21  C28 UNL     1       0.811   8.675  11.454  1.00  0.00     0.014 C 
HETATM   22  C29 UNL     1       1.968   7.732  11.087  1.00  0.00     0.003 C 
HETATM   23  C30 UNL     1       3.309   8.485  11.309  1.00  0.00     0.020 C 
ENDROOT
BRANCH   3  24
HETATM   24  O1  UNL     1       0.478   7.001   9.253  1.00  0.00    -0.377 OA
HETATM   25  H2  UNL     1       0.454   6.913   8.286  1.00  0.00     0.211 HD
ENDBRANCH   3  24
BRANCH  13  26
HETATM   26  O2  UNL     1      -2.994  10.373  18.096  1.00  0.00    -0.271 OA
BRANCH  26  27
HETATM   27  C13 UNL     1      -3.053  11.647  17.460  1.00  0.00     0.303 C 
BRANCH  27  28
HETATM   28  C14 UNL     1      -2.065  12.608  18.113  1.00  0.00     0.244 C 
HETATM   29  O3  UNL     1      -2.050  13.812  17.871  1.00  0.00    -0.271 OA
HETATM   30  N2  UNL     1      -1.246  12.027  19.059  1.00  0.00    -0.350 N 
HETATM   31  H16 UNL     1      -1.131  11.018  18.980  1.00  0.00     0.163 HD
BRANCH  30  32
HETATM   32  C15 UNL     1      -0.135  12.757  19.635  1.00  0.00     0.225 C 
BRANCH  32  33
HETATM   33  C16 UNL     1       0.899  11.772  20.189  1.00  0.00     0.236 C 
HETATM   34  O4  UNL     1       0.817  10.557  20.010  1.00  0.00    -0.272 OA
HETATM   35  N3  UNL     1       1.875  12.359  20.969  1.00  0.00    -0.345 N 
HETATM   36  H19 UNL     1       2.078  13.329  20.749  1.00  0.00     0.163 HD
BRANCH  35  37
HETATM   37  C17 UNL     1       3.043  11.585  21.407  1.00  0.00     0.185 C 
BRANCH  37  38
HETATM   38  C18 UNL     1       4.163  11.658  20.356  1.00  0.00     0.163 C 
HETATM   39  O5  UNL     1       4.907  10.748  20.028  1.00  0.00    -0.648 OA
BRANCH  38  40
HETATM   40  O6  UNL     1       4.330  12.893  19.832  1.00  0.00    -0.775 OA
HETATM   41  H21 UNL     1       5.049  12.780  19.173  1.00  0.00     0.167 HD
ENDBRANCH  38  40
ENDBRANCH  37  38
BRANCH  37  42
HETATM   42  C19 UNL     1       3.565  12.056  22.782  1.00  0.00     0.010 C 
HETATM   43  C20 UNL     1       5.073  11.853  22.964  1.00  0.00     0.012 C 
HETATM   44  C21 UNL     1       3.205  13.524  23.033  1.00  0.00     0.012 C 
ENDBRANCH  37  42
ENDBRANCH  35  37
ENDBRANCH  32  33
ENDBRANCH  30  32
ENDBRANCH  27  28
ENDBRANCH  26  27
ENDBRANCH  13  26
TORSDOF 10
ENDMDL
MODEL 8
REMARK minimizedAffinity -7.25974989
REMARK CNNscore 0.19064261
REMARK CNNaffinity 5.31664991
REMARK  10 active torsions:
REMARK  status: ('A' for Active; 'I' for Inactive)
REMARK    1  A    between atoms: C3_3  and  O1_4 
REMARK    2  A    between atoms: N1_14  and  O2_16 
REMARK    3  A    between atoms: O2_16  and  C13_17 
REMARK    4  A    between atoms: C13_17  and  C14_18 
REMARK       I    between atoms: C14_18  and  N2_20 
REMARK    5  A    between atoms: N2_20  and  C15_21 
REMARK    6  A    between atoms: C15_21  and  C16_22 
REMARK       I    between atoms: C16_22  and  N3_24 
REMARK    7  A    between atoms: N3_24  and  C17_25 
REMARK    8  A    between atoms: C17_25  and  C18_26 
REMARK    9  A    between atoms: C17_25  and  C19_29 
REMARK   10  A    between atoms: C18_26  and  O6_28 
ROOT
HETATM    1  C1  UNL     1       1.679   5.412  10.747  1.00  0.00     0.015 C 
HETATM    2  C2  UNL     1       2.607   6.147  10.947  1.00  0.00    -0.078 C 
HETATM    3  C3  UNL     1       3.762   7.030  11.188  1.00  0.00     0.128 C 
HETATM    4  C4  UNL     1       4.188   7.776   9.921  1.00  0.00     0.052 C 
HETATM    5  C5  UNL     1       5.144   8.831  10.469  1.00  0.00     0.010 C 
HETATM    6  C6  UNL     1       4.435   9.346  11.729  1.00  0.00     0.002 C 
HETATM    7  C7  UNL     1       5.321  10.045  12.785  1.00  0.00    -0.004 C 
HETATM    8  C8  UNL     1       6.681   9.396  13.092  1.00  0.00     0.010 C 
HETATM    9  C9  UNL     1       7.481  10.216  14.103  1.00  0.00     0.035 C 
HETATM   10  C10 UNL     1       6.708  10.587  15.349  1.00  0.00    -0.069 C 
HETATM   11  C11 UNL     1       7.293  10.475  16.555  1.00  0.00     0.030 C 
HETATM   12  C12 UNL     1       6.661  11.009  17.789  1.00  0.00     0.032 C 
HETATM   13  N1  UNL     1       7.317  10.875  18.908  1.00  0.00    -0.271 N 
ATOM     14  H1  UNL     1       8.203  10.377  18.997  1.00  0.00     0.194 HD
HETATM   15  C22 UNL     1       5.345  11.750  17.653  1.00  0.00     0.060 C 
HETATM   16  C23 UNL     1       4.526  11.188  16.496  1.00  0.00     0.020 C 
HETATM   17  C24 UNL     1       5.301  11.141  15.146  1.00  0.00    -0.016 C 
HETATM   18  C25 UNL     1       5.420  12.598  14.626  1.00  0.00     0.020 C 
HETATM   19  C26 UNL     1       4.516  10.261  14.093  1.00  0.00     0.002 C 
HETATM   20  C27 UNL     1       4.017   8.908  14.667  1.00  0.00     0.007 C 
HETATM   21  C28 UNL     1       3.875   7.755  13.670  1.00  0.00     0.014 C 
HETATM   22  C29 UNL     1       3.522   8.178  12.235  1.00  0.00     0.003 C 
HETATM   23  C30 UNL     1       2.050   8.676  12.216  1.00  0.00     0.020 C 
ENDROOT
BRANCH   3  24
HETATM   24  O1  UNL     1       4.874   6.214  11.576  1.00  0.00    -0.377 OA
HETATM   25  H2  UNL     1       4.815   5.391  11.063  1.00  0.00     0.211 HD
ENDBRANCH   3  24
BRANCH  13  26
HETATM   26  O2  UNL     1       6.656  11.501  19.973  1.00  0.00    -0.271 OA
BRANCH  26  27
HETATM   27  C13 UNL     1       7.435  12.615  20.405  1.00  0.00     0.303 C 
BRANCH  27  28
HETATM   28  C14 UNL     1       6.606  13.516  21.313  1.00  0.00     0.244 C 
HETATM   29  O3  UNL     1       7.088  14.123  22.266  1.00  0.00    -0.271 OA
HETATM   30  N2  UNL     1       5.289  13.657  20.927  1.00  0.00    -0.350 N 
HETATM   31  H16 UNL     1       4.924  12.917  20.331  1.00  0.00     0.163 HD
BRANCH  30  32
HETATM   32  C15 UNL     1       4.328  14.326  21.781  1.00  0.00     0.225 C 
BRANCH  32  33
HETATM   33  C16 UNL     1       3.227  13.343  22.189  1.00  0.00     0.236 C 
HETATM   34  O4  UNL     1       2.187  13.706  22.737  1.00  0.00    -0.272 OA
HETATM   35  N3  UNL     1       3.542  12.018  21.964  1.00  0.00    -0.345 N 
HETATM   36  H19 UNL     1       4.195  11.853  21.204  1.00  0.00     0.163 HD
BRANCH  35  37
HETATM   37  C17 UNL     1       2.521  10.974  22.116  1.00  0.00     0.185 C 
BRANCH  37  38
HETATM   38  C18 UNL     1       2.087  10.440  20.741  1.00  0.00     0.163 C 
HETATM   39  O5  UNL     1       2.780   9.809  19.958  1.00  0.00    -0.648 OA
BRANCH  38  40
HETATM   40  O6  UNL     1       0.828  10.796  20.398  1.00  0.00    -0.775 OA
HETATM   41  H21 UNL     1       0.688  10.372  19.524  1.00  0.00     0.167 HD
ENDBRANCH  38  40
ENDBRANCH  37  38
BRANCH  37  42
HETATM   42  C19 UNL     1       3.009   9.816  23.013  1.00  0.00     0.010 C 
HETATM   43  C20 UNL     1       2.362   8.469  22.676  1.00  0.00     0.012 C 
HETATM   44  C21 UNL     1       4.535   9.687  22.961  1.00  0.00     0.012 C 
ENDBRANCH  37  42
ENDBRANCH  35  37
ENDBRANCH  32  33
ENDBRANCH  30  32
ENDBRANCH  27  28
ENDBRANCH  26  27
ENDBRANCH  13  26
TORSDOF 10
ENDMDL
MODEL 9
REMARK minimizedAffinity -7.71176195
REMARK CNNscore 0.176191524
REMARK CNNaffinity 5.73244238
REMARK  10 active torsions:
REMARK  status: ('A' for Active; 'I' for Inactive)
REMARK    1  A    between atoms: C3_3  and  O1_4 
REMARK    2  A    between atoms: N1_14  and  O2_16 
REMARK    3  A    between atoms: O2_16  and  C13_17 
REMARK    4  A    between atoms: C13_17  and  C14_18 
REMARK       I    between atoms: C14_18  and  N2_20 
REMARK    5  A    between atoms: N2_20  and  C15_21 
REMARK    6  A    between atoms: C15_21  and  C16_22 
REMARK       I    between atoms: C16_22  and  N3_24 
REMARK    7  A    between atoms: N3_24  and  C17_25 
REMARK    8  A    between atoms: C17_25  and  C18_26 
REMARK    9  A    between atoms: C17_25  and  C19_29 
REMARK   10  A    between atoms: C18_26  and  O6_28 
ROOT
HETATM    1  C1  UNL     1       2.087   6.568   6.574  1.00  0.00     0.015 C 
HETATM    2  C2  UNL     1       2.157   7.081   7.657  1.00  0.00    -0.078 C 
HETATM    3  C3  UNL     1       2.235   7.732   8.976  1.00  0.00     0.128 C 
HETATM    4  C4  UNL     1       0.953   7.534   9.791  1.00  0.00     0.052 C 
HETATM    5  C5  UNL     1       1.378   7.990  11.183  1.00  0.00     0.010 C 
HETATM    6  C6  UNL     1       2.769   7.368  11.361  1.00  0.00     0.002 C 
HETATM    7  C7  UNL     1       3.686   8.017  12.423  1.00  0.00    -0.004 C 
HETATM    8  C8  UNL     1       3.710   9.555  12.476  1.00  0.00     0.010 C 
HETATM    9  C9  UNL     1       4.605  10.066  13.604  1.00  0.00     0.035 C 
HETATM   10  C10 UNL     1       5.987   9.451  13.625  1.00  0.00    -0.069 C 
HETATM   11  C11 UNL     1       7.061  10.232  13.834  1.00  0.00     0.030 C 
HETATM   12  C12 UNL     1       8.415   9.665  14.063  1.00  0.00     0.032 C 
HETATM   13  N1  UNL     1       9.390  10.502  14.281  1.00  0.00    -0.271 N 
ATOM     14  H1  UNL     1       9.293  11.517  14.244  1.00  0.00     0.194 HD
HETATM   15  C22 UNL     1       8.556   8.156  14.118  1.00  0.00     0.060 C 
HETATM   16  C23 UNL     1       7.535   7.485  13.206  1.00  0.00     0.020 C 
HETATM   17  C24 UNL     1       6.068   7.935  13.470  1.00  0.00    -0.016 C 
HETATM   18  C25 UNL     1       5.614   7.283  14.803  1.00  0.00     0.020 C 
HETATM   19  C26 UNL     1       5.127   7.457  12.294  1.00  0.00     0.002 C 
HETATM   20  C27 UNL     1       5.707   7.740  10.883  1.00  0.00     0.007 C 
HETATM   21  C28 UNL     1       4.692   7.957   9.758  1.00  0.00     0.014 C 
HETATM   22  C29 UNL     1       3.368   7.194   9.924  1.00  0.00     0.003 C 
HETATM   23  C30 UNL     1       3.637   5.681   9.697  1.00  0.00     0.020 C 
ENDROOT
BRANCH   3  24
HETATM   24  O1  UNL     1       2.374   9.143   8.769  1.00  0.00    -0.377 OA
HETATM   25  H2  UNL     1       1.836   9.371   7.993  1.00  0.00     0.211 HD
ENDBRANCH   3  24
BRANCH  13  26
HETATM   26  O2  UNL     1      10.588   9.837  14.574  1.00  0.00    -0.271 OA
BRANCH  26  27
HETATM   27  C13 UNL     1      11.649  10.789  14.587  1.00  0.00     0.303 C 
BRANCH  27  28
HETATM   28  C14 UNL     1      11.694  11.509  15.931  1.00  0.00     0.244 C 
HETATM   29  O3  UNL     1      10.818  11.383  16.782  1.00  0.00    -0.271 OA
HETATM   30  N2  UNL     1      12.840  12.248  16.143  1.00  0.00    -0.350 N 
HETATM   31  H16 UNL     1      13.347  12.523  15.303  1.00  0.00     0.163 HD
BRANCH  30  32
HETATM   32  C15 UNL     1      12.956  13.135  17.282  1.00  0.00     0.225 C 
BRANCH  32  33
HETATM   33  C16 UNL     1      14.021  12.602  18.245  1.00  0.00     0.236 C 
HETATM   34  O4  UNL     1      14.034  11.435  18.638  1.00  0.00    -0.272 OA
HETATM   35  N3  UNL     1      14.908  13.561  18.693  1.00  0.00    -0.345 N 
HETATM   36  H19 UNL     1      15.056  14.340  18.059  1.00  0.00     0.163 HD
BRANCH  35  37
HETATM   37  C17 UNL     1      16.099  13.174  19.459  1.00  0.00     0.185 C 
BRANCH  37  38
HETATM   38  C18 UNL     1      15.728  12.883  20.922  1.00  0.00     0.163 C 
HETATM   39  O5  UNL     1      14.811  12.177  21.309  1.00  0.00    -0.648 OA
BRANCH  38  40
HETATM   40  O6  UNL     1      16.488  13.558  21.815  1.00  0.00    -0.775 OA
HETATM   41  H21 UNL     1      16.155  13.258  22.688  1.00  0.00     0.167 HD
ENDBRANCH  38  40
ENDBRANCH  37  38
BRANCH  37  42
HETATM   42  C19 UNL     1      16.817  11.959  18.833  1.00  0.00     0.010 C 
HETATM   43  C20 UNL     1      17.115  12.130  17.340  1.00  0.00     0.012 C 
HETATM   44  C21 UNL     1      18.110  11.637  19.588  1.00  0.00     0.012 C 
ENDBRANCH  37  42
ENDBRANCH  35  37
ENDBRANCH  32  33
ENDBRANCH  30  32
ENDBRANCH  27  28
ENDBRANCH  26  27
ENDBRANCH  13  26
TORSDOF 10
ENDMDL
