MODEL 1
REMARK minimizedAffinity -10.1954899
REMARK  5 active torsions:
REMARK  status: ('A' for Active; 'I' for Inactive)
REMARK    1  A    between atoms: C2_2  and  C4_4 
REMARK    2  A    between atoms: C7_7  and  C8_8 
REMARK    3  A    between atoms: C8_8  and  O2_10 
REMARK    4  A    between atoms: C11_13  and  C12_14 
REMARK    5  A    between atoms: C12_14  and  O4_16 
ROOT
HETATM    1  C4  UNL     1       0.949  53.071 -23.901  1.00  0.00     0.019 C 
HETATM    2  C5  UNL     1       0.485  53.992 -25.037  1.00  0.00     0.011 C 
HETATM    3  C6  UNL     1       0.454  53.132 -26.304  1.00  0.00     0.021 C 
HETATM    4  C7  UNL     1       0.729  51.676 -25.877  1.00  0.00     0.050 C 
HETATM    5  C9  UNL     1      -0.191  50.685 -26.609  1.00  0.00     0.022 C 
HETATM    6  C10 UNL     1      -1.680  50.662 -26.222  1.00  0.00     0.023 C 
HETATM    7  C11 UNL     1      -2.077  51.174 -24.785  1.00  0.00     0.057 C 
HETATM    8  C13 UNL     1      -0.795  50.926 -23.926  1.00  0.00     0.011 C 
HETATM    9  C14 UNL     1      -1.098  50.864 -22.447  1.00  0.00     0.007 C 
HETATM   10  C15 UNL     1      -1.981  49.657 -22.142  1.00  0.00     0.006 C 
HETATM   11  C16 UNL     1      -2.985  49.189 -23.256  1.00  0.00     0.003 C 
HETATM   12  C17 UNL     1      -4.187  48.353 -22.596  1.00  0.00    -0.035 C 
HETATM   13  C18 UNL     1      -4.923  47.559 -23.707  1.00  0.00     0.016 C 
HETATM   14  C19 UNL     1      -3.639  47.293 -21.587  1.00  0.00     0.017 C 
HETATM   15  C20 UNL     1      -4.723  46.562 -20.802  1.00  0.00     0.080 C 
HETATM   16  C21 UNL     1      -5.666  47.526 -20.118  1.00  0.00     0.135 C 
HETATM   17  O5  UNL     1      -5.995  47.329 -18.946  1.00  0.00    -0.297 OA
HETATM   18  C22 UNL     1      -6.266  48.670 -20.960  1.00  0.00     0.017 C 
HETATM   19  C23 UNL     1      -7.432  48.105 -21.781  1.00  0.00     0.023 C 
HETATM   20  C24 UNL     1      -6.867  49.710 -19.980  1.00  0.00     0.023 C 
HETATM   21  C25 UNL     1      -5.111  49.335 -21.790  1.00  0.00     0.009 C 
HETATM   22  C26 UNL     1      -5.545  50.542 -22.643  1.00  0.00     0.007 C 
HETATM   23  C27 UNL     1      -4.359  51.282 -23.297  1.00  0.00     0.011 C 
HETATM   24  C28 UNL     1      -3.421  50.396 -24.185  1.00  0.00    -0.022 C 
HETATM   25  C29 UNL     1      -4.292  49.982 -25.410  1.00  0.00     0.017 C 
HETATM   26  C30 UNL     1       0.538  51.634 -24.336  1.00  0.00     0.018 C 
ENDROOT
BRANCH   4  27
HETATM   27  C8  UNL     1       2.176  51.278 -26.226  1.00  0.00     0.149 C 
HETATM   28  O1  UNL     1       2.778  50.292 -25.819  1.00  0.00    -0.649 OA
BRANCH  27  29
HETATM   29  O2  UNL     1       2.813  52.145 -27.040  1.00  0.00    -0.776 OA
HETATM   30  H11 UNL     1       3.703  51.747 -27.149  1.00  0.00     0.167 HD
ENDBRANCH  27  29
ENDBRANCH   4  27
BRANCH   1  31
HETATM   31  C2  UNL     1       0.759  53.512 -22.463  1.00  0.00    -0.088 C 
HETATM   32  C1  UNL     1       1.449  54.494 -21.857  1.00  0.00     0.014 C 
HETATM   33  C3  UNL     1      -0.198  52.673 -21.649  1.00  0.00     0.043 C 
ENDBRANCH   1  31
BRANCH   7  34
HETATM   34  C12 UNL     1      -2.475  52.646 -24.927  1.00  0.00     0.149 C 
HETATM   35  O3  UNL     1      -2.396  53.510 -24.068  1.00  0.00    -0.649 OA
BRANCH  34  36
HETATM   36  O4  UNL     1      -2.860  53.002 -26.161  1.00  0.00    -0.776 OA
HETATM   37  H16 UNL     1      -3.003  53.969 -26.093  1.00  0.00     0.167 HD
ENDBRANCH  34  36
ENDBRANCH   7  34
TORSDOF 5
ENDMDL
MODEL 2
REMARK minimizedAffinity -9.23634815
REMARK  5 active torsions:
REMARK  status: ('A' for Active; 'I' for Inactive)
REMARK    1  A    between atoms: C2_2  and  C4_4 
REMARK    2  A    between atoms: C7_7  and  C8_8 
REMARK    3  A    between atoms: C8_8  and  O2_10 
REMARK    4  A    between atoms: C11_13  and  C12_14 
REMARK    5  A    between atoms: C12_14  and  O4_16 
ROOT
HETATM    1  C4  UNL     1      -1.076  51.847 -23.723  1.00  0.00     0.019 C 
HETATM    2  C5  UNL     1      -2.058  52.942 -24.158  1.00  0.00     0.011 C 
HETATM    3  C6  UNL     1      -2.823  52.383 -25.361  1.00  0.00     0.021 C 
HETATM    4  C7  UNL     1      -2.413  50.904 -25.518  1.00  0.00     0.050 C 
HETATM    5  C9  UNL     1      -3.622  50.009 -25.836  1.00  0.00     0.022 C 
HETATM    6  C10 UNL     1      -4.643  49.751 -24.713  1.00  0.00     0.023 C 
HETATM    7  C11 UNL     1      -4.152  49.891 -23.222  1.00  0.00     0.057 C 
HETATM    8  C13 UNL     1      -2.620  49.593 -23.297  1.00  0.00     0.011 C 
HETATM    9  C14 UNL     1      -2.049  49.177 -21.961  1.00  0.00     0.007 C 
HETATM   10  C15 UNL     1      -2.659  47.849 -21.520  1.00  0.00     0.006 C 
HETATM   11  C16 UNL     1      -4.130  47.537 -21.973  1.00  0.00     0.003 C 
HETATM   12  C17 UNL     1      -4.792  46.459 -20.984  1.00  0.00    -0.035 C 
HETATM   13  C18 UNL     1      -6.052  45.857 -21.659  1.00  0.00     0.016 C 
HETATM   14  C19 UNL     1      -3.817  45.266 -20.730  1.00  0.00     0.017 C 
HETATM   15  C20 UNL     1      -4.306  44.273 -19.680  1.00  0.00     0.080 C 
HETATM   16  C21 UNL     1      -4.670  44.962 -18.384  1.00  0.00     0.135 C 
HETATM   17  O5  UNL     1      -4.298  44.481 -17.312  1.00  0.00    -0.297 OA
HETATM   18  C22 UNL     1      -5.592  46.195 -18.456  1.00  0.00     0.017 C 
HETATM   19  C23 UNL     1      -7.039  45.709 -18.608  1.00  0.00     0.023 C 
HETATM   20  C24 UNL     1      -5.505  46.929 -17.093  1.00  0.00     0.023 C 
HETATM   21  C25 UNL     1      -5.072  47.141 -19.596  1.00  0.00     0.009 C 
HETATM   22  C26 UNL     1      -5.860  48.455 -19.754  1.00  0.00     0.007 C 
HETATM   23  C27 UNL     1      -5.211  49.438 -20.751  1.00  0.00     0.011 C 
HETATM   24  C28 UNL     1      -4.963  48.867 -22.189  1.00  0.00    -0.022 C 
HETATM   25  C29 UNL     1      -6.383  48.646 -22.791  1.00  0.00     0.017 C 
HETATM   26  C30 UNL     1      -1.714  50.506 -24.188  1.00  0.00     0.018 C 
ENDROOT
BRANCH   4  27
HETATM   27  C8  UNL     1      -1.423  50.742 -26.686  1.00  0.00     0.149 C 
HETATM   28  O1  UNL     1      -0.270  50.334 -26.612  1.00  0.00    -0.649 OA
BRANCH  27  29
HETATM   29  O2  UNL     1      -1.906  51.125 -27.887  1.00  0.00    -0.776 OA
HETATM   30  H11 UNL     1      -1.157  50.964 -28.499  1.00  0.00     0.167 HD
ENDBRANCH  27  29
ENDBRANCH   4  27
BRANCH   1  31
HETATM   31  C2  UNL     1      -0.415  51.940 -22.361  1.00  0.00    -0.088 C 
HETATM   32  C1  UNL     1       0.540  52.824 -22.023  1.00  0.00     0.014 C 
HETATM   33  C3  UNL     1      -0.797  50.857 -21.380  1.00  0.00     0.043 C 
ENDBRANCH   1  31
BRANCH   7  34
HETATM   34  C12 UNL     1      -4.504  51.310 -22.766  1.00  0.00     0.149 C 
HETATM   35  O3  UNL     1      -3.926  51.969 -21.916  1.00  0.00    -0.649 OA
BRANCH  34  36
HETATM   36  O4  UNL     1      -5.499  51.886 -23.457  1.00  0.00    -0.776 OA
HETATM   37  H16 UNL     1      -5.542  52.795 -23.093  1.00  0.00     0.167 HD
ENDBRANCH  34  36
ENDBRANCH   7  34
TORSDOF 5
ENDMDL
MODEL 3
REMARK minimizedAffinity -8.79589462
REMARK  5 active torsions:
REMARK  status: ('A' for Active; 'I' for Inactive)
REMARK    1  A    between atoms: C2_2  and  C4_4 
REMARK    2  A    between atoms: C7_7  and  C8_8 
REMARK    3  A    between atoms: C8_8  and  O2_10 
REMARK    4  A    between atoms: C11_13  and  C12_14 
REMARK    5  A    between atoms: C12_14  and  O4_16 
ROOT
HETATM    1  C4  UNL     1      -1.109  50.510 -22.271  1.00  0.00     0.019 C 
HETATM    2  C5  UNL     1      -1.396  52.017 -22.296  1.00  0.00     0.011 C 
HETATM    3  C6  UNL     1      -2.025  52.314 -23.660  1.00  0.00     0.021 C 
HETATM    4  C7  UNL     1      -2.265  50.960 -24.359  1.00  0.00     0.050 C 
HETATM    5  C9  UNL     1      -3.631  50.918 -25.064  1.00  0.00     0.022 C 
HETATM    6  C10 UNL     1      -4.892  50.845 -24.187  1.00  0.00     0.023 C 
HETATM    7  C11 UNL     1      -4.749  50.248 -22.735  1.00  0.00     0.057 C 
HETATM    8  C13 UNL     1      -3.522  49.287 -22.840  1.00  0.00     0.011 C 
HETATM    9  C14 UNL     1      -3.512  48.246 -21.743  1.00  0.00     0.007 C 
HETATM   10  C15 UNL     1      -4.716  47.320 -21.888  1.00  0.00     0.006 C 
HETATM   11  C16 UNL     1      -6.029  47.922 -22.503  1.00  0.00     0.003 C 
HETATM   12  C17 UNL     1      -7.299  47.050 -22.050  1.00  0.00    -0.035 C 
HETATM   13  C18 UNL     1      -8.500  47.384 -22.971  1.00  0.00     0.016 C 
HETATM   14  C19 UNL     1      -7.018  45.524 -22.229  1.00  0.00     0.017 C 
HETATM   15  C20 UNL     1      -8.114  44.618 -21.677  1.00  0.00     0.080 C 
HETATM   16  C21 UNL     1      -8.437  44.945 -20.237  1.00  0.00     0.135 C 
HETATM   17  O5  UNL     1      -8.567  44.031 -19.418  1.00  0.00    -0.297 OA
HETATM   18  C22 UNL     1      -8.697  46.419 -19.870  1.00  0.00     0.017 C 
HETATM   19  C23 UNL     1     -10.134  46.772 -20.276  1.00  0.00     0.023 C 
HETATM   20  C24 UNL     1      -8.623  46.541 -18.326  1.00  0.00     0.023 C 
HETATM   21  C25 UNL     1      -7.573  47.300 -20.522  1.00  0.00     0.009 C 
HETATM   22  C26 UNL     1      -7.661  48.803 -20.196  1.00  0.00     0.007 C 
HETATM   23  C27 UNL     1      -6.442  49.606 -20.696  1.00  0.00     0.011 C 
HETATM   24  C28 UNL     1      -6.136  49.478 -22.227  1.00  0.00    -0.022 C 
HETATM   25  C29 UNL     1      -7.332  50.177 -22.942  1.00  0.00     0.017 C 
HETATM   26  C30 UNL     1      -2.133  49.875 -23.255  1.00  0.00     0.018 C 
ENDROOT
BRANCH   4  27
HETATM   27  C8  UNL     1      -1.198  50.720 -25.444  1.00  0.00     0.149 C 
HETATM   28  O1  UNL     1      -0.043  51.126 -25.433  1.00  0.00    -0.649 OA
BRANCH  27  29
HETATM   29  O2  UNL     1      -1.632  50.010 -26.507  1.00  0.00    -0.776 OA
HETATM   30  H11 UNL     1      -0.844  49.959 -27.088  1.00  0.00     0.167 HD
ENDBRANCH  27  29
ENDBRANCH   4  27
BRANCH   1  31
HETATM   31  C2  UNL     1      -0.807  49.833 -20.948  1.00  0.00    -0.088 C 
HETATM   32  C1  UNL     1      -0.539  48.525 -20.791  1.00  0.00     0.014 C 
HETATM   33  C3  UNL     1      -0.954  50.707 -19.724  1.00  0.00     0.043 C 
ENDBRANCH   1  31
BRANCH   7  34
HETATM   34  C12 UNL     1      -4.554  51.430 -21.781  1.00  0.00     0.149 C 
HETATM   35  O3  UNL     1      -4.017  51.403 -20.685  1.00  0.00    -0.649 OA
BRANCH  34  36
HETATM   36  O4  UNL     1      -4.946  52.614 -22.274  1.00  0.00    -0.776 OA
HETATM   37  H16 UNL     1      -4.687  53.255 -21.580  1.00  0.00     0.167 HD
ENDBRANCH  34  36
ENDBRANCH   7  34
TORSDOF 5
ENDMDL
MODEL 4
REMARK minimizedAffinity -8.75404263
REMARK  5 active torsions:
REMARK  status: ('A' for Active; 'I' for Inactive)
REMARK    1  A    between atoms: C2_2  and  C4_4 
REMARK    2  A    between atoms: C7_7  and  C8_8 
REMARK    3  A    between atoms: C8_8  and  O2_10 
REMARK    4  A    between atoms: C11_13  and  C12_14 
REMARK    5  A    between atoms: C12_14  and  O4_16 
ROOT
HETATM    1  C4  UNL     1      -5.230  47.687 -29.357  1.00  0.00     0.019 C 
HETATM    2  C5  UNL     1      -5.345  48.878 -30.318  1.00  0.00     0.011 C 
HETATM    3  C6  UNL     1      -5.733  48.297 -31.681  1.00  0.00     0.021 C 
HETATM    4  C7  UNL     1      -6.015  46.794 -31.476  1.00  0.00     0.050 C 
HETATM    5  C9  UNL     1      -7.260  46.337 -32.253  1.00  0.00     0.022 C 
HETATM    6  C10 UNL     1      -8.636  46.805 -31.749  1.00  0.00     0.023 C 
HETATM    7  C11 UNL     1      -8.771  47.197 -30.228  1.00  0.00     0.057 C 
HETATM    8  C13 UNL     1      -7.654  46.366 -29.521  1.00  0.00     0.011 C 
HETATM    9  C14 UNL     1      -7.916  46.191 -28.043  1.00  0.00     0.007 C 
HETATM   10  C15 UNL     1      -9.180  45.362 -27.828  1.00  0.00     0.006 C 
HETATM   11  C16 UNL     1     -10.316  45.475 -28.906  1.00  0.00     0.003 C 
HETATM   12  C17 UNL     1     -11.725  45.049 -28.265  1.00  0.00    -0.035 C 
HETATM   13  C18 UNL     1     -12.737  44.764 -29.405  1.00  0.00     0.016 C 
HETATM   14  C19 UNL     1     -11.589  43.720 -27.455  1.00  0.00     0.017 C 
HETATM   15  C20 UNL     1     -12.845  43.327 -26.686  1.00  0.00     0.080 C 
HETATM   16  C21 UNL     1     -13.337  44.451 -25.803  1.00  0.00     0.135 C 
HETATM   17  O5  UNL     1     -13.683  44.211 -24.644  1.00  0.00    -0.297 OA
HETATM   18  C22 UNL     1     -13.485  45.851 -26.432  1.00  0.00     0.017 C 
HETATM   19  C23 UNL     1     -14.801  45.890 -27.220  1.00  0.00     0.023 C 
HETATM   20  C24 UNL     1     -13.624  46.874 -25.276  1.00  0.00     0.023 C 
HETATM   21  C25 UNL     1     -12.189  46.165 -27.261  1.00  0.00     0.009 C 
HETATM   22  C26 UNL     1     -12.160  47.563 -27.906  1.00  0.00     0.007 C 
HETATM   23  C27 UNL     1     -10.802  47.907 -28.552  1.00  0.00     0.011 C 
HETATM   24  C28 UNL     1     -10.292  46.886 -29.626  1.00  0.00    -0.022 C 
HETATM   25  C29 UNL     1     -11.289  47.016 -30.818  1.00  0.00     0.017 C 
HETATM   26  C30 UNL     1      -6.164  46.588 -29.943  1.00  0.00     0.018 C 
ENDROOT
BRANCH   4  27
HETATM   27  C8  UNL     1      -4.834  45.951 -31.994  1.00  0.00     0.149 C 
HETATM   28  O1  UNL     1      -4.817  44.735 -32.140  1.00  0.00    -0.649 OA
BRANCH  27  29
HETATM   29  O2  UNL     1      -3.722  46.661 -32.277  1.00  0.00    -0.776 OA
HETATM   30  H11 UNL     1      -3.084  45.979 -32.580  1.00  0.00     0.167 HD
ENDBRANCH  27  29
ENDBRANCH   4  27
BRANCH   1  31
HETATM   31  C2  UNL     1      -5.199  47.938 -27.862  1.00  0.00    -0.088 C 
HETATM   32  C1  UNL     1      -6.253  47.821 -27.035  1.00  0.00     0.014 C 
HETATM   33  C3  UNL     1      -3.896  48.482 -27.324  1.00  0.00     0.043 C 
ENDBRANCH   1  31
BRANCH   7  34
HETATM   34  C12 UNL     1      -8.590  48.716 -30.139  1.00  0.00     0.149 C 
HETATM   35  O3  UNL     1      -8.678  49.517 -31.057  1.00  0.00    -0.649 OA
BRANCH  34  36
HETATM   36  O4  UNL     1      -8.406  49.183 -28.896  1.00  0.00    -0.776 OA
HETATM   37  H16 UNL     1      -8.384  50.156 -29.012  1.00  0.00     0.167 HD
ENDBRANCH  34  36
ENDBRANCH   7  34
TORSDOF 5
ENDMDL
MODEL 5
REMARK minimizedAffinity -7.94390535
REMARK  5 active torsions:
REMARK  status: ('A' for Active; 'I' for Inactive)
REMARK    1  A    between atoms: C2_2  and  C4_4 
REMARK    2  A    between atoms: C7_7  and  C8_8 
REMARK    3  A    between atoms: C8_8  and  O2_10 
REMARK    4  A    between atoms: C11_13  and  C12_14 
REMARK    5  A    between atoms: C12_14  and  O4_16 
ROOT
HETATM    1  C4  UNL     1       7.319  67.094 -34.967  1.00  0.00     0.019 C 
HETATM    2  C5  UNL     1       7.564  65.623 -35.327  1.00  0.00     0.011 C 
HETATM    3  C6  UNL     1       6.496  64.814 -34.585  1.00  0.00     0.021 C 
HETATM    4  C7  UNL     1       5.526  65.821 -33.935  1.00  0.00     0.050 C 
HETATM    5  C9  UNL     1       4.061  65.380 -34.088  1.00  0.00     0.022 C 
HETATM    6  C10 UNL     1       3.426  65.461 -35.487  1.00  0.00     0.023 C 
HETATM    7  C11 UNL     1       4.041  66.481 -36.519  1.00  0.00     0.057 C 
HETATM    8  C13 UNL     1       4.680  67.590 -35.623  1.00  0.00     0.011 C 
HETATM    9  C14 UNL     1       4.873  68.891 -36.368  1.00  0.00     0.007 C 
HETATM   10  C15 UNL     1       3.519  69.474 -36.763  1.00  0.00     0.006 C 
HETATM   11  C16 UNL     1       2.350  68.469 -37.058  1.00  0.00     0.003 C 
HETATM   12  C17 UNL     1       1.246  69.168 -37.991  1.00  0.00    -0.035 C 
HETATM   13  C18 UNL     1      -0.066  68.343 -37.932  1.00  0.00     0.016 C 
HETATM   14  C19 UNL     1       0.893  70.594 -37.462  1.00  0.00     0.017 C 
HETATM   15  C20 UNL     1      -0.033  71.388 -38.378  1.00  0.00     0.080 C 
HETATM   16  C21 UNL     1       0.497  71.450 -39.793  1.00  0.00     0.135 C 
HETATM   17  O5  UNL     1       0.483  72.522 -40.403  1.00  0.00    -0.297 OA
HETATM   18  C22 UNL     1       0.939  70.131 -40.457  1.00  0.00     0.017 C 
HETATM   19  C23 UNL     1      -0.312  69.396 -40.954  1.00  0.00     0.023 C 
HETATM   20  C24 UNL     1       1.776  70.493 -41.711  1.00  0.00     0.023 C 
HETATM   21  C25 UNL     1       1.833  69.336 -39.439  1.00  0.00     0.009 C 
HETATM   22  C26 UNL     1       2.405  68.013 -39.982  1.00  0.00     0.007 C 
HETATM   23  C27 UNL     1       3.423  67.354 -39.027  1.00  0.00     0.011 C 
HETATM   24  C28 UNL     1       2.901  67.077 -37.577  1.00  0.00    -0.022 C 
HETATM   25  C29 UNL     1       1.811  65.975 -37.740  1.00  0.00     0.017 C 
HETATM   26  C30 UNL     1       5.807  67.191 -34.614  1.00  0.00     0.018 C 
ENDROOT
BRANCH   4  27
HETATM   27  C8  UNL     1       5.800  65.933 -32.424  1.00  0.00     0.149 C 
HETATM   28  O1  UNL     1       6.768  66.469 -31.896  1.00  0.00    -0.649 OA
BRANCH  27  29
HETATM   29  O2  UNL     1       4.871  65.343 -31.642  1.00  0.00    -0.776 OA
HETATM   30  H11 UNL     1       5.202  65.502 -30.732  1.00  0.00     0.167 HD
ENDBRANCH  27  29
ENDBRANCH   4  27
BRANCH   1  31
HETATM   31  C2  UNL     1       7.977  68.181 -35.795  1.00  0.00    -0.088 C 
HETATM   32  C1  UNL     1       8.041  69.481 -35.456  1.00  0.00     0.014 C 
HETATM   33  C3  UNL     1       8.473  67.749 -37.155  1.00  0.00     0.043 C 
ENDBRANCH   1  31
BRANCH   7  34
HETATM   34  C12 UNL     1       5.040  65.701 -37.379  1.00  0.00     0.149 C 
HETATM   35  O3  UNL     1       5.923  66.170 -38.080  1.00  0.00    -0.649 OA
BRANCH  34  36
HETATM   36  O4  UNL     1       4.963  64.368 -37.251  1.00  0.00    -0.776 OA
HETATM   37  H16 UNL     1       5.705  64.036 -37.799  1.00  0.00     0.167 HD
ENDBRANCH  34  36
ENDBRANCH   7  34
TORSDOF 5
ENDMDL
MODEL 6
REMARK minimizedAffinity -7.8072381
REMARK  5 active torsions:
REMARK  status: ('A' for Active; 'I' for Inactive)
REMARK    1  A    between atoms: C2_2  and  C4_4 
REMARK    2  A    between atoms: C7_7  and  C8_8 
REMARK    3  A    between atoms: C8_8  and  O2_10 
REMARK    4  A    between atoms: C11_13  and  C12_14 
REMARK    5  A    between atoms: C12_14  and  O4_16 
ROOT
HETATM    1  C4  UNL     1      -2.184  50.439 -23.850  1.00  0.00     0.019 C 
HETATM    2  C5  UNL     1      -3.050  51.635 -24.267  1.00  0.00     0.011 C 
HETATM    3  C6  UNL     1      -3.972  51.133 -25.382  1.00  0.00     0.021 C 
HETATM    4  C7  UNL     1      -3.767  49.609 -25.494  1.00  0.00     0.050 C 
HETATM    5  C9  UNL     1      -5.102  48.868 -25.679  1.00  0.00     0.022 C 
HETATM    6  C10 UNL     1      -6.056  48.790 -24.474  1.00  0.00     0.023 C 
HETATM    7  C11 UNL     1      -5.436  48.924 -23.031  1.00  0.00     0.057 C 
HETATM    8  C13 UNL     1      -3.965  48.426 -23.202  1.00  0.00     0.011 C 
HETATM    9  C14 UNL     1      -3.349  47.992 -21.892  1.00  0.00     0.007 C 
HETATM   10  C15 UNL     1      -4.087  46.774 -21.343  1.00  0.00     0.006 C 
HETATM   11  C16 UNL     1      -5.616  46.639 -21.672  1.00  0.00     0.003 C 
HETATM   12  C17 UNL     1      -6.331  45.697 -20.586  1.00  0.00    -0.035 C 
HETATM   13  C18 UNL     1      -7.706  45.239 -21.137  1.00  0.00     0.016 C 
HETATM   14  C19 UNL     1      -5.499  44.397 -20.344  1.00  0.00     0.017 C 
HETATM   15  C20 UNL     1      -6.027  43.520 -19.213  1.00  0.00     0.080 C 
HETATM   16  C21 UNL     1      -6.198  44.302 -17.931  1.00  0.00     0.135 C 
HETATM   17  O5  UNL     1      -5.807  43.818 -16.865  1.00  0.00    -0.297 OA
HETATM   18  C22 UNL     1      -6.958  45.641 -17.996  1.00  0.00     0.017 C 
HETATM   19  C23 UNL     1      -8.463  45.343 -18.019  1.00  0.00     0.023 C 
HETATM   20  C24 UNL     1      -6.672  46.410 -16.681  1.00  0.00     0.023 C 
HETATM   21  C25 UNL     1      -6.412  46.464 -19.217  1.00  0.00     0.009 C 
HETATM   22  C26 UNL     1      -7.036  47.863 -19.381  1.00  0.00     0.007 C 
HETATM   23  C27 UNL     1      -6.348  48.712 -20.471  1.00  0.00     0.011 C 
HETATM   24  C28 UNL     1      -6.287  48.057 -21.893  1.00  0.00    -0.022 C 
HETATM   25  C29 UNL     1      -7.767  48.000 -22.378  1.00  0.00     0.017 C 
HETATM   26  C30 UNL     1      -3.023  49.176 -24.201  1.00  0.00     0.018 C 
ENDROOT
BRANCH   4  27
HETATM   27  C8  UNL     1      -2.900  49.272 -26.722  1.00  0.00     0.149 C 
HETATM   28  O1  UNL     1      -2.869  48.204 -27.321  1.00  0.00    -0.649 OA
BRANCH  27  29
HETATM   29  O2  UNL     1      -2.091  50.274 -27.126  1.00  0.00    -0.776 OA
HETATM   30  H11 UNL     1      -1.618  49.891 -27.896  1.00  0.00     0.167 HD
ENDBRANCH  27  29
ENDBRANCH   4  27
BRANCH   1  31
HETATM   31  C2  UNL     1      -1.412  50.499 -22.546  1.00  0.00    -0.088 C 
HETATM   32  C1  UNL     1      -0.996  49.431 -21.843  1.00  0.00     0.014 C 
HETATM   33  C3  UNL     1      -1.227  51.882 -21.966  1.00  0.00     0.043 C 
ENDBRANCH   1  31
BRANCH   7  34
HETATM   34  C12 UNL     1      -5.568  50.394 -22.622  1.00  0.00     0.149 C 
HETATM   35  O3  UNL     1      -4.875  50.992 -21.813  1.00  0.00    -0.649 OA
BRANCH  34  36
HETATM   36  O4  UNL     1      -6.490  51.083 -23.309  1.00  0.00    -0.776 OA
HETATM   37  H16 UNL     1      -6.391  52.001 -22.980  1.00  0.00     0.167 HD
ENDBRANCH  34  36
ENDBRANCH   7  34
TORSDOF 5
ENDMDL
MODEL 7
REMARK minimizedAffinity -7.80717182
REMARK  5 active torsions:
REMARK  status: ('A' for Active; 'I' for Inactive)
REMARK    1  A    between atoms: C2_2  and  C4_4 
REMARK    2  A    between atoms: C7_7  and  C8_8 
REMARK    3  A    between atoms: C8_8  and  O2_10 
REMARK    4  A    between atoms: C11_13  and  C12_14 
REMARK    5  A    between atoms: C12_14  and  O4_16 
ROOT
HETATM    1  C4  UNL     1      -2.200  51.536 -22.139  1.00  0.00     0.019 C 
HETATM    2  C5  UNL     1      -1.093  50.542 -22.515  1.00  0.00     0.011 C 
HETATM    3  C6  UNL     1      -0.464  50.077 -21.199  1.00  0.00     0.021 C 
HETATM    4  C7  UNL     1      -1.314  50.663 -20.053  1.00  0.00     0.050 C 
HETATM    5  C9  UNL     1      -1.543  49.635 -18.932  1.00  0.00     0.022 C 
HETATM    6  C10 UNL     1      -2.490  48.457 -19.218  1.00  0.00     0.023 C 
HETATM    7  C11 UNL     1      -3.586  48.644 -20.336  1.00  0.00     0.057 C 
HETATM    8  C13 UNL     1      -3.837  50.186 -20.366  1.00  0.00     0.011 C 
HETATM    9  C14 UNL     1      -5.172  50.539 -20.979  1.00  0.00     0.007 C 
HETATM   10  C15 UNL     1      -6.307  50.001 -20.111  1.00  0.00     0.006 C 
HETATM   11  C16 UNL     1      -6.042  48.681 -19.302  1.00  0.00     0.003 C 
HETATM   12  C17 UNL     1      -7.435  47.964 -18.950  1.00  0.00    -0.035 C 
HETATM   13  C18 UNL     1      -7.200  46.922 -17.826  1.00  0.00     0.016 C 
HETATM   14  C19 UNL     1      -8.464  48.995 -18.386  1.00  0.00     0.017 C 
HETATM   15  C20 UNL     1      -9.863  48.426 -18.172  1.00  0.00     0.080 C 
HETATM   16  C21 UNL     1     -10.393  47.756 -19.419  1.00  0.00     0.135 C 
HETATM   17  O5  UNL     1     -11.553  47.971 -19.781  1.00  0.00    -0.297 OA
HETATM   18  C22 UNL     1      -9.483  46.739 -20.136  1.00  0.00     0.017 C 
HETATM   19  C23 UNL     1      -9.562  45.405 -19.382  1.00  0.00     0.023 C 
HETATM   20  C24 UNL     1     -10.073  46.493 -21.548  1.00  0.00     0.023 C 
HETATM   21  C25 UNL     1      -8.047  47.360 -20.265  1.00  0.00     0.009 C 
HETATM   22  C26 UNL     1      -7.031  46.481 -21.018  1.00  0.00     0.007 C 
HETATM   23  C27 UNL     1      -5.691  47.197 -21.289  1.00  0.00     0.011 C 
HETATM   24  C28 UNL     1      -4.967  47.767 -20.023  1.00  0.00    -0.022 C 
HETATM   25  C29 UNL     1      -4.534  46.515 -19.202  1.00  0.00     0.017 C 
HETATM   26  C30 UNL     1      -2.643  51.140 -20.701  1.00  0.00     0.018 C 
ENDROOT
BRANCH   4  27
HETATM   27  C8  UNL     1      -0.595  51.865 -19.411  1.00  0.00     0.149 C 
HETATM   28  O1  UNL     1      -0.118  52.827 -20.000  1.00  0.00    -0.649 OA
BRANCH  27  29
HETATM   29  O2  UNL     1      -0.479  51.795 -18.068  1.00  0.00    -0.776 OA
HETATM   30  H11 UNL     1      -0.002  52.620 -17.835  1.00  0.00     0.167 HD
ENDBRANCH  27  29
ENDBRANCH   4  27
BRANCH   1  31
HETATM   31  C2  UNL     1      -3.239  51.919 -23.175  1.00  0.00    -0.088 C 
HETATM   32  C1  UNL     1      -4.323  52.678 -22.940  1.00  0.00     0.014 C 
HETATM   33  C3  UNL     1      -3.071  51.273 -24.530  1.00  0.00     0.043 C 
ENDBRANCH   1  31
BRANCH   7  34
HETATM   34  C12 UNL     1      -3.008  48.065 -21.631  1.00  0.00     0.149 C 
HETATM   35  O3  UNL     1      -2.140  47.212 -21.726  1.00  0.00    -0.649 OA
BRANCH  34  36
HETATM   36  O4  UNL     1      -3.605  48.500 -22.750  1.00  0.00    -0.776 OA
HETATM   37  H16 UNL     1      -3.173  47.985 -23.462  1.00  0.00     0.167 HD
ENDBRANCH  34  36
ENDBRANCH   7  34
TORSDOF 5
ENDMDL
MODEL 8
REMARK minimizedAffinity -7.79436111
REMARK  5 active torsions:
REMARK  status: ('A' for Active; 'I' for Inactive)
REMARK    1  A    between atoms: C2_2  and  C4_4 
REMARK    2  A    between atoms: C7_7  and  C8_8 
REMARK    3  A    between atoms: C8_8  and  O2_10 
REMARK    4  A    between atoms: C11_13  and  C12_14 
REMARK    5  A    between atoms: C12_14  and  O4_16 
ROOT
HETATM    1  C4  UNL     1      -6.479  46.230 -33.011  1.00  0.00     0.019 C 
HETATM    2  C5  UNL     1      -6.964  47.570 -33.580  1.00  0.00     0.011 C 
HETATM    3  C6  UNL     1      -8.463  47.409 -33.845  1.00  0.00     0.021 C 
HETATM    4  C7  UNL     1      -8.887  46.042 -33.271  1.00  0.00     0.050 C 
HETATM    5  C9  UNL     1     -10.233  46.127 -32.533  1.00  0.00     0.022 C 
HETATM    6  C10 UNL     1     -10.268  46.861 -31.180  1.00  0.00     0.023 C 
HETATM    7  C11 UNL     1      -8.924  46.965 -30.362  1.00  0.00     0.057 C 
HETATM    8  C13 UNL     1      -8.099  45.723 -30.828  1.00  0.00     0.011 C 
HETATM    9  C14 UNL     1      -7.026  45.340 -29.835  1.00  0.00     0.007 C 
HETATM   10  C15 UNL     1      -7.662  44.885 -28.524  1.00  0.00     0.006 C 
HETATM   11  C16 UNL     1      -9.034  45.532 -28.117  1.00  0.00     0.003 C 
HETATM   12  C17 UNL     1      -9.249  45.411 -26.530  1.00  0.00    -0.035 C 
HETATM   13  C18 UNL     1     -10.743  45.662 -26.199  1.00  0.00     0.016 C 
HETATM   14  C19 UNL     1      -8.925  43.966 -26.034  1.00  0.00     0.017 C 
HETATM   15  C20 UNL     1      -8.955  43.806 -24.517  1.00  0.00     0.080 C 
HETATM   16  C21 UNL     1      -8.076  44.825 -23.829  1.00  0.00     0.135 C 
HETATM   17  O5  UNL     1      -7.329  44.468 -22.915  1.00  0.00    -0.297 OA
HETATM   18  C22 UNL     1      -8.230  46.304 -24.235  1.00  0.00     0.017 C 
HETATM   19  C23 UNL     1      -9.460  46.876 -23.519  1.00  0.00     0.023 C 
HETATM   20  C24 UNL     1      -6.997  47.072 -23.694  1.00  0.00     0.023 C 
HETATM   21  C25 UNL     1      -8.258  46.390 -25.803  1.00  0.00     0.009 C 
HETATM   22  C26 UNL     1      -8.349  47.820 -26.368  1.00  0.00     0.007 C 
HETATM   23  C27 UNL     1      -8.186  47.880 -27.901  1.00  0.00     0.011 C 
HETATM   24  C28 UNL     1      -9.186  46.991 -28.717  1.00  0.00    -0.022 C 
HETATM   25  C29 UNL     1     -10.586  47.637 -28.489  1.00  0.00     0.017 C 
HETATM   26  C30 UNL     1      -7.728  45.586 -32.342  1.00  0.00     0.018 C 
ENDROOT
BRANCH   4  27
HETATM   27  C8  UNL     1      -9.068  45.016 -34.405  1.00  0.00     0.149 C 
HETATM   28  O1  UNL     1      -9.441  43.855 -34.284  1.00  0.00    -0.649 OA
BRANCH  27  29
HETATM   29  O2  UNL     1      -8.748  45.476 -35.633  1.00  0.00    -0.776 OA
HETATM   30  H11 UNL     1      -8.913  44.706 -36.218  1.00  0.00     0.167 HD
ENDBRANCH  27  29
ENDBRANCH   4  27
BRANCH   1  31
HETATM   31  C2  UNL     1      -5.129  46.159 -32.324  1.00  0.00    -0.088 C 
HETATM   32  C1  UNL     1      -4.356  45.061 -32.247  1.00  0.00     0.014 C 
HETATM   33  C3  UNL     1      -4.717  47.404 -31.574  1.00  0.00     0.043 C 
ENDBRANCH   1  31
BRANCH   7  34
HETATM   34  C12 UNL     1      -8.293  48.317 -30.706  1.00  0.00     0.149 C 
HETATM   35  O3  UNL     1      -7.783  48.635 -31.769  1.00  0.00    -0.649 OA
BRANCH  34  36
HETATM   36  O4  UNL     1      -8.412  49.247 -29.748  1.00  0.00    -0.776 OA
HETATM   37  H16 UNL     1      -8.030  50.053 -30.153  1.00  0.00     0.167 HD
ENDBRANCH  34  36
ENDBRANCH   7  34
TORSDOF 5
ENDMDL
MODEL 9
REMARK minimizedAffinity -7.77730751
REMARK  5 active torsions:
REMARK  status: ('A' for Active; 'I' for Inactive)
REMARK    1  A    between atoms: C2_2  and  C4_4 
REMARK    2  A    between atoms: C7_7  and  C8_8 
REMARK    3  A    between atoms: C8_8  and  O2_10 
REMARK    4  A    between atoms: C11_13  and  C12_14 
REMARK    5  A    between atoms: C12_14  and  O4_16 
ROOT
HETATM    1  C4  UNL     1      -4.617  49.260 -20.496  1.00  0.00     0.019 C 
HETATM    2  C5  UNL     1      -4.369  50.619 -21.163  1.00  0.00     0.011 C 
HETATM    3  C6  UNL     1      -3.424  50.356 -22.340  1.00  0.00     0.021 C 
HETATM    4  C7  UNL     1      -3.262  48.827 -22.464  1.00  0.00     0.050 C 
HETATM    5  C9  UNL     1      -3.302  48.368 -23.931  1.00  0.00     0.022 C 
HETATM    6  C10 UNL     1      -4.652  48.422 -24.666  1.00  0.00     0.023 C 
HETATM    7  C11 UNL     1      -5.968  48.369 -23.799  1.00  0.00     0.057 C 
HETATM    8  C13 UNL     1      -5.540  47.603 -22.506  1.00  0.00     0.011 C 
HETATM    9  C14 UNL     1      -6.719  47.000 -21.778  1.00  0.00     0.007 C 
HETATM   10  C15 UNL     1      -7.374  45.924 -22.641  1.00  0.00     0.006 C 
HETATM   11  C16 UNL     1      -7.313  46.103 -24.200  1.00  0.00     0.003 C 
HETATM   12  C17 UNL     1      -8.496  45.269 -24.895  1.00  0.00    -0.035 C 
HETATM   13  C18 UNL     1      -8.186  45.111 -26.406  1.00  0.00     0.016 C 
HETATM   14  C19 UNL     1      -8.577  43.824 -24.309  1.00  0.00     0.017 C 
HETATM   15  C20 UNL     1      -9.772  43.016 -24.805  1.00  0.00     0.080 C 
HETATM   16  C21 UNL     1     -11.073  43.757 -24.600  1.00  0.00     0.135 C 
HETATM   17  O5  UNL     1     -12.049  43.160 -24.140  1.00  0.00    -0.297 OA
HETATM   18  C22 UNL     1     -11.154  45.220 -25.079  1.00  0.00     0.017 C 
HETATM   19  C23 UNL     1     -11.388  45.220 -26.596  1.00  0.00     0.023 C 
HETATM   20  C24 UNL     1     -12.409  45.859 -24.430  1.00  0.00     0.023 C 
HETATM   21  C25 UNL     1      -9.867  45.976 -24.593  1.00  0.00     0.009 C 
HETATM   22  C26 UNL     1      -9.828  47.474 -24.945  1.00  0.00     0.007 C 
HETATM   23  C27 UNL     1      -8.645  48.222 -24.294  1.00  0.00     0.011 C 
HETATM   24  C28 UNL     1      -7.227  47.633 -24.603  1.00  0.00    -0.022 C 
HETATM   25  C29 UNL     1      -7.004  47.885 -26.125  1.00  0.00     0.017 C 
HETATM   26  C30 UNL     1      -4.402  48.201 -21.615  1.00  0.00     0.018 C 
ENDROOT
BRANCH   4  27
HETATM   27  C8  UNL     1      -1.899  48.384 -21.898  1.00  0.00     0.149 C 
HETATM   28  O1  UNL     1      -0.993  49.119 -21.522  1.00  0.00    -0.649 OA
BRANCH  27  29
HETATM   29  O2  UNL     1      -1.718  47.048 -21.858  1.00  0.00    -0.776 OA
HETATM   30  H11 UNL     1      -0.816  46.948 -21.486  1.00  0.00     0.167 HD
ENDBRANCH  27  29
ENDBRANCH   4  27
BRANCH   1  31
HETATM   31  C2  UNL     1      -5.768  49.111 -19.520  1.00  0.00    -0.088 C 
HETATM   32  C1  UNL     1      -5.809  48.239 -18.498  1.00  0.00     0.014 C 
HETATM   33  C3  UNL     1      -6.994  49.937 -19.833  1.00  0.00     0.043 C 
ENDBRANCH   1  31
BRANCH   7  34
HETATM   34  C12 UNL     1      -6.410  49.816 -23.566  1.00  0.00     0.149 C 
HETATM   35  O3  UNL     1      -7.128  50.225 -22.667  1.00  0.00    -0.649 OA
BRANCH  34  36
HETATM   36  O4  UNL     1      -5.860  50.708 -24.403  1.00  0.00    -0.776 OA
HETATM   37  H16 UNL     1      -6.185  51.571 -24.074  1.00  0.00     0.167 HD
ENDBRANCH  34  36
ENDBRANCH   7  34
TORSDOF 5
ENDMDL
