MODEL 1
REMARK minimizedAffinity -9.73638153
REMARK  10 active torsions:
REMARK  status: ('A' for Active; 'I' for Inactive)
REMARK    1  A    between atoms: C2_2  and  O1_4 
REMARK    2  A    between atoms: C2_2  and  C4_5 
REMARK    3  A    between atoms: C4_5  and  O2_6 
REMARK    4  A    between atoms: C4_5  and  C5_7 
REMARK    5  A    between atoms: C5_7  and  O3_8 
REMARK    6  A    between atoms: C5_7  and  C6_9 
REMARK    7  A    between atoms: C6_9  and  C7_10 
REMARK    8  A    between atoms: C7_10  and  C8_11 
REMARK    9  A    between atoms: C7_10  and  C9_13 
REMARK   10  A    between atoms: C8_11  and  O4_12 
ROOT
HETATM    1  C9  UNL     1      -3.340   7.371  14.261  1.00  0.00     0.001 C 
HETATM    2  C10 UNL     1      -4.041   8.483  13.422  1.00  0.00     0.007 C 
HETATM    3  C11 UNL     1      -3.108   8.849  12.254  1.00  0.00     0.015 C 
HETATM    4  C12 UNL     1      -1.759   8.192  12.604  1.00  0.00    -0.013 C 
HETATM    5  C13 UNL     1      -1.026   9.174  13.573  1.00  0.00     0.021 C 
HETATM    6  C14 UNL     1      -0.783   7.923  11.465  1.00  0.00    -0.070 C 
HETATM    7  C15 UNL     1      -0.688   8.730  10.390  1.00  0.00    -0.022 C 
HETATM    8  C16 UNL     1       0.309   8.558   9.282  1.00  0.00     0.034 C 
HETATM    9  C17 UNL     1       1.095   7.229   9.342  1.00  0.00     0.013 C 
HETATM   10  C18 UNL     1       2.197   7.095   8.233  1.00  0.00     0.018 C 
HETATM   11  C19 UNL     1       1.510   6.962   6.851  1.00  0.00     0.023 C 
HETATM   12  C20 UNL     1       3.186   8.267   8.129  1.00  0.00     0.023 C 
HETATM   13  C21 UNL     1       3.015   5.816   8.474  1.00  0.00     0.135 C 
HETATM   14  O5  UNL     1       3.377   5.082   7.552  1.00  0.00    -0.297 OA
HETATM   15  C22 UNL     1       3.467   5.533   9.886  1.00  0.00     0.080 C 
HETATM   16  C23 UNL     1       2.280   5.544  10.832  1.00  0.00     0.017 C 
HETATM   17  C24 UNL     1       1.501   6.883  10.827  1.00  0.00    -0.031 C 
HETATM   18  C25 UNL     1       2.369   7.971  11.502  1.00  0.00     0.016 C 
HETATM   19  C26 UNL     1       0.140   6.707  11.621  1.00  0.00     0.024 C 
HETATM   20  C27 UNL     1       0.285   6.248  13.092  1.00  0.00     0.010 C 
HETATM   21  C28 UNL     1      -1.032   6.140  13.898  1.00  0.00     0.011 C 
HETATM   22  C29 UNL     1      -2.243   6.853  13.263  1.00  0.00    -0.029 C 
HETATM   23  C30 UNL     1      -2.928   5.879  12.250  1.00  0.00     0.016 C 
ENDROOT
BRANCH   1  24
HETATM   24  C7  UNL     1      -4.346   6.345  14.875  1.00  0.00     0.016 C 
BRANCH  24  25
HETATM   25  C6  UNL     1      -5.789   6.922  14.956  1.00  0.00     0.041 C 
BRANCH  25  26
HETATM   26  C5  UNL     1      -6.877   5.821  14.958  1.00  0.00     0.150 C 
BRANCH  26  27
HETATM   27  C4  UNL     1      -8.090   6.158  14.040  1.00  0.00     0.180 C 
BRANCH  27  28
HETATM   28  C2  UNL     1      -9.205   6.992  14.741  1.00  0.00     0.079 C 
HETATM   29  C1  UNL     1     -10.427   7.130  13.820  1.00  0.00     0.048 C 
HETATM   30  C3  UNL     1      -8.757   8.382  15.194  1.00  0.00     0.048 C 
BRANCH  28  31
HETATM   31  O1  UNL     1      -9.641   6.272  15.905  1.00  0.00    -0.388 OA
HETATM   32  H7  UNL     1      -9.759   5.348  15.602  1.00  0.00     0.210 HD
ENDBRANCH  28  31
ENDBRANCH  27  28
BRANCH  27  33
HETATM   33  O2  UNL     1      -8.715   4.950  13.565  1.00  0.00    -0.390 OA
HETATM   34  H9  UNL     1      -8.168   4.601  12.839  1.00  0.00     0.210 HD
ENDBRANCH  27  33
ENDBRANCH  26  27
BRANCH  26  35
HETATM   35  O3  UNL     1      -7.314   5.589  16.301  1.00  0.00    -0.393 OA
HETATM   36  H11 UNL     1      -7.887   6.326  16.573  1.00  0.00     0.210 HD
ENDBRANCH  26  35
ENDBRANCH  25  26
ENDBRANCH  24  25
BRANCH  24  37
HETATM   37  C8  UNL     1      -3.903   5.881  16.277  1.00  0.00     0.169 C 
BRANCH  37  38
HETATM   38  O4  UNL     1      -2.971   6.804  16.828  1.00  0.00    -0.400 OA
HETATM   39  H17 UNL     1      -2.199   6.803  16.227  1.00  0.00     0.209 HD
ENDBRANCH  37  38
ENDBRANCH  24  37
ENDBRANCH   1  24
TORSDOF 10
ENDMDL
MODEL 2
REMARK minimizedAffinity -9.6935339
REMARK  10 active torsions:
REMARK  status: ('A' for Active; 'I' for Inactive)
REMARK    1  A    between atoms: C2_2  and  O1_4 
REMARK    2  A    between atoms: C2_2  and  C4_5 
REMARK    3  A    between atoms: C4_5  and  O2_6 
REMARK    4  A    between atoms: C4_5  and  C5_7 
REMARK    5  A    between atoms: C5_7  and  O3_8 
REMARK    6  A    between atoms: C5_7  and  C6_9 
REMARK    7  A    between atoms: C6_9  and  C7_10 
REMARK    8  A    between atoms: C7_10  and  C8_11 
REMARK    9  A    between atoms: C7_10  and  C9_13 
REMARK   10  A    between atoms: C8_11  and  O4_12 
ROOT
HETATM    1  C9  UNL     1      -3.534   6.970  14.226  1.00  0.00     0.001 C 
HETATM    2  C10 UNL     1      -4.041   8.274  13.539  1.00  0.00     0.007 C 
HETATM    3  C11 UNL     1      -2.984   8.705  12.507  1.00  0.00     0.015 C 
HETATM    4  C12 UNL     1      -1.747   7.845  12.827  1.00  0.00    -0.013 C 
HETATM    5  C13 UNL     1      -0.992   8.569  13.987  1.00  0.00     0.021 C 
HETATM    6  C14 UNL     1      -0.717   7.643  11.721  1.00  0.00    -0.070 C 
HETATM    7  C15 UNL     1      -0.451   8.591  10.802  1.00  0.00    -0.022 C 
HETATM    8  C16 UNL     1       0.607   8.476   9.743  1.00  0.00     0.034 C 
HETATM    9  C17 UNL     1       1.238   7.070   9.633  1.00  0.00     0.013 C 
HETATM   10  C18 UNL     1       2.405   6.981   8.587  1.00  0.00     0.018 C 
HETATM   11  C19 UNL     1       1.820   7.148   7.162  1.00  0.00     0.023 C 
HETATM   12  C20 UNL     1       3.519   8.029   8.737  1.00  0.00     0.023 C 
HETATM   13  C21 UNL     1       3.058   5.592   8.664  1.00  0.00     0.135 C 
HETATM   14  O5  UNL     1       3.411   4.973   7.658  1.00  0.00    -0.297 OA
HETATM   15  C22 UNL     1       3.363   5.040  10.035  1.00  0.00     0.080 C 
HETATM   16  C23 UNL     1       2.113   5.044  10.896  1.00  0.00     0.017 C 
HETATM   17  C24 UNL     1       1.485   6.451  11.062  1.00  0.00    -0.031 C 
HETATM   18  C25 UNL     1       2.409   7.309  11.959  1.00  0.00     0.016 C 
HETATM   19  C26 UNL     1       0.054   6.316  11.731  1.00  0.00     0.024 C 
HETATM   20  C27 UNL     1       0.031   5.619  13.113  1.00  0.00     0.010 C 
HETATM   21  C28 UNL     1      -1.350   5.545  13.808  1.00  0.00     0.011 C 
HETATM   22  C29 UNL     1      -2.423   6.487  13.226  1.00  0.00    -0.029 C 
HETATM   23  C30 UNL     1      -3.126   5.772  12.026  1.00  0.00     0.016 C 
ENDROOT
BRANCH   1  24
HETATM   24  C7  UNL     1      -4.690   5.988  14.600  1.00  0.00     0.016 C 
BRANCH  24  25
HETATM   25  C6  UNL     1      -5.672   5.766  13.413  1.00  0.00     0.041 C 
BRANCH  25  26
HETATM   26  C5  UNL     1      -7.012   5.128  13.853  1.00  0.00     0.150 C 
BRANCH  26  27
HETATM   27  C4  UNL     1      -7.045   3.582  13.663  1.00  0.00     0.180 C 
BRANCH  27  28
HETATM   28  C2  UNL     1      -6.361   3.089  12.351  1.00  0.00     0.079 C 
HETATM   29  C1  UNL     1      -6.916   1.715  11.944  1.00  0.00     0.048 C 
HETATM   30  C3  UNL     1      -4.836   3.012  12.429  1.00  0.00     0.048 C 
BRANCH  28  31
HETATM   31  O1  UNL     1      -6.700   4.003  11.296  1.00  0.00    -0.388 OA
HETATM   32  H7  UNL     1      -7.664   4.150  11.388  1.00  0.00     0.210 HD
ENDBRANCH  28  31
ENDBRANCH  27  28
BRANCH  27  33
HETATM   33  O2  UNL     1      -8.404   3.106  13.624  1.00  0.00    -0.390 OA
HETATM   34  H9  UNL     1      -8.731   3.074  14.540  1.00  0.00     0.210 HD
ENDBRANCH  27  33
ENDBRANCH  26  27
BRANCH  26  35
HETATM   35  O3  UNL     1      -8.088   5.745  13.138  1.00  0.00    -0.393 OA
HETATM   36  H11 UNL     1      -8.086   5.408  12.225  1.00  0.00     0.210 HD
ENDBRANCH  26  35
ENDBRANCH  25  26
ENDBRANCH  24  25
BRANCH  24  37
HETATM   37  C8  UNL     1      -5.480   6.479  15.830  1.00  0.00     0.169 C 
BRANCH  37  38
HETATM   38  O4  UNL     1      -5.165   7.838  16.105  1.00  0.00    -0.400 OA
HETATM   39  H17 UNL     1      -4.207   7.861  16.305  1.00  0.00     0.209 HD
ENDBRANCH  37  38
ENDBRANCH  24  37
ENDBRANCH   1  24
TORSDOF 10
ENDMDL
MODEL 3
REMARK minimizedAffinity -9.48557186
REMARK  10 active torsions:
REMARK  status: ('A' for Active; 'I' for Inactive)
REMARK    1  A    between atoms: C2_2  and  O1_4 
REMARK    2  A    between atoms: C2_2  and  C4_5 
REMARK    3  A    between atoms: C4_5  and  O2_6 
REMARK    4  A    between atoms: C4_5  and  C5_7 
REMARK    5  A    between atoms: C5_7  and  O3_8 
REMARK    6  A    between atoms: C5_7  and  C6_9 
REMARK    7  A    between atoms: C6_9  and  C7_10 
REMARK    8  A    between atoms: C7_10  and  C8_11 
REMARK    9  A    between atoms: C7_10  and  C9_13 
REMARK   10  A    between atoms: C8_11  and  O4_12 
ROOT
HETATM    1  C9  UNL     1       0.677   7.305  13.117  1.00  0.00     0.001 C 
HETATM    2  C10 UNL     1       0.994   5.846  12.665  1.00  0.00     0.007 C 
HETATM    3  C11 UNL     1      -0.296   5.019  12.807  1.00  0.00     0.015 C 
HETATM    4  C12 UNL     1      -1.247   5.907  13.631  1.00  0.00    -0.013 C 
HETATM    5  C13 UNL     1      -0.872   5.685  15.131  1.00  0.00     0.021 C 
HETATM    6  C14 UNL     1      -2.743   5.631  13.530  1.00  0.00    -0.070 C 
HETATM    7  C15 UNL     1      -3.237   4.391  13.350  1.00  0.00    -0.022 C 
HETATM    8  C16 UNL     1      -4.700   4.053  13.325  1.00  0.00     0.034 C 
HETATM    9  C17 UNL     1      -5.630   5.286  13.293  1.00  0.00     0.013 C 
HETATM   10  C18 UNL     1      -7.157   4.927  13.357  1.00  0.00     0.018 C 
HETATM   11  C19 UNL     1      -7.566   4.223  12.040  1.00  0.00     0.023 C 
HETATM   12  C20 UNL     1      -7.578   4.001  14.508  1.00  0.00     0.023 C 
HETATM   13  C21 UNL     1      -7.983   6.218  13.472  1.00  0.00     0.135 C 
HETATM   14  O5  UNL     1      -9.042   6.380  12.862  1.00  0.00    -0.297 OA
HETATM   15  C22 UNL     1      -7.512   7.262  14.456  1.00  0.00     0.080 C 
HETATM   16  C23 UNL     1      -6.064   7.627  14.186  1.00  0.00     0.017 C 
HETATM   17  C24 UNL     1      -5.101   6.416  14.258  1.00  0.00    -0.031 C 
HETATM   18  C25 UNL     1      -4.974   5.963  15.732  1.00  0.00     0.016 C 
HETATM   19  C26 UNL     1      -3.678   6.836  13.697  1.00  0.00     0.024 C 
HETATM   20  C27 UNL     1      -3.004   8.024  14.424  1.00  0.00     0.010 C 
HETATM   21  C28 UNL     1      -1.585   8.398  13.932  1.00  0.00     0.011 C 
HETATM   22  C29 UNL     1      -0.894   7.327  13.065  1.00  0.00    -0.029 C 
HETATM   23  C30 UNL     1      -1.328   7.523  11.576  1.00  0.00     0.016 C 
ENDROOT
BRANCH   1  24
HETATM   24  C7  UNL     1       1.473   8.380  12.310  1.00  0.00     0.016 C 
BRANCH  24  25
HETATM   25  C6  UNL     1       1.338   8.172  10.774  1.00  0.00     0.041 C 
BRANCH  25  26
HETATM   26  C5  UNL     1       2.068   6.903  10.273  1.00  0.00     0.150 C 
BRANCH  26  27
HETATM   27  C4  UNL     1       3.008   7.175   9.061  1.00  0.00     0.180 C 
BRANCH  27  28
HETATM   28  C2  UNL     1       2.298   7.844   7.844  1.00  0.00     0.079 C 
HETATM   29  C1  UNL     1       0.923   8.386   8.262  1.00  0.00     0.048 C 
HETATM   30  C3  UNL     1       2.131   6.926   6.633  1.00  0.00     0.048 C 
BRANCH  28  31
HETATM   31  O1  UNL     1       3.083   8.975   7.431  1.00  0.00    -0.388 OA
HETATM   32  H7  UNL     1       3.305   9.446   8.260  1.00  0.00     0.210 HD
ENDBRANCH  28  31
ENDBRANCH  27  28
BRANCH  27  33
HETATM   33  O2  UNL     1       3.582   5.944   8.579  1.00  0.00    -0.390 OA
HETATM   34  H9  UNL     1       4.307   5.703   9.181  1.00  0.00     0.210 HD
ENDBRANCH  27  33
ENDBRANCH  26  27
BRANCH  26  35
HETATM   35  O3  UNL     1       1.101   5.900   9.942  1.00  0.00    -0.393 OA
HETATM   36  H11 UNL     1       0.682   6.140   9.098  1.00  0.00     0.210 HD
ENDBRANCH  26  35
ENDBRANCH  25  26
ENDBRANCH  24  25
BRANCH  24  37
HETATM   37  C8  UNL     1       2.966   8.390  12.693  1.00  0.00     0.169 C 
BRANCH  37  38
HETATM   38  O4  UNL     1       3.358   7.111  13.177  1.00  0.00    -0.400 OA
HETATM   39  H17 UNL     1       2.819   6.945  13.976  1.00  0.00     0.209 HD
ENDBRANCH  37  38
ENDBRANCH  24  37
ENDBRANCH   1  24
TORSDOF 10
ENDMDL
MODEL 4
REMARK minimizedAffinity -9.35647106
REMARK  10 active torsions:
REMARK  status: ('A' for Active; 'I' for Inactive)
REMARK    1  A    between atoms: C2_2  and  O1_4 
REMARK    2  A    between atoms: C2_2  and  C4_5 
REMARK    3  A    between atoms: C4_5  and  O2_6 
REMARK    4  A    between atoms: C4_5  and  C5_7 
REMARK    5  A    between atoms: C5_7  and  O3_8 
REMARK    6  A    between atoms: C5_7  and  C6_9 
REMARK    7  A    between atoms: C6_9  and  C7_10 
REMARK    8  A    between atoms: C7_10  and  C8_11 
REMARK    9  A    between atoms: C7_10  and  C9_13 
REMARK   10  A    between atoms: C8_11  and  O4_12 
ROOT
HETATM    1  C9  UNL     1      -5.456   7.388  15.555  1.00  0.00     0.001 C 
HETATM    2  C10 UNL     1      -5.565   8.919  15.278  1.00  0.00     0.007 C 
HETATM    3  C11 UNL     1      -4.303   9.349  14.510  1.00  0.00     0.015 C 
HETATM    4  C12 UNL     1      -3.340   8.154  14.631  1.00  0.00    -0.013 C 
HETATM    5  C13 UNL     1      -2.621   8.301  16.010  1.00  0.00     0.021 C 
HETATM    6  C14 UNL     1      -2.230   8.027  13.593  1.00  0.00    -0.070 C 
HETATM    7  C15 UNL     1      -1.636   9.102  13.039  1.00  0.00    -0.022 C 
HETATM    8  C16 UNL     1      -0.487   9.036  12.075  1.00  0.00     0.034 C 
HETATM    9  C17 UNL     1      -0.165   7.610  11.574  1.00  0.00     0.013 C 
HETATM   10  C18 UNL     1       1.093   7.538  10.639  1.00  0.00     0.018 C 
HETATM   11  C19 UNL     1       0.769   8.248   9.301  1.00  0.00     0.023 C 
HETATM   12  C20 UNL     1       2.373   8.184  11.189  1.00  0.00     0.023 C 
HETATM   13  C21 UNL     1       1.412   6.068  10.322  1.00  0.00     0.135 C 
HETATM   14  O5  UNL     1       1.764   5.697   9.201  1.00  0.00    -0.297 OA
HETATM   15  C22 UNL     1       1.390   5.087  11.469  1.00  0.00     0.080 C 
HETATM   16  C23 UNL     1       0.060   5.155  12.197  1.00  0.00     0.017 C 
HETATM   17  C24 UNL     1      -0.266   6.565  12.751  1.00  0.00    -0.031 C 
HETATM   18  C25 UNL     1       0.682   6.869  13.935  1.00  0.00     0.016 C 
HETATM   19  C26 UNL     1      -1.774   6.605  13.241  1.00  0.00     0.024 C 
HETATM   20  C27 UNL     1      -2.145   5.569  14.329  1.00  0.00     0.010 C 
HETATM   21  C28 UNL     1      -3.595   5.645  14.866  1.00  0.00     0.011 C 
HETATM   22  C29 UNL     1      -4.344   6.952  14.534  1.00  0.00    -0.029 C 
HETATM   23  C30 UNL     1      -5.004   6.811  13.125  1.00  0.00     0.016 C 
ENDROOT
BRANCH   1  24
HETATM   24  C7  UNL     1      -6.839   6.661  15.519  1.00  0.00     0.016 C 
BRANCH  24  25
HETATM   25  C6  UNL     1      -7.982   7.557  16.078  1.00  0.00     0.041 C 
BRANCH  25  26
HETATM   26  C5  UNL     1      -9.389   7.064  15.663  1.00  0.00     0.150 C 
BRANCH  26  27
HETATM   27  C4  UNL     1      -9.588   7.011  14.118  1.00  0.00     0.180 C 
BRANCH  27  28
HETATM   28  C2  UNL     1     -10.995   7.485  13.643  1.00  0.00     0.079 C 
HETATM   29  C1  UNL     1     -11.157   8.995  13.879  1.00  0.00     0.048 C 
HETATM   30  C3  UNL     1     -12.161   6.745  14.298  1.00  0.00     0.048 C 
BRANCH  28  31
HETATM   31  O1  UNL     1     -11.085   7.276  12.224  1.00  0.00    -0.388 OA
HETATM   32  H7  UNL     1     -10.242   7.619  11.863  1.00  0.00     0.210 HD
ENDBRANCH  28  31
ENDBRANCH  27  28
BRANCH  27  33
HETATM   33  O2  UNL     1      -9.419   5.665  13.632  1.00  0.00    -0.390 OA
HETATM   34  H9  UNL     1      -8.464   5.486  13.589  1.00  0.00     0.210 HD
ENDBRANCH  27  33
ENDBRANCH  26  27
BRANCH  26  35
HETATM   35  O3  UNL     1     -10.381   7.899  16.268  1.00  0.00    -0.393 OA
HETATM   36  H11 UNL     1     -10.404   8.748  15.793  1.00  0.00     0.210 HD
ENDBRANCH  26  35
ENDBRANCH  25  26
ENDBRANCH  24  25
BRANCH  24  37
HETATM   37  C8  UNL     1      -6.804   5.332  16.300  1.00  0.00     0.169 C 
BRANCH  37  38
HETATM   38  O4  UNL     1      -7.877   4.493  15.891  1.00  0.00    -0.400 OA
HETATM   39  H17 UNL     1      -8.699   4.977  16.110  1.00  0.00     0.209 HD
ENDBRANCH  37  38
ENDBRANCH  24  37
ENDBRANCH   1  24
TORSDOF 10
ENDMDL
MODEL 5
REMARK minimizedAffinity -9.13897896
REMARK  10 active torsions:
REMARK  status: ('A' for Active; 'I' for Inactive)
REMARK    1  A    between atoms: C2_2  and  O1_4 
REMARK    2  A    between atoms: C2_2  and  C4_5 
REMARK    3  A    between atoms: C4_5  and  O2_6 
REMARK    4  A    between atoms: C4_5  and  C5_7 
REMARK    5  A    between atoms: C5_7  and  O3_8 
REMARK    6  A    between atoms: C5_7  and  C6_9 
REMARK    7  A    between atoms: C6_9  and  C7_10 
REMARK    8  A    between atoms: C7_10  and  C8_11 
REMARK    9  A    between atoms: C7_10  and  C9_13 
REMARK   10  A    between atoms: C8_11  and  O4_12 
ROOT
HETATM    1  C9  UNL     1      -5.279   7.406  15.534  1.00  0.00     0.001 C 
HETATM    2  C10 UNL     1      -5.470   8.906  15.155  1.00  0.00     0.007 C 
HETATM    3  C11 UNL     1      -4.244   9.343  14.333  1.00  0.00     0.015 C 
HETATM    4  C12 UNL     1      -3.220   8.207  14.516  1.00  0.00    -0.013 C 
HETATM    5  C13 UNL     1      -2.486   8.485  15.866  1.00  0.00     0.021 C 
HETATM    6  C14 UNL     1      -2.124   8.063  13.467  1.00  0.00    -0.070 C 
HETATM    7  C15 UNL     1      -1.594   9.123  12.827  1.00  0.00    -0.022 C 
HETATM    8  C16 UNL     1      -0.460   9.046  11.847  1.00  0.00     0.034 C 
HETATM    9  C17 UNL     1      -0.077   7.606  11.439  1.00  0.00     0.013 C 
HETATM   10  C18 UNL     1       1.167   7.529  10.484  1.00  0.00     0.018 C 
HETATM   11  C19 UNL     1       0.785   8.127   9.107  1.00  0.00     0.023 C 
HETATM   12  C20 UNL     1       2.423   8.274  10.961  1.00  0.00     0.023 C 
HETATM   13  C21 UNL     1       1.554   6.058  10.263  1.00  0.00     0.135 C 
HETATM   14  O5  UNL     1       1.904   5.627   9.163  1.00  0.00    -0.297 OA
HETATM   15  C22 UNL     1       1.601   5.160  11.476  1.00  0.00     0.080 C 
HETATM   16  C23 UNL     1       0.281   5.215  12.224  1.00  0.00     0.017 C 
HETATM   17  C24 UNL     1      -0.105   6.642  12.687  1.00  0.00    -0.031 C 
HETATM   18  C25 UNL     1       0.848   7.074  13.827  1.00  0.00     0.016 C 
HETATM   19  C26 UNL     1      -1.604   6.643  13.204  1.00  0.00     0.024 C 
HETATM   20  C27 UNL     1      -1.904   5.669  14.369  1.00  0.00     0.010 C 
HETATM   21  C28 UNL     1      -3.346   5.712  14.929  1.00  0.00     0.011 C 
HETATM   22  C29 UNL     1      -4.165   6.954  14.524  1.00  0.00    -0.029 C 
HETATM   23  C30 UNL     1      -4.842   6.683  13.141  1.00  0.00     0.016 C 
ENDROOT
BRANCH   1  24
HETATM   24  C7  UNL     1      -6.624   6.612  15.577  1.00  0.00     0.016 C 
BRANCH  24  25
HETATM   25  C6  UNL     1      -7.491   6.867  14.311  1.00  0.00     0.041 C 
BRANCH  25  26
HETATM   26  C5  UNL     1      -8.085   5.566  13.718  1.00  0.00     0.150 C 
BRANCH  26  27
HETATM   27  C4  UNL     1      -7.177   4.320  13.943  1.00  0.00     0.180 C 
BRANCH  27  28
HETATM   28  C2  UNL     1      -6.850   3.529  12.640  1.00  0.00     0.079 C 
HETATM   29  C1  UNL     1      -7.563   2.167  12.650  1.00  0.00     0.048 C 
HETATM   30  C3  UNL     1      -5.357   3.312  12.395  1.00  0.00     0.048 C 
BRANCH  28  31
HETATM   31  O1  UNL     1      -7.375   4.264  11.523  1.00  0.00    -0.388 OA
HETATM   32  H7  UNL     1      -8.280   4.523  11.793  1.00  0.00     0.210 HD
ENDBRANCH  28  31
ENDBRANCH  27  28
BRANCH  27  33
HETATM   33  O2  UNL     1      -7.808   3.390  14.844  1.00  0.00    -0.390 OA
HETATM   34  H9  UNL     1      -7.691   3.730  15.748  1.00  0.00     0.210 HD
ENDBRANCH  27  33
ENDBRANCH  26  27
BRANCH  26  35
HETATM   35  O3  UNL     1      -8.340   5.755  12.322  1.00  0.00    -0.393 OA
HETATM   36  H11 UNL     1      -7.493   5.730  11.845  1.00  0.00     0.210 HD
ENDBRANCH  26  35
ENDBRANCH  25  26
ENDBRANCH  24  25
BRANCH  24  37
HETATM   37  C8  UNL     1      -7.448   6.955  16.836  1.00  0.00     0.169 C 
BRANCH  37  38
HETATM   38  O4  UNL     1      -8.724   7.461  16.465  1.00  0.00    -0.400 OA
HETATM   39  H17 UNL     1      -8.555   8.279  15.955  1.00  0.00     0.209 HD
ENDBRANCH  37  38
ENDBRANCH  24  37
ENDBRANCH   1  24
TORSDOF 10
ENDMDL
MODEL 6
REMARK minimizedAffinity -8.93442631
REMARK  10 active torsions:
REMARK  status: ('A' for Active; 'I' for Inactive)
REMARK    1  A    between atoms: C2_2  and  O1_4 
REMARK    2  A    between atoms: C2_2  and  C4_5 
REMARK    3  A    between atoms: C4_5  and  O2_6 
REMARK    4  A    between atoms: C4_5  and  C5_7 
REMARK    5  A    between atoms: C5_7  and  O3_8 
REMARK    6  A    between atoms: C5_7  and  C6_9 
REMARK    7  A    between atoms: C6_9  and  C7_10 
REMARK    8  A    between atoms: C7_10  and  C8_11 
REMARK    9  A    between atoms: C7_10  and  C9_13 
REMARK   10  A    between atoms: C8_11  and  O4_12 
ROOT
HETATM    1  C9  UNL     1       0.533   7.529  12.877  1.00  0.00     0.001 C 
HETATM    2  C10 UNL     1       0.533   6.347  11.859  1.00  0.00     0.007 C 
HETATM    3  C11 UNL     1      -0.833   5.645  11.954  1.00  0.00     0.015 C 
HETATM    4  C12 UNL     1      -1.481   6.211  13.231  1.00  0.00    -0.013 C 
HETATM    5  C13 UNL     1      -0.907   5.382  14.424  1.00  0.00     0.021 C 
HETATM    6  C14 UNL     1      -2.998   6.127  13.355  1.00  0.00    -0.070 C 
HETATM    7  C15 UNL     1      -3.709   5.107  12.837  1.00  0.00    -0.022 C 
HETATM    8  C16 UNL     1      -5.191   4.932  13.000  1.00  0.00     0.034 C 
HETATM    9  C17 UNL     1      -5.903   6.151  13.627  1.00  0.00     0.013 C 
HETATM   10  C18 UNL     1      -7.436   5.928  13.877  1.00  0.00     0.018 C 
HETATM   11  C19 UNL     1      -8.163   5.841  12.511  1.00  0.00     0.023 C 
HETATM   12  C20 UNL     1      -7.809   4.661  14.662  1.00  0.00     0.023 C 
HETATM   13  C21 UNL     1      -8.014   7.133  14.636  1.00  0.00     0.135 C 
HETATM   14  O5  UNL     1      -9.117   7.613  14.370  1.00  0.00    -0.297 OA
HETATM   15  C22 UNL     1      -7.227   7.657  15.813  1.00  0.00     0.080 C 
HETATM   16  C23 UNL     1      -5.802   7.974  15.397  1.00  0.00     0.017 C 
HETATM   17  C24 UNL     1      -5.048   6.756  14.807  1.00  0.00    -0.031 C 
HETATM   18  C25 UNL     1      -4.757   5.747  15.944  1.00  0.00     0.016 C 
HETATM   19  C26 UNL     1      -3.687   7.242  14.153  1.00  0.00     0.024 C 
HETATM   20  C27 UNL     1      -2.720   7.982  15.109  1.00  0.00     0.010 C 
HETATM   21  C28 UNL     1      -1.359   8.398  14.501  1.00  0.00     0.011 C 
HETATM   22  C29 UNL     1      -1.000   7.703  13.172  1.00  0.00    -0.029 C 
HETATM   23  C30 UNL     1      -1.634   8.510  11.992  1.00  0.00     0.016 C 
ENDROOT
BRANCH   1  24
HETATM   24  C7  UNL     1       1.350   8.763  12.378  1.00  0.00     0.016 C 
BRANCH  24  25
HETATM   25  C6  UNL     1       2.500   8.350  11.415  1.00  0.00     0.041 C 
BRANCH  25  26
HETATM   26  C5  UNL     1       3.751   7.827  12.163  1.00  0.00     0.150 C 
BRANCH  26  27
HETATM   27  C4  UNL     1       4.594   6.826  11.318  1.00  0.00     0.180 C 
BRANCH  27  28
HETATM   28  C2  UNL     1       6.086   6.720  11.762  1.00  0.00     0.079 C 
HETATM   29  C1  UNL     1       6.776   8.088  11.640  1.00  0.00     0.048 C 
HETATM   30  C3  UNL     1       6.896   5.676  10.994  1.00  0.00     0.048 C 
BRANCH  28  31
HETATM   31  O1  UNL     1       6.117   6.363  13.153  1.00  0.00    -0.388 OA
HETATM   32  H7  UNL     1       5.460   6.949  13.581  1.00  0.00     0.210 HD
ENDBRANCH  28  31
ENDBRANCH  27  28
BRANCH  27  33
HETATM   33  O2  UNL     1       4.603   7.216   9.931  1.00  0.00    -0.390 OA
HETATM   34  H9  UNL     1       3.754   6.941   9.544  1.00  0.00     0.210 HD
ENDBRANCH  27  33
ENDBRANCH  26  27
BRANCH  26  35
HETATM   35  O3  UNL     1       3.346   7.226  13.398  1.00  0.00    -0.393 OA
HETATM   36  H11 UNL     1       2.948   6.360  13.205  1.00  0.00     0.210 HD
ENDBRANCH  26  35
ENDBRANCH  25  26
ENDBRANCH  24  25
BRANCH  24  37
HETATM   37  C8  UNL     1       1.935   9.572  13.553  1.00  0.00     0.169 C 
BRANCH  37  38
HETATM   38  O4  UNL     1       2.468  10.805  13.085  1.00  0.00    -0.400 OA
HETATM   39  H17 UNL     1       3.186  10.572  12.463  1.00  0.00     0.209 HD
ENDBRANCH  37  38
ENDBRANCH  24  37
ENDBRANCH   1  24
TORSDOF 10
ENDMDL
MODEL 7
REMARK minimizedAffinity -8.90486526
REMARK  10 active torsions:
REMARK  status: ('A' for Active; 'I' for Inactive)
REMARK    1  A    between atoms: C2_2  and  O1_4 
REMARK    2  A    between atoms: C2_2  and  C4_5 
REMARK    3  A    between atoms: C4_5  and  O2_6 
REMARK    4  A    between atoms: C4_5  and  C5_7 
REMARK    5  A    between atoms: C5_7  and  O3_8 
REMARK    6  A    between atoms: C5_7  and  C6_9 
REMARK    7  A    between atoms: C6_9  and  C7_10 
REMARK    8  A    between atoms: C7_10  and  C8_11 
REMARK    9  A    between atoms: C7_10  and  C9_13 
REMARK   10  A    between atoms: C8_11  and  O4_12 
ROOT
HETATM    1  C9  UNL     1      -2.788   6.965  14.404  1.00  0.00     0.001 C 
HETATM    2  C10 UNL     1      -2.961   5.660  13.568  1.00  0.00     0.007 C 
HETATM    3  C11 UNL     1      -4.469   5.386  13.431  1.00  0.00     0.015 C 
HETATM    4  C12 UNL     1      -5.137   6.334  14.444  1.00  0.00    -0.013 C 
HETATM    5  C13 UNL     1      -5.074   5.616  15.830  1.00  0.00     0.021 C 
HETATM    6  C14 UNL     1      -6.603   6.690  14.225  1.00  0.00    -0.070 C 
HETATM    7  C15 UNL     1      -7.483   5.823  13.686  1.00  0.00    -0.022 C 
HETATM    8  C16 UNL     1      -8.951   6.091  13.523  1.00  0.00     0.034 C 
HETATM    9  C17 UNL     1      -9.360   7.553  13.814  1.00  0.00     0.013 C 
HETATM   10  C18 UNL     1     -10.907   7.805  13.729  1.00  0.00     0.018 C 
HETATM   11  C19 UNL     1     -11.361   7.666  12.254  1.00  0.00     0.023 C 
HETATM   12  C20 UNL     1     -11.786   6.855  14.557  1.00  0.00     0.023 C 
HETATM   13  C21 UNL     1     -11.218   9.241  14.180  1.00  0.00     0.135 C 
HETATM   14  O5  UNL     1     -12.054   9.944  13.609  1.00  0.00    -0.297 OA
HETATM   15  C22 UNL     1     -10.540   9.740  15.433  1.00  0.00     0.080 C 
HETATM   16  C23 UNL     1      -9.036   9.575  15.320  1.00  0.00     0.017 C 
HETATM   17  C24 UNL     1      -8.594   8.110  15.075  1.00  0.00    -0.031 C 
HETATM   18  C25 UNL     1      -8.840   7.290  16.364  1.00  0.00     0.016 C 
HETATM   19  C26 UNL     1      -7.054   8.078  14.698  1.00  0.00     0.024 C 
HETATM   20  C27 UNL     1      -6.100   8.691  15.752  1.00  0.00     0.010 C 
HETATM   21  C28 UNL     1      -4.590   8.602  15.428  1.00  0.00     0.011 C 
HETATM   22  C29 UNL     1      -4.222   7.601  14.314  1.00  0.00    -0.029 C 
HETATM   23  C30 UNL     1      -4.351   8.316  12.930  1.00  0.00     0.016 C 
ENDROOT
BRANCH   1  24
HETATM   24  C7  UNL     1      -1.556   7.816  13.959  1.00  0.00     0.016 C 
BRANCH  24  25
HETATM   25  C6  UNL     1      -0.887   7.245  12.675  1.00  0.00     0.041 C 
BRANCH  25  26
HETATM   26  C5  UNL     1      -0.648   8.324  11.592  1.00  0.00     0.150 C 
BRANCH  26  27
HETATM   27  C4  UNL     1       0.850   8.464  11.187  1.00  0.00     0.180 C 
BRANCH  27  28
HETATM   28  C2  UNL     1       1.208   7.783   9.830  1.00  0.00     0.079 C 
HETATM   29  C1  UNL     1       2.707   7.941   9.534  1.00  0.00     0.048 C 
HETATM   30  C3  UNL     1       0.402   8.299   8.638  1.00  0.00     0.048 C 
BRANCH  28  31
HETATM   31  O1  UNL     1       0.955   6.374   9.953  1.00  0.00    -0.388 OA
HETATM   32  H7  UNL     1       1.350   6.120  10.812  1.00  0.00     0.210 HD
ENDBRANCH  28  31
ENDBRANCH  27  28
BRANCH  27  33
HETATM   33  O2  UNL     1       1.701   7.866  12.185  1.00  0.00    -0.390 OA
HETATM   34  H9  UNL     1       1.767   8.492  12.927  1.00  0.00     0.210 HD
ENDBRANCH  27  33
ENDBRANCH  26  27
BRANCH  26  35
HETATM   35  O3  UNL     1      -1.162   9.579  12.052  1.00  0.00    -0.393 OA
HETATM   36  H11 UNL     1      -0.553   9.938  12.718  1.00  0.00     0.210 HD
ENDBRANCH  26  35
ENDBRANCH  25  26
ENDBRANCH  24  25
BRANCH  24  37
HETATM   37  C8  UNL     1      -0.502   7.922  15.079  1.00  0.00     0.169 C 
BRANCH  37  38
HETATM   38  O4  UNL     1      -0.337   6.662  15.719  1.00  0.00    -0.400 OA
HETATM   39  H17 UNL     1      -1.205   6.441  16.111  1.00  0.00     0.209 HD
ENDBRANCH  37  38
ENDBRANCH  24  37
ENDBRANCH   1  24
TORSDOF 10
ENDMDL
MODEL 8
REMARK minimizedAffinity -8.87623119
REMARK  10 active torsions:
REMARK  status: ('A' for Active; 'I' for Inactive)
REMARK    1  A    between atoms: C2_2  and  O1_4 
REMARK    2  A    between atoms: C2_2  and  C4_5 
REMARK    3  A    between atoms: C4_5  and  O2_6 
REMARK    4  A    between atoms: C4_5  and  C5_7 
REMARK    5  A    between atoms: C5_7  and  O3_8 
REMARK    6  A    between atoms: C5_7  and  C6_9 
REMARK    7  A    between atoms: C6_9  and  C7_10 
REMARK    8  A    between atoms: C7_10  and  C8_11 
REMARK    9  A    between atoms: C7_10  and  C9_13 
REMARK   10  A    between atoms: C8_11  and  O4_12 
ROOT
HETATM    1  C9  UNL     1      -3.035   7.773  15.426  1.00  0.00     0.001 C 
HETATM    2  C10 UNL     1      -2.028   7.963  16.601  1.00  0.00     0.007 C 
HETATM    3  C11 UNL     1      -0.607   7.793  16.036  1.00  0.00     0.015 C 
HETATM    4  C12 UNL     1      -0.809   7.195  14.631  1.00  0.00    -0.013 C 
HETATM    5  C13 UNL     1      -0.978   5.655  14.825  1.00  0.00     0.021 C 
HETATM    6  C14 UNL     1       0.316   7.367  13.617  1.00  0.00    -0.070 C 
HETATM    7  C15 UNL     1       1.614   7.387  13.976  1.00  0.00    -0.022 C 
HETATM    8  C16 UNL     1       2.762   7.472  13.013  1.00  0.00     0.034 C 
HETATM    9  C17 UNL     1       2.342   7.770  11.557  1.00  0.00     0.013 C 
HETATM   10  C18 UNL     1       3.539   7.768  10.541  1.00  0.00     0.018 C 
HETATM   11  C19 UNL     1       4.451   8.986  10.833  1.00  0.00     0.023 C 
HETATM   12  C20 UNL     1       4.437   6.522  10.567  1.00  0.00     0.023 C 
HETATM   13  C21 UNL     1       2.998   7.922   9.110  1.00  0.00     0.135 C 
HETATM   14  O5  UNL     1       3.553   8.630   8.268  1.00  0.00    -0.297 OA
HETATM   15  C22 UNL     1       1.806   7.081   8.722  1.00  0.00     0.080 C 
HETATM   16  C23 UNL     1       0.668   7.292   9.704  1.00  0.00     0.017 C 
HETATM   17  C24 UNL     1       1.048   6.956  11.167  1.00  0.00    -0.031 C 
HETATM   18  C25 UNL     1       1.214   5.424  11.303  1.00  0.00     0.016 C 
HETATM   19  C26 UNL     1      -0.095   7.465  12.142  1.00  0.00     0.024 C 
HETATM   20  C27 UNL     1      -1.504   6.884  11.871  1.00  0.00     0.010 C 
HETATM   21  C28 UNL     1      -2.614   7.318  12.859  1.00  0.00     0.011 C 
HETATM   22  C29 UNL     1      -2.106   7.949  14.171  1.00  0.00    -0.029 C 
HETATM   23  C30 UNL     1      -1.882   9.479  13.942  1.00  0.00     0.016 C 
ENDROOT
BRANCH   1  24
HETATM   24  C7  UNL     1      -4.303   8.675  15.557  1.00  0.00     0.016 C 
BRANCH  24  25
HETATM   25  C6  UNL     1      -5.583   7.960  15.037  1.00  0.00     0.041 C 
BRANCH  25  26
HETATM   26  C5  UNL     1      -5.480   6.417  15.108  1.00  0.00     0.150 C 
BRANCH  26  27
HETATM   27  C4  UNL     1      -6.038   5.707  13.839  1.00  0.00     0.180 C 
BRANCH  27  28
HETATM   28  C2  UNL     1      -7.488   5.158  14.003  1.00  0.00     0.079 C 
HETATM   29  C1  UNL     1      -7.528   3.655  13.687  1.00  0.00     0.048 C 
HETATM   30  C3  UNL     1      -8.532   5.880  13.152  1.00  0.00     0.048 C 
BRANCH  28  31
HETATM   31  O1  UNL     1      -7.870   5.302  15.381  1.00  0.00    -0.388 OA
HETATM   32  H7  UNL     1      -7.101   4.977  15.893  1.00  0.00     0.210 HD
ENDBRANCH  28  31
ENDBRANCH  27  28
BRANCH  27  33
HETATM   33  O2  UNL     1      -5.209   4.583  13.483  1.00  0.00    -0.390 OA
HETATM   34  H9  UNL     1      -4.420   4.931  13.032  1.00  0.00     0.210 HD
ENDBRANCH  27  33
ENDBRANCH  26  27
BRANCH  26  35
HETATM   35  O3  UNL     1      -6.156   5.951  16.282  1.00  0.00    -0.393 OA
HETATM   36  H11 UNL     1      -7.115   6.002  16.128  1.00  0.00     0.210 HD
ENDBRANCH  26  35
ENDBRANCH  25  26
ENDBRANCH  24  25
BRANCH  24  37
HETATM   37  C8  UNL     1      -4.130  10.014  14.812  1.00  0.00     0.169 C 
BRANCH  37  38
HETATM   38  O4  UNL     1      -4.659  11.082  15.588  1.00  0.00    -0.400 OA
HETATM   39  H17 UNL     1      -5.613  10.892  15.697  1.00  0.00     0.209 HD
ENDBRANCH  37  38
ENDBRANCH  24  37
ENDBRANCH   1  24
TORSDOF 10
ENDMDL
MODEL 9
REMARK minimizedAffinity -8.78992271
REMARK  10 active torsions:
REMARK  status: ('A' for Active; 'I' for Inactive)
REMARK    1  A    between atoms: C2_2  and  O1_4 
REMARK    2  A    between atoms: C2_2  and  C4_5 
REMARK    3  A    between atoms: C4_5  and  O2_6 
REMARK    4  A    between atoms: C4_5  and  C5_7 
REMARK    5  A    between atoms: C5_7  and  O3_8 
REMARK    6  A    between atoms: C5_7  and  C6_9 
REMARK    7  A    between atoms: C6_9  and  C7_10 
REMARK    8  A    between atoms: C7_10  and  C8_11 
REMARK    9  A    between atoms: C7_10  and  C9_13 
REMARK   10  A    between atoms: C8_11  and  O4_12 
ROOT
HETATM    1  C9  UNL     1      -2.356   6.480  13.267  1.00  0.00     0.001 C 
HETATM    2  C10 UNL     1      -1.938   5.601  12.049  1.00  0.00     0.007 C 
HETATM    3  C11 UNL     1      -0.460   5.895  11.741  1.00  0.00     0.015 C 
HETATM    4  C12 UNL     1      -0.129   7.157  12.559  1.00  0.00    -0.013 C 
HETATM    5  C13 UNL     1      -0.608   8.376  11.709  1.00  0.00     0.021 C 
HETATM    6  C14 UNL     1       1.335   7.427  12.888  1.00  0.00    -0.070 C 
HETATM    7  C15 UNL     1       2.336   7.090  12.052  1.00  0.00    -0.022 C 
HETATM    8  C16 UNL     1       3.785   7.404  12.288  1.00  0.00     0.034 C 
HETATM    9  C17 UNL     1       4.087   7.958  13.699  1.00  0.00     0.013 C 
HETATM   10  C18 UNL     1       5.588   8.369  13.908  1.00  0.00     0.018 C 
HETATM   11  C19 UNL     1       6.466   7.093  13.904  1.00  0.00     0.023 C 
HETATM   12  C20 UNL     1       6.175   9.317  12.852  1.00  0.00     0.023 C 
HETATM   13  C21 UNL     1       5.749   9.042  15.280  1.00  0.00     0.135 C 
HETATM   14  O5  UNL     1       6.718   8.827  16.010  1.00  0.00    -0.297 OA
HETATM   15  C22 UNL     1       4.724  10.079  15.672  1.00  0.00     0.080 C 
HETATM   16  C23 UNL     1       3.323   9.503  15.568  1.00  0.00     0.017 C 
HETATM   17  C24 UNL     1       2.976   8.982  14.151  1.00  0.00    -0.031 C 
HETATM   18  C25 UNL     1       2.821  10.191  13.197  1.00  0.00     0.016 C 
HETATM   19  C26 UNL     1       1.622   8.159  14.206  1.00  0.00     0.024 C 
HETATM   20  C27 UNL     1       0.395   8.936  14.741  1.00  0.00     0.010 C 
HETATM   21  C28 UNL     1      -0.947   8.165  14.733  1.00  0.00     0.011 C 
HETATM   22  C29 UNL     1      -0.961   6.893  13.863  1.00  0.00    -0.029 C 
HETATM   23  C30 UNL     1      -0.420   5.695  14.709  1.00  0.00     0.016 C 
ENDROOT
BRANCH   1  24
HETATM   24  C7  UNL     1      -3.395   5.777  14.198  1.00  0.00     0.016 C 
BRANCH  24  25
HETATM   25  C6  UNL     1      -4.654   5.307  13.415  1.00  0.00     0.041 C 
BRANCH  25  26
HETATM   26  C5  UNL     1      -5.977   5.785  14.061  1.00  0.00     0.150 C 
BRANCH  26  27
HETATM   27  C4  UNL     1      -7.029   4.646  14.215  1.00  0.00     0.180 C 
BRANCH  27  28
HETATM   28  C2  UNL     1      -7.673   4.189  12.871  1.00  0.00     0.079 C 
HETATM   29  C1  UNL     1      -6.605   3.582  11.948  1.00  0.00     0.048 C 
HETATM   30  C3  UNL     1      -8.414   5.297  12.122  1.00  0.00     0.048 C 
BRANCH  28  31
HETATM   31  O1  UNL     1      -8.618   3.145  13.156  1.00  0.00    -0.388 OA
HETATM   32  H7  UNL     1      -8.152   2.543  13.771  1.00  0.00     0.210 HD
ENDBRANCH  28  31
ENDBRANCH  27  28
BRANCH  27  33
HETATM   33  O2  UNL     1      -8.111   5.070  15.068  1.00  0.00    -0.390 OA
HETATM   34  H9  UNL     1      -7.801   5.009  15.989  1.00  0.00     0.210 HD
ENDBRANCH  27  33
ENDBRANCH  26  27
BRANCH  26  35
HETATM   35  O3  UNL     1      -6.516   6.865  13.291  1.00  0.00    -0.393 OA
HETATM   36  H11 UNL     1      -6.903   6.503  12.476  1.00  0.00     0.210 HD
ENDBRANCH  26  35
ENDBRANCH  25  26
ENDBRANCH  24  25
BRANCH  24  37
HETATM   37  C8  UNL     1      -3.830   6.694  15.359  1.00  0.00     0.169 C 
BRANCH  37  38
HETATM   38  O4  UNL     1      -3.407   6.148  16.602  1.00  0.00    -0.400 OA
HETATM   39  H17 UNL     1      -3.856   5.283  16.687  1.00  0.00     0.209 HD
ENDBRANCH  37  38
ENDBRANCH  24  37
ENDBRANCH   1  24
TORSDOF 10
ENDMDL
