MODEL 1
REMARK minimizedAffinity -7.51782703
REMARK CNNscore 0.8287642
REMARK CNNaffinity 7.81974649
REMARK  14 active torsions:
REMARK  status: ('A' for Active; 'I' for Inactive)
REMARK    1  A    between atoms: C5_5  and  C6_6 
REMARK    2  A    between atoms: C6_6  and  C8_8 
REMARK    3  A    between atoms: C8_8  and  O1_9 
REMARK    4  A    between atoms: O1_9  and  C9_10 
REMARK    5  A    between atoms: C17_20  and  O4_21 
REMARK    6  A    between atoms: C19_23  and  O5_24 
REMARK    7  A    between atoms: O5_24  and  C20_25 
REMARK    8  A    between atoms: C20_25  and  C21_27 
REMARK    9  A    between atoms: C21_27  and  C22_28 
REMARK   10  A    between atoms: C21_27  and  O7_30 
REMARK   11  A    between atoms: O7_30  and  C24_31 
REMARK   12  A    between atoms: C24_31  and  C25_33 
REMARK   13  A    between atoms: C25_33  and  C26_34 
REMARK   14  A    between atoms: C28_36  and  O9_38 
ROOT
HETATM    1  C1  UNL     1       2.327  10.312  13.937  1.00  0.00     0.015 C 
HETATM    2  C2  UNL     1       1.115  10.058  14.457  1.00  0.00    -0.082 C 
HETATM    3  C3  UNL     1       0.290  11.138  15.089  1.00  0.00     0.034 C 
HETATM    4  C4  UNL     1      -1.073  11.164  14.414  1.00  0.00     0.010 C 
HETATM    5  C5  UNL     1      -1.877   9.855  14.591  1.00  0.00    -0.001 C 
HETATM    6  C11 UNL     1      -1.008   8.605  14.923  1.00  0.00     0.033 C 
HETATM    7  C12 UNL     1      -1.385   7.303  14.200  1.00  0.00     0.163 C 
HETATM    8  O3  UNL     1      -0.890   7.566  12.891  1.00  0.00    -0.376 OA
HETATM    9  C13 UNL     1       0.474   7.962  13.059  1.00  0.00     0.134 C 
HETATM   10  C14 UNL     1       1.342   6.676  13.030  1.00  0.00     0.068 C 
HETATM   11  C15 UNL     1       0.999   5.661  11.933  1.00  0.00    -0.058 C 
HETATM   12  C16 UNL     1       1.970   5.301  11.069  1.00  0.00     0.017 C 
HETATM   13  C17 UNL     1      -0.445   5.120  11.841  1.00  0.00     0.149 C 
HETATM   14  C18 UNL     1      -1.078   4.593  13.156  1.00  0.00     0.072 C 
HETATM   15  C19 UNL     1      -2.528   5.099  13.462  1.00  0.00     0.171 C 
HETATM   16  C28 UNL     1      -2.735   6.579  14.073  1.00  0.00     0.107 C 
HETATM   17  C29 UNL     1      -3.781   7.349  13.252  1.00  0.00     0.051 C 
HETATM   18  C30 UNL     1       0.487   8.685  14.439  1.00  0.00     0.050 C 
ENDROOT
BRANCH  15  19
HETATM   19  O5  UNL     1      -3.345   4.920  12.274  1.00  0.00    -0.311 OA
BRANCH  19  20
HETATM   20  C20 UNL     1      -3.812   3.663  12.031  1.00  0.00     0.289 C 
HETATM   21  O6  UNL     1      -3.124   2.648  12.032  1.00  0.00    -0.262 OA
BRANCH  20  22
HETATM   22  C21 UNL     1      -5.321   3.693  11.762  1.00  0.00     0.231 C 
BRANCH  22  23
HETATM   23  C22 UNL     1      -5.713   2.665  10.694  1.00  0.00     0.038 C 
HETATM   24  C23 UNL     1      -5.849   1.255  11.248  1.00  0.00     0.008 C 
ENDBRANCH  22  23
BRANCH  22  25
HETATM   25  O7  UNL     1      -6.013   3.320  12.972  1.00  0.00    -0.306 OA
BRANCH  25  26
HETATM   26  C24 UNL     1      -7.301   3.765  13.045  1.00  0.00     0.259 C 
HETATM   27  O8  UNL     1      -8.282   3.038  13.122  1.00  0.00    -0.265 OA
BRANCH  26  28
HETATM   28  C25 UNL     1      -7.315   5.275  13.014  1.00  0.00     0.111 C 
BRANCH  28  29
HETATM   29  C26 UNL     1      -7.827   5.902  14.310  1.00  0.00     0.005 C 
HETATM   30  C27 UNL     1      -9.141   6.649  14.129  1.00  0.00     0.005 C 
ENDBRANCH  28  29
ENDBRANCH  26  28
ENDBRANCH  25  26
ENDBRANCH  22  25
ENDBRANCH  20  22
ENDBRANCH  19  20
ENDBRANCH  15  19
BRANCH  16  31
HETATM   31  O9  UNL     1      -3.233   6.409  15.417  1.00  0.00    -0.385 OA
HETATM   32  H45 UNL     1      -4.098   6.851  15.499  1.00  0.00     0.210 HD
ENDBRANCH  16  31
BRANCH  13  33
HETATM   33  O4  UNL     1      -0.490   4.043  10.891  1.00  0.00    -0.391 OA
HETATM   34  H25 UNL     1       0.085   3.342  11.241  1.00  0.00     0.210 HD
ENDBRANCH  13  33
BRANCH   5  35
HETATM   35  C6  UNL     1      -3.036  10.014  15.629  1.00  0.00     0.010 C 
HETATM   36  C7  UNL     1      -4.417   9.597  15.097  1.00  0.00     0.012 C 
BRANCH  35  37
HETATM   37  C8  UNL     1      -2.741   9.261  16.943  1.00  0.00     0.183 C 
BRANCH  37  38
HETATM   38  O1  UNL     1      -1.785  10.032  17.695  1.00  0.00    -0.321 OA
BRANCH  38  39
HETATM   39  C9  UNL     1      -2.252  11.141  18.330  1.00  0.00     0.254 C 
HETATM   40  C10 UNL     1      -3.591  10.848  18.935  1.00  0.00     0.126 C 
HETATM   41  O2  UNL     1      -1.689  12.223  18.394  1.00  0.00    -0.266 OA
ENDBRANCH  38  39
ENDBRANCH  37  38
ENDBRANCH  35  37
ENDBRANCH   5  35
TORSDOF 14
ENDMDL
MODEL 2
REMARK minimizedAffinity -6.98258638
REMARK CNNscore 0.775855541
REMARK CNNaffinity 7.22654772
REMARK  14 active torsions:
REMARK  status: ('A' for Active; 'I' for Inactive)
REMARK    1  A    between atoms: C5_5  and  C6_6 
REMARK    2  A    between atoms: C6_6  and  C8_8 
REMARK    3  A    between atoms: C8_8  and  O1_9 
REMARK    4  A    between atoms: O1_9  and  C9_10 
REMARK    5  A    between atoms: C17_20  and  O4_21 
REMARK    6  A    between atoms: C19_23  and  O5_24 
REMARK    7  A    between atoms: O5_24  and  C20_25 
REMARK    8  A    between atoms: C20_25  and  C21_27 
REMARK    9  A    between atoms: C21_27  and  C22_28 
REMARK   10  A    between atoms: C21_27  and  O7_30 
REMARK   11  A    between atoms: O7_30  and  C24_31 
REMARK   12  A    between atoms: C24_31  and  C25_33 
REMARK   13  A    between atoms: C25_33  and  C26_34 
REMARK   14  A    between atoms: C28_36  and  O9_38 
ROOT
HETATM    1  C1  UNL     1       2.743  10.585  13.799  1.00  0.00     0.015 C 
HETATM    2  C2  UNL     1       1.615  10.447  14.516  1.00  0.00    -0.082 C 
HETATM    3  C3  UNL     1       0.994  11.607  15.234  1.00  0.00     0.034 C 
HETATM    4  C4  UNL     1      -0.454  11.734  14.787  1.00  0.00     0.010 C 
HETATM    5  C5  UNL     1      -1.321  10.503  15.138  1.00  0.00    -0.001 C 
HETATM    6  C11 UNL     1      -0.512   9.191  15.369  1.00  0.00     0.033 C 
HETATM    7  C12 UNL     1      -1.106   7.910  14.764  1.00  0.00     0.163 C 
HETATM    8  O3  UNL     1      -0.812   8.101  13.383  1.00  0.00    -0.376 OA
HETATM    9  C13 UNL     1       0.588   8.383  13.315  1.00  0.00     0.134 C 
HETATM   10  C14 UNL     1       1.333   7.028  13.193  1.00  0.00     0.068 C 
HETATM   11  C15 UNL     1       0.735   6.021  12.202  1.00  0.00    -0.058 C 
HETATM   12  C16 UNL     1       1.519   5.561  11.206  1.00  0.00     0.017 C 
HETATM   13  C17 UNL     1      -0.743   5.604  12.363  1.00  0.00     0.149 C 
HETATM   14  C18 UNL     1      -1.193   5.161  13.781  1.00  0.00     0.072 C 
HETATM   15  C19 UNL     1      -2.528   5.796  14.299  1.00  0.00     0.171 C 
HETATM   16  C28 UNL     1      -2.512   7.301  14.882  1.00  0.00     0.107 C 
HETATM   17  C29 UNL     1      -3.613   8.139  14.214  1.00  0.00     0.051 C 
HETATM   18  C30 UNL     1       0.885   9.133  14.648  1.00  0.00     0.050 C 
ENDROOT
BRANCH  15  19
HETATM   19  O5  UNL     1      -3.540   5.660  13.266  1.00  0.00    -0.311 OA
BRANCH  19  20
HETATM   20  C20 UNL     1      -4.041   4.411  13.053  1.00  0.00     0.289 C 
HETATM   21  O6  UNL     1      -3.418   3.369  13.222  1.00  0.00    -0.262 OA
BRANCH  20  22
HETATM   22  C21 UNL     1      -5.497   4.489  12.579  1.00  0.00     0.231 C 
BRANCH  22  23
HETATM   23  C22 UNL     1      -5.926   3.186  11.893  1.00  0.00     0.038 C 
HETATM   24  C23 UNL     1      -5.406   3.067  10.468  1.00  0.00     0.008 C 
ENDBRANCH  22  23
BRANCH  22  25
HETATM   25  O7  UNL     1      -6.350   4.653  13.732  1.00  0.00    -0.306 OA
BRANCH  25  26
HETATM   26  C24 UNL     1      -7.637   4.993  13.437  1.00  0.00     0.259 C 
HETATM   27  O8  UNL     1      -8.374   4.348  12.705  1.00  0.00    -0.265 OA
BRANCH  26  28
HETATM   28  C25 UNL     1      -7.995   6.276  14.150  1.00  0.00     0.111 C 
BRANCH  28  29
HETATM   29  C26 UNL     1      -7.647   6.259  15.638  1.00  0.00     0.005 C 
HETATM   30  C27 UNL     1      -6.756   7.423  16.052  1.00  0.00     0.005 C 
ENDBRANCH  28  29
ENDBRANCH  26  28
ENDBRANCH  25  26
ENDBRANCH  22  25
ENDBRANCH  20  22
ENDBRANCH  19  20
ENDBRANCH  15  19
BRANCH  16  31
HETATM   31  O9  UNL     1      -2.796   7.204  16.294  1.00  0.00    -0.385 OA
HETATM   32  H45 UNL     1      -3.597   7.719  16.499  1.00  0.00     0.210 HD
ENDBRANCH  16  31
BRANCH  13  33
HETATM   33  O4  UNL     1      -1.030   4.513  11.473  1.00  0.00    -0.391 OA
HETATM   34  H25 UNL     1      -0.463   3.774  11.749  1.00  0.00     0.210 HD
ENDBRANCH  13  33
BRANCH   5  35
HETATM   35  C6  UNL     1      -2.278  10.783  16.343  1.00  0.00     0.010 C 
HETATM   36  C7  UNL     1      -3.742  10.390  16.086  1.00  0.00     0.012 C 
BRANCH  35  37
HETATM   37  C8  UNL     1      -1.783  10.109  17.641  1.00  0.00     0.183 C 
BRANCH  37  38
HETATM   38  O1  UNL     1      -1.070  11.095  18.412  1.00  0.00    -0.321 OA
BRANCH  38  39
HETATM   39  C9  UNL     1       0.198  10.780  18.792  1.00  0.00     0.254 C 
HETATM   40  C10 UNL     1       0.499  11.418  20.114  1.00  0.00     0.126 C 
HETATM   41  O2  UNL     1       0.989  10.098  18.159  1.00  0.00    -0.266 OA
ENDBRANCH  38  39
ENDBRANCH  37  38
ENDBRANCH  35  37
ENDBRANCH   5  35
TORSDOF 14
ENDMDL
MODEL 3
REMARK minimizedAffinity -8.4619627
REMARK CNNscore 0.769463658
REMARK CNNaffinity 7.94219589
REMARK  14 active torsions:
REMARK  status: ('A' for Active; 'I' for Inactive)
REMARK    1  A    between atoms: C5_5  and  C6_6 
REMARK    2  A    between atoms: C6_6  and  C8_8 
REMARK    3  A    between atoms: C8_8  and  O1_9 
REMARK    4  A    between atoms: O1_9  and  C9_10 
REMARK    5  A    between atoms: C17_20  and  O4_21 
REMARK    6  A    between atoms: C19_23  and  O5_24 
REMARK    7  A    between atoms: O5_24  and  C20_25 
REMARK    8  A    between atoms: C20_25  and  C21_27 
REMARK    9  A    between atoms: C21_27  and  C22_28 
REMARK   10  A    between atoms: C21_27  and  O7_30 
REMARK   11  A    between atoms: O7_30  and  C24_31 
REMARK   12  A    between atoms: C24_31  and  C25_33 
REMARK   13  A    between atoms: C25_33  and  C26_34 
REMARK   14  A    between atoms: C28_36  and  O9_38 
ROOT
HETATM    1  C1  UNL     1      -8.530   8.759  15.433  1.00  0.00     0.015 C 
HETATM    2  C2  UNL     1      -7.789   7.676  15.145  1.00  0.00    -0.082 C 
HETATM    3  C3  UNL     1      -8.406   6.428  14.591  1.00  0.00     0.034 C 
HETATM    4  C4  UNL     1      -7.690   6.066  13.298  1.00  0.00     0.010 C 
HETATM    5  C5  UNL     1      -6.189   5.751  13.489  1.00  0.00    -0.001 C 
HETATM    6  C11 UNL     1      -5.562   6.357  14.781  1.00  0.00     0.033 C 
HETATM    7  C12 UNL     1      -4.163   6.973  14.635  1.00  0.00     0.163 C 
HETATM    8  O3  UNL     1      -4.471   8.187  13.958  1.00  0.00    -0.376 OA
HETATM    9  C13 UNL     1      -5.492   8.821  14.733  1.00  0.00     0.134 C 
HETATM   10  C14 UNL     1      -4.790   9.701  15.801  1.00  0.00     0.068 C 
HETATM   11  C15 UNL     1      -3.611  10.546  15.304  1.00  0.00    -0.058 C 
HETATM   12  C16 UNL     1      -3.661  11.882  15.482  1.00  0.00     0.017 C 
HETATM   13  C17 UNL     1      -2.435   9.841  14.592  1.00  0.00     0.149 C 
HETATM   14  C18 UNL     1      -1.832   8.600  15.303  1.00  0.00     0.072 C 
HETATM   15  C19 UNL     1      -1.610   7.341  14.399  1.00  0.00     0.171 C 
HETATM   16  C28 UNL     1      -2.869   6.398  14.037  1.00  0.00     0.107 C 
HETATM   17  C29 UNL     1      -2.934   6.160  12.521  1.00  0.00     0.051 C 
HETATM   18  C30 UNL     1      -6.293   7.632  15.342  1.00  0.00     0.050 C 
ENDROOT
BRANCH  15  19
HETATM   19  O5  UNL     1      -0.917   7.751  13.190  1.00  0.00    -0.311 OA
BRANCH  19  20
HETATM   20  C20 UNL     1       0.153   6.999  12.807  1.00  0.00     0.289 C 
HETATM   21  O6  UNL     1       0.879   6.375  13.572  1.00  0.00    -0.262 OA
BRANCH  20  22
HETATM   22  C21 UNL     1       0.318   7.037  11.283  1.00  0.00     0.231 C 
BRANCH  22  23
HETATM   23  C22 UNL     1      -0.092   8.402  10.716  1.00  0.00     0.038 C 
HETATM   24  C23 UNL     1      -0.056   8.449   9.196  1.00  0.00     0.008 C 
ENDBRANCH  22  23
BRANCH  22  25
HETATM   25  O7  UNL     1       1.715   6.858  10.965  1.00  0.00    -0.306 OA
BRANCH  25  26
HETATM   26  C24 UNL     1       2.023   5.634  10.451  1.00  0.00     0.259 C 
HETATM   27  O8  UNL     1       1.478   4.588  10.776  1.00  0.00    -0.265 OA
BRANCH  26  28
HETATM   28  C25 UNL     1       3.130   5.778   9.433  1.00  0.00     0.111 C 
BRANCH  28  29
HETATM   29  C26 UNL     1       2.920   6.948   8.473  1.00  0.00     0.005 C 
HETATM   30  C27 UNL     1       2.327   6.521   7.137  1.00  0.00     0.005 C 
ENDBRANCH  28  29
ENDBRANCH  26  28
ENDBRANCH  25  26
ENDBRANCH  22  25
ENDBRANCH  20  22
ENDBRANCH  19  20
ENDBRANCH  15  19
BRANCH  16  31
HETATM   31  O9  UNL     1      -2.644   5.133  14.695  1.00  0.00    -0.385 OA
HETATM   32  H45 UNL     1      -2.622   4.421  14.029  1.00  0.00     0.210 HD
ENDBRANCH  16  31
BRANCH  13  33
HETATM   33  O4  UNL     1      -1.363  10.778  14.402  1.00  0.00    -0.391 OA
HETATM   34  H25 UNL     1      -1.073  11.052  15.288  1.00  0.00     0.210 HD
ENDBRANCH  13  33
BRANCH   5  35
HETATM   35  C6  UNL     1      -5.894   4.217  13.398  1.00  0.00     0.010 C 
HETATM   36  C7  UNL     1      -7.145   3.331  13.511  1.00  0.00     0.012 C 
BRANCH  35  37
HETATM   37  C8  UNL     1      -5.119   3.854  12.114  1.00  0.00     0.183 C 
BRANCH  37  38
HETATM   38  O1  UNL     1      -3.957   3.091  12.495  1.00  0.00    -0.321 OA
BRANCH  38  39
HETATM   39  C9  UNL     1      -3.182   2.605  11.489  1.00  0.00     0.254 C 
HETATM   40  C10 UNL     1      -3.186   1.108  11.529  1.00  0.00     0.126 C 
HETATM   41  O2  UNL     1      -2.558   3.271  10.677  1.00  0.00    -0.266 OA
ENDBRANCH  38  39
ENDBRANCH  37  38
ENDBRANCH  35  37
ENDBRANCH   5  35
TORSDOF 14
ENDMDL
MODEL 4
REMARK minimizedAffinity -7.71574402
REMARK CNNscore 0.685043693
REMARK CNNaffinity 7.48857355
REMARK  14 active torsions:
REMARK  status: ('A' for Active; 'I' for Inactive)
REMARK    1  A    between atoms: C5_5  and  C6_6 
REMARK    2  A    between atoms: C6_6  and  C8_8 
REMARK    3  A    between atoms: C8_8  and  O1_9 
REMARK    4  A    between atoms: O1_9  and  C9_10 
REMARK    5  A    between atoms: C17_20  and  O4_21 
REMARK    6  A    between atoms: C19_23  and  O5_24 
REMARK    7  A    between atoms: O5_24  and  C20_25 
REMARK    8  A    between atoms: C20_25  and  C21_27 
REMARK    9  A    between atoms: C21_27  and  C22_28 
REMARK   10  A    between atoms: C21_27  and  O7_30 
REMARK   11  A    between atoms: O7_30  and  C24_31 
REMARK   12  A    between atoms: C24_31  and  C25_33 
REMARK   13  A    between atoms: C25_33  and  C26_34 
REMARK   14  A    between atoms: C28_36  and  O9_38 
ROOT
HETATM    1  C1  UNL     1       2.075  10.391  14.067  1.00  0.00     0.015 C 
HETATM    2  C2  UNL     1       0.870  10.061  14.560  1.00  0.00    -0.082 C 
HETATM    3  C3  UNL     1      -0.014  11.079  15.216  1.00  0.00     0.034 C 
HETATM    4  C4  UNL     1      -1.368  11.063  14.524  1.00  0.00     0.010 C 
HETATM    5  C5  UNL     1      -2.110   9.712  14.645  1.00  0.00    -0.001 C 
HETATM    6  C11 UNL     1      -1.186   8.494  14.946  1.00  0.00     0.033 C 
HETATM    7  C12 UNL     1      -1.491   7.201  14.175  1.00  0.00     0.163 C 
HETATM    8  O3  UNL     1      -0.993   7.533  12.882  1.00  0.00    -0.376 OA
HETATM    9  C13 UNL     1       0.348   7.987  13.083  1.00  0.00     0.134 C 
HETATM   10  C14 UNL     1       1.277   6.746  13.024  1.00  0.00     0.068 C 
HETATM   11  C15 UNL     1       0.998   5.754  11.888  1.00  0.00    -0.058 C 
HETATM   12  C16 UNL     1       1.995   5.470  11.026  1.00  0.00     0.017 C 
HETATM   13  C17 UNL     1      -0.417   5.149  11.757  1.00  0.00     0.149 C 
HETATM   14  C18 UNL     1      -1.041   4.547  13.044  1.00  0.00     0.072 C 
HETATM   15  C19 UNL     1      -2.517   4.973  13.347  1.00  0.00     0.171 C 
HETATM   16  C28 UNL     1      -2.803   6.419  14.004  1.00  0.00     0.107 C 
HETATM   17  C29 UNL     1      -3.874   7.166  13.195  1.00  0.00     0.051 C 
HETATM   18  C30 UNL     1       0.309   8.662  14.487  1.00  0.00     0.050 C 
ENDROOT
BRANCH  15  19
HETATM   19  O5  UNL     1      -3.310   4.795  12.142  1.00  0.00    -0.311 OA
BRANCH  19  20
HETATM   20  C20 UNL     1      -3.754   3.535  11.875  1.00  0.00     0.289 C 
HETATM   21  O6  UNL     1      -3.042   2.537  11.831  1.00  0.00    -0.262 OA
BRANCH  20  22
HETATM   22  C21 UNL     1      -5.270   3.536  11.644  1.00  0.00     0.231 C 
BRANCH  22  23
HETATM   23  C22 UNL     1      -5.666   2.516  10.570  1.00  0.00     0.038 C 
HETATM   24  C23 UNL     1      -6.060   1.166  11.149  1.00  0.00     0.008 C 
ENDBRANCH  22  23
BRANCH  22  25
HETATM   25  O7  UNL     1      -5.923   3.130  12.865  1.00  0.00    -0.306 OA
BRANCH  25  26
HETATM   26  C24 UNL     1      -7.173   3.647  13.034  1.00  0.00     0.259 C 
HETATM   27  O8  UNL     1      -8.157   2.994  13.350  1.00  0.00    -0.265 OA
BRANCH  26  28
HETATM   28  C25 UNL     1      -7.143   5.135  12.772  1.00  0.00     0.111 C 
BRANCH  28  29
HETATM   29  C26 UNL     1      -8.530   5.776  12.761  1.00  0.00     0.005 C 
HETATM   30  C27 UNL     1      -9.073   5.992  11.355  1.00  0.00     0.005 C 
ENDBRANCH  28  29
ENDBRANCH  26  28
ENDBRANCH  25  26
ENDBRANCH  22  25
ENDBRANCH  20  22
ENDBRANCH  19  20
ENDBRANCH  15  19
BRANCH  16  31
HETATM   31  O9  UNL     1      -3.310   6.179  15.334  1.00  0.00    -0.385 OA
HETATM   32  H45 UNL     1      -4.195   6.576  15.419  1.00  0.00     0.210 HD
ENDBRANCH  16  31
BRANCH  13  33
HETATM   33  O4  UNL     1      -0.399   4.103  10.771  1.00  0.00    -0.391 OA
HETATM   34  H25 UNL     1       0.205   3.419  11.104  1.00  0.00     0.210 HD
ENDBRANCH  13  33
BRANCH   5  35
HETATM   35  C6  UNL     1      -3.289   9.780  15.671  1.00  0.00     0.010 C 
HETATM   36  C7  UNL     1      -4.131  11.062  15.576  1.00  0.00     0.012 C 
BRANCH  35  37
HETATM   37  C8  UNL     1      -4.212   8.547  15.572  1.00  0.00     0.183 C 
BRANCH  37  38
HETATM   38  O1  UNL     1      -5.576   9.003  15.665  1.00  0.00    -0.321 OA
BRANCH  38  39
HETATM   39  C9  UNL     1      -6.549   8.060  15.542  1.00  0.00     0.254 C 
HETATM   40  C10 UNL     1      -7.827   8.711  15.109  1.00  0.00     0.126 C 
HETATM   41  O2  UNL     1      -6.424   6.865  15.763  1.00  0.00    -0.266 OA
ENDBRANCH  38  39
ENDBRANCH  37  38
ENDBRANCH  35  37
ENDBRANCH   5  35
TORSDOF 14
ENDMDL
MODEL 5
REMARK minimizedAffinity -7.31600761
REMARK CNNscore 0.576225698
REMARK CNNaffinity 7.21304369
REMARK  14 active torsions:
REMARK  status: ('A' for Active; 'I' for Inactive)
REMARK    1  A    between atoms: C5_5  and  C6_6 
REMARK    2  A    between atoms: C6_6  and  C8_8 
REMARK    3  A    between atoms: C8_8  and  O1_9 
REMARK    4  A    between atoms: O1_9  and  C9_10 
REMARK    5  A    between atoms: C17_20  and  O4_21 
REMARK    6  A    between atoms: C19_23  and  O5_24 
REMARK    7  A    between atoms: O5_24  and  C20_25 
REMARK    8  A    between atoms: C20_25  and  C21_27 
REMARK    9  A    between atoms: C21_27  and  C22_28 
REMARK   10  A    between atoms: C21_27  and  O7_30 
REMARK   11  A    between atoms: O7_30  and  C24_31 
REMARK   12  A    between atoms: C24_31  and  C25_33 
REMARK   13  A    between atoms: C25_33  and  C26_34 
REMARK   14  A    between atoms: C28_36  and  O9_38 
ROOT
HETATM    1  C1  UNL     1      -7.824   2.807  12.370  1.00  0.00     0.015 C 
HETATM    2  C2  UNL     1      -6.546   3.198  12.508  1.00  0.00    -0.082 C 
HETATM    3  C3  UNL     1      -5.447   2.591  11.690  1.00  0.00     0.034 C 
HETATM    4  C4  UNL     1      -4.698   3.708  10.980  1.00  0.00     0.010 C 
HETATM    5  C5  UNL     1      -4.012   4.704  11.943  1.00  0.00    -0.001 C 
HETATM    6  C11 UNL     1      -4.618   4.733  13.379  1.00  0.00     0.033 C 
HETATM    7  C12 UNL     1      -4.788   6.119  14.018  1.00  0.00     0.163 C 
HETATM    8  O3  UNL     1      -5.916   6.612  13.300  1.00  0.00    -0.376 OA
HETATM    9  C13 UNL     1      -6.924   5.605  13.414  1.00  0.00     0.134 C 
HETATM   10  C14 UNL     1      -7.733   5.896  14.706  1.00  0.00     0.068 C 
HETATM   11  C15 UNL     1      -8.125   7.361  14.934  1.00  0.00    -0.058 C 
HETATM   12  C16 UNL     1      -9.432   7.659  15.078  1.00  0.00     0.017 C 
HETATM   13  C17 UNL     1      -7.016   8.436  14.956  1.00  0.00     0.149 C 
HETATM   14  C18 UNL     1      -5.787   8.153  15.860  1.00  0.00     0.072 C 
HETATM   15  C19 UNL     1      -4.388   8.390  15.197  1.00  0.00     0.171 C 
HETATM   16  C28 UNL     1      -3.787   7.271  14.200  1.00  0.00     0.107 C 
HETATM   17  C29 UNL     1      -3.338   7.922  12.883  1.00  0.00     0.051 C 
HETATM   18  C30 UNL     1      -6.119   4.273  13.478  1.00  0.00     0.050 C 
ENDROOT
BRANCH  15  19
HETATM   19  O5  UNL     1      -4.390   9.694  14.558  1.00  0.00    -0.311 OA
BRANCH  19  20
HETATM   20  C20 UNL     1      -3.941  10.746  15.299  1.00  0.00     0.289 C 
HETATM   21  O6  UNL     1      -4.655  11.623  15.773  1.00  0.00    -0.262 OA
BRANCH  20  22
HETATM   22  C21 UNL     1      -2.418  10.676  15.464  1.00  0.00     0.231 C 
BRANCH  22  23
HETATM   23  C22 UNL     1      -1.704  11.405  14.318  1.00  0.00     0.038 C 
HETATM   24  C23 UNL     1      -1.636  12.910  14.523  1.00  0.00     0.008 C 
ENDBRANCH  22  23
BRANCH  22  25
HETATM   25  O7  UNL     1      -2.054  11.359  16.681  1.00  0.00    -0.306 OA
BRANCH  25  26
HETATM   26  C24 UNL     1      -1.078  10.739  17.405  1.00  0.00     0.259 C 
HETATM   27  O8  UNL     1      -0.702   9.590  17.220  1.00  0.00    -0.265 OA
BRANCH  26  28
HETATM   28  C25 UNL     1      -0.547  11.689  18.453  1.00  0.00     0.111 C 
BRANCH  28  29
HETATM   29  C26 UNL     1       0.167  10.982  19.604  1.00  0.00     0.005 C 
HETATM   30  C27 UNL     1       1.096  11.904  20.382  1.00  0.00     0.005 C 
ENDBRANCH  28  29
ENDBRANCH  26  28
ENDBRANCH  25  26
ENDBRANCH  22  25
ENDBRANCH  20  22
ENDBRANCH  19  20
ENDBRANCH  15  19
BRANCH  16  31
HETATM   31  O9  UNL     1      -2.632   6.706  14.856  1.00  0.00    -0.385 OA
HETATM   32  H45 UNL     1      -1.846   6.838  14.296  1.00  0.00     0.210 HD
ENDBRANCH  16  31
BRANCH  13  33
HETATM   33  O4  UNL     1      -7.574   9.689  15.386  1.00  0.00    -0.391 OA
HETATM   34  H25 UNL     1      -7.895   9.551  16.294  1.00  0.00     0.210 HD
ENDBRANCH  13  33
BRANCH   5  35
HETATM   35  C6  UNL     1      -2.463   4.493  12.000  1.00  0.00     0.010 C 
HETATM   36  C7  UNL     1      -1.952   3.961  13.349  1.00  0.00     0.012 C 
BRANCH  35  37
HETATM   37  C8  UNL     1      -1.962   3.579  10.862  1.00  0.00     0.183 C 
BRANCH  37  38
HETATM   38  O1  UNL     1      -1.246   2.479  11.456  1.00  0.00    -0.321 OA
BRANCH  38  39
HETATM   39  C9  UNL     1      -1.648   1.225  11.112  1.00  0.00     0.254 C 
HETATM   40  C10 UNL     1      -0.548   0.531  10.370  1.00  0.00     0.126 C 
HETATM   41  O2  UNL     1      -2.740   0.731  11.348  1.00  0.00    -0.266 OA
ENDBRANCH  38  39
ENDBRANCH  37  38
ENDBRANCH  35  37
ENDBRANCH   5  35
TORSDOF 14
ENDMDL
MODEL 6
REMARK minimizedAffinity -7.32294464
REMARK CNNscore 0.575422406
REMARK CNNaffinity 6.42021036
REMARK  14 active torsions:
REMARK  status: ('A' for Active; 'I' for Inactive)
REMARK    1  A    between atoms: C5_5  and  C6_6 
REMARK    2  A    between atoms: C6_6  and  C8_8 
REMARK    3  A    between atoms: C8_8  and  O1_9 
REMARK    4  A    between atoms: O1_9  and  C9_10 
REMARK    5  A    between atoms: C17_20  and  O4_21 
REMARK    6  A    between atoms: C19_23  and  O5_24 
REMARK    7  A    between atoms: O5_24  and  C20_25 
REMARK    8  A    between atoms: C20_25  and  C21_27 
REMARK    9  A    between atoms: C21_27  and  C22_28 
REMARK   10  A    between atoms: C21_27  and  O7_30 
REMARK   11  A    between atoms: O7_30  and  C24_31 
REMARK   12  A    between atoms: C24_31  and  C25_33 
REMARK   13  A    between atoms: C25_33  and  C26_34 
REMARK   14  A    between atoms: C28_36  and  O9_38 
ROOT
HETATM    1  C1  UNL     1      -3.376   3.291  11.798  1.00  0.00     0.015 C 
HETATM    2  C2  UNL     1      -2.383   4.132  12.133  1.00  0.00    -0.082 C 
HETATM    3  C3  UNL     1      -1.043   4.070  11.465  1.00  0.00     0.034 C 
HETATM    4  C4  UNL     1      -0.716   5.447  10.907  1.00  0.00     0.010 C 
HETATM    5  C5  UNL     1      -0.602   6.543  11.990  1.00  0.00    -0.001 C 
HETATM    6  C11 UNL     1      -1.339   6.212  13.323  1.00  0.00     0.033 C 
HETATM    7  C12 UNL     1      -2.119   7.364  13.974  1.00  0.00     0.163 C 
HETATM    8  O3  UNL     1      -3.253   7.442  13.116  1.00  0.00    -0.376 OA
HETATM    9  C13 UNL     1      -3.788   6.117  13.051  1.00  0.00     0.134 C 
HETATM   10  C14 UNL     1      -4.796   5.961  14.219  1.00  0.00     0.068 C 
HETATM   11  C15 UNL     1      -5.760   7.134  14.435  1.00  0.00    -0.058 C 
HETATM   12  C16 UNL     1      -7.085   6.890  14.397  1.00  0.00     0.017 C 
HETATM   13  C17 UNL     1      -5.177   8.548  14.651  1.00  0.00     0.149 C 
HETATM   14  C18 UNL     1      -4.055   8.686  15.715  1.00  0.00     0.072 C 
HETATM   15  C19 UNL     1      -2.794   9.501  15.271  1.00  0.00     0.171 C 
HETATM   16  C28 UNL     1      -1.685   8.792  14.337  1.00  0.00     0.107 C 
HETATM   17  C29 UNL     1      -1.373   9.678  13.121  1.00  0.00     0.051 C 
HETATM   18  C30 UNL     1      -2.536   5.200  13.188  1.00  0.00     0.050 C 
ENDROOT
BRANCH  15  19
HETATM   19  O5  UNL     1      -3.234  10.753  14.680  1.00  0.00    -0.311 OA
BRANCH  19  20
HETATM   20  C20 UNL     1      -2.502  11.865  14.973  1.00  0.00     0.289 C 
HETATM   21  O6  UNL     1      -1.753  12.436  14.189  1.00  0.00    -0.262 OA
BRANCH  20  22
HETATM   22  C21 UNL     1      -2.752  12.306  16.420  1.00  0.00     0.231 C 
BRANCH  22  23
HETATM   23  C22 UNL     1      -4.216  12.084  16.821  1.00  0.00     0.038 C 
HETATM   24  C23 UNL     1      -4.907  13.359  17.278  1.00  0.00     0.008 C 
ENDBRANCH  22  23
BRANCH  22  25
HETATM   25  O7  UNL     1      -1.951  11.488  17.298  1.00  0.00    -0.306 OA
BRANCH  25  26
HETATM   26  C24 UNL     1      -1.452  12.146  18.383  1.00  0.00     0.259 C 
HETATM   27  O8  UNL     1      -1.546  13.351  18.566  1.00  0.00    -0.265 OA
BRANCH  26  28
HETATM   28  C25 UNL     1      -0.776  11.158  19.305  1.00  0.00     0.111 C 
BRANCH  28  29
HETATM   29  C26 UNL     1       0.578  11.642  19.823  1.00  0.00     0.005 C 
HETATM   30  C27 UNL     1       1.312  10.587  20.639  1.00  0.00     0.005 C 
ENDBRANCH  28  29
ENDBRANCH  26  28
ENDBRANCH  25  26
ENDBRANCH  22  25
ENDBRANCH  20  22
ENDBRANCH  19  20
ENDBRANCH  15  19
BRANCH  16  31
HETATM   31  O9  UNL     1      -0.489   8.664  15.135  1.00  0.00    -0.385 OA
HETATM   32  H45 UNL     1       0.243   9.137  14.700  1.00  0.00     0.210 HD
ENDBRANCH  16  31
BRANCH  13  33
HETATM   33  O4  UNL     1      -6.232   9.445  15.036  1.00  0.00    -0.391 OA
HETATM   34  H25 UNL     1      -6.580   9.116  15.882  1.00  0.00     0.210 HD
ENDBRANCH  13  33
BRANCH   5  35
HETATM   35  C6  UNL     1       0.885   6.943  12.266  1.00  0.00     0.010 C 
HETATM   36  C7  UNL     1       1.483   6.305  13.531  1.00  0.00     0.012 C 
BRANCH  35  37
HETATM   37  C8  UNL     1       1.797   6.644  11.058  1.00  0.00     0.183 C 
BRANCH  37  38
HETATM   38  O1  UNL     1       2.013   7.877  10.345  1.00  0.00    -0.321 OA
BRANCH  38  39
HETATM   39  C9  UNL     1       1.608   7.917   9.047  1.00  0.00     0.254 C 
HETATM   40  C10 UNL     1       2.070   6.681   8.338  1.00  0.00     0.126 C 
HETATM   41  O2  UNL     1       0.979   8.821   8.518  1.00  0.00    -0.266 OA
ENDBRANCH  38  39
ENDBRANCH  37  38
ENDBRANCH  35  37
ENDBRANCH   5  35
TORSDOF 14
ENDMDL
MODEL 7
REMARK minimizedAffinity -7.41004372
REMARK CNNscore 0.470130682
REMARK CNNaffinity 6.96055984
REMARK  14 active torsions:
REMARK  status: ('A' for Active; 'I' for Inactive)
REMARK    1  A    between atoms: C5_5  and  C6_6 
REMARK    2  A    between atoms: C6_6  and  C8_8 
REMARK    3  A    between atoms: C8_8  and  O1_9 
REMARK    4  A    between atoms: O1_9  and  C9_10 
REMARK    5  A    between atoms: C17_20  and  O4_21 
REMARK    6  A    between atoms: C19_23  and  O5_24 
REMARK    7  A    between atoms: O5_24  and  C20_25 
REMARK    8  A    between atoms: C20_25  and  C21_27 
REMARK    9  A    between atoms: C21_27  and  C22_28 
REMARK   10  A    between atoms: C21_27  and  O7_30 
REMARK   11  A    between atoms: O7_30  and  C24_31 
REMARK   12  A    between atoms: C24_31  and  C25_33 
REMARK   13  A    between atoms: C25_33  and  C26_34 
REMARK   14  A    between atoms: C28_36  and  O9_38 
ROOT
HETATM    1  C1  UNL     1      -4.221  11.387  15.686  1.00  0.00     0.015 C 
HETATM    2  C2  UNL     1      -4.027  10.072  15.489  1.00  0.00    -0.082 C 
HETATM    3  C3  UNL     1      -5.141   9.172  15.050  1.00  0.00     0.034 C 
HETATM    4  C4  UNL     1      -4.706   8.440  13.790  1.00  0.00     0.010 C 
HETATM    5  C5  UNL     1      -3.476   7.526  13.998  1.00  0.00    -0.001 C 
HETATM    6  C11 UNL     1      -2.596   7.900  15.228  1.00  0.00     0.033 C 
HETATM    7  C12 UNL     1      -1.075   7.842  15.020  1.00  0.00     0.163 C 
HETATM    8  O3  UNL     1      -0.863   9.016  14.241  1.00  0.00    -0.376 OA
HETATM    9  C13 UNL     1      -1.481  10.084  14.964  1.00  0.00     0.134 C 
HETATM   10  C14 UNL     1      -0.425  10.655  15.947  1.00  0.00     0.068 C 
HETATM   11  C15 UNL     1       0.980  10.871  15.371  1.00  0.00    -0.058 C 
HETATM   12  C16 UNL     1       1.514  12.108  15.432  1.00  0.00     0.017 C 
HETATM   13  C17 UNL     1       1.709   9.677  14.717  1.00  0.00     0.149 C 
HETATM   14  C18 UNL     1       1.754   8.356  15.529  1.00  0.00     0.072 C 
HETATM   15  C19 UNL     1       1.377   7.058  14.737  1.00  0.00     0.171 C 
HETATM   16  C28 UNL     1      -0.179   6.723  14.467  1.00  0.00     0.107 C 
HETATM   17  C29 UNL     1      -0.404   6.422  12.977  1.00  0.00     0.051 C 
HETATM   18  C30 UNL     1      -2.686   9.404  15.680  1.00  0.00     0.050 C 
ENDROOT
BRANCH  15  19
HETATM   19  O5  UNL     1       2.126   7.038  13.493  1.00  0.00    -0.311 OA
BRANCH  19  20
HETATM   20  C20 UNL     1       1.808   7.983  12.565  1.00  0.00     0.289 C 
HETATM   21  O6  UNL     1       0.924   8.823  12.696  1.00  0.00    -0.262 OA
BRANCH  20  22
HETATM   22  C21 UNL     1       2.714   7.856  11.335  1.00  0.00     0.231 C 
BRANCH  22  23
HETATM   23  C22 UNL     1       4.091   8.482  11.596  1.00  0.00     0.038 C 
HETATM   24  C23 UNL     1       4.830   8.844  10.317  1.00  0.00     0.008 C 
ENDBRANCH  22  23
BRANCH  22  25
HETATM   25  O7  UNL     1       2.938   6.456  11.068  1.00  0.00    -0.306 OA
BRANCH  25  26
HETATM   26  C24 UNL     1       2.195   5.953  10.041  1.00  0.00     0.259 C 
HETATM   27  O8  UNL     1       1.039   5.566  10.145  1.00  0.00    -0.265 OA
BRANCH  26  28
HETATM   28  C25 UNL     1       3.020   5.952   8.775  1.00  0.00     0.111 C 
BRANCH  28  29
HETATM   29  C26 UNL     1       2.342   6.670   7.610  1.00  0.00     0.005 C 
HETATM   30  C27 UNL     1       1.818   8.049   7.987  1.00  0.00     0.005 C 
ENDBRANCH  28  29
ENDBRANCH  26  28
ENDBRANCH  25  26
ENDBRANCH  22  25
ENDBRANCH  20  22
ENDBRANCH  19  20
ENDBRANCH  15  19
BRANCH  16  31
HETATM   31  O9  UNL     1      -0.488   5.539  15.231  1.00  0.00    -0.385 OA
HETATM   32  H45 UNL     1      -0.801   4.838  14.630  1.00  0.00     0.210 HD
ENDBRANCH  16  31
BRANCH  13  33
HETATM   33  O4  UNL     1       3.070  10.045  14.438  1.00  0.00    -0.391 OA
HETATM   34  H25 UNL     1       3.487  10.235  15.296  1.00  0.00     0.210 HD
ENDBRANCH  13  33
BRANCH   5  35
HETATM   35  C6  UNL     1      -3.870   6.013  14.039  1.00  0.00     0.010 C 
HETATM   36  C7  UNL     1      -5.344   5.757  14.392  1.00  0.00     0.012 C 
BRANCH  35  37
HETATM   37  C8  UNL     1      -3.523   5.289  12.721  1.00  0.00     0.183 C 
BRANCH  37  38
HETATM   38  O1  UNL     1      -3.975   3.926  12.828  1.00  0.00    -0.321 OA
BRANCH  38  39
HETATM   39  C9  UNL     1      -3.870   3.153  11.713  1.00  0.00     0.254 C 
HETATM   40  C10 UNL     1      -2.790   3.693  10.826  1.00  0.00     0.126 C 
HETATM   41  O2  UNL     1      -4.554   2.176  11.449  1.00  0.00    -0.266 OA
ENDBRANCH  38  39
ENDBRANCH  37  38
ENDBRANCH  35  37
ENDBRANCH   5  35
TORSDOF 14
ENDMDL
MODEL 8
REMARK minimizedAffinity -8.9452877
REMARK CNNscore 0.461060524
REMARK CNNaffinity 7.13317347
REMARK  14 active torsions:
REMARK  status: ('A' for Active; 'I' for Inactive)
REMARK    1  A    between atoms: C5_5  and  C6_6 
REMARK    2  A    between atoms: C6_6  and  C8_8 
REMARK    3  A    between atoms: C8_8  and  O1_9 
REMARK    4  A    between atoms: O1_9  and  C9_10 
REMARK    5  A    between atoms: C17_20  and  O4_21 
REMARK    6  A    between atoms: C19_23  and  O5_24 
REMARK    7  A    between atoms: O5_24  and  C20_25 
REMARK    8  A    between atoms: C20_25  and  C21_27 
REMARK    9  A    between atoms: C21_27  and  C22_28 
REMARK   10  A    between atoms: C21_27  and  O7_30 
REMARK   11  A    between atoms: O7_30  and  C24_31 
REMARK   12  A    between atoms: C24_31  and  C25_33 
REMARK   13  A    between atoms: C25_33  and  C26_34 
REMARK   14  A    between atoms: C28_36  and  O9_38 
ROOT
HETATM    1  C1  UNL     1      -7.187   2.486  12.528  1.00  0.00     0.015 C 
HETATM    2  C2  UNL     1      -6.774   3.704  12.914  1.00  0.00    -0.082 C 
HETATM    3  C3  UNL     1      -7.586   4.549  13.849  1.00  0.00     0.034 C 
HETATM    4  C4  UNL     1      -6.713   4.941  15.030  1.00  0.00     0.010 C 
HETATM    5  C5  UNL     1      -5.487   5.798  14.638  1.00  0.00    -0.001 C 
HETATM    6  C11 UNL     1      -5.057   5.662  13.146  1.00  0.00     0.033 C 
HETATM    7  C12 UNL     1      -3.548   5.574  12.878  1.00  0.00     0.163 C 
HETATM    8  O3  UNL     1      -3.275   4.241  13.300  1.00  0.00    -0.376 OA
HETATM    9  C13 UNL     1      -4.210   3.410  12.607  1.00  0.00     0.134 C 
HETATM   10  C14 UNL     1      -3.568   3.014  11.251  1.00  0.00     0.068 C 
HETATM   11  C15 UNL     1      -2.098   2.582  11.306  1.00  0.00    -0.058 C 
HETATM   12  C16 UNL     1      -1.771   1.362  10.836  1.00  0.00     0.017 C 
HETATM   13  C17 UNL     1      -1.060   3.544  11.926  1.00  0.00     0.149 C 
HETATM   14  C18 UNL     1      -1.079   5.012  11.422  1.00  0.00     0.072 C 
HETATM   15  C19 UNL     1      -1.038   6.113  12.534  1.00  0.00     0.171 C 
HETATM   16  C28 UNL     1      -2.391   6.475  13.337  1.00  0.00     0.107 C 
HETATM   17  C29 UNL     1      -2.135   6.439  14.851  1.00  0.00     0.051 C 
HETATM   18  C30 UNL     1      -5.471   4.311  12.453  1.00  0.00     0.050 C 
ENDROOT
BRANCH  15  19
HETATM   19  O5  UNL     1       0.035   5.798  13.461  1.00  0.00    -0.311 OA
BRANCH  19  20
HETATM   20  C20 UNL     1       1.155   6.571  13.394  1.00  0.00     0.289 C 
HETATM   21  O6  UNL     1       1.888   6.826  14.344  1.00  0.00    -0.262 OA
BRANCH  20  22
HETATM   22  C21 UNL     1       1.377   7.074  11.962  1.00  0.00     0.231 C 
BRANCH  22  23
HETATM   23  C22 UNL     1       1.369   8.607  11.908  1.00  0.00     0.038 C 
HETATM   24  C23 UNL     1       1.397   9.251  13.286  1.00  0.00     0.008 C 
ENDBRANCH  22  23
BRANCH  22  25
HETATM   25  O7  UNL     1       2.682   6.648  11.520  1.00  0.00    -0.306 OA
BRANCH  25  26
HETATM   26  C24 UNL     1       2.672   5.864  10.404  1.00  0.00     0.259 C 
HETATM   27  O8  UNL     1       2.300   4.699  10.379  1.00  0.00    -0.265 OA
BRANCH  26  28
HETATM   28  C25 UNL     1       3.186   6.658   9.225  1.00  0.00     0.111 C 
BRANCH  28  29
HETATM   29  C26 UNL     1       2.633   6.176   7.885  1.00  0.00     0.005 C 
HETATM   30  C27 UNL     1       1.911   7.272   7.113  1.00  0.00     0.005 C 
ENDBRANCH  28  29
ENDBRANCH  26  28
ENDBRANCH  25  26
ENDBRANCH  22  25
ENDBRANCH  20  22
ENDBRANCH  19  20
ENDBRANCH  15  19
BRANCH  16  31
HETATM   31  O9  UNL     1      -2.751   7.821  12.960  1.00  0.00    -0.385 OA
HETATM   32  H45 UNL     1      -2.781   8.383  13.756  1.00  0.00     0.210 HD
ENDBRANCH  16  31
BRANCH  13  33
HETATM   33  O4  UNL     1       0.263   3.036  11.688  1.00  0.00    -0.391 OA
HETATM   34  H25 UNL     1       0.385   3.023  10.723  1.00  0.00     0.210 HD
ENDBRANCH  13  33
BRANCH   5  35
HETATM   35  C6  UNL     1      -5.674   7.302  15.025  1.00  0.00     0.010 C 
HETATM   36  C7  UNL     1      -5.720   8.258  13.822  1.00  0.00     0.012 C 
BRANCH  35  37
HETATM   37  C8  UNL     1      -6.923   7.521  15.905  1.00  0.00     0.183 C 
BRANCH  37  38
HETATM   38  O1  UNL     1      -7.971   8.047  15.069  1.00  0.00    -0.321 OA
BRANCH  38  39
HETATM   39  C9  UNL     1      -9.250   7.742  15.419  1.00  0.00     0.254 C 
HETATM   40  C10 UNL     1      -9.704   8.658  16.514  1.00  0.00     0.126 C 
HETATM   41  O2  UNL     1      -9.933   6.850  14.939  1.00  0.00    -0.266 OA
ENDBRANCH  38  39
ENDBRANCH  37  38
ENDBRANCH  35  37
ENDBRANCH   5  35
TORSDOF 14
ENDMDL
MODEL 9
REMARK minimizedAffinity -8.30993557
REMARK CNNscore 0.442353338
REMARK CNNaffinity 7.05168533
REMARK  14 active torsions:
REMARK  status: ('A' for Active; 'I' for Inactive)
REMARK    1  A    between atoms: C5_5  and  C6_6 
REMARK    2  A    between atoms: C6_6  and  C8_8 
REMARK    3  A    between atoms: C8_8  and  O1_9 
REMARK    4  A    between atoms: O1_9  and  C9_10 
REMARK    5  A    between atoms: C17_20  and  O4_21 
REMARK    6  A    between atoms: C19_23  and  O5_24 
REMARK    7  A    between atoms: O5_24  and  C20_25 
REMARK    8  A    between atoms: C20_25  and  C21_27 
REMARK    9  A    between atoms: C21_27  and  C22_28 
REMARK   10  A    between atoms: C21_27  and  O7_30 
REMARK   11  A    between atoms: O7_30  and  C24_31 
REMARK   12  A    between atoms: C24_31  and  C25_33 
REMARK   13  A    between atoms: C25_33  and  C26_34 
REMARK   14  A    between atoms: C28_36  and  O9_38 
ROOT
HETATM    1  C1  UNL     1      -6.761   1.526  11.807  1.00  0.00     0.015 C 
HETATM    2  C2  UNL     1      -6.567   2.775  12.262  1.00  0.00    -0.082 C 
HETATM    3  C3  UNL     1      -7.570   3.454  13.144  1.00  0.00     0.034 C 
HETATM    4  C4  UNL     1      -6.867   3.920  14.409  1.00  0.00     0.010 C 
HETATM    5  C5  UNL     1      -5.753   4.961  14.151  1.00  0.00    -0.001 C 
HETATM    6  C11 UNL     1      -5.184   4.950  12.700  1.00  0.00     0.033 C 
HETATM    7  C12 UNL     1      -3.661   5.092  12.565  1.00  0.00     0.163 C 
HETATM    8  O3  UNL     1      -3.231   3.797  12.974  1.00  0.00    -0.376 OA
HETATM    9  C13 UNL     1      -3.970   2.868  12.177  1.00  0.00     0.134 C 
HETATM   10  C14 UNL     1      -3.166   2.624  10.873  1.00  0.00     0.068 C 
HETATM   11  C15 UNL     1      -1.657   2.408  11.047  1.00  0.00    -0.058 C 
HETATM   12  C16 UNL     1      -1.115   1.268  10.575  1.00  0.00     0.017 C 
HETATM   13  C17 UNL     1      -0.829   3.485  11.784  1.00  0.00     0.149 C 
HETATM   14  C18 UNL     1      -1.023   4.953  11.320  1.00  0.00     0.072 C 
HETATM   15  C19 UNL     1      -1.239   6.003  12.462  1.00  0.00     0.171 C 
HETATM   16  C28 UNL     1      -2.693   6.132  13.150  1.00  0.00     0.107 C 
HETATM   17  C29 UNL     1      -2.562   6.072  14.680  1.00  0.00     0.051 C 
HETATM   18  C30 UNL     1      -5.334   3.582  11.937  1.00  0.00     0.050 C 
ENDROOT
BRANCH  15  19
HETATM   19  O5  UNL     1      -0.213   5.810  13.472  1.00  0.00    -0.311 OA
BRANCH  19  20
HETATM   20  C20 UNL     1       0.757   6.764  13.557  1.00  0.00     0.289 C 
HETATM   21  O6  UNL     1       1.774   6.669  14.234  1.00  0.00    -0.262 OA
BRANCH  20  22
HETATM   22  C21 UNL     1       0.402   7.971  12.680  1.00  0.00     0.231 C 
BRANCH  22  23
HETATM   23  C22 UNL     1       0.481   9.277  13.480  1.00  0.00     0.038 C 
HETATM   24  C23 UNL     1      -0.862   9.704  14.052  1.00  0.00     0.008 C 
ENDBRANCH  22  23
BRANCH  22  25
HETATM   25  O7  UNL     1       1.375   8.073  11.620  1.00  0.00    -0.306 OA
BRANCH  25  26
HETATM   26  C24 UNL     1       0.842   8.295  10.385  1.00  0.00     0.259 C 
HETATM   27  O8  UNL     1      -0.187   8.923  10.176  1.00  0.00    -0.265 OA
BRANCH  26  28
HETATM   28  C25 UNL     1       1.714   7.647   9.334  1.00  0.00     0.111 C 
BRANCH  28  29
HETATM   29  C26 UNL     1       1.394   8.108   7.913  1.00  0.00     0.005 C 
HETATM   30  C27 UNL     1       1.863   7.123   6.851  1.00  0.00     0.005 C 
ENDBRANCH  28  29
ENDBRANCH  26  28
ENDBRANCH  25  26
ENDBRANCH  22  25
ENDBRANCH  20  22
ENDBRANCH  19  20
ENDBRANCH  15  19
BRANCH  16  31
HETATM   31  O9  UNL     1      -3.215   7.426  12.780  1.00  0.00    -0.385 OA
HETATM   32  H45 UNL     1      -3.395   7.945  13.585  1.00  0.00     0.210 HD
ENDBRANCH  16  31
BRANCH  13  33
HETATM   33  O4  UNL     1       0.570   3.184  11.650  1.00  0.00    -0.391 OA
HETATM   34  H25 UNL     1       0.773   3.227  10.701  1.00  0.00     0.210 HD
ENDBRANCH  13  33
BRANCH   5  35
HETATM   35  C6  UNL     1      -6.193   6.405  14.561  1.00  0.00     0.010 C 
HETATM   36  C7  UNL     1      -6.395   7.360  13.373  1.00  0.00     0.012 C 
BRANCH  35  37
HETATM   37  C8  UNL     1      -7.464   6.395  15.437  1.00  0.00     0.183 C 
BRANCH  37  38
HETATM   38  O1  UNL     1      -8.576   6.795  14.614  1.00  0.00    -0.321 OA
BRANCH  38  39
HETATM   39  C9  UNL     1      -9.670   7.289  15.255  1.00  0.00     0.254 C 
HETATM   40  C10 UNL     1      -9.251   7.932  16.541  1.00  0.00     0.126 C 
HETATM   41  O2  UNL     1     -10.825   7.214  14.865  1.00  0.00    -0.266 OA
ENDBRANCH  38  39
ENDBRANCH  37  38
ENDBRANCH  35  37
ENDBRANCH   5  35
TORSDOF 14
ENDMDL
