MODEL 1
REMARK minimizedAffinity -7.91794538
REMARK  7 active torsions:
REMARK  status: ('A' for Active; 'I' for Inactive)
REMARK    1  A    between atoms: N1_2  and  C2_3 
REMARK    2  A    between atoms: C2_3  and  C3_4 
REMARK    3  A    between atoms: C3_4  and  O1_5 
REMARK    4  A    between atoms: O1_5  and  C4_6 
REMARK    5  A    between atoms: C4_6  and  C5_8 
REMARK    6  A    between atoms: C19_23  and  C21_25 
REMARK    7  A    between atoms: C21_25  and  O5_27 
ROOT
HETATM    1  C5  UNL     1      -9.230   5.749  13.087  1.00  0.00     0.085 C 
HETATM    2  C6  UNL     1      -8.034   5.438  13.628  1.00  0.00    -0.070 C 
HETATM    3  C7  UNL     1      -7.454   6.005  14.904  1.00  0.00     0.035 C 
HETATM    4  C8  UNL     1      -6.060   6.597  14.671  1.00  0.00     0.010 C 
HETATM    5  C9  UNL     1      -5.091   5.601  13.989  1.00  0.00     0.006 C 
HETATM    6  C10 UNL     1      -5.740   5.091  12.678  1.00  0.00     0.068 C 
HETATM    7  C11 UNL     1      -4.806   4.186  11.885  1.00  0.00     0.132 C 
HETATM    8  O3  UNL     1      -5.209   3.203  11.261  1.00  0.00    -0.298 OA
HETATM    9  C12 UNL     1      -3.370   4.636  11.744  1.00  0.00     0.085 C 
HETATM   10  C13 UNL     1      -2.773   5.024  13.105  1.00  0.00     0.019 C 
HETATM   11  C14 UNL     1      -3.622   6.161  13.789  1.00  0.00    -0.034 C 
HETATM   12  C15 UNL     1      -3.646   7.467  12.960  1.00  0.00     0.016 C 
HETATM   13  C16 UNL     1      -3.016   6.470  15.185  1.00  0.00     0.010 C 
HETATM   14  C17 UNL     1      -1.520   6.749  15.164  1.00  0.00     0.002 C 
HETATM   15  C18 UNL     1      -0.743   5.601  14.534  1.00  0.00     0.020 C 
HETATM   16  C19 UNL     1      -1.215   5.234  13.101  1.00  0.00     0.049 C 
HETATM   17  C20 UNL     1      -0.485   3.915  12.737  1.00  0.00     0.026 C 
HETATM   18  C23 UNL     1      -7.123   4.433  12.925  1.00  0.00     0.022 C 
HETATM   19  C24 UNL     1      -7.081   3.118  13.722  1.00  0.00     0.015 C 
ENDROOT
BRANCH   1  20
HETATM   20  C4  UNL     1     -10.241   6.701  13.611  1.00  0.00     0.283 C 
HETATM   21  O2  UNL     1     -10.468   6.953  14.780  1.00  0.00    -0.260 OA
BRANCH  20  22
HETATM   22  O1  UNL     1     -10.865   7.257  12.539  1.00  0.00    -0.316 OA
BRANCH  22  23
HETATM   23  C3  UNL     1     -12.086   7.941  12.868  1.00  0.00     0.209 C 
BRANCH  23  24
HETATM   24  C2  UNL     1     -11.845   9.454  12.784  1.00  0.00     0.295 C 
BRANCH  24  25
HETATM   25  N1  UNL     1     -12.644  10.054  11.706  1.00  0.00     0.081 N 
HETATM   26  C1  UNL     1     -13.749  10.834  12.243  1.00  0.00     0.306 C 
HETATM   27  H4  UNL     1     -12.037  10.657  11.149  1.00  0.00     0.315 HD
ENDBRANCH  24  25
ENDBRANCH  23  24
ENDBRANCH  22  23
ENDBRANCH  20  22
ENDBRANCH   1  20
BRANCH  16  28
HETATM   28  C21 UNL     1      -0.703   6.298  12.110  1.00  0.00     0.267 C 
HETATM   29  O4  UNL     1      -0.653   7.500  12.337  1.00  0.00    -0.264 OA
BRANCH  28  30
HETATM   30  O5  UNL     1      -0.283   5.733  10.944  1.00  0.00    -0.326 OA
HETATM   31  C22 UNL     1       0.760   6.451  10.282  1.00  0.00     0.213 C 
ENDBRANCH  28  30
ENDBRANCH  16  28
TORSDOF 7
ENDMDL
MODEL 2
REMARK minimizedAffinity -7.59954309
REMARK  7 active torsions:
REMARK  status: ('A' for Active; 'I' for Inactive)
REMARK    1  A    between atoms: N1_2  and  C2_3 
REMARK    2  A    between atoms: C2_3  and  C3_4 
REMARK    3  A    between atoms: C3_4  and  O1_5 
REMARK    4  A    between atoms: O1_5  and  C4_6 
REMARK    5  A    between atoms: C4_6  and  C5_8 
REMARK    6  A    between atoms: C19_23  and  C21_25 
REMARK    7  A    between atoms: C21_25  and  O5_27 
ROOT
HETATM    1  C5  UNL     1      -9.722   6.584  13.530  1.00  0.00     0.085 C 
HETATM    2  C6  UNL     1      -8.544   6.570  14.186  1.00  0.00    -0.070 C 
HETATM    3  C7  UNL     1      -8.069   7.590  15.195  1.00  0.00     0.035 C 
HETATM    4  C8  UNL     1      -6.698   8.158  14.815  1.00  0.00     0.010 C 
HETATM    5  C9  UNL     1      -5.639   7.057  14.565  1.00  0.00     0.006 C 
HETATM    6  C10 UNL     1      -6.183   6.073  13.501  1.00  0.00     0.068 C 
HETATM    7  C11 UNL     1      -5.158   5.015  13.114  1.00  0.00     0.132 C 
HETATM    8  O3  UNL     1      -5.471   3.849  12.868  1.00  0.00    -0.298 OA
HETATM    9  C12 UNL     1      -3.744   5.486  12.871  1.00  0.00     0.085 C 
HETATM   10  C13 UNL     1      -3.247   6.372  14.024  1.00  0.00     0.019 C 
HETATM   11  C14 UNL     1      -4.193   7.613  14.229  1.00  0.00    -0.034 C 
HETATM   12  C15 UNL     1      -4.241   8.537  12.989  1.00  0.00     0.016 C 
HETATM   13  C16 UNL     1      -3.686   8.438  15.443  1.00  0.00     0.010 C 
HETATM   14  C17 UNL     1      -2.208   8.796  15.376  1.00  0.00     0.002 C 
HETATM   15  C18 UNL     1      -1.336   7.558  15.222  1.00  0.00     0.020 C 
HETATM   16  C19 UNL     1      -1.704   6.676  13.998  1.00  0.00     0.049 C 
HETATM   17  C20 UNL     1      -0.884   5.368  14.153  1.00  0.00     0.026 C 
HETATM   18  C23 UNL     1      -7.541   5.448  13.918  1.00  0.00     0.022 C 
HETATM   19  C24 UNL     1      -7.474   4.506  15.132  1.00  0.00     0.015 C 
ENDROOT
BRANCH   1  20
HETATM   20  C4  UNL     1     -10.811   7.586  13.645  1.00  0.00     0.283 C 
HETATM   21  O2  UNL     1     -10.891   8.485  14.462  1.00  0.00    -0.260 OA
BRANCH  20  22
HETATM   22  O1  UNL     1     -11.706   7.325  12.657  1.00  0.00    -0.316 OA
BRANCH  22  23
HETATM   23  C3  UNL     1     -13.050   7.125  13.127  1.00  0.00     0.209 C 
BRANCH  23  24
HETATM   24  C2  UNL     1     -13.884   8.367  12.790  1.00  0.00     0.295 C 
BRANCH  24  25
HETATM   25  N1  UNL     1     -13.044   9.422  12.207  1.00  0.00     0.081 N 
HETATM   26  C1  UNL     1     -13.611  10.740  12.452  1.00  0.00     0.306 C 
HETATM   27  H4  UNL     1     -12.114   9.366  12.625  1.00  0.00     0.315 HD
ENDBRANCH  24  25
ENDBRANCH  23  24
ENDBRANCH  22  23
ENDBRANCH  20  22
ENDBRANCH   1  20
BRANCH  16  28
HETATM   28  C21 UNL     1      -1.195   7.355  12.712  1.00  0.00     0.267 C 
HETATM   29  O4  UNL     1      -1.654   8.386  12.234  1.00  0.00    -0.264 OA
BRANCH  28  30
HETATM   30  O5  UNL     1      -0.143   6.679  12.173  1.00  0.00    -0.326 OA
HETATM   31  C22 UNL     1      -0.051   6.766  10.750  1.00  0.00     0.213 C 
ENDBRANCH  28  30
ENDBRANCH  16  28
TORSDOF 7
ENDMDL
MODEL 3
REMARK minimizedAffinity -7.14257622
REMARK  7 active torsions:
REMARK  status: ('A' for Active; 'I' for Inactive)
REMARK    1  A    between atoms: N1_2  and  C2_3 
REMARK    2  A    between atoms: C2_3  and  C3_4 
REMARK    3  A    between atoms: C3_4  and  O1_5 
REMARK    4  A    between atoms: O1_5  and  C4_6 
REMARK    5  A    between atoms: C4_6  and  C5_8 
REMARK    6  A    between atoms: C19_23  and  C21_25 
REMARK    7  A    between atoms: C21_25  and  O5_27 
ROOT
HETATM    1  C5  UNL     1       5.071   6.589  11.234  1.00  0.00     0.085 C 
HETATM    2  C6  UNL     1       3.774   6.916  11.057  1.00  0.00    -0.070 C 
HETATM    3  C7  UNL     1       3.194   8.312  11.069  1.00  0.00     0.035 C 
HETATM    4  C8  UNL     1       2.041   8.430  12.072  1.00  0.00     0.010 C 
HETATM    5  C9  UNL     1       0.949   7.353  11.861  1.00  0.00     0.006 C 
HETATM    6  C10 UNL     1       1.614   5.955  11.892  1.00  0.00     0.068 C 
HETATM    7  C11 UNL     1       0.594   4.828  11.801  1.00  0.00     0.132 C 
HETATM    8  O3  UNL     1       0.812   3.787  11.178  1.00  0.00    -0.298 OA
HETATM    9  C12 UNL     1      -0.647   4.954  12.652  1.00  0.00     0.085 C 
HETATM   10  C13 UNL     1      -1.301   6.334  12.481  1.00  0.00     0.019 C 
HETATM   11  C14 UNL     1      -0.289   7.485  12.842  1.00  0.00    -0.034 C 
HETATM   12  C15 UNL     1       0.178   7.428  14.316  1.00  0.00     0.016 C 
HETATM   13  C16 UNL     1      -0.975   8.855  12.591  1.00  0.00     0.010 C 
HETATM   14  C17 UNL     1      -2.334   9.000  13.261  1.00  0.00     0.002 C 
HETATM   15  C18 UNL     1      -3.287   7.888  12.844  1.00  0.00     0.020 C 
HETATM   16  C19 UNL     1      -2.739   6.458  13.104  1.00  0.00     0.049 C 
HETATM   17  C20 UNL     1      -3.727   5.490  12.403  1.00  0.00     0.026 C 
HETATM   18  C23 UNL     1       2.738   5.815  10.832  1.00  0.00     0.022 C 
HETATM   19  C24 UNL     1       2.258   5.841   9.372  1.00  0.00     0.015 C 
ENDROOT
BRANCH   1  20
HETATM   20  C4  UNL     1       6.213   7.506  11.474  1.00  0.00     0.283 C 
HETATM   21  O2  UNL     1       6.910   8.038  10.629  1.00  0.00    -0.260 OA
BRANCH  20  22
HETATM   22  O1  UNL     1       6.333   7.657  12.818  1.00  0.00    -0.316 OA
BRANCH  22  23
HETATM   23  C3  UNL     1       7.694   7.725  13.276  1.00  0.00     0.209 C 
BRANCH  23  24
HETATM   24  C2  UNL     1       7.715   8.329  14.686  1.00  0.00     0.295 C 
BRANCH  24  25
HETATM   25  N1  UNL     1       8.408   7.441  15.628  1.00  0.00     0.081 N 
HETATM   26  C1  UNL     1       9.220   8.201  16.567  1.00  0.00     0.306 C 
HETATM   27  H4  UNL     1       7.709   6.900  16.140  1.00  0.00     0.315 HD
ENDBRANCH  24  25
ENDBRANCH  23  24
ENDBRANCH  22  23
ENDBRANCH  20  22
ENDBRANCH   1  20
BRANCH  16  28
HETATM   28  C21 UNL     1      -2.826   6.148  14.611  1.00  0.00     0.267 C 
HETATM   29  O4  UNL     1      -2.199   5.265  15.183  1.00  0.00    -0.264 OA
BRANCH  28  30
HETATM   30  O5  UNL     1      -3.677   7.000  15.248  1.00  0.00    -0.326 OA
HETATM   31  C22 UNL     1      -4.921   6.413  15.635  1.00  0.00     0.213 C 
ENDBRANCH  28  30
ENDBRANCH  16  28
TORSDOF 7
ENDMDL
MODEL 4
REMARK minimizedAffinity -7.1143589
REMARK  7 active torsions:
REMARK  status: ('A' for Active; 'I' for Inactive)
REMARK    1  A    between atoms: N1_2  and  C2_3 
REMARK    2  A    between atoms: C2_3  and  C3_4 
REMARK    3  A    between atoms: C3_4  and  O1_5 
REMARK    4  A    between atoms: O1_5  and  C4_6 
REMARK    5  A    between atoms: C4_6  and  C5_8 
REMARK    6  A    between atoms: C19_23  and  C21_25 
REMARK    7  A    between atoms: C21_25  and  O5_27 
ROOT
HETATM    1  C5  UNL     1      -5.428   6.814  14.148  1.00  0.00     0.085 C 
HETATM    2  C6  UNL     1      -4.082   6.865  14.209  1.00  0.00    -0.070 C 
HETATM    3  C7  UNL     1      -3.255   7.970  14.825  1.00  0.00     0.035 C 
HETATM    4  C8  UNL     1      -2.222   8.516  13.833  1.00  0.00     0.010 C 
HETATM    5  C9  UNL     1      -1.336   7.407  13.217  1.00  0.00     0.006 C 
HETATM    6  C10 UNL     1      -2.251   6.331  12.581  1.00  0.00     0.068 C 
HETATM    7  C11 UNL     1      -1.458   5.254  11.854  1.00  0.00     0.132 C 
HETATM    8  O3  UNL     1      -1.794   4.069  11.858  1.00  0.00    -0.298 OA
HETATM    9  C12 UNL     1      -0.320   5.715  10.973  1.00  0.00     0.085 C 
HETATM   10  C13 UNL     1       0.596   6.698  11.717  1.00  0.00     0.019 C 
HETATM   11  C14 UNL     1      -0.216   7.944  12.233  1.00  0.00    -0.034 C 
HETATM   12  C15 UNL     1      -0.851   8.760  11.081  1.00  0.00     0.016 C 
HETATM   13  C16 UNL     1       0.740   8.873  13.030  1.00  0.00     0.010 C 
HETATM   14  C17 UNL     1       2.016   9.236  12.286  1.00  0.00     0.002 C 
HETATM   15  C18 UNL     1       2.785   7.996  11.848  1.00  0.00     0.020 C 
HETATM   16  C19 UNL     1       1.951   7.012  10.984  1.00  0.00     0.049 C 
HETATM   17  C20 UNL     1       2.813   5.729  10.850  1.00  0.00     0.026 C 
HETATM   18  C23 UNL     1      -3.253   5.733  13.603  1.00  0.00     0.022 C 
HETATM   19  C24 UNL     1      -2.612   4.898  14.724  1.00  0.00     0.015 C 
ENDROOT
BRANCH   1  20
HETATM   20  C4  UNL     1      -6.397   7.813  14.665  1.00  0.00     0.283 C 
HETATM   21  O2  UNL     1      -6.164   8.972  14.955  1.00  0.00    -0.260 OA
BRANCH  20  22
HETATM   22  O1  UNL     1      -7.606   7.199  14.744  1.00  0.00    -0.316 OA
BRANCH  22  23
HETATM   23  C3  UNL     1      -7.568   5.797  14.425  1.00  0.00     0.209 C 
BRANCH  23  24
HETATM   24  C2  UNL     1      -8.515   5.529  13.249  1.00  0.00     0.295 C 
BRANCH  24  25
HETATM   25  N1  UNL     1      -8.660   4.087  13.009  1.00  0.00     0.081 N 
HETATM   26  C1  UNL     1      -7.505   3.354  13.505  1.00  0.00     0.306 C 
HETATM   27  H4  UNL     1      -9.503   3.761  13.485  1.00  0.00     0.315 HD
ENDBRANCH  24  25
ENDBRANCH  23  24
ENDBRANCH  22  23
ENDBRANCH  20  22
ENDBRANCH   1  20
BRANCH  16  28
HETATM   28  C21 UNL     1       1.806   7.584   9.561  1.00  0.00     0.267 C 
HETATM   29  O4  UNL     1       1.180   8.597   9.273  1.00  0.00    -0.264 OA
BRANCH  28  30
HETATM   30  O5  UNL     1       2.485   6.835   8.649  1.00  0.00    -0.326 OA
HETATM   31  C22 UNL     1       2.041   6.997   7.301  1.00  0.00     0.213 C 
ENDBRANCH  28  30
ENDBRANCH  16  28
TORSDOF 7
ENDMDL
MODEL 5
REMARK minimizedAffinity -7.06620359
REMARK  7 active torsions:
REMARK  status: ('A' for Active; 'I' for Inactive)
REMARK    1  A    between atoms: N1_2  and  C2_3 
REMARK    2  A    between atoms: C2_3  and  C3_4 
REMARK    3  A    between atoms: C3_4  and  O1_5 
REMARK    4  A    between atoms: O1_5  and  C4_6 
REMARK    5  A    between atoms: C4_6  and  C5_8 
REMARK    6  A    between atoms: C19_23  and  C21_25 
REMARK    7  A    between atoms: C21_25  and  O5_27 
ROOT
HETATM    1  C5  UNL     1       3.631   7.493   9.978  1.00  0.00     0.085 C 
HETATM    2  C6  UNL     1       4.811   7.750  10.580  1.00  0.00    -0.070 C 
HETATM    3  C7  UNL     1       5.826   6.727  11.034  1.00  0.00     0.035 C 
HETATM    4  C8  UNL     1       6.182   6.910  12.513  1.00  0.00     0.010 C 
HETATM    5  C9  UNL     1       6.627   8.353  12.850  1.00  0.00     0.006 C 
HETATM    6  C10 UNL     1       5.525   9.337  12.385  1.00  0.00     0.068 C 
HETATM    7  C11 UNL     1       5.833  10.776  12.777  1.00  0.00     0.132 C 
HETATM    8  O3  UNL     1       5.560  11.733  12.049  1.00  0.00    -0.298 OA
HETATM    9  C12 UNL     1       6.337  11.013  14.181  1.00  0.00     0.085 C 
HETATM   10  C13 UNL     1       7.497  10.066  14.523  1.00  0.00     0.019 C 
HETATM   11  C14 UNL     1       7.061   8.561  14.360  1.00  0.00    -0.034 C 
HETATM   12  C15 UNL     1       5.910   8.168  15.316  1.00  0.00     0.016 C 
HETATM   13  C16 UNL     1       8.284   7.649  14.654  1.00  0.00     0.010 C 
HETATM   14  C17 UNL     1       8.979   7.949  15.974  1.00  0.00     0.002 C 
HETATM   15  C18 UNL     1       9.418   9.404  16.061  1.00  0.00     0.020 C 
HETATM   16  C19 UNL     1       8.266  10.423  15.847  1.00  0.00     0.049 C 
HETATM   17  C20 UNL     1       8.943  11.813  15.730  1.00  0.00     0.026 C 
HETATM   18  C23 UNL     1       5.212   9.196  10.872  1.00  0.00     0.022 C 
HETATM   19  C24 UNL     1       6.353   9.621   9.933  1.00  0.00     0.015 C 
ENDROOT
BRANCH   1  20
HETATM   20  C4  UNL     1       3.066   6.167   9.623  1.00  0.00     0.283 C 
HETATM   21  O2  UNL     1       1.887   5.886   9.506  1.00  0.00    -0.260 OA
BRANCH  20  22
HETATM   22  O1  UNL     1       4.110   5.319   9.438  1.00  0.00    -0.316 OA
BRANCH  22  23
HETATM   23  C3  UNL     1       3.718   3.978   9.101  1.00  0.00     0.209 C 
BRANCH  23  24
HETATM   24  C2  UNL     1       4.947   3.212   8.595  1.00  0.00     0.295 C 
BRANCH  24  25
HETATM   25  N1  UNL     1       4.833   2.926   7.159  1.00  0.00     0.081 N 
HETATM   26  C1  UNL     1       3.782   3.724   6.546  1.00  0.00     0.306 C 
HETATM   27  H4  UNL     1       5.727   3.137   6.713  1.00  0.00     0.315 HD
ENDBRANCH  24  25
ENDBRANCH  23  24
ENDBRANCH  22  23
ENDBRANCH  20  22
ENDBRANCH   1  20
BRANCH  16  28
HETATM   28  C21 UNL     1       7.392  10.474  17.115  1.00  0.00     0.267 C 
HETATM   29  O4  UNL     1       6.201  10.760  17.135  1.00  0.00    -0.264 OA
BRANCH  28  30
HETATM   30  O5  UNL     1       8.103  10.134  18.225  1.00  0.00    -0.326 OA
HETATM   31  C22 UNL     1       8.219  11.178  19.195  1.00  0.00     0.213 C 
ENDBRANCH  28  30
ENDBRANCH  16  28
TORSDOF 7
ENDMDL
MODEL 6
REMARK minimizedAffinity -7.00123453
REMARK  7 active torsions:
REMARK  status: ('A' for Active; 'I' for Inactive)
REMARK    1  A    between atoms: N1_2  and  C2_3 
REMARK    2  A    between atoms: C2_3  and  C3_4 
REMARK    3  A    between atoms: C3_4  and  O1_5 
REMARK    4  A    between atoms: O1_5  and  C4_6 
REMARK    5  A    between atoms: C4_6  and  C5_8 
REMARK    6  A    between atoms: C19_23  and  C21_25 
REMARK    7  A    between atoms: C21_25  and  O5_27 
ROOT
HETATM    1  C5  UNL     1       2.908   7.263  12.327  1.00  0.00     0.085 C 
HETATM    2  C6  UNL     1       1.595   7.368  12.035  1.00  0.00    -0.070 C 
HETATM    3  C7  UNL     1       0.817   8.652  11.860  1.00  0.00     0.035 C 
HETATM    4  C8  UNL     1      -0.417   8.688  12.769  1.00  0.00     0.010 C 
HETATM    5  C9  UNL     1      -1.318   7.440  12.608  1.00  0.00     0.006 C 
HETATM    6  C10 UNL     1      -0.459   6.171  12.833  1.00  0.00     0.068 C 
HETATM    7  C11 UNL     1      -1.292   4.896  12.800  1.00  0.00     0.132 C 
HETATM    8  O3  UNL     1      -0.875   3.846  12.309  1.00  0.00    -0.298 OA
HETATM    9  C12 UNL     1      -2.601   4.912  13.554  1.00  0.00     0.085 C 
HETATM   10  C13 UNL     1      -3.435   6.151  13.194  1.00  0.00     0.019 C 
HETATM   11  C14 UNL     1      -2.635   7.474  13.490  1.00  0.00    -0.034 C 
HETATM   12  C15 UNL     1      -2.282   7.634  14.988  1.00  0.00     0.016 C 
HETATM   13  C16 UNL     1      -3.494   8.691  13.049  1.00  0.00     0.010 C 
HETATM   14  C17 UNL     1      -4.907   8.689  13.612  1.00  0.00     0.002 C 
HETATM   15  C18 UNL     1      -5.651   7.408  13.260  1.00  0.00     0.020 C 
HETATM   16  C19 UNL     1      -4.921   6.113  13.708  1.00  0.00     0.049 C 
HETATM   17  C20 UNL     1      -5.697   4.939  13.055  1.00  0.00     0.026 C 
HETATM   18  C23 UNL     1       0.753   6.104  11.867  1.00  0.00     0.022 C 
HETATM   19  C24 UNL     1       0.390   5.912  10.385  1.00  0.00     0.015 C 
ENDROOT
BRANCH   1  20
HETATM   20  C4  UNL     1       3.880   8.365  12.538  1.00  0.00     0.283 C 
HETATM   21  O2  UNL     1       4.214   8.849  13.604  1.00  0.00    -0.260 OA
BRANCH  20  22
HETATM   22  O1  UNL     1       4.344   8.732  11.315  1.00  0.00    -0.316 OA
BRANCH  22  23
HETATM   23  C3  UNL     1       5.467   7.956  10.863  1.00  0.00     0.209 C 
BRANCH  23  24
HETATM   24  C2  UNL     1       5.322   6.521  11.385  1.00  0.00     0.295 C 
BRANCH  24  25
HETATM   25  N1  UNL     1       5.435   5.549  10.289  1.00  0.00     0.081 N 
HETATM   26  C1  UNL     1       4.123   5.152   9.801  1.00  0.00     0.306 C 
HETATM   27  H4  UNL     1       5.968   5.976   9.529  1.00  0.00     0.315 HD
ENDBRANCH  24  25
ENDBRANCH  23  24
ENDBRANCH  22  23
ENDBRANCH  20  22
ENDBRANCH   1  20
BRANCH  16  28
HETATM   28  C21 UNL     1      -5.079   5.941  15.231  1.00  0.00     0.267 C 
HETATM   29  O4  UNL     1      -4.199   6.154  16.056  1.00  0.00    -0.264 OA
BRANCH  28  30
HETATM   30  O5  UNL     1      -6.339   5.543  15.560  1.00  0.00    -0.326 OA
HETATM   31  C22 UNL     1      -7.055   6.467  16.382  1.00  0.00     0.213 C 
ENDBRANCH  28  30
ENDBRANCH  16  28
TORSDOF 7
ENDMDL
MODEL 7
REMARK minimizedAffinity -6.81731319
REMARK  7 active torsions:
REMARK  status: ('A' for Active; 'I' for Inactive)
REMARK    1  A    between atoms: N1_2  and  C2_3 
REMARK    2  A    between atoms: C2_3  and  C3_4 
REMARK    3  A    between atoms: C3_4  and  O1_5 
REMARK    4  A    between atoms: O1_5  and  C4_6 
REMARK    5  A    between atoms: C4_6  and  C5_8 
REMARK    6  A    between atoms: C19_23  and  C21_25 
REMARK    7  A    between atoms: C21_25  and  O5_27 
ROOT
HETATM    1  C5  UNL     1      -3.270   4.283  11.869  1.00  0.00     0.085 C 
HETATM    2  C6  UNL     1      -2.666   5.027  12.817  1.00  0.00    -0.070 C 
HETATM    3  C7  UNL     1      -2.918   4.957  14.306  1.00  0.00     0.035 C 
HETATM    4  C8  UNL     1      -3.269   6.334  14.880  1.00  0.00     0.010 C 
HETATM    5  C9  UNL     1      -2.224   7.418  14.522  1.00  0.00     0.006 C 
HETATM    6  C10 UNL     1      -2.045   7.451  12.984  1.00  0.00     0.068 C 
HETATM    7  C11 UNL     1      -1.112   8.568  12.535  1.00  0.00     0.132 C 
HETATM    8  O3  UNL     1      -0.325   8.435  11.596  1.00  0.00    -0.298 OA
HETATM    9  C12 UNL     1      -1.304   9.922  13.175  1.00  0.00     0.085 C 
HETATM   10  C13 UNL     1      -1.367   9.809  14.706  1.00  0.00     0.019 C 
HETATM   11  C14 UNL     1      -2.526   8.841  15.152  1.00  0.00    -0.034 C 
HETATM   12  C15 UNL     1      -3.923   9.343  14.716  1.00  0.00     0.016 C 
HETATM   13  C16 UNL     1      -2.506   8.712  16.699  1.00  0.00     0.010 C 
HETATM   14  C17 UNL     1      -2.502  10.044  17.434  1.00  0.00     0.002 C 
HETATM   15  C18 UNL     1      -1.338  10.923  16.998  1.00  0.00     0.020 C 
HETATM   16  C19 UNL     1      -1.283  11.182  15.468  1.00  0.00     0.049 C 
HETATM   17  C20 UNL     1       0.079  11.875  15.202  1.00  0.00     0.026 C 
HETATM   18  C23 UNL     1      -1.626   6.071  12.412  1.00  0.00     0.022 C 
HETATM   19  C24 UNL     1      -0.222   5.598  12.827  1.00  0.00     0.015 C 
ENDROOT
BRANCH   1  20
HETATM   20  C4  UNL     1      -4.304   3.235  12.061  1.00  0.00     0.283 C 
HETATM   21  O2  UNL     1      -4.235   2.070  11.715  1.00  0.00    -0.260 OA
BRANCH  20  22
HETATM   22  O1  UNL     1      -5.347   3.813  12.712  1.00  0.00    -0.316 OA
BRANCH  22  23
HETATM   23  C3  UNL     1      -6.624   3.569  12.097  1.00  0.00     0.209 C 
BRANCH  23  24
HETATM   24  C2  UNL     1      -7.650   3.252  13.192  1.00  0.00     0.295 C 
BRANCH  24  25
HETATM   25  N1  UNL     1      -8.378   4.463  13.595  1.00  0.00     0.081 N 
HETATM   26  C1  UNL     1      -8.538   5.378  12.475  1.00  0.00     0.306 C 
HETATM   27  H4  UNL     1      -9.296   4.188  13.948  1.00  0.00     0.315 HD
ENDBRANCH  24  25
ENDBRANCH  23  24
ENDBRANCH  22  23
ENDBRANCH  20  22
ENDBRANCH   1  20
BRANCH  16  28
HETATM   28  C21 UNL     1      -2.369  12.207  15.087  1.00  0.00     0.267 C 
HETATM   29  O4  UNL     1      -3.441  12.341  15.666  1.00  0.00    -0.264 OA
BRANCH  28  30
HETATM   30  O5  UNL     1      -1.983  12.976  14.032  1.00  0.00    -0.326 OA
HETATM   31  C22 UNL     1      -2.508  14.304  14.045  1.00  0.00     0.213 C 
ENDBRANCH  28  30
ENDBRANCH  16  28
TORSDOF 7
ENDMDL
MODEL 8
REMARK minimizedAffinity -6.81223345
REMARK  7 active torsions:
REMARK  status: ('A' for Active; 'I' for Inactive)
REMARK    1  A    between atoms: N1_2  and  C2_3 
REMARK    2  A    between atoms: C2_3  and  C3_4 
REMARK    3  A    between atoms: C3_4  and  O1_5 
REMARK    4  A    between atoms: O1_5  and  C4_6 
REMARK    5  A    between atoms: C4_6  and  C5_8 
REMARK    6  A    between atoms: C19_23  and  C21_25 
REMARK    7  A    between atoms: C21_25  and  O5_27 
ROOT
HETATM    1  C5  UNL     1      -2.952   5.535  12.689  1.00  0.00     0.085 C 
HETATM    2  C6  UNL     1      -1.653   5.479  13.048  1.00  0.00    -0.070 C 
HETATM    3  C7  UNL     1      -1.106   5.604  14.451  1.00  0.00     0.035 C 
HETATM    4  C8  UNL     1      -0.038   6.700  14.540  1.00  0.00     0.010 C 
HETATM    5  C9  UNL     1       1.089   6.527  13.494  1.00  0.00     0.006 C 
HETATM    6  C10 UNL     1       0.454   6.438  12.084  1.00  0.00     0.068 C 
HETATM    7  C11 UNL     1       1.502   6.375  10.981  1.00  0.00     0.132 C 
HETATM    8  O3  UNL     1       1.357   5.688   9.969  1.00  0.00    -0.298 OA
HETATM    9  C12 UNL     1       2.669   7.329  11.087  1.00  0.00     0.085 C 
HETATM   10  C13 UNL     1       3.304   7.277  12.485  1.00  0.00     0.019 C 
HETATM   11  C14 UNL     1       2.242   7.610  13.599  1.00  0.00    -0.034 C 
HETATM   12  C15 UNL     1       1.661   9.037  13.461  1.00  0.00     0.016 C 
HETATM   13  C16 UNL     1       2.917   7.481  14.992  1.00  0.00     0.010 C 
HETATM   14  C17 UNL     1       4.215   8.263  15.127  1.00  0.00     0.002 C 
HETATM   15  C18 UNL     1       5.222   7.872  14.054  1.00  0.00     0.020 C 
HETATM   16  C19 UNL     1       4.685   8.019  12.604  1.00  0.00     0.049 C 
HETATM   17  C20 UNL     1       5.746   7.354  11.689  1.00  0.00     0.026 C 
HETATM   18  C23 UNL     1      -0.579   5.286  11.977  1.00  0.00     0.022 C 
HETATM   19  C24 UNL     1       0.015   3.871  12.083  1.00  0.00     0.015 C 
ENDROOT
BRANCH   1  20
HETATM   20  C4  UNL     1      -4.129   5.726  13.573  1.00  0.00     0.283 C 
HETATM   21  O2  UNL     1      -4.204   6.466  14.536  1.00  0.00    -0.260 OA
BRANCH  20  22
HETATM   22  O1  UNL     1      -5.121   4.927  13.102  1.00  0.00    -0.316 OA
BRANCH  22  23
HETATM   23  C3  UNL     1      -6.405   5.182  13.697  1.00  0.00     0.209 C 
BRANCH  23  24
HETATM   24  C2  UNL     1      -7.198   3.871  13.750  1.00  0.00     0.295 C 
BRANCH  24  25
HETATM   25  N1  UNL     1      -8.549   4.051  13.202  1.00  0.00     0.081 N 
HETATM   26  C1  UNL     1      -8.697   5.364  12.590  1.00  0.00     0.306 C 
HETATM   27  H4  UNL     1      -8.716   3.326  12.502  1.00  0.00     0.315 HD
ENDBRANCH  24  25
ENDBRANCH  23  24
ENDBRANCH  22  23
ENDBRANCH  20  22
ENDBRANCH   1  20
BRANCH  16  28
HETATM   28  C21 UNL     1       4.659   9.511  12.222  1.00  0.00     0.267 C 
HETATM   29  O4  UNL     1       4.040  10.379  12.824  1.00  0.00    -0.264 OA
BRANCH  28  30
HETATM   30  O5  UNL     1       5.438   9.761  11.133  1.00  0.00    -0.326 OA
HETATM   31  C22 UNL     1       6.424  10.776  11.332  1.00  0.00     0.213 C 
ENDBRANCH  28  30
ENDBRANCH  16  28
TORSDOF 7
ENDMDL
MODEL 9
REMARK minimizedAffinity -6.79219866
REMARK  7 active torsions:
REMARK  status: ('A' for Active; 'I' for Inactive)
REMARK    1  A    between atoms: N1_2  and  C2_3 
REMARK    2  A    between atoms: C2_3  and  C3_4 
REMARK    3  A    between atoms: C3_4  and  O1_5 
REMARK    4  A    between atoms: O1_5  and  C4_6 
REMARK    5  A    between atoms: C4_6  and  C5_8 
REMARK    6  A    between atoms: C19_23  and  C21_25 
REMARK    7  A    between atoms: C21_25  and  O5_27 
ROOT
HETATM    1  C5  UNL     1      -0.134   8.397  12.372  1.00  0.00     0.085 C 
HETATM    2  C6  UNL     1      -0.997   7.631  13.070  1.00  0.00    -0.070 C 
HETATM    3  C7  UNL     1      -1.442   6.232  12.713  1.00  0.00     0.035 C 
HETATM    4  C8  UNL     1      -2.970   6.128  12.655  1.00  0.00     0.010 C 
HETATM    5  C9  UNL     1      -3.656   6.640  13.945  1.00  0.00     0.006 C 
HETATM    6  C10 UNL     1      -3.175   8.085  14.226  1.00  0.00     0.068 C 
HETATM    7  C11 UNL     1      -3.885   8.708  15.420  1.00  0.00     0.132 C 
HETATM    8  O3  UNL     1      -3.313   9.457  16.214  1.00  0.00    -0.298 OA
HETATM    9  C12 UNL     1      -5.381   8.514  15.508  1.00  0.00     0.085 C 
HETATM   10  C13 UNL     1      -5.762   7.038  15.321  1.00  0.00     0.019 C 
HETATM   11  C14 UNL     1      -5.234   6.490  13.942  1.00  0.00    -0.034 C 
HETATM   12  C15 UNL     1      -5.849   7.232  12.732  1.00  0.00     0.016 C 
HETATM   13  C16 UNL     1      -5.587   4.982  13.831  1.00  0.00     0.010 C 
HETATM   14  C17 UNL     1      -7.052   4.667  14.098  1.00  0.00     0.002 C 
HETATM   15  C18 UNL     1      -7.498   5.178  15.460  1.00  0.00     0.020 C 
HETATM   16  C19 UNL     1      -7.256   6.697  15.673  1.00  0.00     0.049 C 
HETATM   17  C20 UNL     1      -7.541   6.968  17.174  1.00  0.00     0.026 C 
HETATM   18  C23 UNL     1      -1.631   8.177  14.349  1.00  0.00     0.022 C 
HETATM   19  C24 UNL     1      -1.036   7.462  15.574  1.00  0.00     0.015 C 
ENDROOT
BRANCH   1  20
HETATM   20  C4  UNL     1       0.571   8.051  11.112  1.00  0.00     0.283 C 
HETATM   21  O2  UNL     1       0.062   7.846  10.026  1.00  0.00    -0.260 OA
BRANCH  20  22
HETATM   22  O1  UNL     1       1.900   8.016  11.390  1.00  0.00    -0.316 OA
BRANCH  22  23
HETATM   23  C3  UNL     1       2.444   6.688  11.464  1.00  0.00     0.209 C 
BRANCH  23  24
HETATM   24  C2  UNL     1       3.973   6.770  11.371  1.00  0.00     0.295 C 
BRANCH  24  25
HETATM   25  N1  UNL     1       4.461   6.118  10.149  1.00  0.00     0.081 N 
HETATM   26  C1  UNL     1       3.435   5.269   9.561  1.00  0.00     0.306 C 
HETATM   27  H4  UNL     1       4.731   6.841   9.480  1.00  0.00     0.315 HD
ENDBRANCH  24  25
ENDBRANCH  23  24
ENDBRANCH  22  23
ENDBRANCH  20  22
ENDBRANCH   1  20
BRANCH  16  28
HETATM   28  C21 UNL     1      -8.310   7.495  14.882  1.00  0.00     0.267 C 
HETATM   29  O4  UNL     1      -8.464   8.709  14.945  1.00  0.00    -0.264 OA
BRANCH  28  30
HETATM   30  O5  UNL     1      -9.046   6.684  14.072  1.00  0.00    -0.326 OA
HETATM   31  C22 UNL     1     -10.394   7.113  13.874  1.00  0.00     0.213 C 
ENDBRANCH  28  30
ENDBRANCH  16  28
TORSDOF 7
ENDMDL
