MODEL 1
REMARK minimizedAffinity -10.4371948
REMARK CNNscore 0.878795683
REMARK CNNaffinity 7.36312056
REMARK  9 active torsions:
REMARK  status: ('A' for Active; 'I' for Inactive)
REMARK    1  A    between atoms: C2_2  and  C3_3 
REMARK    2  A    between atoms: C3_3  and  C5_5 
REMARK    3  A    between atoms: C3_3  and  C6_7 
REMARK    4  A    between atoms: C5_5  and  O1_6 
REMARK    5  A    between atoms: C7_8  and  O2_9 
REMARK    6  A    between atoms: C18_22  and  O5_23 
REMARK    7  A    between atoms: O5_23  and  C19_24 
REMARK    8  A    between atoms: C19_24  and  C20_26 
REMARK    9  A    between atoms: C29_36  and  O8_37 
ROOT
HETATM    1  C6  UNL     1      -0.275  52.231 -25.136  1.00  0.00     0.023 A 
HETATM    2  C7  UNL     1       0.335  53.396 -24.611  1.00  0.00     0.076 A 
HETATM    3  C8  UNL     1       0.518  53.597 -23.242  1.00  0.00     0.053 A 
HETATM    4  C9  UNL     1       0.075  52.638 -22.333  1.00  0.00     0.034 A 
HETATM    5  C10 UNL     1       0.264  52.878 -20.892  1.00  0.00     0.192 C 
HETATM    6  O3  UNL     1       0.668  53.970 -20.510  1.00  0.00    -0.287 OA
HETATM    7  C11 UNL     1      -0.078  51.797 -19.933  1.00  0.00     0.035 C 
HETATM    8  C12 UNL     1      -0.783  50.737 -20.357  1.00  0.00     0.131 C 
HETATM    9  O4  UNL     1      -1.314  49.783 -19.509  1.00  0.00    -0.336 OA
HETATM   10  C13 UNL     1      -1.381  50.093 -18.102  1.00  0.00     0.065 C 
HETATM   11  C14 UNL     1      -2.607  50.981 -17.839  1.00  0.00     0.046 C 
HETATM   12  C15 UNL     1      -1.616  48.737 -17.415  1.00  0.00     0.046 C 
HETATM   13  C16 UNL     1      -0.038  50.712 -17.660  1.00  0.00     0.031 C 
HETATM   14  C17 UNL     1       0.098  51.014 -16.162  1.00  0.00     0.041 C 
HETATM   15  C18 UNL     1       1.528  51.459 -15.821  1.00  0.00     0.136 C 
HETATM   16  C23 UNL     1       1.979  52.640 -16.701  1.00  0.00     0.012 C 
HETATM   17  C24 UNL     1       3.450  52.985 -16.443  1.00  0.00     0.012 C 
HETATM   18  C25 UNL     1       1.752  52.359 -18.197  1.00  0.00     0.017 C 
HETATM   19  C26 UNL     1       0.277  51.992 -18.473  1.00  0.00     0.033 C 
HETATM   20  C27 UNL     1      -1.081  50.528 -21.805  1.00  0.00     0.219 C 
HETATM   21  O7  UNL     1      -1.733  49.563 -22.198  1.00  0.00    -0.284 OA
HETATM   22  C28 UNL     1      -0.569  51.499 -22.790  1.00  0.00     0.065 A 
HETATM   23  C29 UNL     1      -0.753  51.302 -24.180  1.00  0.00     0.091 A 
ENDROOT
BRANCH   1  24
HETATM   24  C3  UNL     1      -0.425  52.063 -26.684  1.00  0.00     0.027 C 
HETATM   25  C4  UNL     1      -1.606  51.173 -27.156  1.00  0.00     0.027 C 
BRANCH  24  26
HETATM   26  C2  UNL     1       0.796  51.303 -27.243  1.00  0.00    -0.021 C 
HETATM   27  C1  UNL     1       1.880  51.817 -27.841  1.00  0.00     0.008 C 
ENDBRANCH  24  26
BRANCH  24  28
HETATM   28  C5  UNL     1      -0.638  53.500 -27.273  1.00  0.00     0.182 C 
BRANCH  28  29
HETATM   29  O1  UNL     1      -1.842  53.664 -28.030  1.00  0.00    -0.399 OA
HETATM   30  H9  UNL     1      -2.588  53.593 -27.410  1.00  0.00     0.209 HD
ENDBRANCH  28  29
ENDBRANCH  24  28
ENDBRANCH   1  24
BRANCH   2  31
HETATM   31  O2  UNL     1       0.743  54.389 -25.458  1.00  0.00    -0.360 OA
HETATM   32  H10 UNL     1       1.198  55.094 -24.967  1.00  0.00     0.217 HD
ENDBRANCH   2  31
BRANCH  23  33
HETATM   33  O8  UNL     1      -1.440  50.199 -24.620  1.00  0.00    -0.359 OA
HETATM   34  H36 UNL     1      -1.732  49.655 -23.852  1.00  0.00     0.217 HD
ENDBRANCH  23  33
BRANCH  15  35
HETATM   35  O5  UNL     1       1.567  51.890 -14.447  1.00  0.00    -0.315 OA
BRANCH  35  36
HETATM   36  C19 UNL     1       2.472  51.269 -13.642  1.00  0.00     0.262 C 
HETATM   37  O6  UNL     1       3.153  50.305 -13.966  1.00  0.00    -0.265 OA
BRANCH  36  38
HETATM   38  C20 UNL     1       2.500  51.890 -12.259  1.00  0.00     0.077 C 
HETATM   39  C21 UNL     1       2.857  50.831 -11.224  1.00  0.00     0.020 C 
HETATM   40  C22 UNL     1       1.186  52.589 -11.924  1.00  0.00     0.020 C 
ENDBRANCH  36  38
ENDBRANCH  35  36
ENDBRANCH  15  35
TORSDOF 9
ENDMDL
MODEL 2
REMARK minimizedAffinity -10.734808
REMARK CNNscore 0.853009045
REMARK CNNaffinity 7.22883272
REMARK  9 active torsions:
REMARK  status: ('A' for Active; 'I' for Inactive)
REMARK    1  A    between atoms: C2_2  and  C3_3 
REMARK    2  A    between atoms: C3_3  and  C5_5 
REMARK    3  A    between atoms: C3_3  and  C6_7 
REMARK    4  A    between atoms: C5_5  and  O1_6 
REMARK    5  A    between atoms: C7_8  and  O2_9 
REMARK    6  A    between atoms: C18_22  and  O5_23 
REMARK    7  A    between atoms: O5_23  and  C19_24 
REMARK    8  A    between atoms: C19_24  and  C20_26 
REMARK    9  A    between atoms: C29_36  and  O8_37 
ROOT
HETATM    1  C6  UNL     1      -0.070  52.359 -25.082  1.00  0.00     0.023 A 
HETATM    2  C7  UNL     1       0.509  53.522 -24.518  1.00  0.00     0.076 A 
HETATM    3  C8  UNL     1       0.642  53.703 -23.141  1.00  0.00     0.053 A 
HETATM    4  C9  UNL     1       0.179  52.725 -22.262  1.00  0.00     0.034 A 
HETATM    5  C10 UNL     1       0.316  52.944 -20.813  1.00  0.00     0.192 C 
HETATM    6  O3  UNL     1       0.695  54.034 -20.399  1.00  0.00    -0.287 OA
HETATM    7  C11 UNL     1      -0.047  51.844 -19.883  1.00  0.00     0.035 C 
HETATM    8  C12 UNL     1      -0.726  50.783 -20.349  1.00  0.00     0.131 C 
HETATM    9  O4  UNL     1      -1.274  49.810 -19.534  1.00  0.00    -0.336 OA
HETATM   10  C13 UNL     1      -1.393  50.096 -18.125  1.00  0.00     0.065 C 
HETATM   11  C14 UNL     1      -2.638  50.967 -17.891  1.00  0.00     0.046 C 
HETATM   12  C15 UNL     1      -1.637  48.727 -17.468  1.00  0.00     0.046 C 
HETATM   13  C16 UNL     1      -0.074  50.722 -17.627  1.00  0.00     0.031 C 
HETATM   14  C17 UNL     1       0.007  51.001 -16.121  1.00  0.00     0.041 C 
HETATM   15  C18 UNL     1       1.419  51.456 -15.724  1.00  0.00     0.136 C 
HETATM   16  C23 UNL     1       1.888  52.656 -16.569  1.00  0.00     0.012 C 
HETATM   17  C24 UNL     1       3.345  53.011 -16.254  1.00  0.00     0.012 C 
HETATM   18  C25 UNL     1       1.716  52.396 -18.076  1.00  0.00     0.017 C 
HETATM   19  C26 UNL     1       0.255  52.019 -18.409  1.00  0.00     0.033 C 
HETATM   20  C27 UNL     1      -0.971  50.595 -21.809  1.00  0.00     0.219 C 
HETATM   21  O7  UNL     1      -1.598  49.629 -22.239  1.00  0.00    -0.284 OA
HETATM   22  C28 UNL     1      -0.436  51.587 -22.759  1.00  0.00     0.065 A 
HETATM   23  C29 UNL     1      -0.570  51.411 -24.159  1.00  0.00     0.091 A 
ENDROOT
BRANCH   1  24
HETATM   24  C3  UNL     1      -0.164  52.215 -26.637  1.00  0.00     0.027 C 
HETATM   25  C4  UNL     1      -1.269  51.261 -27.161  1.00  0.00     0.027 C 
BRANCH  24  26
HETATM   26  C2  UNL     1       1.119  51.549 -27.174  1.00  0.00    -0.021 C 
HETATM   27  C1  UNL     1       2.322  51.487 -26.584  1.00  0.00     0.008 C 
ENDBRANCH  24  26
BRANCH  24  28
HETATM   28  C5  UNL     1      -0.455  53.648 -27.204  1.00  0.00     0.182 C 
BRANCH  28  29
HETATM   29  O1  UNL     1      -1.638  53.746 -28.003  1.00  0.00    -0.399 OA
HETATM   30  H9  UNL     1      -2.400  53.610 -27.414  1.00  0.00     0.209 HD
ENDBRANCH  28  29
ENDBRANCH  24  28
ENDBRANCH   1  24
BRANCH   2  31
HETATM   31  O2  UNL     1       0.935  54.533 -25.334  1.00  0.00    -0.360 OA
HETATM   32  H10 UNL     1       1.365  55.235 -24.817  1.00  0.00     0.217 HD
ENDBRANCH   2  31
BRANCH  23  33
HETATM   33  O8  UNL     1      -1.229  50.307 -24.639  1.00  0.00    -0.359 OA
HETATM   34  H36 UNL     1      -1.541  49.748 -23.891  1.00  0.00     0.217 HD
ENDBRANCH  23  33
BRANCH  15  35
HETATM   35  O5  UNL     1       1.406  51.865 -14.342  1.00  0.00    -0.315 OA
BRANCH  35  36
HETATM   36  C19 UNL     1       2.423  51.404 -13.564  1.00  0.00     0.262 C 
HETATM   37  O6  UNL     1       3.015  52.063 -12.720  1.00  0.00    -0.265 OA
BRANCH  36  38
HETATM   38  C20 UNL     1       2.776  49.970 -13.909  1.00  0.00     0.077 C 
HETATM   39  C21 UNL     1       2.007  49.017 -13.002  1.00  0.00     0.020 C 
HETATM   40  C22 UNL     1       4.280  49.723 -13.843  1.00  0.00     0.020 C 
ENDBRANCH  36  38
ENDBRANCH  35  36
ENDBRANCH  15  35
TORSDOF 9
ENDMDL
MODEL 3
REMARK minimizedAffinity -8.67590714
REMARK CNNscore 0.791834056
REMARK CNNaffinity 6.97051096
REMARK  9 active torsions:
REMARK  status: ('A' for Active; 'I' for Inactive)
REMARK    1  A    between atoms: C2_2  and  C3_3 
REMARK    2  A    between atoms: C3_3  and  C5_5 
REMARK    3  A    between atoms: C3_3  and  C6_7 
REMARK    4  A    between atoms: C5_5  and  O1_6 
REMARK    5  A    between atoms: C7_8  and  O2_9 
REMARK    6  A    between atoms: C18_22  and  O5_23 
REMARK    7  A    between atoms: O5_23  and  C19_24 
REMARK    8  A    between atoms: C19_24  and  C20_26 
REMARK    9  A    between atoms: C29_36  and  O8_37 
ROOT
HETATM    1  C6  UNL     1      -0.052  52.092 -25.183  1.00  0.00     0.023 A 
HETATM    2  C7  UNL     1       0.473  52.957 -24.193  1.00  0.00     0.076 A 
HETATM    3  C8  UNL     1       0.225  52.779 -22.831  1.00  0.00     0.053 A 
HETATM    4  C9  UNL     1      -0.583  51.727 -22.403  1.00  0.00     0.034 A 
HETATM    5  C10 UNL     1      -0.844  51.568 -20.962  1.00  0.00     0.192 C 
HETATM    6  O3  UNL     1      -0.475  52.437 -20.182  1.00  0.00    -0.287 OA
HETATM    7  C11 UNL     1      -1.587  50.370 -20.496  1.00  0.00     0.035 C 
HETATM    8  C12 UNL     1      -2.224  49.598 -21.391  1.00  0.00     0.131 C 
HETATM    9  O4  UNL     1      -3.095  48.583 -21.041  1.00  0.00    -0.336 OA
HETATM   10  C13 UNL     1      -3.579  48.546 -19.683  1.00  0.00     0.065 C 
HETATM   11  C14 UNL     1      -4.726  49.557 -19.529  1.00  0.00     0.046 C 
HETATM   12  C15 UNL     1      -4.162  47.132 -19.516  1.00  0.00     0.046 C 
HETATM   13  C16 UNL     1      -2.394  48.774 -18.721  1.00  0.00     0.031 C 
HETATM   14  C17 UNL     1      -2.718  48.669 -17.225  1.00  0.00     0.041 C 
HETATM   15  C18 UNL     1      -1.436  48.740 -16.382  1.00  0.00     0.136 C 
HETATM   16  C23 UNL     1      -0.606  49.994 -16.716  1.00  0.00     0.012 C 
HETATM   17  C24 UNL     1       0.731  49.981 -15.967  1.00  0.00     0.012 C 
HETATM   18  C25 UNL     1      -0.367  50.135 -18.231  1.00  0.00     0.017 C 
HETATM   19  C26 UNL     1      -1.703  50.131 -19.004  1.00  0.00     0.033 C 
HETATM   20  C27 UNL     1      -2.059  49.809 -22.859  1.00  0.00     0.219 C 
HETATM   21  O7  UNL     1      -2.646  49.110 -23.682  1.00  0.00    -0.284 OA
HETATM   22  C28 UNL     1      -1.160  50.877 -23.333  1.00  0.00     0.065 A 
HETATM   23  C29 UNL     1      -0.905  51.065 -24.714  1.00  0.00     0.091 A 
ENDROOT
BRANCH   1  24
HETATM   24  C3  UNL     1       0.288  52.339 -26.690  1.00  0.00     0.027 C 
HETATM   25  C4  UNL     1      -0.320  51.326 -27.696  1.00  0.00     0.027 C 
BRANCH  24  26
HETATM   26  C2  UNL     1       1.803  52.149 -26.917  1.00  0.00    -0.021 C 
HETATM   27  C1  UNL     1       2.411  51.579 -27.968  1.00  0.00     0.008 C 
ENDBRANCH  24  26
BRANCH  24  28
HETATM   28  C5  UNL     1      -0.262  53.764 -27.047  1.00  0.00     0.182 C 
BRANCH  28  29
HETATM   29  O1  UNL     1      -1.274  53.777 -28.059  1.00  0.00    -0.399 OA
HETATM   30  H9  UNL     1      -2.064  53.348 -27.687  1.00  0.00     0.209 HD
ENDBRANCH  28  29
ENDBRANCH  24  28
ENDBRANCH   1  24
BRANCH   2  31
HETATM   31  O2  UNL     1       1.233  54.032 -24.564  1.00  0.00    -0.360 OA
HETATM   32  H10 UNL     1       1.576  54.497 -23.782  1.00  0.00     0.217 HD
ENDBRANCH   2  31
BRANCH  23  33
HETATM   33  O8  UNL     1      -1.524  50.252 -25.630  1.00  0.00    -0.359 OA
HETATM   34  H36 UNL     1      -2.102  49.601 -25.168  1.00  0.00     0.217 HD
ENDBRANCH  23  33
BRANCH  15  35
HETATM   35  O5  UNL     1      -1.798  48.807 -14.989  1.00  0.00    -0.315 OA
BRANCH  35  36
HETATM   36  C19 UNL     1      -1.486  47.721 -14.230  1.00  0.00     0.262 C 
HETATM   37  O6  UNL     1      -1.354  46.581 -14.656  1.00  0.00    -0.265 OA
BRANCH  36  38
HETATM   38  C20 UNL     1      -1.371  48.087 -12.763  1.00  0.00     0.077 C 
HETATM   39  C21 UNL     1       0.097  48.156 -12.361  1.00  0.00     0.020 C 
HETATM   40  C22 UNL     1      -2.156  47.127 -11.874  1.00  0.00     0.020 C 
ENDBRANCH  36  38
ENDBRANCH  35  36
ENDBRANCH  15  35
TORSDOF 9
ENDMDL
MODEL 4
REMARK minimizedAffinity -9.95789814
REMARK CNNscore 0.778976142
REMARK CNNaffinity 7.16655397
REMARK  9 active torsions:
REMARK  status: ('A' for Active; 'I' for Inactive)
REMARK    1  A    between atoms: C2_2  and  C3_3 
REMARK    2  A    between atoms: C3_3  and  C5_5 
REMARK    3  A    between atoms: C3_3  and  C6_7 
REMARK    4  A    between atoms: C5_5  and  O1_6 
REMARK    5  A    between atoms: C7_8  and  O2_9 
REMARK    6  A    between atoms: C18_22  and  O5_23 
REMARK    7  A    between atoms: O5_23  and  C19_24 
REMARK    8  A    between atoms: C19_24  and  C20_26 
REMARK    9  A    between atoms: C29_36  and  O8_37 
ROOT
HETATM    1  C6  UNL     1      -0.035  52.431 -24.526  1.00  0.00     0.023 A 
HETATM    2  C7  UNL     1       0.607  53.575 -23.994  1.00  0.00     0.076 A 
HETATM    3  C8  UNL     1       0.832  53.744 -22.627  1.00  0.00     0.053 A 
HETATM    4  C9  UNL     1       0.402  52.772 -21.726  1.00  0.00     0.034 A 
HETATM    5  C10 UNL     1       0.636  52.978 -20.287  1.00  0.00     0.192 C 
HETATM    6  O3  UNL     1       1.067  54.056 -19.894  1.00  0.00    -0.287 OA
HETATM    7  C11 UNL     1       0.305  51.882 -19.341  1.00  0.00     0.035 C 
HETATM    8  C12 UNL     1      -0.428  50.841 -19.767  1.00  0.00     0.131 C 
HETATM    9  O4  UNL     1      -0.948  49.877 -18.924  1.00  0.00    -0.336 OA
HETATM   10  C13 UNL     1      -0.970  50.157 -17.509  1.00  0.00     0.065 C 
HETATM   11  C14 UNL     1      -2.174  51.057 -17.192  1.00  0.00     0.046 C 
HETATM   12  C15 UNL     1      -1.205  48.790 -16.845  1.00  0.00     0.046 C 
HETATM   13  C16 UNL     1       0.395  50.747 -17.094  1.00  0.00     0.031 C 
HETATM   14  C17 UNL     1       0.578  51.015 -15.595  1.00  0.00     0.041 C 
HETATM   15  C18 UNL     1       2.024  51.432 -15.286  1.00  0.00     0.136 C 
HETATM   16  C23 UNL     1       2.467  52.625 -16.154  1.00  0.00     0.012 C 
HETATM   17  C24 UNL     1       3.950  52.943 -15.931  1.00  0.00     0.012 C 
HETATM   18  C25 UNL     1       2.193  52.379 -17.648  1.00  0.00     0.017 C 
HETATM   19  C26 UNL     1       0.705  52.040 -17.889  1.00  0.00     0.033 C 
HETATM   20  C27 UNL     1      -0.770  50.668 -21.210  1.00  0.00     0.219 C 
HETATM   21  O7  UNL     1      -1.448  49.721 -21.604  1.00  0.00    -0.284 OA
HETATM   22  C28 UNL     1      -0.273  51.653 -22.188  1.00  0.00     0.065 A 
HETATM   23  C29 UNL     1      -0.500  51.489 -23.577  1.00  0.00     0.091 A 
ENDROOT
BRANCH   1  24
HETATM   24  C3  UNL     1      -0.233  52.298 -26.072  1.00  0.00     0.027 C 
HETATM   25  C4  UNL     1      -0.286  53.631 -26.864  1.00  0.00     0.027 C 
BRANCH  24  26
HETATM   26  C2  UNL     1      -1.621  51.692 -26.367  1.00  0.00    -0.021 C 
HETATM   27  C1  UNL     1      -2.440  51.974 -27.391  1.00  0.00     0.008 C 
ENDBRANCH  24  26
BRANCH  24  28
HETATM   28  C5  UNL     1       0.982  51.465 -26.610  1.00  0.00     0.182 C 
BRANCH  28  29
HETATM   29  O1  UNL     1       2.228  52.169 -26.632  1.00  0.00    -0.399 OA
HETATM   30  H9  UNL     1       2.490  52.326 -25.708  1.00  0.00     0.209 HD
ENDBRANCH  28  29
ENDBRANCH  24  28
ENDBRANCH   1  24
BRANCH   2  31
HETATM   31  O2  UNL     1       1.005  54.581 -24.831  1.00  0.00    -0.360 OA
HETATM   32  H10 UNL     1       1.485  55.268 -24.339  1.00  0.00     0.217 HD
ENDBRANCH   2  31
BRANCH  23  33
HETATM   33  O8  UNL     1      -1.215  50.405 -24.019  1.00  0.00    -0.359 OA
HETATM   34  H36 UNL     1      -1.493  49.849 -23.255  1.00  0.00     0.217 HD
ENDBRANCH  23  33
BRANCH  15  35
HETATM   35  O5  UNL     1       2.109  51.832 -13.905  1.00  0.00    -0.315 OA
BRANCH  35  36
HETATM   36  C19 UNL     1       2.876  51.053 -13.094  1.00  0.00     0.262 C 
HETATM   37  O6  UNL     1       3.693  50.229 -13.482  1.00  0.00    -0.265 OA
BRANCH  36  38
HETATM   38  C20 UNL     1       2.555  51.294 -11.632  1.00  0.00     0.077 C 
HETATM   39  C21 UNL     1       1.065  51.085 -11.388  1.00  0.00     0.020 C 
HETATM   40  C22 UNL     1       3.015  52.674 -11.169  1.00  0.00     0.020 C 
ENDBRANCH  36  38
ENDBRANCH  35  36
ENDBRANCH  15  35
TORSDOF 9
ENDMDL
MODEL 5
REMARK minimizedAffinity -8.4005928
REMARK CNNscore 0.764478385
REMARK CNNaffinity 6.76986885
REMARK  9 active torsions:
REMARK  status: ('A' for Active; 'I' for Inactive)
REMARK    1  A    between atoms: C2_2  and  C3_3 
REMARK    2  A    between atoms: C3_3  and  C5_5 
REMARK    3  A    between atoms: C3_3  and  C6_7 
REMARK    4  A    between atoms: C5_5  and  O1_6 
REMARK    5  A    between atoms: C7_8  and  O2_9 
REMARK    6  A    between atoms: C18_22  and  O5_23 
REMARK    7  A    between atoms: O5_23  and  C19_24 
REMARK    8  A    between atoms: C19_24  and  C20_26 
REMARK    9  A    between atoms: C29_36  and  O8_37 
ROOT
HETATM    1  C6  UNL     1       1.214  51.275 -15.671  1.00  0.00     0.023 A 
HETATM    2  C7  UNL     1       1.412  52.278 -16.651  1.00  0.00     0.076 A 
HETATM    3  C8  UNL     1       0.816  52.225 -17.912  1.00  0.00     0.053 A 
HETATM    4  C9  UNL     1       0.005  51.144 -18.253  1.00  0.00     0.034 A 
HETATM    5  C10 UNL     1      -0.601  51.101 -19.594  1.00  0.00     0.192 C 
HETATM    6  O3  UNL     1      -0.269  51.930 -20.434  1.00  0.00    -0.287 OA
HETATM    7  C11 UNL     1      -1.575  50.024 -19.908  1.00  0.00     0.035 C 
HETATM    8  C12 UNL     1      -1.692  48.977 -19.076  1.00  0.00     0.131 C 
HETATM    9  O4  UNL     1      -2.421  47.842 -19.375  1.00  0.00    -0.336 OA
HETATM   10  C13 UNL     1      -2.817  47.635 -20.747  1.00  0.00     0.065 C 
HETATM   11  C14 UNL     1      -1.630  47.057 -21.533  1.00  0.00     0.046 C 
HETATM   12  C15 UNL     1      -3.915  46.559 -20.678  1.00  0.00     0.046 C 
HETATM   13  C16 UNL     1      -3.373  48.959 -21.313  1.00  0.00     0.031 C 
HETATM   14  C17 UNL     1      -3.933  48.892 -22.740  1.00  0.00     0.041 C 
HETATM   15  C18 UNL     1      -4.611  50.216 -23.124  1.00  0.00     0.136 C 
HETATM   16  C23 UNL     1      -3.669  51.417 -22.919  1.00  0.00     0.012 C 
HETATM   17  C24 UNL     1      -4.401  52.738 -23.177  1.00  0.00     0.012 C 
HETATM   18  C25 UNL     1      -3.044  51.420 -21.512  1.00  0.00     0.017 C 
HETATM   19  C26 UNL     1      -2.316  50.087 -21.227  1.00  0.00     0.033 C 
HETATM   20  C27 UNL     1      -1.000  48.951 -17.754  1.00  0.00     0.219 C 
HETATM   21  O7  UNL     1      -1.098  47.992 -16.992  1.00  0.00    -0.284 OA
HETATM   22  C28 UNL     1      -0.186  50.112 -17.348  1.00  0.00     0.065 A 
HETATM   23  C29 UNL     1       0.424  50.171 -16.070  1.00  0.00     0.091 A 
ENDROOT
BRANCH   1  24
HETATM   24  C3  UNL     1       1.896  51.413 -14.270  1.00  0.00     0.027 C 
HETATM   25  C4  UNL     1       3.217  52.227 -14.237  1.00  0.00     0.027 C 
BRANCH  24  26
HETATM   26  C2  UNL     1       2.359  50.025 -13.780  1.00  0.00    -0.021 C 
HETATM   27  C1  UNL     1       3.617  49.591 -13.613  1.00  0.00     0.008 C 
ENDBRANCH  24  26
BRANCH  24  28
HETATM   28  C5  UNL     1       0.862  52.134 -13.336  1.00  0.00     0.182 C 
BRANCH  28  29
HETATM   29  O1  UNL     1       0.753  51.576 -12.022  1.00  0.00    -0.399 OA
HETATM   30  H9  UNL     1       1.591  51.752 -11.560  1.00  0.00     0.209 HD
ENDBRANCH  28  29
ENDBRANCH  24  28
ENDBRANCH   1  24
BRANCH   2  31
HETATM   31  O2  UNL     1       2.237  53.336 -16.384  1.00  0.00    -0.360 OA
HETATM   32  H10 UNL     1       2.228  53.973 -17.117  1.00  0.00     0.217 HD
ENDBRANCH   2  31
BRANCH  23  33
HETATM   33  O8  UNL     1       0.273  49.120 -15.202  1.00  0.00    -0.359 OA
HETATM   34  H36 UNL     1      -0.279  48.417 -15.616  1.00  0.00     0.217 HD
ENDBRANCH  23  33
BRANCH  15  35
HETATM   35  O5  UNL     1      -4.971  50.168 -24.518  1.00  0.00    -0.315 OA
BRANCH  35  36
HETATM   36  C19 UNL     1      -3.997  49.772 -25.382  1.00  0.00     0.262 C 
HETATM   37  O6  UNL     1      -2.993  50.418 -25.653  1.00  0.00    -0.265 OA
BRANCH  36  38
HETATM   38  C20 UNL     1      -4.333  48.437 -26.019  1.00  0.00     0.077 C 
HETATM   39  C21 UNL     1      -3.901  48.439 -27.481  1.00  0.00     0.020 C 
HETATM   40  C22 UNL     1      -5.811  48.091 -25.866  1.00  0.00     0.020 C 
ENDBRANCH  36  38
ENDBRANCH  35  36
ENDBRANCH  15  35
TORSDOF 9
ENDMDL
MODEL 6
REMARK minimizedAffinity -9.06528378
REMARK CNNscore 0.726322055
REMARK CNNaffinity 6.77931166
REMARK  9 active torsions:
REMARK  status: ('A' for Active; 'I' for Inactive)
REMARK    1  A    between atoms: C2_2  and  C3_3 
REMARK    2  A    between atoms: C3_3  and  C5_5 
REMARK    3  A    between atoms: C3_3  and  C6_7 
REMARK    4  A    between atoms: C5_5  and  O1_6 
REMARK    5  A    between atoms: C7_8  and  O2_9 
REMARK    6  A    between atoms: C18_22  and  O5_23 
REMARK    7  A    between atoms: O5_23  and  C19_24 
REMARK    8  A    between atoms: C19_24  and  C20_26 
REMARK    9  A    between atoms: C29_36  and  O8_37 
ROOT
HETATM    1  C6  UNL     1      -0.851  51.567 -26.232  1.00  0.00     0.023 A 
HETATM    2  C7  UNL     1      -1.737  50.892 -27.107  1.00  0.00     0.076 A 
HETATM    3  C8  UNL     1      -2.710  50.002 -26.650  1.00  0.00     0.053 A 
HETATM    4  C9  UNL     1      -2.824  49.734 -25.287  1.00  0.00     0.034 A 
HETATM    5  C10 UNL     1      -3.848  48.780 -24.830  1.00  0.00     0.192 C 
HETATM    6  O3  UNL     1      -4.479  48.129 -25.654  1.00  0.00    -0.287 OA
HETATM    7  C11 UNL     1      -4.063  48.602 -23.371  1.00  0.00     0.035 C 
HETATM    8  C12 UNL     1      -3.167  49.104 -22.506  1.00  0.00     0.131 C 
HETATM    9  O4  UNL     1      -3.175  48.826 -21.151  1.00  0.00    -0.336 OA
HETATM   10  C13 UNL     1      -3.979  47.719 -20.693  1.00  0.00     0.065 C 
HETATM   11  C14 UNL     1      -3.216  46.408 -20.938  1.00  0.00     0.046 C 
HETATM   12  C15 UNL     1      -4.097  47.927 -19.173  1.00  0.00     0.046 C 
HETATM   13  C16 UNL     1      -5.363  47.789 -21.372  1.00  0.00     0.031 C 
HETATM   14  C17 UNL     1      -6.382  46.736 -20.921  1.00  0.00     0.041 C 
HETATM   15  C18 UNL     1      -7.763  47.014 -21.532  1.00  0.00     0.136 C 
HETATM   16  C23 UNL     1      -7.691  47.142 -23.065  1.00  0.00     0.012 C 
HETATM   17  C24 UNL     1      -9.049  47.551 -23.646  1.00  0.00     0.012 C 
HETATM   18  C25 UNL     1      -6.601  48.135 -23.505  1.00  0.00     0.017 C 
HETATM   19  C26 UNL     1      -5.227  47.748 -22.914  1.00  0.00     0.033 C 
HETATM   20  C27 UNL     1      -2.055  49.989 -22.961  1.00  0.00     0.219 C 
HETATM   21  O7  UNL     1      -1.228  50.444 -22.174  1.00  0.00    -0.284 OA
HETATM   22  C28 UNL     1      -1.953  50.333 -24.391  1.00  0.00     0.065 A 
HETATM   23  C29 UNL     1      -0.966  51.234 -24.861  1.00  0.00     0.091 A 
ENDROOT
BRANCH   1  24
HETATM   24  C3  UNL     1       0.200  52.570 -26.814  1.00  0.00     0.027 C 
HETATM   25  C4  UNL     1      -0.195  53.270 -28.140  1.00  0.00     0.027 C 
BRANCH  24  26
HETATM   26  C2  UNL     1       1.476  51.804 -27.220  1.00  0.00    -0.021 C 
HETATM   27  C1  UNL     1       2.459  51.362 -26.422  1.00  0.00     0.008 C 
ENDBRANCH  24  26
BRANCH  24  28
HETATM   28  C5  UNL     1       0.411  53.680 -25.726  1.00  0.00     0.182 C 
BRANCH  28  29
HETATM   29  O1  UNL     1       0.189  55.017 -26.185  1.00  0.00    -0.399 OA
HETATM   30  H9  UNL     1      -0.761  55.106 -26.375  1.00  0.00     0.209 HD
ENDBRANCH  28  29
ENDBRANCH  24  28
ENDBRANCH   1  24
BRANCH   2  31
HETATM   31  O2  UNL     1      -1.635  51.082 -28.457  1.00  0.00    -0.360 OA
HETATM   32  H10 UNL     1      -2.343  50.608 -28.926  1.00  0.00     0.217 HD
ENDBRANCH   2  31
BRANCH  23  33
HETATM   33  O8  UNL     1      -0.074  51.780 -23.974  1.00  0.00    -0.359 OA
HETATM   34  H36 UNL     1      -0.255  51.447 -23.065  1.00  0.00     0.217 HD
ENDBRANCH  23  33
BRANCH  15  35
HETATM   35  O5  UNL     1      -8.642  45.915 -21.220  1.00  0.00    -0.315 OA
BRANCH  35  36
HETATM   36  C19 UNL     1      -9.426  46.060 -20.117  1.00  0.00     0.262 C 
HETATM   37  O6  UNL     1      -9.490  45.260 -19.192  1.00  0.00    -0.265 OA
BRANCH  36  38
HETATM   38  C20 UNL     1     -10.262  47.322 -20.195  1.00  0.00     0.077 C 
HETATM   39  C21 UNL     1     -10.168  48.086 -18.880  1.00  0.00     0.020 C 
HETATM   40  C22 UNL     1     -11.709  47.023 -20.573  1.00  0.00     0.020 C 
ENDBRANCH  36  38
ENDBRANCH  35  36
ENDBRANCH  15  35
TORSDOF 9
ENDMDL
MODEL 7
REMARK minimizedAffinity -7.29979181
REMARK CNNscore 0.724816918
REMARK CNNaffinity 6.54361534
REMARK  9 active torsions:
REMARK  status: ('A' for Active; 'I' for Inactive)
REMARK    1  A    between atoms: C2_2  and  C3_3 
REMARK    2  A    between atoms: C3_3  and  C5_5 
REMARK    3  A    between atoms: C3_3  and  C6_7 
REMARK    4  A    between atoms: C5_5  and  O1_6 
REMARK    5  A    between atoms: C7_8  and  O2_9 
REMARK    6  A    between atoms: C18_22  and  O5_23 
REMARK    7  A    between atoms: O5_23  and  C19_24 
REMARK    8  A    between atoms: C19_24  and  C20_26 
REMARK    9  A    between atoms: C29_36  and  O8_37 
ROOT
HETATM    1  C6  UNL     1      -1.799  52.656 -11.278  1.00  0.00     0.023 A 
HETATM    2  C7  UNL     1      -0.729  52.912 -12.168  1.00  0.00     0.076 A 
HETATM    3  C8  UNL     1       0.442  53.559 -11.769  1.00  0.00     0.053 A 
HETATM    4  C9  UNL     1       0.581  53.997 -10.452  1.00  0.00     0.034 A 
HETATM    5  C10 UNL     1       1.818  54.691 -10.057  1.00  0.00     0.192 C 
HETATM    6  O3  UNL     1       2.636  55.003 -10.915  1.00  0.00    -0.287 OA
HETATM    7  C11 UNL     1       2.024  55.031  -8.627  1.00  0.00     0.035 C 
HETATM    8  C12 UNL     1       0.994  54.940  -7.771  1.00  0.00     0.131 C 
HETATM    9  O4  UNL     1       1.034  55.415  -6.473  1.00  0.00    -0.336 OA
HETATM   10  C13 UNL     1       2.103  56.315  -6.116  1.00  0.00     0.065 C 
HETATM   11  C14 UNL     1       1.756  57.730  -6.604  1.00  0.00     0.046 C 
HETATM   12  C15 UNL     1       2.106  56.326  -4.578  1.00  0.00     0.046 C 
HETATM   13  C16 UNL     1       3.432  55.758  -6.668  1.00  0.00     0.031 C 
HETATM   14  C17 UNL     1       4.694  56.546  -6.294  1.00  0.00     0.041 C 
HETATM   15  C18 UNL     1       5.959  55.803  -6.750  1.00  0.00     0.136 C 
HETATM   16  C23 UNL     1       5.905  55.460  -8.251  1.00  0.00     0.012 C 
HETATM   17  C24 UNL     1       7.109  54.604  -8.660  1.00  0.00     0.012 C 
HETATM   18  C25 UNL     1       4.593  54.750  -8.628  1.00  0.00     0.017 C 
HETATM   19  C26 UNL     1       3.367  55.591  -8.207  1.00  0.00     0.033 C 
HETATM   20  C27 UNL     1      -0.309  54.337  -8.181  1.00  0.00     0.219 C 
HETATM   21  O7  UNL     1      -1.258  54.258  -7.404  1.00  0.00    -0.284 OA
HETATM   22  C28 UNL     1      -0.456  53.812  -9.551  1.00  0.00     0.065 A 
HETATM   23  C29 UNL     1      -1.642  53.156  -9.964  1.00  0.00     0.091 A 
ENDROOT
BRANCH   1  24
HETATM   24  C3  UNL     1      -3.072  51.904 -11.791  1.00  0.00     0.027 C 
HETATM   25  C4  UNL     1      -4.315  51.967 -10.864  1.00  0.00     0.027 C 
BRANCH  24  26
HETATM   26  C2  UNL     1      -2.790  50.388 -11.850  1.00  0.00    -0.021 C 
HETATM   27  C1  UNL     1      -3.535  49.435 -12.430  1.00  0.00     0.008 C 
ENDBRANCH  24  26
BRANCH  24  28
HETATM   28  C5  UNL     1      -3.459  52.559 -13.163  1.00  0.00     0.182 C 
BRANCH  28  29
HETATM   29  O1  UNL     1      -4.219  53.767 -13.055  1.00  0.00    -0.399 OA
HETATM   30  H9  UNL     1      -3.637  54.445 -12.670  1.00  0.00     0.209 HD
ENDBRANCH  28  29
ENDBRANCH  24  28
ENDBRANCH   1  24
BRANCH   2  31
HETATM   31  O2  UNL     1      -0.834  52.546 -13.482  1.00  0.00    -0.360 OA
HETATM   32  H10 UNL     1      -0.005  52.725 -13.956  1.00  0.00     0.217 HD
ENDBRANCH   2  31
BRANCH  23  33
HETATM   33  O8  UNL     1      -2.682  53.026  -9.080  1.00  0.00    -0.359 OA
HETATM   34  H36 UNL     1      -2.445  53.436  -8.216  1.00  0.00     0.217 HD
ENDBRANCH  23  33
BRANCH  15  35
HETATM   35  O5  UNL     1       7.102  56.652  -6.530  1.00  0.00    -0.315 OA
BRANCH  35  36
HETATM   36  C19 UNL     1       7.911  56.320  -5.487  1.00  0.00     0.262 C 
HETATM   37  O6  UNL     1       8.208  55.177  -5.165  1.00  0.00    -0.265 OA
BRANCH  36  38
HETATM   38  C20 UNL     1       8.367  57.552  -4.728  1.00  0.00     0.077 C 
HETATM   39  C21 UNL     1       7.456  58.728  -5.059  1.00  0.00     0.020 C 
HETATM   40  C22 UNL     1       9.832  57.877  -5.001  1.00  0.00     0.020 C 
ENDBRANCH  36  38
ENDBRANCH  35  36
ENDBRANCH  15  35
TORSDOF 9
ENDMDL
MODEL 8
REMARK minimizedAffinity -8.02860165
REMARK CNNscore 0.720332801
REMARK CNNaffinity 5.95149469
REMARK  9 active torsions:
REMARK  status: ('A' for Active; 'I' for Inactive)
REMARK    1  A    between atoms: C2_2  and  C3_3 
REMARK    2  A    between atoms: C3_3  and  C5_5 
REMARK    3  A    between atoms: C3_3  and  C6_7 
REMARK    4  A    between atoms: C5_5  and  O1_6 
REMARK    5  A    between atoms: C7_8  and  O2_9 
REMARK    6  A    between atoms: C18_22  and  O5_23 
REMARK    7  A    between atoms: O5_23  and  C19_24 
REMARK    8  A    between atoms: C19_24  and  C20_26 
REMARK    9  A    between atoms: C29_36  and  O8_37 
ROOT
HETATM    1  C6  UNL     1      -9.909  47.266 -29.992  1.00  0.00     0.023 A 
HETATM    2  C7  UNL     1     -10.507  46.121 -30.571  1.00  0.00     0.076 A 
HETATM    3  C8  UNL     1     -11.607  45.478 -30.000  1.00  0.00     0.053 A 
HETATM    4  C9  UNL     1     -12.145  45.950 -28.804  1.00  0.00     0.034 A 
HETATM    5  C10 UNL     1     -13.295  45.247 -28.212  1.00  0.00     0.192 C 
HETATM    6  O3  UNL     1     -13.666  44.182 -28.693  1.00  0.00    -0.287 OA
HETATM    7  C11 UNL     1     -13.955  45.830 -27.016  1.00  0.00     0.035 C 
HETATM    8  C12 UNL     1     -13.352  46.827 -26.349  1.00  0.00     0.131 C 
HETATM    9  O4  UNL     1     -13.786  47.300 -25.125  1.00  0.00    -0.336 OA
HETATM   10  C13 UNL     1     -14.734  46.499 -24.389  1.00  0.00     0.065 C 
HETATM   11  C14 UNL     1     -13.984  45.370 -23.664  1.00  0.00     0.046 C 
HETATM   12  C15 UNL     1     -15.307  47.452 -23.325  1.00  0.00     0.046 C 
HETATM   13  C16 UNL     1     -15.838  46.015 -25.352  1.00  0.00     0.031 C 
HETATM   14  C17 UNL     1     -16.986  45.226 -24.711  1.00  0.00     0.041 C 
HETATM   15  C18 UNL     1     -18.100  44.953 -25.732  1.00  0.00     0.136 C 
HETATM   16  C23 UNL     1     -17.554  44.269 -26.999  1.00  0.00     0.012 C 
HETATM   17  C24 UNL     1     -18.650  44.126 -28.060  1.00  0.00     0.012 C 
HETATM   18  C25 UNL     1     -16.344  45.023 -27.580  1.00  0.00     0.017 C 
HETATM   19  C26 UNL     1     -15.236  45.192 -26.518  1.00  0.00     0.033 C 
HETATM   20  C27 UNL     1     -12.120  47.484 -26.877  1.00  0.00     0.219 C 
HETATM   21  O7  UNL     1     -11.559  48.391 -26.266  1.00  0.00    -0.284 OA
HETATM   22  C28 UNL     1     -11.570  47.041 -28.171  1.00  0.00     0.065 A 
HETATM   23  C29 UNL     1     -10.452  47.687 -28.755  1.00  0.00     0.091 A 
ENDROOT
BRANCH   1  24
HETATM   24  C3  UNL     1      -8.692  47.949 -30.701  1.00  0.00     0.027 C 
HETATM   25  C4  UNL     1      -8.714  49.500 -30.737  1.00  0.00     0.027 C 
BRANCH  24  26
HETATM   26  C2  UNL     1      -8.700  47.590 -32.202  1.00  0.00    -0.021 C 
HETATM   27  C1  UNL     1      -7.732  47.811 -33.104  1.00  0.00     0.008 C 
ENDBRANCH  24  26
BRANCH  24  28
HETATM   28  C5  UNL     1      -7.408  47.502 -29.920  1.00  0.00     0.182 C 
BRANCH  28  29
HETATM   29  O1  UNL     1      -6.966  48.424 -28.918  1.00  0.00    -0.399 OA
HETATM   30  H9  UNL     1      -7.635  48.430 -28.211  1.00  0.00     0.209 HD
ENDBRANCH  28  29
ENDBRANCH  24  28
ENDBRANCH   1  24
BRANCH   2  31
HETATM   31  O2  UNL     1      -9.987  45.589 -31.718  1.00  0.00    -0.360 OA
HETATM   32  H10 UNL     1     -10.534  44.849 -32.033  1.00  0.00     0.217 HD
ENDBRANCH   2  31
BRANCH  23  33
HETATM   33  O8  UNL     1      -9.857  48.731 -28.095  1.00  0.00    -0.359 OA
HETATM   34  H36 UNL     1     -10.322  48.901 -27.243  1.00  0.00     0.217 HD
ENDBRANCH  23  33
BRANCH  15  35
HETATM   35  O5  UNL     1     -19.073  44.072 -25.137  1.00  0.00    -0.315 OA
BRANCH  35  36
HETATM   36  C19 UNL     1     -19.913  44.627 -24.221  1.00  0.00     0.262 C 
HETATM   37  O6  UNL     1     -20.508  45.687 -24.366  1.00  0.00    -0.265 OA
BRANCH  36  38
HETATM   38  C20 UNL     1     -19.986  43.789 -22.959  1.00  0.00     0.077 C 
HETATM   39  C21 UNL     1     -21.396  43.237 -22.786  1.00  0.00     0.020 C 
HETATM   40  C22 UNL     1     -19.530  44.571 -21.731  1.00  0.00     0.020 C 
ENDBRANCH  36  38
ENDBRANCH  35  36
ENDBRANCH  15  35
TORSDOF 9
ENDMDL
MODEL 9
REMARK minimizedAffinity -8.29282761
REMARK CNNscore 0.682470024
REMARK CNNaffinity 6.89066696
REMARK  9 active torsions:
REMARK  status: ('A' for Active; 'I' for Inactive)
REMARK    1  A    between atoms: C2_2  and  C3_3 
REMARK    2  A    between atoms: C3_3  and  C5_5 
REMARK    3  A    between atoms: C3_3  and  C6_7 
REMARK    4  A    between atoms: C5_5  and  O1_6 
REMARK    5  A    between atoms: C7_8  and  O2_9 
REMARK    6  A    between atoms: C18_22  and  O5_23 
REMARK    7  A    between atoms: O5_23  and  C19_24 
REMARK    8  A    between atoms: C19_24  and  C20_26 
REMARK    9  A    between atoms: C29_36  and  O8_37 
ROOT
HETATM    1  C6  UNL     1      -0.618  51.446 -25.504  1.00  0.00     0.023 A 
HETATM    2  C7  UNL     1      -0.359  51.496 -24.113  1.00  0.00     0.076 A 
HETATM    3  C8  UNL     1      -1.167  50.854 -23.174  1.00  0.00     0.053 A 
HETATM    4  C9  UNL     1      -2.292  50.145 -23.593  1.00  0.00     0.034 A 
HETATM    5  C10 UNL     1      -3.139  49.489 -22.583  1.00  0.00     0.192 C 
HETATM    6  O3  UNL     1      -2.933  49.696 -21.393  1.00  0.00    -0.287 OA
HETATM    7  C11 UNL     1      -4.254  48.618 -23.038  1.00  0.00     0.035 C 
HETATM    8  C12 UNL     1      -4.630  48.645 -24.326  1.00  0.00     0.131 C 
HETATM    9  O4  UNL     1      -5.769  48.025 -24.803  1.00  0.00    -0.336 OA
HETATM   10  C13 UNL     1      -6.755  47.593 -23.842  1.00  0.00     0.065 C 
HETATM   11  C14 UNL     1      -7.610  48.798 -23.421  1.00  0.00     0.046 C 
HETATM   12  C15 UNL     1      -7.655  46.616 -24.620  1.00  0.00     0.046 C 
HETATM   13  C16 UNL     1      -6.040  46.879 -22.676  1.00  0.00     0.031 C 
HETATM   14  C17 UNL     1      -6.953  46.267 -21.606  1.00  0.00     0.041 C 
HETATM   15  C18 UNL     1      -6.140  45.440 -20.600  1.00  0.00     0.136 C 
HETATM   16  C23 UNL     1      -4.989  46.262 -19.989  1.00  0.00     0.012 C 
HETATM   17  C24 UNL     1      -4.108  45.387 -19.091  1.00  0.00     0.012 C 
HETATM   18  C25 UNL     1      -4.135  46.945 -21.072  1.00  0.00     0.017 C 
HETATM   19  C26 UNL     1      -5.011  47.817 -21.998  1.00  0.00     0.033 C 
HETATM   20  C27 UNL     1      -3.844  49.394 -25.351  1.00  0.00     0.219 C 
HETATM   21  O7  UNL     1      -4.189  49.429 -26.531  1.00  0.00    -0.284 OA
HETATM   22  C28 UNL     1      -2.618  50.101 -24.939  1.00  0.00     0.065 A 
HETATM   23  C29 UNL     1      -1.793  50.756 -25.887  1.00  0.00     0.091 A 
ENDROOT
BRANCH   1  24
HETATM   24  C3  UNL     1       0.346  52.170 -26.500  1.00  0.00     0.027 C 
HETATM   25  C4  UNL     1       0.210  51.763 -27.991  1.00  0.00     0.027 C 
BRANCH  24  26
HETATM   26  C2  UNL     1       1.805  51.774 -26.190  1.00  0.00    -0.021 C 
HETATM   27  C1  UNL     1       2.819  51.628 -27.056  1.00  0.00     0.008 C 
ENDBRANCH  24  26
BRANCH  24  28
HETATM   28  C5  UNL     1       0.038  53.704 -26.389  1.00  0.00     0.182 C 
BRANCH  28  29
HETATM   29  O1  UNL     1      -0.290  54.340 -27.628  1.00  0.00    -0.399 OA
HETATM   30  H9  UNL     1      -1.148  53.987 -27.920  1.00  0.00     0.209 HD
ENDBRANCH  28  29
ENDBRANCH  24  28
ENDBRANCH   1  24
BRANCH   2  31
HETATM   31  O2  UNL     1       0.704  52.219 -23.645  1.00  0.00    -0.360 OA
HETATM   32  H10 UNL     1       0.797  52.112 -22.684  1.00  0.00     0.217 HD
ENDBRANCH   2  31
BRANCH  23  33
HETATM   33  O8  UNL     1      -2.154  50.753 -27.210  1.00  0.00    -0.359 OA
HETATM   34  H36 UNL     1      -2.998  50.259 -27.329  1.00  0.00     0.217 HD
ENDBRANCH  23  33
BRANCH  15  35
HETATM   35  O5  UNL     1      -7.007  45.027 -19.526  1.00  0.00    -0.315 OA
BRANCH  35  36
HETATM   36  C19 UNL     1      -7.301  43.699 -19.461  1.00  0.00     0.262 C 
HETATM   37  O6  UNL     1      -7.702  43.023 -20.399  1.00  0.00    -0.265 OA
BRANCH  36  38
HETATM   38  C20 UNL     1      -7.117  43.161 -18.056  1.00  0.00     0.077 C 
HETATM   39  C21 UNL     1      -7.060  44.317 -17.063  1.00  0.00     0.020 C 
HETATM   40  C22 UNL     1      -5.889  42.262 -17.947  1.00  0.00     0.020 C 
ENDBRANCH  36  38
ENDBRANCH  35  36
ENDBRANCH  15  35
TORSDOF 9
ENDMDL
