MODEL 1
REMARK minimizedAffinity -7.02395678
REMARK CNNscore 0.472053051
REMARK CNNaffinity 6.03251791
REMARK  6 active torsions:
REMARK  status: ('A' for Active; 'I' for Inactive)
REMARK    1  A    between atoms: C2_2  and  C4_4 
REMARK    2  A    between atoms: C11_11  and  C12_12 
REMARK    3  A    between atoms: C12_12  and  O2_14 
REMARK    4  A    between atoms: C21_23  and  O3_24 
REMARK    5  A    between atoms: C22_25  and  C24_27 
REMARK    6  A    between atoms: C24_27  and  O4_28 
ROOT
HETATM    1  C4  UNL     1      -7.164  47.427 -33.239  1.00  0.00     0.018 C 
HETATM    2  C5  UNL     1      -5.665  47.312 -33.635  1.00  0.00     0.010 C 
HETATM    3  C6  UNL     1      -4.896  46.908 -32.366  1.00  0.00     0.010 C 
HETATM    4  C7  UNL     1      -5.830  47.303 -31.216  1.00  0.00    -0.039 C 
HETATM    5  C8  UNL     1      -5.676  48.827 -30.970  1.00  0.00     0.015 C 
HETATM    6  C9  UNL     1      -5.586  46.543 -29.907  1.00  0.00     0.011 C 
HETATM    7  C10 UNL     1      -6.733  46.769 -28.899  1.00  0.00     0.022 C 
HETATM    8  C11 UNL     1      -8.167  46.437 -29.460  1.00  0.00     0.057 C 
HETATM    9  C13 UNL     1      -8.347  47.210 -30.834  1.00  0.00     0.011 C 
HETATM   10  C14 UNL     1      -9.748  47.060 -31.436  1.00  0.00     0.007 C 
HETATM   11  C15 UNL     1     -10.862  47.397 -30.447  1.00  0.00     0.006 C 
HETATM   12  C16 UNL     1     -10.749  46.598 -29.131  1.00  0.00     0.003 C 
HETATM   13  C17 UNL     1     -12.042  46.676 -28.196  1.00  0.00    -0.035 C 
HETATM   14  C18 UNL     1     -12.391  48.133 -27.809  1.00  0.00     0.016 C 
HETATM   15  C19 UNL     1     -13.263  46.096 -28.977  1.00  0.00     0.012 C 
HETATM   16  C20 UNL     1     -14.497  45.836 -28.117  1.00  0.00     0.033 C 
HETATM   17  C21 UNL     1     -14.201  44.939 -26.922  1.00  0.00     0.128 C 
HETATM   18  C22 UNL     1     -13.022  45.438 -26.030  1.00  0.00     0.007 C 
HETATM   19  C23 UNL     1     -13.453  46.646 -25.169  1.00  0.00     0.020 C 
HETATM   20  C25 UNL     1     -11.783  45.735 -26.958  1.00  0.00     0.007 C 
HETATM   21  C26 UNL     1     -10.498  46.143 -26.212  1.00  0.00     0.007 C 
HETATM   22  C27 UNL     1      -9.275  46.015 -27.124  1.00  0.00     0.011 C 
HETATM   23  C28 UNL     1      -9.350  46.852 -28.433  1.00  0.00    -0.022 C 
HETATM   24  C29 UNL     1      -9.178  48.342 -28.018  1.00  0.00     0.017 C 
HETATM   25  C30 UNL     1      -7.193  46.855 -31.802  1.00  0.00     0.007 C 
ENDROOT
BRANCH   8  26
HETATM   26  C12 UNL     1      -8.223  44.903 -29.719  1.00  0.00     0.149 C 
HETATM   27  O1  UNL     1      -9.026  44.294 -30.407  1.00  0.00    -0.649 OA
BRANCH  26  28
HETATM   28  O2  UNL     1      -7.281  44.191 -29.070  1.00  0.00    -0.776 OA
HETATM   29  H18 UNL     1      -7.464  43.267 -29.341  1.00  0.00     0.167 HD
ENDBRANCH  26  28
ENDBRANCH   8  26
BRANCH   1  30
HETATM   30  C2  UNL     1      -8.040  46.815 -34.320  1.00  0.00    -0.089 C 
HETATM   31  C1  UNL     1      -8.486  47.459 -35.410  1.00  0.00     0.014 C 
HETATM   32  C3  UNL     1      -8.419  45.374 -34.086  1.00  0.00     0.043 C 
ENDBRANCH   1  30
BRANCH  18  33
HETATM   33  C24 UNL     1     -12.655  44.288 -25.037  1.00  0.00     0.176 C 
BRANCH  33  34
HETATM   34  O4  UNL     1     -12.864  44.678 -23.679  1.00  0.00    -0.400 OA
HETATM   35  H39 UNL     1     -12.552  43.941 -23.123  1.00  0.00     0.209 HD
ENDBRANCH  33  34
ENDBRANCH  18  33
BRANCH  17  36
HETATM   36  O3  UNL     1     -15.413  44.808 -26.179  1.00  0.00    -0.395 OA
HETATM   37  H33 UNL     1     -15.168  44.343 -25.350  1.00  0.00     0.210 HD
ENDBRANCH  17  36
TORSDOF 6
ENDMDL
MODEL 2
REMARK minimizedAffinity -6.72216034
REMARK CNNscore 0.465404123
REMARK CNNaffinity 5.93313599
REMARK  6 active torsions:
REMARK  status: ('A' for Active; 'I' for Inactive)
REMARK    1  A    between atoms: C2_2  and  C4_4 
REMARK    2  A    between atoms: C11_11  and  C12_12 
REMARK    3  A    between atoms: C12_12  and  O2_14 
REMARK    4  A    between atoms: C21_23  and  O3_24 
REMARK    5  A    between atoms: C22_25  and  C24_27 
REMARK    6  A    between atoms: C24_27  and  O4_28 
ROOT
HETATM    1  C4  UNL     1      -7.284  45.464 -32.000  1.00  0.00     0.018 C 
HETATM    2  C5  UNL     1      -6.166  46.342 -32.627  1.00  0.00     0.010 C 
HETATM    3  C6  UNL     1      -6.406  47.783 -32.148  1.00  0.00     0.010 C 
HETATM    4  C7  UNL     1      -7.879  47.799 -31.720  1.00  0.00    -0.039 C 
HETATM    5  C8  UNL     1      -8.750  47.950 -32.995  1.00  0.00     0.015 C 
HETATM    6  C9  UNL     1      -8.239  48.901 -30.717  1.00  0.00     0.011 C 
HETATM    7  C10 UNL     1      -9.642  48.678 -30.111  1.00  0.00     0.022 C 
HETATM    8  C11 UNL     1      -9.850  47.259 -29.458  1.00  0.00     0.057 C 
HETATM    9  C13 UNL     1      -9.418  46.162 -30.520  1.00  0.00     0.011 C 
HETATM   10  C14 UNL     1      -9.674  44.727 -30.049  1.00  0.00     0.007 C 
HETATM   11  C15 UNL     1     -11.104  44.507 -29.557  1.00  0.00     0.006 C 
HETATM   12  C16 UNL     1     -11.519  45.517 -28.466  1.00  0.00     0.003 C 
HETATM   13  C17 UNL     1     -12.872  45.149 -27.702  1.00  0.00    -0.035 C 
HETATM   14  C18 UNL     1     -14.070  45.019 -28.673  1.00  0.00     0.016 C 
HETATM   15  C19 UNL     1     -12.691  43.767 -26.997  1.00  0.00     0.012 C 
HETATM   16  C20 UNL     1     -13.788  43.422 -25.994  1.00  0.00     0.033 C 
HETATM   17  C21 UNL     1     -13.974  44.500 -24.934  1.00  0.00     0.128 C 
HETATM   18  C22 UNL     1     -14.210  45.928 -25.515  1.00  0.00     0.007 C 
HETATM   19  C23 UNL     1     -15.642  46.067 -26.078  1.00  0.00     0.020 C 
HETATM   20  C25 UNL     1     -13.084  46.230 -26.575  1.00  0.00     0.007 C 
HETATM   21  C26 UNL     1     -13.118  47.651 -27.171  1.00  0.00     0.007 C 
HETATM   22  C27 UNL     1     -11.791  47.986 -27.857  1.00  0.00     0.011 C 
HETATM   23  C28 UNL     1     -11.381  47.005 -28.992  1.00  0.00    -0.022 C 
HETATM   24  C29 UNL     1     -12.339  47.283 -30.186  1.00  0.00     0.017 C 
HETATM   25  C30 UNL     1      -7.973  46.428 -31.005  1.00  0.00     0.007 C 
ENDROOT
BRANCH   8  26
HETATM   26  C12 UNL     1      -8.913  47.174 -28.218  1.00  0.00     0.149 C 
HETATM   27  O1  UNL     1      -8.510  46.168 -27.657  1.00  0.00    -0.649 OA
BRANCH  26  28
HETATM   28  O2  UNL     1      -8.546  48.368 -27.710  1.00  0.00    -0.776 OA
HETATM   29  H18 UNL     1      -7.973  48.128 -26.952  1.00  0.00     0.167 HD
ENDBRANCH  26  28
ENDBRANCH   8  26
BRANCH   1  30
HETATM   30  C2  UNL     1      -6.703  44.148 -31.506  1.00  0.00    -0.089 C 
HETATM   31  C1  UNL     1      -6.158  43.202 -32.288  1.00  0.00     0.014 C 
HETATM   32  C3  UNL     1      -6.787  43.940 -30.015  1.00  0.00     0.043 C 
ENDBRANCH   1  30
BRANCH  18  33
HETATM   33  C24 UNL     1     -14.092  46.949 -24.335  1.00  0.00     0.176 C 
BRANCH  33  34
HETATM   34  O4  UNL     1     -12.768  46.982 -23.799  1.00  0.00    -0.400 OA
HETATM   35  H39 UNL     1     -12.790  47.583 -23.033  1.00  0.00     0.209 HD
ENDBRANCH  33  34
ENDBRANCH  18  33
BRANCH  17  36
HETATM   36  O3  UNL     1     -15.048  44.084 -24.089  1.00  0.00    -0.395 OA
HETATM   37  H33 UNL     1     -15.236  44.849 -23.503  1.00  0.00     0.210 HD
ENDBRANCH  17  36
TORSDOF 6
ENDMDL
MODEL 3
REMARK minimizedAffinity -8.60173416
REMARK CNNscore 0.460828364
REMARK CNNaffinity 6.64961576
REMARK  6 active torsions:
REMARK  status: ('A' for Active; 'I' for Inactive)
REMARK    1  A    between atoms: C2_2  and  C4_4 
REMARK    2  A    between atoms: C11_11  and  C12_12 
REMARK    3  A    between atoms: C12_12  and  O2_14 
REMARK    4  A    between atoms: C21_23  and  O3_24 
REMARK    5  A    between atoms: C22_25  and  C24_27 
REMARK    6  A    between atoms: C24_27  and  O4_28 
ROOT
HETATM    1  C4  UNL     1      -0.034  51.202 -21.142  1.00  0.00     0.018 C 
HETATM    2  C5  UNL     1      -0.782  50.794 -22.443  1.00  0.00     0.010 C 
HETATM    3  C6  UNL     1      -1.945  49.880 -22.023  1.00  0.00     0.010 C 
HETATM    4  C7  UNL     1      -1.546  49.374 -20.631  1.00  0.00    -0.039 C 
HETATM    5  C8  UNL     1      -0.538  48.209 -20.812  1.00  0.00     0.015 C 
HETATM    6  C9  UNL     1      -2.719  48.909 -19.761  1.00  0.00     0.011 C 
HETATM    7  C10 UNL     1      -2.287  48.698 -18.294  1.00  0.00     0.022 C 
HETATM    8  C11 UNL     1      -1.584  49.946 -17.637  1.00  0.00     0.057 C 
HETATM    9  C13 UNL     1      -0.412  50.413 -18.600  1.00  0.00     0.011 C 
HETATM   10  C14 UNL     1       0.427  51.558 -18.024  1.00  0.00     0.007 C 
HETATM   11  C15 UNL     1       0.934  51.275 -16.611  1.00  0.00     0.006 C 
HETATM   12  C16 UNL     1      -0.202  50.893 -15.638  1.00  0.00     0.003 C 
HETATM   13  C17 UNL     1       0.219  50.890 -14.097  1.00  0.00    -0.035 C 
HETATM   14  C18 UNL     1       1.393  49.921 -13.819  1.00  0.00     0.016 C 
HETATM   15  C19 UNL     1       0.694  52.324 -13.703  1.00  0.00     0.012 C 
HETATM   16  C20 UNL     1       0.849  52.546 -12.201  1.00  0.00     0.033 C 
HETATM   17  C21 UNL     1      -0.417  52.211 -11.424  1.00  0.00     0.128 C 
HETATM   18  C22 UNL     1      -0.971  50.779 -11.698  1.00  0.00     0.007 C 
HETATM   19  C23 UNL     1      -0.110  49.708 -10.991  1.00  0.00     0.020 C 
HETATM   20  C25 UNL     1      -1.076  50.573 -13.257  1.00  0.00     0.007 C 
HETATM   21  C26 UNL     1      -1.705  49.235 -13.694  1.00  0.00     0.007 C 
HETATM   22  C27 UNL     1      -2.136  49.290 -15.162  1.00  0.00     0.011 C 
HETATM   23  C28 UNL     1      -0.993  49.625 -16.162  1.00  0.00    -0.022 C 
HETATM   24  C29 UNL     1      -0.081  48.367 -16.232  1.00  0.00     0.017 C 
HETATM   25  C30 UNL     1      -0.962  50.674 -20.022  1.00  0.00     0.007 C 
ENDROOT
BRANCH   8  26
HETATM   26  C12 UNL     1      -2.647  51.078 -17.531  1.00  0.00     0.149 C 
HETATM   27  O1  UNL     1      -2.890  51.949 -18.351  1.00  0.00    -0.649 OA
BRANCH  26  28
HETATM   28  O2  UNL     1      -3.342  51.089 -16.376  1.00  0.00    -0.776 OA
HETATM   29  H18 UNL     1      -3.950  51.851 -16.481  1.00  0.00     0.167 HD
ENDBRANCH  26  28
ENDBRANCH   8  26
BRANCH   1  30
HETATM   30  C2  UNL     1       0.337  52.676 -21.192  1.00  0.00    -0.089 C 
HETATM   31  C1  UNL     1       0.229  53.535 -20.165  1.00  0.00     0.014 C 
HETATM   32  C3  UNL     1       0.845  53.156 -22.528  1.00  0.00     0.043 C 
ENDBRANCH   1  30
BRANCH  18  33
HETATM   33  C24 UNL     1      -2.401  50.691 -11.071  1.00  0.00     0.176 C 
BRANCH  33  34
HETATM   34  O4  UNL     1      -3.300  51.620 -11.678  1.00  0.00    -0.400 OA
HETATM   35  H39 UNL     1      -4.142  51.554 -11.193  1.00  0.00     0.209 HD
ENDBRANCH  33  34
ENDBRANCH  18  33
BRANCH  17  36
HETATM   36  O3  UNL     1      -0.134  52.416 -10.040  1.00  0.00    -0.395 OA
HETATM   37  H33 UNL     1      -0.913  52.068  -9.554  1.00  0.00     0.210 HD
ENDBRANCH  17  36
TORSDOF 6
ENDMDL
MODEL 4
REMARK minimizedAffinity -6.46504688
REMARK CNNscore 0.401817471
REMARK CNNaffinity 6.10201025
REMARK  6 active torsions:
REMARK  status: ('A' for Active; 'I' for Inactive)
REMARK    1  A    between atoms: C2_2  and  C4_4 
REMARK    2  A    between atoms: C11_11  and  C12_12 
REMARK    3  A    between atoms: C12_12  and  O2_14 
REMARK    4  A    between atoms: C21_23  and  O3_24 
REMARK    5  A    between atoms: C22_25  and  C24_27 
REMARK    6  A    between atoms: C24_27  and  O4_28 
ROOT
HETATM    1  C4  UNL     1     -10.366  43.832 -38.101  1.00  0.00     0.018 C 
HETATM    2  C5  UNL     1     -10.983  42.609 -38.837  1.00  0.00     0.010 C 
HETATM    3  C6  UNL     1     -11.182  41.507 -37.784  1.00  0.00     0.010 C 
HETATM    4  C7  UNL     1     -10.235  41.897 -36.644  1.00  0.00    -0.039 C 
HETATM    5  C8  UNL     1      -8.803  41.440 -37.027  1.00  0.00     0.015 C 
HETATM    6  C9  UNL     1     -10.611  41.316 -35.275  1.00  0.00     0.011 C 
HETATM    7  C10 UNL     1      -9.805  41.979 -34.138  1.00  0.00     0.022 C 
HETATM    8  C11 UNL     1      -9.898  43.552 -34.105  1.00  0.00     0.057 C 
HETATM    9  C13 UNL     1      -9.546  44.094 -35.554  1.00  0.00     0.011 C 
HETATM   10  C14 UNL     1      -9.493  45.624 -35.633  1.00  0.00     0.007 C 
HETATM   11  C15 UNL     1      -8.598  46.246 -34.563  1.00  0.00     0.006 C 
HETATM   12  C16 UNL     1      -8.974  45.790 -33.136  1.00  0.00     0.003 C 
HETATM   13  C17 UNL     1      -8.287  46.635 -31.968  1.00  0.00    -0.035 C 
HETATM   14  C18 UNL     1      -6.743  46.601 -32.059  1.00  0.00     0.016 C 
HETATM   15  C19 UNL     1      -8.729  48.127 -32.100  1.00  0.00     0.012 C 
HETATM   16  C20 UNL     1      -8.390  48.995 -30.892  1.00  0.00     0.033 C 
HETATM   17  C21 UNL     1      -8.939  48.428 -29.589  1.00  0.00     0.128 C 
HETATM   18  C22 UNL     1      -8.528  46.948 -29.317  1.00  0.00     0.007 C 
HETATM   19  C23 UNL     1      -7.052  46.856 -28.874  1.00  0.00     0.020 C 
HETATM   20  C25 UNL     1      -8.854  46.094 -30.601  1.00  0.00     0.007 C 
HETATM   21  C26 UNL     1      -8.598  44.581 -30.456  1.00  0.00     0.007 C 
HETATM   22  C27 UNL     1      -9.306  43.800 -31.566  1.00  0.00     0.011 C 
HETATM   23  C28 UNL     1      -8.903  44.213 -33.010  1.00  0.00    -0.022 C 
HETATM   24  C29 UNL     1      -7.457  43.683 -33.236  1.00  0.00     0.017 C 
HETATM   25  C30 UNL     1     -10.461  43.430 -36.610  1.00  0.00     0.007 C 
ENDROOT
BRANCH   8  26
HETATM   26  C12 UNL     1     -11.369  43.925 -33.758  1.00  0.00     0.149 C 
HETATM   27  O1  UNL     1     -11.772  44.518 -32.771  1.00  0.00    -0.649 OA
BRANCH  26  28
HETATM   28  O2  UNL     1     -12.281  43.502 -34.656  1.00  0.00    -0.776 OA
HETATM   29  H18 UNL     1     -13.132  43.816 -34.284  1.00  0.00     0.167 HD
ENDBRANCH  26  28
ENDBRANCH   8  26
BRANCH   1  30
HETATM   30  C2  UNL     1     -11.017  45.118 -38.585  1.00  0.00    -0.089 C 
HETATM   31  C1  UNL     1     -12.288  45.479 -38.345  1.00  0.00     0.014 C 
HETATM   32  C3  UNL     1     -10.120  46.011 -39.405  1.00  0.00     0.043 C 
ENDBRANCH   1  30
BRANCH  18  33
HETATM   33  C24 UNL     1      -9.389  46.425 -28.121  1.00  0.00     0.176 C 
BRANCH  33  34
HETATM   34  O4  UNL     1     -10.787  46.521 -28.396  1.00  0.00    -0.400 OA
HETATM   35  H39 UNL     1     -11.253  46.244 -27.587  1.00  0.00     0.209 HD
ENDBRANCH  33  34
ENDBRANCH  18  33
BRANCH  17  36
HETATM   36  O3  UNL     1      -8.522  49.299 -28.537  1.00  0.00    -0.395 OA
HETATM   37  H33 UNL     1      -8.770  48.845 -27.702  1.00  0.00     0.210 HD
ENDBRANCH  17  36
TORSDOF 6
ENDMDL
MODEL 5
REMARK minimizedAffinity -7.11231422
REMARK CNNscore 0.347349823
REMARK CNNaffinity 6.20182037
REMARK  6 active torsions:
REMARK  status: ('A' for Active; 'I' for Inactive)
REMARK    1  A    between atoms: C2_2  and  C4_4 
REMARK    2  A    between atoms: C11_11  and  C12_12 
REMARK    3  A    between atoms: C12_12  and  O2_14 
REMARK    4  A    between atoms: C21_23  and  O3_24 
REMARK    5  A    between atoms: C22_25  and  C24_27 
REMARK    6  A    between atoms: C24_27  and  O4_28 
ROOT
HETATM    1  C4  UNL     1       5.309  54.238  -6.343  1.00  0.00     0.018 C 
HETATM    2  C5  UNL     1       6.308  55.410  -6.131  1.00  0.00     0.010 C 
HETATM    3  C6  UNL     1       5.898  56.529  -7.102  1.00  0.00     0.010 C 
HETATM    4  C7  UNL     1       5.058  55.816  -8.168  1.00  0.00    -0.039 C 
HETATM    5  C8  UNL     1       6.026  55.135  -9.171  1.00  0.00     0.015 C 
HETATM    6  C9  UNL     1       4.086  56.727  -8.929  1.00  0.00     0.011 C 
HETATM    7  C10 UNL     1       3.077  55.908  -9.762  1.00  0.00     0.022 C 
HETATM    8  C11 UNL     1       2.278  54.828  -8.938  1.00  0.00     0.057 C 
HETATM    9  C13 UNL     1       3.327  53.947  -8.137  1.00  0.00     0.011 C 
HETATM   10  C14 UNL     1       2.685  52.783  -7.374  1.00  0.00     0.007 C 
HETATM   11  C15 UNL     1       1.777  51.923  -8.252  1.00  0.00     0.006 C 
HETATM   12  C16 UNL     1       0.699  52.753  -8.982  1.00  0.00     0.003 C 
HETATM   13  C17 UNL     1      -0.458  51.885  -9.660  1.00  0.00    -0.035 C 
HETATM   14  C18 UNL     1       0.102  50.873 -10.687  1.00  0.00     0.016 C 
HETATM   15  C19 UNL     1      -1.189  51.066  -8.548  1.00  0.00     0.012 C 
HETATM   16  C20 UNL     1      -2.496  50.420  -8.998  1.00  0.00     0.033 C 
HETATM   17  C21 UNL     1      -3.472  51.423  -9.598  1.00  0.00     0.128 C 
HETATM   18  C22 UNL     1      -2.872  52.278 -10.757  1.00  0.00     0.007 C 
HETATM   19  C23 UNL     1      -2.747  51.444 -12.051  1.00  0.00     0.020 C 
HETATM   20  C25 UNL     1      -1.505  52.893 -10.269  1.00  0.00     0.007 C 
HETATM   21  C26 UNL     1      -0.832  53.852 -11.271  1.00  0.00     0.007 C 
HETATM   22  C27 UNL     1       0.240  54.697 -10.578  1.00  0.00     0.011 C 
HETATM   23  C28 UNL     1       1.362  53.878  -9.878  1.00  0.00    -0.022 C 
HETATM   24  C29 UNL     1       2.239  53.269 -11.011  1.00  0.00     0.017 C 
HETATM   25  C30 UNL     1       4.237  54.854  -7.273  1.00  0.00     0.007 C 
ENDROOT
BRANCH   8  26
HETATM   26  C12 UNL     1       1.367  55.589  -7.931  1.00  0.00     0.149 C 
HETATM   27  O1  UNL     1       1.572  56.678  -7.420  1.00  0.00    -0.649 OA
BRANCH  26  28
HETATM   28  O2  UNL     1       0.246  54.929  -7.580  1.00  0.00    -0.776 OA
HETATM   29  H18 UNL     1      -0.195  55.542  -6.954  1.00  0.00     0.167 HD
ENDBRANCH  26  28
ENDBRANCH   8  26
BRANCH   1  30
HETATM   30  C2  UNL     1       4.903  53.646  -5.002  1.00  0.00    -0.089 C 
HETATM   31  C1  UNL     1       4.193  54.285  -4.058  1.00  0.00     0.014 C 
HETATM   32  C3  UNL     1       5.375  52.234  -4.765  1.00  0.00     0.043 C 
ENDBRANCH   1  30
BRANCH  18  33
HETATM   33  C24 UNL     1      -3.876  53.436 -11.065  1.00  0.00     0.176 C 
BRANCH  33  34
HETATM   34  O4  UNL     1      -4.142  53.544 -12.464  1.00  0.00    -0.400 OA
HETATM   35  H39 UNL     1      -4.715  54.323 -12.582  1.00  0.00     0.209 HD
ENDBRANCH  33  34
ENDBRANCH  18  33
BRANCH  17  36
HETATM   36  O3  UNL     1      -4.626  50.694 -10.016  1.00  0.00    -0.395 OA
HETATM   37  H33 UNL     1      -5.178  51.335 -10.516  1.00  0.00     0.210 HD
ENDBRANCH  17  36
TORSDOF 6
ENDMDL
MODEL 6
REMARK minimizedAffinity -8.14386845
REMARK CNNscore 0.3201783
REMARK CNNaffinity 6.4748683
REMARK  6 active torsions:
REMARK  status: ('A' for Active; 'I' for Inactive)
REMARK    1  A    between atoms: C2_2  and  C4_4 
REMARK    2  A    between atoms: C11_11  and  C12_12 
REMARK    3  A    between atoms: C12_12  and  O2_14 
REMARK    4  A    between atoms: C21_23  and  O3_24 
REMARK    5  A    between atoms: C22_25  and  C24_27 
REMARK    6  A    between atoms: C24_27  and  O4_28 
ROOT
HETATM    1  C4  UNL     1      -1.067  50.734 -25.992  1.00  0.00     0.018 C 
HETATM    2  C5  UNL     1      -1.891  50.844 -27.306  1.00  0.00     0.010 C 
HETATM    3  C6  UNL     1      -3.368  50.653 -26.926  1.00  0.00     0.010 C 
HETATM    4  C7  UNL     1      -3.321  49.943 -25.568  1.00  0.00    -0.039 C 
HETATM    5  C8  UNL     1      -3.066  48.433 -25.820  1.00  0.00     0.015 C 
HETATM    6  C9  UNL     1      -4.582  50.116 -24.713  1.00  0.00     0.011 C 
HETATM    7  C10 UNL     1      -4.354  49.636 -23.264  1.00  0.00     0.022 C 
HETATM    8  C11 UNL     1      -3.117  50.298 -22.546  1.00  0.00     0.057 C 
HETATM    9  C13 UNL     1      -1.854  50.131 -23.493  1.00  0.00     0.011 C 
HETATM   10  C14 UNL     1      -0.553  50.639 -22.863  1.00  0.00     0.007 C 
HETATM   11  C15 UNL     1      -0.298  50.061 -21.472  1.00  0.00     0.006 C 
HETATM   12  C16 UNL     1      -1.486  50.280 -20.511  1.00  0.00     0.003 C 
HETATM   13  C17 UNL     1      -1.161  49.979 -18.977  1.00  0.00    -0.035 C 
HETATM   14  C18 UNL     1      -0.671  48.527 -18.762  1.00  0.00     0.016 C 
HETATM   15  C19 UNL     1      -0.015  50.932 -18.509  1.00  0.00     0.012 C 
HETATM   16  C20 UNL     1       0.201  50.964 -16.999  1.00  0.00     0.033 C 
HETATM   17  C21 UNL     1      -1.069  51.301 -16.230  1.00  0.00     0.128 C 
HETATM   18  C22 UNL     1      -2.284  50.385 -16.577  1.00  0.00     0.007 C 
HETATM   19  C23 UNL     1      -2.124  48.988 -15.936  1.00  0.00     0.020 C 
HETATM   20  C25 UNL     1      -2.448  50.344 -18.144  1.00  0.00     0.007 C 
HETATM   21  C26 UNL     1      -3.674  49.556 -18.647  1.00  0.00     0.007 C 
HETATM   22  C27 UNL     1      -3.982  49.902 -20.106  1.00  0.00     0.011 C 
HETATM   23  C28 UNL     1      -2.812  49.642 -21.097  1.00  0.00    -0.022 C 
HETATM   24  C29 UNL     1      -2.690  48.097 -21.242  1.00  0.00     0.017 C 
HETATM   25  C30 UNL     1      -2.157  50.714 -24.894  1.00  0.00     0.007 C 
ENDROOT
BRANCH   8  26
HETATM   26  C12 UNL     1      -3.434  51.812 -22.371  1.00  0.00     0.149 C 
HETATM   27  O1  UNL     1      -2.726  52.760 -22.667  1.00  0.00    -0.649 OA
BRANCH  26  28
HETATM   28  O2  UNL     1      -4.625  52.071 -21.793  1.00  0.00    -0.776 OA
HETATM   29  H18 UNL     1      -4.656  53.050 -21.761  1.00  0.00     0.167 HD
ENDBRANCH  26  28
ENDBRANCH   8  26
BRANCH   1  30
HETATM   30  C2  UNL     1       0.020  51.797 -25.965  1.00  0.00    -0.089 C 
HETATM   31  C1  UNL     1      -0.170  53.089 -25.651  1.00  0.00     0.014 C 
HETATM   32  C3  UNL     1       1.395  51.306 -26.343  1.00  0.00     0.043 C 
ENDBRANCH   1  30
BRANCH  18  33
HETATM   33  C24 UNL     1      -3.562  51.025 -15.943  1.00  0.00     0.176 C 
BRANCH  33  34
HETATM   34  O4  UNL     1      -3.573  50.881 -14.522  1.00  0.00    -0.400 OA
HETATM   35  H39 UNL     1      -4.423  51.240 -14.210  1.00  0.00     0.209 HD
ENDBRANCH  33  34
ENDBRANCH  18  33
BRANCH  17  36
HETATM   36  O3  UNL     1      -0.749  51.257 -14.840  1.00  0.00    -0.395 OA
HETATM   37  H33 UNL     1      -1.605  51.343 -14.366  1.00  0.00     0.210 HD
ENDBRANCH  17  36
TORSDOF 6
ENDMDL
MODEL 7
REMARK minimizedAffinity -6.52081633
REMARK CNNscore 0.308364362
REMARK CNNaffinity 6.35910845
REMARK  6 active torsions:
REMARK  status: ('A' for Active; 'I' for Inactive)
REMARK    1  A    between atoms: C2_2  and  C4_4 
REMARK    2  A    between atoms: C11_11  and  C12_12 
REMARK    3  A    between atoms: C12_12  and  O2_14 
REMARK    4  A    between atoms: C21_23  and  O3_24 
REMARK    5  A    between atoms: C22_25  and  C24_27 
REMARK    6  A    between atoms: C24_27  and  O4_28 
ROOT
HETATM    1  C4  UNL     1      -6.067  43.942 -18.402  1.00  0.00     0.018 C 
HETATM    2  C5  UNL     1      -7.093  43.548 -17.303  1.00  0.00     0.010 C 
HETATM    3  C6  UNL     1      -7.738  44.851 -16.803  1.00  0.00     0.010 C 
HETATM    4  C7  UNL     1      -6.745  45.946 -17.214  1.00  0.00    -0.039 C 
HETATM    5  C8  UNL     1      -5.597  45.973 -16.172  1.00  0.00     0.015 C 
HETATM    6  C9  UNL     1      -7.358  47.346 -17.342  1.00  0.00     0.011 C 
HETATM    7  C10 UNL     1      -6.388  48.326 -18.037  1.00  0.00     0.022 C 
HETATM    8  C11 UNL     1      -5.858  47.835 -19.437  1.00  0.00     0.057 C 
HETATM    9  C13 UNL     1      -5.281  46.368 -19.256  1.00  0.00     0.011 C 
HETATM   10  C14 UNL     1      -4.631  45.810 -20.526  1.00  0.00     0.007 C 
HETATM   11  C15 UNL     1      -3.595  46.756 -21.130  1.00  0.00     0.006 C 
HETATM   12  C16 UNL     1      -4.159  48.170 -21.386  1.00  0.00     0.003 C 
HETATM   13  C17 UNL     1      -3.229  49.101 -22.292  1.00  0.00    -0.035 C 
HETATM   14  C18 UNL     1      -1.820  49.283 -21.679  1.00  0.00     0.016 C 
HETATM   15  C19 UNL     1      -3.047  48.424 -23.687  1.00  0.00     0.012 C 
HETATM   16  C20 UNL     1      -2.429  49.327 -24.751  1.00  0.00     0.033 C 
HETATM   17  C21 UNL     1      -3.193  50.633 -24.928  1.00  0.00     0.128 C 
HETATM   18  C22 UNL     1      -3.402  51.431 -23.604  1.00  0.00     0.007 C 
HETATM   19  C23 UNL     1      -2.093  52.119 -23.159  1.00  0.00     0.020 C 
HETATM   20  C25 UNL     1      -4.001  50.456 -22.521  1.00  0.00     0.007 C 
HETATM   21  C26 UNL     1      -4.362  51.120 -21.178  1.00  0.00     0.007 C 
HETATM   22  C27 UNL     1      -5.288  50.220 -20.356  1.00  0.00     0.011 C 
HETATM   23  C28 UNL     1      -4.716  48.808 -20.048  1.00  0.00    -0.022 C 
HETATM   24  C29 UNL     1      -3.587  49.007 -18.994  1.00  0.00     0.017 C 
HETATM   25  C30 UNL     1      -6.354  45.446 -18.628  1.00  0.00     0.007 C 
ENDROOT
BRANCH   8  26
HETATM   26  C12 UNL     1      -7.075  47.795 -20.408  1.00  0.00     0.149 C 
HETATM   27  O1  UNL     1      -8.044  48.535 -20.416  1.00  0.00    -0.649 OA
BRANCH  26  28
HETATM   28  O2  UNL     1      -7.036  46.797 -21.313  1.00  0.00    -0.776 OA
HETATM   29  H18 UNL     1      -7.862  46.921 -21.826  1.00  0.00     0.167 HD
ENDBRANCH  26  28
ENDBRANCH   8  26
BRANCH   1  30
HETATM   30  C2  UNL     1      -6.148  42.970 -19.568  1.00  0.00    -0.089 C 
HETATM   31  C1  UNL     1      -6.891  43.146 -20.672  1.00  0.00     0.014 C 
HETATM   32  C3  UNL     1      -5.318  41.720 -19.408  1.00  0.00     0.043 C 
ENDBRANCH   1  30
BRANCH  18  33
HETATM   33  C24 UNL     1      -4.432  52.572 -23.892  1.00  0.00     0.176 C 
BRANCH  33  34
HETATM   34  O4  UNL     1      -5.657  52.056 -24.414  1.00  0.00    -0.400 OA
HETATM   35  H39 UNL     1      -6.217  52.824 -24.631  1.00  0.00     0.209 HD
ENDBRANCH  33  34
ENDBRANCH  18  33
BRANCH  17  36
HETATM   36  O3  UNL     1      -2.497  51.402 -25.909  1.00  0.00    -0.395 OA
HETATM   37  H33 UNL     1      -2.926  52.285 -25.908  1.00  0.00     0.210 HD
ENDBRANCH  17  36
TORSDOF 6
ENDMDL
MODEL 8
REMARK minimizedAffinity -7.83587408
REMARK CNNscore 0.292312324
REMARK CNNaffinity 5.66415739
REMARK  6 active torsions:
REMARK  status: ('A' for Active; 'I' for Inactive)
REMARK    1  A    between atoms: C2_2  and  C4_4 
REMARK    2  A    between atoms: C11_11  and  C12_12 
REMARK    3  A    between atoms: C12_12  and  O2_14 
REMARK    4  A    between atoms: C21_23  and  O3_24 
REMARK    5  A    between atoms: C22_25  and  C24_27 
REMARK    6  A    between atoms: C24_27  and  O4_28 
ROOT
HETATM    1  C4  UNL     1      -6.011  47.445 -27.279  1.00  0.00     0.018 C 
HETATM    2  C5  UNL     1      -5.614  47.919 -28.705  1.00  0.00     0.010 C 
HETATM    3  C6  UNL     1      -6.920  48.112 -29.492  1.00  0.00     0.010 C 
HETATM    4  C7  UNL     1      -7.953  47.279 -28.723  1.00  0.00    -0.039 C 
HETATM    5  C8  UNL     1      -7.782  45.794 -29.139  1.00  0.00     0.015 C 
HETATM    6  C9  UNL     1      -9.408  47.710 -28.940  1.00  0.00     0.011 C 
HETATM    7  C10 UNL     1     -10.355  47.036 -27.923  1.00  0.00     0.022 C 
HETATM    8  C11 UNL     1      -9.945  47.244 -26.416  1.00  0.00     0.057 C 
HETATM    9  C13 UNL     1      -8.422  46.829 -26.260  1.00  0.00     0.011 C 
HETATM   10  C14 UNL     1      -7.924  46.881 -24.812  1.00  0.00     0.007 C 
HETATM   11  C15 UNL     1      -8.822  46.112 -23.845  1.00  0.00     0.006 C 
HETATM   12  C16 UNL     1     -10.299  46.555 -23.926  1.00  0.00     0.003 C 
HETATM   13  C17 UNL     1     -11.218  46.016 -22.736  1.00  0.00    -0.035 C 
HETATM   14  C18 UNL     1     -11.216  44.470 -22.657  1.00  0.00     0.016 C 
HETATM   15  C19 UNL     1     -10.656  46.553 -21.383  1.00  0.00     0.012 C 
HETATM   16  C20 UNL     1     -11.591  46.365 -20.192  1.00  0.00     0.033 C 
HETATM   17  C21 UNL     1     -12.972  46.963 -20.428  1.00  0.00     0.128 C 
HETATM   18  C22 UNL     1     -13.663  46.467 -21.736  1.00  0.00     0.007 C 
HETATM   19  C23 UNL     1     -14.186  45.023 -21.572  1.00  0.00     0.020 C 
HETATM   20  C25 UNL     1     -12.653  46.639 -22.933  1.00  0.00     0.007 C 
HETATM   21  C26 UNL     1     -13.224  46.285 -24.320  1.00  0.00     0.007 C 
HETATM   22  C27 UNL     1     -12.342  46.854 -25.434  1.00  0.00     0.011 C 
HETATM   23  C28 UNL     1     -10.861  46.380 -25.396  1.00  0.00    -0.022 C 
HETATM   24  C29 UNL     1     -10.862  44.888 -25.837  1.00  0.00     0.017 C 
HETATM   25  C30 UNL     1      -7.548  47.617 -27.266  1.00  0.00     0.007 C 
ENDROOT
BRANCH   8  26
HETATM   26  C12 UNL     1     -10.103  48.759 -26.095  1.00  0.00     0.149 C 
HETATM   27  O1  UNL     1      -9.349  49.464 -25.445  1.00  0.00    -0.649 OA
BRANCH  26  28
HETATM   28  O2  UNL     1     -11.230  49.320 -26.578  1.00  0.00    -0.776 OA
HETATM   29  H18 UNL     1     -11.166  50.253 -26.286  1.00  0.00     0.167 HD
ENDBRANCH  26  28
ENDBRANCH   8  26
BRANCH   1  30
HETATM   30  C2  UNL     1      -5.158  48.150 -26.236  1.00  0.00    -0.089 C 
HETATM   31  C1  UNL     1      -5.564  48.477 -24.998  1.00  0.00     0.014 C 
HETATM   32  C3  UNL     1      -3.762  48.497 -26.690  1.00  0.00     0.043 C 
ENDBRANCH   1  30
BRANCH  18  33
HETATM   33  C24 UNL     1     -14.914  47.371 -21.987  1.00  0.00     0.176 C 
BRANCH  33  34
HETATM   34  O4  UNL     1     -14.974  47.823 -23.340  1.00  0.00    -0.400 OA
HETATM   35  H39 UNL     1     -15.734  48.430 -23.401  1.00  0.00     0.209 HD
ENDBRANCH  33  34
ENDBRANCH  18  33
BRANCH  17  36
HETATM   36  O3  UNL     1     -13.759  46.685 -19.271  1.00  0.00    -0.395 OA
HETATM   37  H33 UNL     1     -14.674  46.959 -19.499  1.00  0.00     0.210 HD
ENDBRANCH  17  36
TORSDOF 6
ENDMDL
MODEL 9
REMARK minimizedAffinity -6.23903465
REMARK CNNscore 0.291828901
REMARK CNNaffinity 6.4904232
REMARK  6 active torsions:
REMARK  status: ('A' for Active; 'I' for Inactive)
REMARK    1  A    between atoms: C2_2  and  C4_4 
REMARK    2  A    between atoms: C11_11  and  C12_12 
REMARK    3  A    between atoms: C12_12  and  O2_14 
REMARK    4  A    between atoms: C21_23  and  O3_24 
REMARK    5  A    between atoms: C22_25  and  C24_27 
REMARK    6  A    between atoms: C24_27  and  O4_28 
ROOT
HETATM    1  C4  UNL     1      -1.961  49.334 -20.360  1.00  0.00     0.018 C 
HETATM    2  C5  UNL     1      -3.227  48.927 -21.166  1.00  0.00     0.010 C 
HETATM    3  C6  UNL     1      -4.277  48.460 -20.145  1.00  0.00     0.010 C 
HETATM    4  C7  UNL     1      -3.461  48.115 -18.893  1.00  0.00    -0.039 C 
HETATM    5  C8  UNL     1      -2.848  46.704 -19.089  1.00  0.00     0.015 C 
HETATM    6  C9  UNL     1      -4.257  48.154 -17.583  1.00  0.00     0.011 C 
HETATM    7  C10 UNL     1      -3.325  48.093 -16.353  1.00  0.00     0.022 C 
HETATM    8  C11 UNL     1      -2.197  49.193 -16.336  1.00  0.00     0.057 C 
HETATM    9  C13 UNL     1      -1.439  49.140 -17.729  1.00  0.00     0.011 C 
HETATM   10  C14 UNL     1      -0.241  50.091 -17.805  1.00  0.00     0.007 C 
HETATM   11  C15 UNL     1       0.723  49.931 -16.630  1.00  0.00     0.006 C 
HETATM   12  C16 UNL     1       0.017  50.056 -15.262  1.00  0.00     0.003 C 
HETATM   13  C17 UNL     1       1.007  50.207 -14.018  1.00  0.00    -0.035 C 
HETATM   14  C18 UNL     1       1.989  49.016 -13.910  1.00  0.00     0.016 C 
HETATM   15  C19 UNL     1       1.861  51.500 -14.209  1.00  0.00     0.012 C 
HETATM   16  C20 UNL     1       2.639  51.931 -12.968  1.00  0.00     0.033 C 
HETATM   17  C21 UNL     1       1.748  52.101 -11.746  1.00  0.00     0.128 C 
HETATM   18  C22 UNL     1       0.871  50.853 -11.420  1.00  0.00     0.007 C 
HETATM   19  C23 UNL     1       1.722  49.728 -10.791  1.00  0.00     0.020 C 
HETATM   20  C25 UNL     1       0.118  50.414 -12.733  1.00  0.00     0.007 C 
HETATM   21  C26 UNL     1      -0.874  49.247 -12.553  1.00  0.00     0.007 C 
HETATM   22  C27 UNL     1      -1.834  49.160 -13.743  1.00  0.00     0.011 C 
HETATM   23  C28 UNL     1      -1.142  48.985 -15.124  1.00  0.00    -0.022 C 
HETATM   24  C29 UNL     1      -0.588  47.531 -15.162  1.00  0.00     0.017 C 
HETATM   25  C30 UNL     1      -2.449  49.289 -18.892  1.00  0.00     0.007 C 
ENDROOT
BRANCH   8  26
HETATM   26  C12 UNL     1      -2.896  50.575 -16.181  1.00  0.00     0.149 C 
HETATM   27  O1  UNL     1      -2.800  51.544 -16.916  1.00  0.00    -0.649 OA
BRANCH  26  28
HETATM   28  O2  UNL     1      -3.665  50.693 -15.079  1.00  0.00    -0.776 OA
HETATM   29  H18 UNL     1      -4.016  51.606 -15.142  1.00  0.00     0.167 HD
ENDBRANCH  26  28
ENDBRANCH   8  26
BRANCH   1  30
HETATM   30  C2  UNL     1      -1.369  50.615 -20.926  1.00  0.00    -0.089 C 
HETATM   31  C1  UNL     1      -1.246  51.772 -20.255  1.00  0.00     0.014 C 
HETATM   32  C3  UNL     1      -0.915  50.522 -22.361  1.00  0.00     0.043 C 
ENDBRANCH   1  30
BRANCH  18  33
HETATM   33  C24 UNL     1      -0.181  51.275 -10.342  1.00  0.00     0.176 C 
BRANCH  33  34
HETATM   34  O4  UNL     1       0.029  50.592  -9.106  1.00  0.00    -0.400 OA
HETATM   35  H39 UNL     1      -0.698  50.854  -8.513  1.00  0.00     0.209 HD
ENDBRANCH  33  34
ENDBRANCH  18  33
BRANCH  17  36
HETATM   36  O3  UNL     1       2.591  52.460 -10.651  1.00  0.00    -0.395 OA
HETATM   37  H33 UNL     1       2.019  52.432  -9.854  1.00  0.00     0.210 HD
ENDBRANCH  17  36
TORSDOF 6
ENDMDL
