MODEL 1
REMARK minimizedAffinity -7.79918861
REMARK CNNscore 0.584070504
REMARK CNNaffinity 6.77443647
REMARK  4 active torsions:
REMARK  status: ('A' for Active; 'I' for Inactive)
REMARK    1  A    between atoms: C14_16  and  C15_17 
REMARK    2  A    between atoms: C15_17  and  C17_19 
REMARK    3  A    between atoms: C17_19  and  C18_20 
REMARK    4  A    between atoms: C18_20  and  C19_22 
ROOT
HETATM    1  C1  UNL     1      -6.150   6.205  16.012  1.00  0.00     0.017 C 
HETATM    2  C2  UNL     1      -5.435   6.902  15.105  1.00  0.00    -0.060 C 
HETATM    3  C3  UNL     1      -5.560   6.576  13.634  1.00  0.00     0.212 C 
HETATM    4  O1  UNL     1      -4.341   6.598  12.869  1.00  0.00    -0.317 OA
HETATM    5  C4  UNL     1      -3.294   5.774  13.107  1.00  0.00     0.259 C 
HETATM    6  O2  UNL     1      -2.525   5.451  12.205  1.00  0.00    -0.265 OA
HETATM    7  C5  UNL     1      -3.052   5.351  14.529  1.00  0.00     0.112 C 
HETATM    8  C6  UNL     1      -2.446   6.470  15.382  1.00  0.00     0.020 C 
HETATM    9  C7  UNL     1      -3.025   7.874  15.169  1.00  0.00    -0.024 A 
HETATM   10  C8  UNL     1      -2.464   8.671  14.011  1.00  0.00     0.022 A 
HETATM   11  C9  UNL     1      -2.137   9.129  15.418  1.00  0.00    -0.027 A 
HETATM   12  C10 UNL     1      -0.614   9.042  15.685  1.00  0.00     0.011 C 
HETATM   13  C11 UNL     1      -0.098   9.666  16.990  1.00  0.00     0.011 C 
HETATM   14  C12 UNL     1      -0.694  11.059  17.225  1.00  0.00    -0.032 C 
HETATM   15  C13 UNL     1      -0.202  12.000  16.092  1.00  0.00     0.016 C 
HETATM   16  C14 UNL     1      -0.410  11.716  18.612  1.00  0.00    -0.002 C 
HETATM   17  C23 UNL     1      -1.634  12.653  18.827  1.00  0.00     0.006 C 
HETATM   18  C24 UNL     1      -2.701  12.257  17.790  1.00  0.00     0.011 C 
HETATM   19  C25 UNL     1      -2.263  10.875  17.277  1.00  0.00    -0.032 C 
HETATM   20  C26 UNL     1      -2.741   9.818  18.336  1.00  0.00     0.016 C 
HETATM   21  C27 UNL     1      -2.811  10.459  15.873  1.00  0.00     0.004 C 
HETATM   22  C28 UNL     1      -4.359  10.520  15.819  1.00  0.00     0.007 C 
HETATM   23  C29 UNL     1      -5.085   9.371  15.136  1.00  0.00     0.010 C 
HETATM   24  C30 UNL     1      -4.505   8.017  15.559  1.00  0.00     0.025 C 
ENDROOT
BRANCH  16  25
HETATM   25  C15 UNL     1       0.950  12.379  18.986  1.00  0.00    -0.007 C 
HETATM   26  C16 UNL     1       2.200  11.912  18.225  1.00  0.00     0.011 C 
BRANCH  25  27
HETATM   27  C17 UNL     1       1.211  12.333  20.504  1.00  0.00     0.087 C 
BRANCH  27  28
HETATM   28  C18 UNL     1       2.041  11.124  20.910  1.00  0.00     0.149 C 
HETATM   29  O3  UNL     1       1.612   9.976  20.831  1.00  0.00    -0.293 OA
BRANCH  28  30
HETATM   30  C19 UNL     1       3.432  11.404  21.374  1.00  0.00     0.052 C 
HETATM   31  C20 UNL     1       3.920  11.071  22.584  1.00  0.00    -0.084 C 
HETATM   32  C21 UNL     1       3.138  10.399  23.684  1.00  0.00     0.043 C 
HETATM   33  C22 UNL     1       5.351  11.381  22.941  1.00  0.00     0.043 C 
ENDBRANCH  28  30
ENDBRANCH  27  28
ENDBRANCH  25  27
ENDBRANCH  16  25
TORSDOF 4
ENDMDL
MODEL 2
REMARK minimizedAffinity -8.9739542
REMARK CNNscore 0.432416022
REMARK CNNaffinity 7.15745926
REMARK  4 active torsions:
REMARK  status: ('A' for Active; 'I' for Inactive)
REMARK    1  A    between atoms: C14_16  and  C15_17 
REMARK    2  A    between atoms: C15_17  and  C17_19 
REMARK    3  A    between atoms: C17_19  and  C18_20 
REMARK    4  A    between atoms: C18_20  and  C19_22 
ROOT
HETATM    1  C1  UNL     1      -0.454   6.433  10.951  1.00  0.00     0.017 C 
HETATM    2  C2  UNL     1      -0.896   5.482  11.799  1.00  0.00    -0.060 C 
HETATM    3  C3  UNL     1      -0.099   4.212  11.992  1.00  0.00     0.212 C 
HETATM    4  O1  UNL     1      -0.855   2.992  12.093  1.00  0.00    -0.317 OA
HETATM    5  C4  UNL     1      -1.640   2.515  11.098  1.00  0.00     0.259 C 
HETATM    6  O2  UNL     1      -1.855   1.311  10.984  1.00  0.00    -0.265 OA
HETATM    7  C5  UNL     1      -2.317   3.518  10.205  1.00  0.00     0.112 C 
HETATM    8  C6  UNL     1      -3.497   4.216  10.889  1.00  0.00     0.020 C 
HETATM    9  C7  UNL     1      -3.287   4.625  12.351  1.00  0.00    -0.024 A 
HETATM   10  C8  UNL     1      -3.521   3.556  13.397  1.00  0.00     0.022 A 
HETATM   11  C9  UNL     1      -4.505   4.705  13.319  1.00  0.00    -0.027 A 
HETATM   12  C10 UNL     1      -5.918   4.198  12.939  1.00  0.00     0.011 C 
HETATM   13  C11 UNL     1      -7.070   5.210  13.024  1.00  0.00     0.011 C 
HETATM   14  C12 UNL     1      -7.024   6.008  14.333  1.00  0.00    -0.032 C 
HETATM   15  C13 UNL     1      -7.247   5.024  15.514  1.00  0.00     0.016 C 
HETATM   16  C14 UNL     1      -8.017   7.207  14.455  1.00  0.00    -0.002 C 
HETATM   17  C23 UNL     1      -7.293   8.179  15.431  1.00  0.00     0.006 C 
HETATM   18  C24 UNL     1      -5.833   7.705  15.548  1.00  0.00     0.011 C 
HETATM   19  C25 UNL     1      -5.629   6.748  14.362  1.00  0.00    -0.032 C 
HETATM   20  C26 UNL     1      -5.356   7.634  13.095  1.00  0.00     0.016 C 
HETATM   21  C27 UNL     1      -4.466   5.714  14.508  1.00  0.00     0.004 C 
HETATM   22  C28 UNL     1      -3.110   6.409  14.799  1.00  0.00     0.007 C 
HETATM   23  C29 UNL     1      -1.887   5.907  14.049  1.00  0.00     0.010 C 
HETATM   24  C30 UNL     1      -2.196   5.687  12.564  1.00  0.00     0.025 C 
ENDROOT
BRANCH  16  25
HETATM   25  C15 UNL     1      -9.535   7.036  14.763  1.00  0.00    -0.007 C 
HETATM   26  C16 UNL     1     -10.482   6.826  13.573  1.00  0.00     0.011 C 
BRANCH  25  27
HETATM   27  C17 UNL     1     -10.066   8.169  15.664  1.00  0.00     0.087 C 
BRANCH  27  28
HETATM   28  C18 UNL     1     -10.736   9.275  14.863  1.00  0.00     0.149 C 
HETATM   29  O3  UNL     1     -10.656   9.342  13.639  1.00  0.00    -0.293 OA
BRANCH  28  30
HETATM   30  C19 UNL     1     -11.537  10.264  15.643  1.00  0.00     0.052 C 
HETATM   31  C20 UNL     1     -11.065  11.431  16.121  1.00  0.00    -0.084 C 
HETATM   32  C21 UNL     1      -9.644  11.917  15.984  1.00  0.00     0.043 C 
HETATM   33  C22 UNL     1     -11.970  12.368  16.878  1.00  0.00     0.043 C 
ENDBRANCH  28  30
ENDBRANCH  27  28
ENDBRANCH  25  27
ENDBRANCH  16  25
TORSDOF 4
ENDMDL
MODEL 3
REMARK minimizedAffinity -6.99165773
REMARK CNNscore 0.350428373
REMARK CNNaffinity 6.27169275
REMARK  4 active torsions:
REMARK  status: ('A' for Active; 'I' for Inactive)
REMARK    1  A    between atoms: C14_16  and  C15_17 
REMARK    2  A    between atoms: C15_17  and  C17_19 
REMARK    3  A    between atoms: C17_19  and  C18_20 
REMARK    4  A    between atoms: C18_20  and  C19_22 
ROOT
HETATM    1  C1  UNL     1       1.469   8.846  12.532  1.00  0.00     0.017 C 
HETATM    2  C2  UNL     1       0.729   8.198  13.455  1.00  0.00    -0.060 C 
HETATM    3  C3  UNL     1       0.567   6.697  13.375  1.00  0.00     0.212 C 
HETATM    4  O1  UNL     1      -0.741   6.179  13.675  1.00  0.00    -0.317 OA
HETATM    5  C4  UNL     1      -1.847   6.477  12.953  1.00  0.00     0.259 C 
HETATM    6  O2  UNL     1      -2.789   5.692  12.885  1.00  0.00    -0.265 OA
HETATM    7  C5  UNL     1      -1.919   7.840  12.323  1.00  0.00     0.112 C 
HETATM    8  C6  UNL     1      -2.207   8.947  13.342  1.00  0.00     0.020 C 
HETATM    9  C7  UNL     1      -1.470   8.844  14.682  1.00  0.00    -0.024 A 
HETATM   10  C8  UNL     1      -2.085   7.940  15.729  1.00  0.00     0.022 A 
HETATM   11  C9  UNL     1      -2.112   9.435  15.972  1.00  0.00    -0.027 A 
HETATM   12  C10 UNL     1      -3.568   9.959  16.023  1.00  0.00     0.011 C 
HETATM   13  C11 UNL     1      -3.771  11.415  16.469  1.00  0.00     0.011 C 
HETATM   14  C12 UNL     1      -2.945  11.743  17.719  1.00  0.00    -0.032 C 
HETATM   15  C13 UNL     1      -3.468  10.871  18.894  1.00  0.00     0.016 C 
HETATM   16  C14 UNL     1      -2.904  13.241  18.156  1.00  0.00    -0.002 C 
HETATM   17  C23 UNL     1      -1.536  13.367  18.889  1.00  0.00     0.006 C 
HETATM   18  C24 UNL     1      -0.720  12.106  18.553  1.00  0.00     0.011 C 
HETATM   19  C25 UNL     1      -1.433  11.481  17.343  1.00  0.00    -0.032 C 
HETATM   20  C26 UNL     1      -0.954  12.264  16.069  1.00  0.00     0.016 C 
HETATM   21  C27 UNL     1      -1.185   9.954  17.114  1.00  0.00     0.004 C 
HETATM   22  C28 UNL     1       0.327   9.629  16.997  1.00  0.00     0.007 C 
HETATM   23  C29 UNL     1       0.757   8.662  15.906  1.00  0.00     0.010 C 
HETATM   24  C30 UNL     1       0.059   8.976  14.578  1.00  0.00     0.025 C 
ENDROOT
BRANCH  16  25
HETATM   25  C15 UNL     1      -4.074  13.950  18.902  1.00  0.00    -0.007 C 
HETATM   26  C16 UNL     1      -3.752  15.249  19.655  1.00  0.00     0.011 C 
BRANCH  25  27
HETATM   27  C17 UNL     1      -4.833  12.979  19.829  1.00  0.00     0.087 C 
BRANCH  27  28
HETATM   28  C18 UNL     1      -6.223  13.486  20.179  1.00  0.00     0.149 C 
HETATM   29  O3  UNL     1      -7.018  13.870  19.325  1.00  0.00    -0.293 OA
BRANCH  28  30
HETATM   30  C19 UNL     1      -6.593  13.455  21.625  1.00  0.00     0.052 C 
HETATM   31  C20 UNL     1      -7.808  13.124  22.101  1.00  0.00    -0.084 C 
HETATM   32  C21 UNL     1      -9.007  12.768  21.258  1.00  0.00     0.043 C 
HETATM   33  C22 UNL     1      -8.067  13.103  23.585  1.00  0.00     0.043 C 
ENDBRANCH  28  30
ENDBRANCH  27  28
ENDBRANCH  25  27
ENDBRANCH  16  25
TORSDOF 4
ENDMDL
MODEL 4
REMARK minimizedAffinity -9.96016979
REMARK CNNscore 0.345006615
REMARK CNNaffinity 7.30546331
REMARK  4 active torsions:
REMARK  status: ('A' for Active; 'I' for Inactive)
REMARK    1  A    between atoms: C14_16  and  C15_17 
REMARK    2  A    between atoms: C15_17  and  C17_19 
REMARK    3  A    between atoms: C17_19  and  C18_20 
REMARK    4  A    between atoms: C18_20  and  C19_22 
ROOT
HETATM    1  C1  UNL     1      -0.071   6.141  10.708  1.00  0.00     0.017 C 
HETATM    2  C2  UNL     1      -0.561   5.280  11.622  1.00  0.00    -0.060 C 
HETATM    3  C3  UNL     1       0.114   3.945  11.839  1.00  0.00     0.212 C 
HETATM    4  O1  UNL     1      -0.754   2.815  12.037  1.00  0.00    -0.317 OA
HETATM    5  C4  UNL     1      -1.634   2.376  11.107  1.00  0.00     0.259 C 
HETATM    6  O2  UNL     1      -1.974   1.197  11.063  1.00  0.00    -0.265 OA
HETATM    7  C5  UNL     1      -2.253   3.402  10.198  1.00  0.00     0.112 C 
HETATM    8  C6  UNL     1      -3.320   4.247  10.903  1.00  0.00     0.020 C 
HETATM    9  C7  UNL     1      -2.993   4.698  12.331  1.00  0.00    -0.024 A 
HETATM   10  C8  UNL     1      -3.277   3.706  13.439  1.00  0.00     0.022 A 
HETATM   11  C9  UNL     1      -4.143   4.946  13.352  1.00  0.00    -0.027 A 
HETATM   12  C10 UNL     1      -5.618   4.570  13.066  1.00  0.00     0.011 C 
HETATM   13  C11 UNL     1      -6.657   5.698  13.156  1.00  0.00     0.011 C 
HETATM   14  C12 UNL     1      -6.462   6.544  14.419  1.00  0.00    -0.032 C 
HETATM   15  C13 UNL     1      -6.719   5.642  15.658  1.00  0.00     0.016 C 
HETATM   16  C14 UNL     1      -7.322   7.843  14.529  1.00  0.00    -0.002 C 
HETATM   17  C23 UNL     1      -6.453   8.778  15.420  1.00  0.00     0.006 C 
HETATM   18  C24 UNL     1      -5.043   8.163  15.490  1.00  0.00     0.011 C 
HETATM   19  C25 UNL     1      -5.000   7.138  14.344  1.00  0.00    -0.032 C 
HETATM   20  C26 UNL     1      -4.707   7.934  13.023  1.00  0.00     0.016 C 
HETATM   21  C27 UNL     1      -3.940   5.997  14.486  1.00  0.00     0.004 C 
HETATM   22  C28 UNL     1      -2.508   6.562  14.675  1.00  0.00     0.007 C 
HETATM   23  C29 UNL     1      -1.383   5.904  13.893  1.00  0.00     0.010 C 
HETATM   24  C30 UNL     1      -1.791   5.650  12.438  1.00  0.00     0.025 C 
ENDROOT
BRANCH  16  25
HETATM   25  C15 UNL     1      -8.831   7.843  14.919  1.00  0.00    -0.007 C 
HETATM   26  C16 UNL     1      -9.180   7.688  16.406  1.00  0.00     0.011 C 
BRANCH  25  27
HETATM   27  C17 UNL     1      -9.638   6.832  14.080  1.00  0.00     0.087 C 
BRANCH  27  28
HETATM   28  C18 UNL     1     -11.041   7.330  13.772  1.00  0.00     0.149 C 
HETATM   29  O3  UNL     1     -11.256   8.236  12.971  1.00  0.00    -0.293 OA
BRANCH  28  30
HETATM   30  C19 UNL     1     -12.160   6.627  14.468  1.00  0.00     0.052 C 
HETATM   31  C20 UNL     1     -13.412   6.511  13.987  1.00  0.00    -0.084 C 
HETATM   32  C21 UNL     1     -13.906   7.102  12.690  1.00  0.00     0.043 C 
HETATM   33  C22 UNL     1     -14.461   5.759  14.764  1.00  0.00     0.043 C 
ENDBRANCH  28  30
ENDBRANCH  27  28
ENDBRANCH  25  27
ENDBRANCH  16  25
TORSDOF 4
ENDMDL
MODEL 5
REMARK minimizedAffinity -8.52321529
REMARK CNNscore 0.336519212
REMARK CNNaffinity 6.82988358
REMARK  4 active torsions:
REMARK  status: ('A' for Active; 'I' for Inactive)
REMARK    1  A    between atoms: C14_16  and  C15_17 
REMARK    2  A    between atoms: C15_17  and  C17_19 
REMARK    3  A    between atoms: C17_19  and  C18_20 
REMARK    4  A    between atoms: C18_20  and  C19_22 
ROOT
HETATM    1  C1  UNL     1      -7.762   6.979  17.084  1.00  0.00     0.017 C 
HETATM    2  C2  UNL     1      -7.512   7.225  15.782  1.00  0.00    -0.060 C 
HETATM    3  C3  UNL     1      -8.655   7.293  14.794  1.00  0.00     0.212 C 
HETATM    4  O1  UNL     1      -8.426   6.686  13.510  1.00  0.00    -0.317 OA
HETATM    5  C4  UNL     1      -8.174   5.367  13.341  1.00  0.00     0.259 C 
HETATM    6  O2  UNL     1      -8.475   4.793  12.298  1.00  0.00    -0.265 OA
HETATM    7  C5  UNL     1      -7.424   4.657  14.434  1.00  0.00     0.112 C 
HETATM    8  C6  UNL     1      -5.932   5.006  14.449  1.00  0.00     0.020 C 
HETATM    9  C7  UNL     1      -5.578   6.479  14.214  1.00  0.00    -0.024 A 
HETATM   10  C8  UNL     1      -5.507   6.939  12.773  1.00  0.00     0.022 A 
HETATM   11  C9  UNL     1      -4.216   6.857  13.561  1.00  0.00    -0.027 A 
HETATM   12  C10 UNL     1      -3.258   5.809  12.943  1.00  0.00     0.011 C 
HETATM   13  C11 UNL     1      -1.827   5.756  13.499  1.00  0.00     0.011 C 
HETATM   14  C12 UNL     1      -1.219   7.158  13.626  1.00  0.00    -0.032 C 
HETATM   15  C13 UNL     1      -1.090   7.767  12.203  1.00  0.00     0.016 C 
HETATM   16  C14 UNL     1       0.151   7.260  14.367  1.00  0.00    -0.002 C 
HETATM   17  C23 UNL     1       0.138   8.701  14.956  1.00  0.00     0.006 C 
HETATM   18  C24 UNL     1      -1.307   9.224  14.853  1.00  0.00     0.011 C 
HETATM   19  C25 UNL     1      -2.164   7.974  14.595  1.00  0.00    -0.032 C 
HETATM   20  C26 UNL     1      -2.398   7.279  15.984  1.00  0.00     0.016 C 
HETATM   21  C27 UNL     1      -3.553   8.222  13.921  1.00  0.00     0.004 C 
HETATM   22  C28 UNL     1      -4.411   9.232  14.727  1.00  0.00     0.007 C 
HETATM   23  C29 UNL     1      -5.884   8.907  14.921  1.00  0.00     0.010 C 
HETATM   24  C30 UNL     1      -6.083   7.437  15.305  1.00  0.00     0.025 C 
ENDROOT
BRANCH  16  25
HETATM   25  C15 UNL     1       1.512   6.872  13.713  1.00  0.00    -0.007 C 
HETATM   26  C16 UNL     1       2.715   7.788  13.980  1.00  0.00     0.011 C 
BRANCH  25  27
HETATM   27  C17 UNL     1       1.367   6.621  12.199  1.00  0.00     0.087 C 
BRANCH  27  28
HETATM   28  C18 UNL     1       2.263   7.534  11.376  1.00  0.00     0.149 C 
HETATM   29  O3  UNL     1       3.125   8.245  11.887  1.00  0.00    -0.293 OA
BRANCH  28  30
HETATM   30  C19 UNL     1       2.070   7.491   9.896  1.00  0.00     0.052 C 
HETATM   31  C20 UNL     1       2.565   6.537   9.084  1.00  0.00    -0.084 C 
HETATM   32  C21 UNL     1       3.426   5.380   9.522  1.00  0.00     0.043 C 
HETATM   33  C22 UNL     1       2.289   6.579   7.603  1.00  0.00     0.043 C 
ENDBRANCH  28  30
ENDBRANCH  27  28
ENDBRANCH  25  27
ENDBRANCH  16  25
TORSDOF 4
ENDMDL
MODEL 6
REMARK minimizedAffinity -7.85129309
REMARK CNNscore 0.327159941
REMARK CNNaffinity 6.27942848
REMARK  4 active torsions:
REMARK  status: ('A' for Active; 'I' for Inactive)
REMARK    1  A    between atoms: C14_16  and  C15_17 
REMARK    2  A    between atoms: C15_17  and  C17_19 
REMARK    3  A    between atoms: C17_19  and  C18_20 
REMARK    4  A    between atoms: C18_20  and  C19_22 
ROOT
HETATM    1  C1  UNL     1      -0.549   5.518  11.450  1.00  0.00     0.017 C 
HETATM    2  C2  UNL     1      -0.010   6.746  11.316  1.00  0.00    -0.060 C 
HETATM    3  C3  UNL     1       0.545   7.185   9.979  1.00  0.00     0.212 C 
HETATM    4  O1  UNL     1       1.772   7.936  10.013  1.00  0.00    -0.317 OA
HETATM    5  C4  UNL     1       2.938   7.443  10.493  1.00  0.00     0.259 C 
HETATM    6  O2  UNL     1       4.018   7.852  10.076  1.00  0.00    -0.265 OA
HETATM    7  C5  UNL     1       2.861   6.451  11.620  1.00  0.00     0.112 C 
HETATM    8  C6  UNL     1       2.512   7.108  12.960  1.00  0.00     0.020 C 
HETATM    9  C7  UNL     1       1.432   8.195  12.922  1.00  0.00    -0.024 A 
HETATM   10  C8  UNL     1       1.883   9.588  12.539  1.00  0.00     0.022 A 
HETATM   11  C9  UNL     1       1.449   9.346  13.970  1.00  0.00    -0.027 A 
HETATM   12  C10 UNL     1       2.626   9.576  14.950  1.00  0.00     0.011 C 
HETATM   13  C11 UNL     1       2.296   9.575  16.450  1.00  0.00     0.011 C 
HETATM   14  C12 UNL     1       1.056  10.423  16.756  1.00  0.00    -0.032 C 
HETATM   15  C13 UNL     1       1.373  11.901  16.401  1.00  0.00     0.016 C 
HETATM   16  C14 UNL     1       0.496  10.342  18.211  1.00  0.00    -0.002 C 
HETATM   17  C23 UNL     1      -1.020  10.649  18.033  1.00  0.00     0.006 C 
HETATM   18  C24 UNL     1      -1.335  10.543  16.530  1.00  0.00     0.011 C 
HETATM   19  C25 UNL     1      -0.134   9.799  15.924  1.00  0.00    -0.032 C 
HETATM   20  C26 UNL     1      -0.357   8.268  16.191  1.00  0.00     0.016 C 
HETATM   21  C27 UNL     1       0.102  10.010  14.392  1.00  0.00     0.004 C 
HETATM   22  C28 UNL     1      -1.155   9.645  13.561  1.00  0.00     0.007 C 
HETATM   23  C29 UNL     1      -0.947   8.845  12.285  1.00  0.00     0.010 C 
HETATM   24  C30 UNL     1       0.039   7.693  12.506  1.00  0.00     0.025 C 
ENDROOT
BRANCH  16  25
HETATM   25  C15 UNL     1       1.140  11.083  19.421  1.00  0.00    -0.007 C 
HETATM   26  C16 UNL     1       0.490  12.399  19.875  1.00  0.00     0.011 C 
BRANCH  25  27
HETATM   27  C17 UNL     1       2.656  11.285  19.227  1.00  0.00     0.087 C 
BRANCH  27  28
HETATM   28  C18 UNL     1       3.474  10.542  20.272  1.00  0.00     0.149 C 
HETATM   29  O3  UNL     1       4.674  10.745  20.434  1.00  0.00    -0.293 OA
BRANCH  28  30
HETATM   30  C19 UNL     1       2.728   9.573  21.129  1.00  0.00     0.052 C 
HETATM   31  C20 UNL     1       2.992   9.334  22.428  1.00  0.00    -0.084 C 
HETATM   32  C21 UNL     1       4.104   9.970  23.223  1.00  0.00     0.043 C 
HETATM   33  C22 UNL     1       2.160   8.348  23.206  1.00  0.00     0.043 C 
ENDBRANCH  28  30
ENDBRANCH  27  28
ENDBRANCH  25  27
ENDBRANCH  16  25
TORSDOF 4
ENDMDL
MODEL 7
REMARK minimizedAffinity -6.53160191
REMARK CNNscore 0.276403517
REMARK CNNaffinity 6.41428328
REMARK  4 active torsions:
REMARK  status: ('A' for Active; 'I' for Inactive)
REMARK    1  A    between atoms: C14_16  and  C15_17 
REMARK    2  A    between atoms: C15_17  and  C17_19 
REMARK    3  A    between atoms: C17_19  and  C18_20 
REMARK    4  A    between atoms: C18_20  and  C19_22 
ROOT
HETATM    1  C1  UNL     1      -4.635   3.775   9.727  1.00  0.00     0.017 C 
HETATM    2  C2  UNL     1      -4.590   3.592  11.062  1.00  0.00    -0.060 C 
HETATM    3  C3  UNL     1      -5.197   2.351  11.675  1.00  0.00     0.212 C 
HETATM    4  O1  UNL     1      -5.916   2.533  12.907  1.00  0.00    -0.317 OA
HETATM    5  C4  UNL     1      -7.027   3.300  13.018  1.00  0.00     0.259 C 
HETATM    6  O2  UNL     1      -7.879   3.061  13.869  1.00  0.00    -0.265 OA
HETATM    7  C5  UNL     1      -7.127   4.509  12.130  1.00  0.00     0.112 C 
HETATM    8  C6  UNL     1      -6.214   5.652  12.584  1.00  0.00     0.020 C 
HETATM    9  C7  UNL     1      -4.809   5.253  13.050  1.00  0.00    -0.024 A 
HETATM   10  C8  UNL     1      -4.674   4.790  14.484  1.00  0.00     0.022 A 
HETATM   11  C9  UNL     1      -4.062   6.122  14.105  1.00  0.00    -0.027 A 
HETATM   12  C10 UNL     1      -4.742   7.281  14.875  1.00  0.00     0.011 C 
HETATM   13  C11 UNL     1      -4.097   8.670  14.758  1.00  0.00     0.011 C 
HETATM   14  C12 UNL     1      -2.576   8.604  14.946  1.00  0.00    -0.032 C 
HETATM   15  C13 UNL     1      -2.282   8.129  16.395  1.00  0.00     0.016 C 
HETATM   16  C14 UNL     1      -1.779   9.913  14.651  1.00  0.00    -0.002 C 
HETATM   17  C23 UNL     1      -0.376   9.392  14.221  1.00  0.00     0.006 C 
HETATM   18  C24 UNL     1      -0.512   7.884  13.946  1.00  0.00     0.011 C 
HETATM   19  C25 UNL     1      -2.025   7.637  13.824  1.00  0.00    -0.032 C 
HETATM   20  C26 UNL     1      -2.444   8.052  12.369  1.00  0.00     0.016 C 
HETATM   21  C27 UNL     1      -2.503   6.171  14.083  1.00  0.00     0.004 C 
HETATM   22  C28 UNL     1      -1.778   5.158  13.160  1.00  0.00     0.007 C 
HETATM   23  C29 UNL     1      -2.618   4.067  12.515  1.00  0.00     0.010 C 
HETATM   24  C30 UNL     1      -3.927   4.633  11.953  1.00  0.00     0.025 C 
ENDROOT
BRANCH  16  25
HETATM   25  C15 UNL     1      -1.716  11.120  15.634  1.00  0.00    -0.007 C 
HETATM   26  C16 UNL     1      -0.629  11.097  16.719  1.00  0.00     0.011 C 
BRANCH  25  27
HETATM   27  C17 UNL     1      -3.089  11.409  16.272  1.00  0.00     0.087 C 
BRANCH  27  28
HETATM   28  C18 UNL     1      -3.172  12.813  16.851  1.00  0.00     0.149 C 
HETATM   29  O3  UNL     1      -2.920  13.814  16.185  1.00  0.00    -0.293 OA
BRANCH  28  30
HETATM   30  C19 UNL     1      -3.618  12.918  18.272  1.00  0.00     0.052 C 
HETATM   31  C20 UNL     1      -4.766  13.494  18.676  1.00  0.00    -0.084 C 
HETATM   32  C21 UNL     1      -5.770  14.163  17.773  1.00  0.00     0.043 C 
HETATM   33  C22 UNL     1      -5.130  13.524  20.138  1.00  0.00     0.043 C 
ENDBRANCH  28  30
ENDBRANCH  27  28
ENDBRANCH  25  27
ENDBRANCH  16  25
TORSDOF 4
ENDMDL
MODEL 8
REMARK minimizedAffinity -5.87988901
REMARK CNNscore 0.264699429
REMARK CNNaffinity 5.5152812
REMARK  4 active torsions:
REMARK  status: ('A' for Active; 'I' for Inactive)
REMARK    1  A    between atoms: C14_16  and  C15_17 
REMARK    2  A    between atoms: C15_17  and  C17_19 
REMARK    3  A    between atoms: C17_19  and  C18_20 
REMARK    4  A    between atoms: C18_20  and  C19_22 
ROOT
HETATM    1  C1  UNL     1     -16.667  -5.909   6.874  1.00  0.00     0.017 C 
HETATM    2  C2  UNL     1     -15.570  -6.087   7.637  1.00  0.00    -0.060 C 
HETATM    3  C3  UNL     1     -14.530  -7.110   7.238  1.00  0.00     0.212 C 
HETATM    4  O1  UNL     1     -13.959  -7.889   8.304  1.00  0.00    -0.317 OA
HETATM    5  C4  UNL     1     -14.680  -8.723   9.090  1.00  0.00     0.259 C 
HETATM    6  O2  UNL     1     -14.163  -9.706   9.612  1.00  0.00    -0.265 OA
HETATM    7  C5  UNL     1     -16.107  -8.345   9.379  1.00  0.00     0.112 C 
HETATM    8  C6  UNL     1     -16.220  -7.194  10.385  1.00  0.00     0.020 C 
HETATM    9  C7  UNL     1     -15.222  -6.043  10.213  1.00  0.00    -0.024 A 
HETATM   10  C8  UNL     1     -13.853  -6.233  10.828  1.00  0.00     0.022 A 
HETATM   11  C9  UNL     1     -14.778  -5.207  11.450  1.00  0.00    -0.027 A 
HETATM   12  C10 UNL     1     -15.138  -5.599  12.904  1.00  0.00     0.011 C 
HETATM   13  C11 UNL     1     -15.898  -4.557  13.740  1.00  0.00     0.011 C 
HETATM   14  C12 UNL     1     -15.275  -3.162  13.605  1.00  0.00    -0.032 C 
HETATM   15  C13 UNL     1     -13.841  -3.207  14.199  1.00  0.00     0.016 C 
HETATM   16  C14 UNL     1     -16.070  -1.978  14.241  1.00  0.00    -0.002 C 
HETATM   17  C23 UNL     1     -15.648  -0.754  13.376  1.00  0.00     0.006 C 
HETATM   18  C24 UNL     1     -14.950  -1.301  12.118  1.00  0.00     0.011 C 
HETATM   19  C25 UNL     1     -15.328  -2.791  12.070  1.00  0.00    -0.032 C 
HETATM   20  C26 UNL     1     -16.766  -2.883  11.446  1.00  0.00     0.016 C 
HETATM   21  C27 UNL     1     -14.368  -3.716  11.252  1.00  0.00     0.004 C 
HETATM   22  C28 UNL     1     -14.196  -3.219   9.793  1.00  0.00     0.007 C 
HETATM   23  C29 UNL     1     -14.233  -4.261   8.686  1.00  0.00     0.010 C 
HETATM   24  C30 UNL     1     -15.376  -5.259   8.899  1.00  0.00     0.025 C 
ENDROOT
BRANCH  16  25
HETATM   25  C15 UNL     1     -16.088  -1.680  15.770  1.00  0.00    -0.007 C 
HETATM   26  C16 UNL     1     -16.572  -2.797  16.706  1.00  0.00     0.011 C 
BRANCH  25  27
HETATM   27  C17 UNL     1     -16.832  -0.368  16.087  1.00  0.00     0.087 C 
BRANCH  27  28
HETATM   28  C18 UNL     1     -15.893   0.722  16.580  1.00  0.00     0.149 C 
HETATM   29  O3  UNL     1     -15.337   0.666  17.674  1.00  0.00    -0.293 OA
BRANCH  28  30
HETATM   30  C19 UNL     1     -15.646   1.857  15.642  1.00  0.00     0.052 C 
HETATM   31  C20 UNL     1     -16.320   3.023  15.651  1.00  0.00    -0.084 C 
HETATM   32  C21 UNL     1     -17.459   3.364  16.579  1.00  0.00     0.043 C 
HETATM   33  C22 UNL     1     -15.973   4.112  14.670  1.00  0.00     0.043 C 
ENDBRANCH  28  30
ENDBRANCH  27  28
ENDBRANCH  25  27
ENDBRANCH  16  25
TORSDOF 4
ENDMDL
MODEL 9
REMARK minimizedAffinity -6.54281473
REMARK CNNscore 0.230471507
REMARK CNNaffinity 6.05606604
REMARK  4 active torsions:
REMARK  status: ('A' for Active; 'I' for Inactive)
REMARK    1  A    between atoms: C14_16  and  C15_17 
REMARK    2  A    between atoms: C15_17  and  C17_19 
REMARK    3  A    between atoms: C17_19  and  C18_20 
REMARK    4  A    between atoms: C18_20  and  C19_22 
ROOT
HETATM    1  C1  UNL     1       2.720   8.602  11.962  1.00  0.00     0.017 C 
HETATM    2  C2  UNL     1       1.891   7.851  12.715  1.00  0.00    -0.060 C 
HETATM    3  C3  UNL     1       1.842   6.353  12.517  1.00  0.00     0.212 C 
HETATM    4  O1  UNL     1       0.539   5.744  12.574  1.00  0.00    -0.317 OA
HETATM    5  C4  UNL     1      -0.459   6.032  11.707  1.00  0.00     0.259 C 
HETATM    6  O2  UNL     1      -1.327   5.204  11.442  1.00  0.00    -0.265 OA
HETATM    7  C5  UNL     1      -0.522   7.431  11.159  1.00  0.00     0.112 C 
HETATM    8  C6  UNL     1      -1.035   8.444  12.188  1.00  0.00     0.020 C 
HETATM    9  C7  UNL     1      -0.507   8.286  13.618  1.00  0.00    -0.024 A 
HETATM   10  C8  UNL     1      -1.215   7.277  14.496  1.00  0.00     0.022 A 
HETATM   11  C9  UNL     1      -1.377   8.747  14.825  1.00  0.00    -0.027 A 
HETATM   12  C10 UNL     1      -2.855   9.186  14.678  1.00  0.00     0.011 C 
HETATM   13  C11 UNL     1      -3.219  10.592  15.177  1.00  0.00     0.011 C 
HETATM   14  C12 UNL     1      -2.618  10.874  16.559  1.00  0.00    -0.032 C 
HETATM   15  C13 UNL     1      -3.257   9.893  17.580  1.00  0.00     0.016 C 
HETATM   16  C14 UNL     1      -2.742  12.337  17.089  1.00  0.00    -0.002 C 
HETATM   17  C23 UNL     1      -1.514  12.485  18.035  1.00  0.00     0.006 C 
HETATM   18  C24 UNL     1      -0.576  11.297  17.755  1.00  0.00     0.011 C 
HETATM   19  C25 UNL     1      -1.052  10.723  16.410  1.00  0.00    -0.032 C 
HETATM   20  C26 UNL     1      -0.434  11.621  15.280  1.00  0.00     0.016 C 
HETATM   21  C27 UNL     1      -0.672   9.233  16.128  1.00  0.00     0.004 C 
HETATM   22  C28 UNL     1       0.857   9.000  16.232  1.00  0.00     0.007 C 
HETATM   23  C29 UNL     1       1.512   8.138  15.164  1.00  0.00     0.010 C 
HETATM   24  C30 UNL     1       1.007   8.508  13.765  1.00  0.00     0.025 C 
ENDROOT
BRANCH  16  25
HETATM   25  C15 UNL     1      -4.057  12.926  17.684  1.00  0.00    -0.007 C 
HETATM   26  C16 UNL     1      -4.513  14.301  17.174  1.00  0.00     0.011 C 
BRANCH  25  27
HETATM   27  C17 UNL     1      -4.041  12.916  19.226  1.00  0.00     0.087 C 
BRANCH  27  28
HETATM   28  C18 UNL     1      -4.846  14.063  19.818  1.00  0.00     0.149 C 
HETATM   29  O3  UNL     1      -4.350  15.161  20.055  1.00  0.00    -0.293 OA
BRANCH  28  30
HETATM   30  C19 UNL     1      -6.295  13.796  20.060  1.00  0.00     0.052 C 
HETATM   31  C20 UNL     1      -6.822  13.433  21.245  1.00  0.00    -0.084 C 
HETATM   32  C21 UNL     1      -6.038  13.194  22.510  1.00  0.00     0.043 C 
HETATM   33  C22 UNL     1      -8.306  13.211  21.383  1.00  0.00     0.043 C 
ENDBRANCH  28  30
ENDBRANCH  27  28
ENDBRANCH  25  27
ENDBRANCH  16  25
TORSDOF 4
ENDMDL
