MODEL 1
REMARK minimizedAffinity -8.60075188
REMARK  11 active torsions:
REMARK  status: ('A' for Active; 'I' for Inactive)
REMARK    1  A    between atoms: C2_2  and  C3_3 
REMARK    2  A    between atoms: C2_2  and  C4_5 
REMARK    3  A    between atoms: C3_3  and  O1_4 
REMARK    4  A    between atoms: C13_14  and  C14_15 
REMARK    5  A    between atoms: C14_15  and  C16_17 
REMARK    6  A    between atoms: C16_17  and  C17_18 
REMARK    7  A    between atoms: C17_18  and  C18_19 
REMARK    8  A    between atoms: C27_28  and  C28_29 
REMARK    9  A    between atoms: C28_29  and  C29_30 
REMARK   10  A    between atoms: C29_30  and  C30_31 
REMARK   11  A    between atoms: C30_31  and  O3_33 
ROOT
HETATM    1  C4  UNL     1       0.260  51.714 -21.178  1.00  0.00     0.025 C 
HETATM    2  C5  UNL     1       0.517  50.281 -20.678  1.00  0.00     0.010 C 
HETATM    3  C6  UNL     1      -0.624  49.276 -20.850  1.00  0.00     0.007 C 
HETATM    4  C7  UNL     1      -1.986  49.834 -21.311  1.00  0.00     0.004 C 
HETATM    5  C8  UNL     1      -1.794  50.719 -22.563  1.00  0.00    -0.027 A 
HETATM    6  C9  UNL     1      -2.306  50.126 -23.875  1.00  0.00     0.011 C 
HETATM    7  C10 UNL     1      -3.741  49.545 -23.819  1.00  0.00     0.011 C 
HETATM    8  C11 UNL     1      -4.254  49.266 -22.396  1.00  0.00    -0.032 C 
HETATM    9  C12 UNL     1      -4.887  50.569 -21.838  1.00  0.00     0.016 C 
HETATM   10  C13 UNL     1      -5.294  48.108 -22.264  1.00  0.00    -0.002 C 
HETATM   11  C22 UNL     1      -5.153  47.679 -20.779  1.00  0.00     0.006 C 
HETATM   12  C23 UNL     1      -3.800  48.236 -20.275  1.00  0.00     0.011 C 
HETATM   13  C24 UNL     1      -3.058  48.707 -21.542  1.00  0.00    -0.032 C 
HETATM   14  C25 UNL     1      -2.396  47.415 -22.141  1.00  0.00     0.016 C 
HETATM   15  C26 UNL     1      -1.962  52.224 -22.467  1.00  0.00     0.022 A 
HETATM   16  C27 UNL     1      -0.560  51.672 -22.496  1.00  0.00    -0.024 A 
ENDROOT
BRANCH  10  17
HETATM   17  C14 UNL     1      -6.744  48.297 -22.813  1.00  0.00    -0.014 C 
HETATM   18  C15 UNL     1      -7.131  49.782 -22.669  1.00  0.00     0.010 C 
BRANCH  17  19
HETATM   19  C16 UNL     1      -6.984  47.841 -24.274  1.00  0.00     0.008 C 
BRANCH  19  20
HETATM   20  C17 UNL     1      -5.794  48.022 -25.237  1.00  0.00     0.028 C 
BRANCH  20  21
HETATM   21  C18 UNL     1      -6.146  47.801 -26.683  1.00  0.00    -0.025 C 
HETATM   22  C19 UNL     1      -5.362  47.984 -27.766  1.00  0.00    -0.091 C 
HETATM   23  C20 UNL     1      -5.901  47.717 -29.150  1.00  0.00     0.042 C 
HETATM   24  C21 UNL     1      -3.929  48.442 -27.750  1.00  0.00     0.042 C 
ENDBRANCH  20  21
ENDBRANCH  19  20
ENDBRANCH  17  19
ENDBRANCH  10  17
BRANCH  16  25
HETATM   25  C28 UNL     1       0.284  51.856 -23.755  1.00  0.00     0.021 C 
BRANCH  25  26
HETATM   26  C29 UNL     1       0.634  53.319 -24.030  1.00  0.00     0.111 C 
BRANCH  26  27
HETATM   27  C30 UNL     1      -0.141  53.850 -25.203  1.00  0.00     0.139 C 
HETATM   28  O2  UNL     1      -1.046  53.305 -25.812  1.00  0.00    -0.650 OA
BRANCH  27  29
HETATM   29  O3  UNL     1       0.279  55.080 -25.567  1.00  0.00    -0.776 OA
HETATM   30  H48 UNL     1      -0.285  55.296 -26.338  1.00  0.00     0.167 HD
ENDBRANCH  27  29
ENDBRANCH  26  27
ENDBRANCH  25  26
ENDBRANCH  16  25
BRANCH   1  31
HETATM   31  C2  UNL     1      -0.187  52.704 -20.087  1.00  0.00    -0.061 C 
HETATM   32  C1  UNL     1      -0.928  52.369 -19.013  1.00  0.00     0.017 C 
BRANCH  31  33
HETATM   33  C3  UNL     1       0.341  54.114 -20.210  1.00  0.00     0.198 C 
BRANCH  33  34
HETATM   34  O1  UNL     1       1.743  54.125 -20.010  1.00  0.00    -0.397 OA
HETATM   35  H5  UNL     1       2.032  55.049 -20.095  1.00  0.00     0.209 HD
ENDBRANCH  33  34
ENDBRANCH  31  33
ENDBRANCH   1  31
TORSDOF 11
ENDMDL
MODEL 2
REMARK minimizedAffinity -8.40292645
REMARK  11 active torsions:
REMARK  status: ('A' for Active; 'I' for Inactive)
REMARK    1  A    between atoms: C2_2  and  C3_3 
REMARK    2  A    between atoms: C2_2  and  C4_5 
REMARK    3  A    between atoms: C3_3  and  O1_4 
REMARK    4  A    between atoms: C13_14  and  C14_15 
REMARK    5  A    between atoms: C14_15  and  C16_17 
REMARK    6  A    between atoms: C16_17  and  C17_18 
REMARK    7  A    between atoms: C17_18  and  C18_19 
REMARK    8  A    between atoms: C27_28  and  C28_29 
REMARK    9  A    between atoms: C28_29  and  C29_30 
REMARK   10  A    between atoms: C29_30  and  C30_31 
REMARK   11  A    between atoms: C30_31  and  O3_33 
ROOT
HETATM    1  C4  UNL     1      -1.479  50.943 -18.618  1.00  0.00     0.025 C 
HETATM    2  C5  UNL     1      -2.894  51.538 -18.740  1.00  0.00     0.010 C 
HETATM    3  C6  UNL     1      -3.543  51.494 -20.124  1.00  0.00     0.007 C 
HETATM    4  C7  UNL     1      -2.651  51.055 -21.304  1.00  0.00     0.004 C 
HETATM    5  C8  UNL     1      -1.932  49.732 -20.954  1.00  0.00    -0.027 A 
HETATM    6  C9  UNL     1      -2.434  48.493 -21.694  1.00  0.00     0.011 C 
HETATM    7  C10 UNL     1      -2.580  48.658 -23.228  1.00  0.00     0.011 C 
HETATM    8  C11 UNL     1      -2.617  50.120 -23.705  1.00  0.00    -0.032 C 
HETATM    9  C12 UNL     1      -1.158  50.606 -23.912  1.00  0.00     0.016 C 
HETATM   10  C13 UNL     1      -3.424  50.386 -25.016  1.00  0.00    -0.002 C 
HETATM   11  C22 UNL     1      -3.786  51.890 -24.905  1.00  0.00     0.006 C 
HETATM   12  C23 UNL     1      -3.606  52.290 -23.421  1.00  0.00     0.011 C 
HETATM   13  C24 UNL     1      -3.440  50.958 -22.660  1.00  0.00    -0.032 C 
HETATM   14  C25 UNL     1      -4.900  50.429 -22.425  1.00  0.00     0.016 C 
HETATM   15  C26 UNL     1      -0.439  49.722 -20.688  1.00  0.00     0.022 A 
HETATM   16  C27 UNL     1      -1.365  49.671 -19.501  1.00  0.00    -0.024 A 
ENDROOT
BRANCH  10  17
HETATM   17  C14 UNL     1      -2.865  49.890 -26.388  1.00  0.00    -0.014 C 
HETATM   18  C15 UNL     1      -3.588  48.584 -26.767  1.00  0.00     0.010 C 
BRANCH  17  19
HETATM   19  C16 UNL     1      -2.963  50.894 -27.565  1.00  0.00     0.008 C 
BRANCH  19  20
HETATM   20  C17 UNL     1      -1.959  52.063 -27.535  1.00  0.00     0.028 C 
BRANCH  20  21
HETATM   21  C18 UNL     1      -0.523  51.627 -27.439  1.00  0.00    -0.025 C 
HETATM   22  C19 UNL     1       0.462  52.170 -26.694  1.00  0.00    -0.091 C 
HETATM   23  C20 UNL     1       1.856  51.595 -26.737  1.00  0.00     0.042 C 
HETATM   24  C21 UNL     1       0.319  53.345 -25.765  1.00  0.00     0.042 C 
ENDBRANCH  20  21
ENDBRANCH  19  20
ENDBRANCH  17  19
ENDBRANCH  10  17
BRANCH  16  25
HETATM   25  C28 UNL     1      -1.503  48.365 -18.722  1.00  0.00     0.021 C 
BRANCH  25  26
HETATM   26  C29 UNL     1      -2.283  48.527 -17.417  1.00  0.00     0.111 C 
BRANCH  26  27
HETATM   27  C30 UNL     1      -1.392  48.329 -16.224  1.00  0.00     0.139 C 
HETATM   28  O2  UNL     1      -0.682  49.153 -15.673  1.00  0.00    -0.650 OA
BRANCH  27  29
HETATM   29  O3  UNL     1      -1.434  47.058 -15.771  1.00  0.00    -0.776 OA
HETATM   30  H48 UNL     1      -0.807  47.062 -15.019  1.00  0.00     0.167 HD
ENDBRANCH  27  29
ENDBRANCH  26  27
ENDBRANCH  25  26
ENDBRANCH  16  25
BRANCH   1  31
HETATM   31  C2  UNL     1      -0.340  51.976 -18.700  1.00  0.00    -0.061 C 
HETATM   32  C1  UNL     1      -0.286  52.981 -19.595  1.00  0.00     0.017 C 
BRANCH  31  33
HETATM   33  C3  UNL     1       0.719  51.885 -17.626  1.00  0.00     0.198 C 
BRANCH  33  34
HETATM   34  O1  UNL     1       1.506  53.062 -17.620  1.00  0.00    -0.397 OA
HETATM   35  H5  UNL     1       2.170  52.953 -16.919  1.00  0.00     0.209 HD
ENDBRANCH  33  34
ENDBRANCH  31  33
ENDBRANCH   1  31
TORSDOF 11
ENDMDL
MODEL 3
REMARK minimizedAffinity -8.22092438
REMARK  11 active torsions:
REMARK  status: ('A' for Active; 'I' for Inactive)
REMARK    1  A    between atoms: C2_2  and  C3_3 
REMARK    2  A    between atoms: C2_2  and  C4_5 
REMARK    3  A    between atoms: C3_3  and  O1_4 
REMARK    4  A    between atoms: C13_14  and  C14_15 
REMARK    5  A    between atoms: C14_15  and  C16_17 
REMARK    6  A    between atoms: C16_17  and  C17_18 
REMARK    7  A    between atoms: C17_18  and  C18_19 
REMARK    8  A    between atoms: C27_28  and  C28_29 
REMARK    9  A    between atoms: C28_29  and  C29_30 
REMARK   10  A    between atoms: C29_30  and  C30_31 
REMARK   11  A    between atoms: C30_31  and  O3_33 
ROOT
HETATM    1  C4  UNL     1      -2.821  51.779 -25.798  1.00  0.00     0.025 C 
HETATM    2  C5  UNL     1      -4.159  52.264 -25.208  1.00  0.00     0.010 C 
HETATM    3  C6  UNL     1      -4.459  51.866 -23.762  1.00  0.00     0.007 C 
HETATM    4  C7  UNL     1      -3.504  50.851 -23.101  1.00  0.00     0.004 C 
HETATM    5  C8  UNL     1      -2.040  51.310 -23.288  1.00  0.00    -0.027 A 
HETATM    6  C9  UNL     1      -1.345  51.828 -22.030  1.00  0.00     0.011 C 
HETATM    7  C10 UNL     1      -1.489  50.924 -20.779  1.00  0.00     0.011 C 
HETATM    8  C11 UNL     1      -2.634  49.900 -20.869  1.00  0.00    -0.032 C 
HETATM    9  C12 UNL     1      -2.098  48.628 -21.580  1.00  0.00     0.016 C 
HETATM   10  C13 UNL     1      -3.278  49.480 -19.510  1.00  0.00    -0.002 C 
HETATM   11  C22 UNL     1      -4.685  48.981 -19.929  1.00  0.00     0.006 C 
HETATM   12  C23 UNL     1      -4.959  49.539 -21.346  1.00  0.00     0.011 C 
HETATM   13  C24 UNL     1      -3.851  50.584 -21.591  1.00  0.00    -0.032 C 
HETATM   14  C25 UNL     1      -4.354  51.895 -20.889  1.00  0.00     0.016 C 
HETATM   15  C26 UNL     1      -1.119  50.556 -24.228  1.00  0.00     0.022 A 
HETATM   16  C27 UNL     1      -1.712  51.853 -24.714  1.00  0.00    -0.024 A 
ENDROOT
BRANCH  10  17
HETATM   17  C14 UNL     1      -2.476  48.585 -18.512  1.00  0.00    -0.014 C 
HETATM   18  C15 UNL     1      -2.748  47.107 -18.853  1.00  0.00     0.010 C 
BRANCH  17  19
HETATM   19  C16 UNL     1      -0.946  48.828 -18.457  1.00  0.00     0.008 C 
BRANCH  19  20
HETATM   20  C17 UNL     1      -0.401  49.380 -17.125  1.00  0.00     0.028 C 
BRANCH  20  21
HETATM   21  C18 UNL     1       0.427  50.626 -17.279  1.00  0.00    -0.025 C 
HETATM   22  C19 UNL     1       1.175  51.247 -16.344  1.00  0.00    -0.091 C 
HETATM   23  C20 UNL     1       1.936  52.504 -16.688  1.00  0.00     0.042 C 
HETATM   24  C21 UNL     1       1.355  50.799 -14.919  1.00  0.00     0.042 C 
ENDBRANCH  20  21
ENDBRANCH  19  20
ENDBRANCH  17  19
ENDBRANCH  10  17
BRANCH  16  25
HETATM   25  C28 UNL     1      -0.813  53.081 -24.834  1.00  0.00     0.021 C 
BRANCH  25  26
HETATM   26  C29 UNL     1       0.207  52.967 -25.967  1.00  0.00     0.111 C 
BRANCH  26  27
HETATM   27  C30 UNL     1      -0.139  53.888 -27.103  1.00  0.00     0.139 C 
HETATM   28  O2  UNL     1      -0.152  55.107 -27.102  1.00  0.00    -0.650 OA
BRANCH  27  29
HETATM   29  O3  UNL     1      -0.469  53.206 -28.220  1.00  0.00    -0.776 OA
HETATM   30  H48 UNL     1      -0.686  53.912 -28.864  1.00  0.00     0.167 HD
ENDBRANCH  27  29
ENDBRANCH  26  27
ENDBRANCH  25  26
ENDBRANCH  16  25
BRANCH   1  31
HETATM   31  C2  UNL     1      -2.919  50.491 -26.636  1.00  0.00    -0.061 C 
HETATM   32  C1  UNL     1      -3.025  49.252 -26.119  1.00  0.00     0.017 C 
BRANCH  31  33
HETATM   33  C3  UNL     1      -2.999  50.676 -28.133  1.00  0.00     0.198 C 
BRANCH  33  34
HETATM   34  O1  UNL     1      -3.894  49.732 -28.692  1.00  0.00    -0.397 OA
HETATM   35  H5  UNL     1      -3.907  49.889 -29.650  1.00  0.00     0.209 HD
ENDBRANCH  33  34
ENDBRANCH  31  33
ENDBRANCH   1  31
TORSDOF 11
ENDMDL
MODEL 4
REMARK minimizedAffinity -8.06952763
REMARK  11 active torsions:
REMARK  status: ('A' for Active; 'I' for Inactive)
REMARK    1  A    between atoms: C2_2  and  C3_3 
REMARK    2  A    between atoms: C2_2  and  C4_5 
REMARK    3  A    between atoms: C3_3  and  O1_4 
REMARK    4  A    between atoms: C13_14  and  C14_15 
REMARK    5  A    between atoms: C14_15  and  C16_17 
REMARK    6  A    between atoms: C16_17  and  C17_18 
REMARK    7  A    between atoms: C17_18  and  C18_19 
REMARK    8  A    between atoms: C27_28  and  C28_29 
REMARK    9  A    between atoms: C28_29  and  C29_30 
REMARK   10  A    between atoms: C29_30  and  C30_31 
REMARK   11  A    between atoms: C30_31  and  O3_33 
ROOT
HETATM    1  C4  UNL     1      -6.693  47.353 -22.798  1.00  0.00     0.025 C 
HETATM    2  C5  UNL     1      -6.386  47.462 -24.303  1.00  0.00     0.010 C 
HETATM    3  C6  UNL     1      -5.197  48.338 -24.702  1.00  0.00     0.007 C 
HETATM    4  C7  UNL     1      -4.550  49.191 -23.590  1.00  0.00     0.004 C 
HETATM    5  C8  UNL     1      -4.237  48.304 -22.364  1.00  0.00    -0.027 A 
HETATM    6  C9  UNL     1      -2.757  48.008 -22.125  1.00  0.00     0.011 C 
HETATM    7  C10 UNL     1      -1.823  49.243 -22.171  1.00  0.00     0.011 C 
HETATM    8  C11 UNL     1      -2.438  50.475 -22.859  1.00  0.00    -0.032 C 
HETATM    9  C12 UNL     1      -3.247  51.274 -21.803  1.00  0.00     0.016 C 
HETATM   10  C13 UNL     1      -1.426  51.442 -23.552  1.00  0.00    -0.002 C 
HETATM   11  C22 UNL     1      -2.303  52.170 -24.604  1.00  0.00     0.006 C 
HETATM   12  C23 UNL     1      -3.580  51.318 -24.795  1.00  0.00     0.011 C 
HETATM   13  C24 UNL     1      -3.284  49.979 -24.088  1.00  0.00    -0.032 C 
HETATM   14  C25 UNL     1      -2.466  49.133 -25.127  1.00  0.00     0.016 C 
HETATM   15  C26 UNL     1      -5.043  48.454 -21.088  1.00  0.00     0.022 A 
HETATM   16  C27 UNL     1      -5.367  47.294 -21.993  1.00  0.00    -0.024 A 
ENDROOT
BRANCH  10  17
HETATM   17  C14 UNL     1      -0.477  52.328 -22.683  1.00  0.00    -0.014 C 
HETATM   18  C15 UNL     1       0.098  51.460 -21.547  1.00  0.00     0.010 C 
BRANCH  17  19
HETATM   19  C16 UNL     1       0.684  53.025 -23.438  1.00  0.00     0.008 C 
BRANCH  19  20
HETATM   20  C17 UNL     1       0.357  53.523 -24.859  1.00  0.00     0.028 C 
BRANCH  20  21
HETATM   21  C18 UNL     1       0.914  52.651 -25.950  1.00  0.00    -0.025 C 
HETATM   22  C19 UNL     1       0.612  52.670 -27.265  1.00  0.00    -0.091 C 
HETATM   23  C20 UNL     1       1.274  51.701 -28.213  1.00  0.00     0.042 C 
HETATM   24  C21 UNL     1      -0.357  53.608 -27.933  1.00  0.00     0.042 C 
ENDBRANCH  20  21
ENDBRANCH  19  20
ENDBRANCH  17  19
ENDBRANCH  10  17
BRANCH  16  25
HETATM   25  C28 UNL     1      -4.968  45.884 -21.564  1.00  0.00     0.021 C 
BRANCH  25  26
HETATM   26  C29 UNL     1      -6.128  45.094 -20.956  1.00  0.00     0.111 C 
BRANCH  26  27
HETATM   27  C30 UNL     1      -6.451  43.882 -21.783  1.00  0.00     0.139 C 
HETATM   28  O2  UNL     1      -7.130  43.824 -22.795  1.00  0.00    -0.650 OA
BRANCH  27  29
HETATM   29  O3  UNL     1      -5.891  42.764 -21.276  1.00  0.00    -0.776 OA
HETATM   30  H48 UNL     1      -6.191  42.060 -21.888  1.00  0.00     0.167 HD
ENDBRANCH  27  29
ENDBRANCH  26  27
ENDBRANCH  25  26
ENDBRANCH  16  25
BRANCH   1  31
HETATM   31  C2  UNL     1      -7.793  48.307 -22.297  1.00  0.00    -0.061 C 
HETATM   32  C1  UNL     1      -8.382  48.222 -21.088  1.00  0.00     0.017 C 
BRANCH  31  33
HETATM   33  C3  UNL     1      -8.138  49.462 -23.208  1.00  0.00     0.198 C 
BRANCH  33  34
HETATM   34  O1  UNL     1      -7.452  50.629 -22.793  1.00  0.00    -0.397 OA
HETATM   35  H5  UNL     1      -7.709  51.339 -23.405  1.00  0.00     0.209 HD
ENDBRANCH  33  34
ENDBRANCH  31  33
ENDBRANCH   1  31
TORSDOF 11
ENDMDL
MODEL 5
REMARK minimizedAffinity -7.95895195
REMARK  11 active torsions:
REMARK  status: ('A' for Active; 'I' for Inactive)
REMARK    1  A    between atoms: C2_2  and  C3_3 
REMARK    2  A    between atoms: C2_2  and  C4_5 
REMARK    3  A    between atoms: C3_3  and  O1_4 
REMARK    4  A    between atoms: C13_14  and  C14_15 
REMARK    5  A    between atoms: C14_15  and  C16_17 
REMARK    6  A    between atoms: C16_17  and  C17_18 
REMARK    7  A    between atoms: C17_18  and  C18_19 
REMARK    8  A    between atoms: C27_28  and  C28_29 
REMARK    9  A    between atoms: C28_29  and  C29_30 
REMARK   10  A    between atoms: C29_30  and  C30_31 
REMARK   11  A    between atoms: C30_31  and  O3_33 
ROOT
HETATM    1  C4  UNL     1      -0.973  52.310 -24.208  1.00  0.00     0.025 C 
HETATM    2  C5  UNL     1      -2.354  52.807 -24.673  1.00  0.00     0.010 C 
HETATM    3  C6  UNL     1      -3.561  51.955 -24.280  1.00  0.00     0.007 C 
HETATM    4  C7  UNL     1      -3.272  50.581 -23.640  1.00  0.00     0.004 C 
HETATM    5  C8  UNL     1      -2.269  50.746 -22.476  1.00  0.00    -0.027 A 
HETATM    6  C9  UNL     1      -2.851  50.569 -21.074  1.00  0.00     0.011 C 
HETATM    7  C10 UNL     1      -3.727  49.306 -20.879  1.00  0.00     0.011 C 
HETATM    8  C11 UNL     1      -4.222  48.673 -22.191  1.00  0.00    -0.032 C 
HETATM    9  C12 UNL     1      -3.134  47.694 -22.704  1.00  0.00     0.016 C 
HETATM   10  C13 UNL     1      -5.583  47.910 -22.105  1.00  0.00    -0.002 C 
HETATM   11  C22 UNL     1      -6.089  47.932 -23.572  1.00  0.00     0.006 C 
HETATM   12  C23 UNL     1      -5.298  49.042 -24.305  1.00  0.00     0.011 C 
HETATM   13  C24 UNL     1      -4.580  49.832 -23.192  1.00  0.00    -0.032 C 
HETATM   14  C25 UNL     1      -5.648  50.842 -22.643  1.00  0.00     0.016 C 
HETATM   15  C26 UNL     1      -0.848  50.234 -22.615  1.00  0.00     0.022 A 
HETATM   16  C27 UNL     1      -1.083  51.714 -22.778  1.00  0.00    -0.024 A 
ENDROOT
BRANCH  10  17
HETATM   17  C14 UNL     1      -5.664  46.547 -21.347  1.00  0.00    -0.014 C 
HETATM   18  C15 UNL     1      -4.915  46.686 -20.008  1.00  0.00     0.010 C 
BRANCH  17  19
HETATM   19  C16 UNL     1      -7.089  45.996 -21.087  1.00  0.00     0.008 C 
BRANCH  19  20
HETATM   20  C17 UNL     1      -8.217  47.045 -21.051  1.00  0.00     0.028 C 
BRANCH  20  21
HETATM   21  C18 UNL     1      -8.172  47.943 -19.845  1.00  0.00    -0.025 C 
HETATM   22  C19 UNL     1      -9.208  48.424 -19.127  1.00  0.00    -0.091 C 
HETATM   23  C20 UNL     1      -8.962  49.329 -17.945  1.00  0.00     0.042 C 
HETATM   24  C21 UNL     1     -10.664  48.138 -19.381  1.00  0.00     0.042 C 
ENDBRANCH  20  21
ENDBRANCH  19  20
ENDBRANCH  17  19
ENDBRANCH  10  17
BRANCH  16  25
HETATM   25  C28 UNL     1      -0.622  52.665 -21.676  1.00  0.00     0.021 C 
BRANCH  25  26
HETATM   26  C29 UNL     1       0.886  52.610 -21.431  1.00  0.00     0.111 C 
BRANCH  26  27
HETATM   27  C30 UNL     1       1.426  53.965 -21.072  1.00  0.00     0.139 C 
HETATM   28  O2  UNL     1       1.854  54.825 -21.823  1.00  0.00    -0.650 OA
BRANCH  27  29
HETATM   29  O3  UNL     1       1.408  54.175 -19.738  1.00  0.00    -0.776 OA
HETATM   30  H48 UNL     1       1.797  55.069 -19.642  1.00  0.00     0.167 HD
ENDBRANCH  27  29
ENDBRANCH  26  27
ENDBRANCH  25  26
ENDBRANCH  16  25
BRANCH   1  31
HETATM   31  C2  UNL     1      -0.192  51.504 -25.262  1.00  0.00    -0.061 C 
HETATM   32  C1  UNL     1      -0.751  50.624 -26.115  1.00  0.00     0.017 C 
BRANCH  31  33
HETATM   33  C3  UNL     1       1.280  51.821 -25.386  1.00  0.00     0.198 C 
BRANCH  33  34
HETATM   34  O1  UNL     1       1.482  52.804 -26.384  1.00  0.00    -0.397 OA
HETATM   35  H5  UNL     1       2.439  52.969 -26.428  1.00  0.00     0.209 HD
ENDBRANCH  33  34
ENDBRANCH  31  33
ENDBRANCH   1  31
TORSDOF 11
ENDMDL
MODEL 6
REMARK minimizedAffinity -7.95120144
REMARK  11 active torsions:
REMARK  status: ('A' for Active; 'I' for Inactive)
REMARK    1  A    between atoms: C2_2  and  C3_3 
REMARK    2  A    between atoms: C2_2  and  C4_5 
REMARK    3  A    between atoms: C3_3  and  O1_4 
REMARK    4  A    between atoms: C13_14  and  C14_15 
REMARK    5  A    between atoms: C14_15  and  C16_17 
REMARK    6  A    between atoms: C16_17  and  C17_18 
REMARK    7  A    between atoms: C17_18  and  C18_19 
REMARK    8  A    between atoms: C27_28  and  C28_29 
REMARK    9  A    between atoms: C28_29  and  C29_30 
REMARK   10  A    between atoms: C29_30  and  C30_31 
REMARK   11  A    between atoms: C30_31  and  O3_33 
ROOT
HETATM    1  C4  UNL     1      -1.969  52.123 -25.682  1.00  0.00     0.025 C 
HETATM    2  C5  UNL     1      -3.496  52.316 -25.643  1.00  0.00     0.010 C 
HETATM    3  C6  UNL     1      -4.269  51.494 -24.610  1.00  0.00     0.007 C 
HETATM    4  C7  UNL     1      -3.484  50.403 -23.852  1.00  0.00     0.004 C 
HETATM    5  C8  UNL     1      -2.184  51.003 -23.268  1.00  0.00    -0.027 A 
HETATM    6  C9  UNL     1      -2.165  51.183 -21.751  1.00  0.00     0.011 C 
HETATM    7  C10 UNL     1      -2.621  49.947 -20.936  1.00  0.00     0.011 C 
HETATM    8  C11 UNL     1      -3.415  48.911 -21.752  1.00  0.00    -0.032 C 
HETATM    9  C12 UNL     1      -2.407  47.944 -22.429  1.00  0.00     0.016 C 
HETATM   10  C13 UNL     1      -4.457  48.068 -20.949  1.00  0.00    -0.002 C 
HETATM   11  C22 UNL     1      -5.454  47.610 -22.045  1.00  0.00     0.006 C 
HETATM   12  C23 UNL     1      -5.239  48.534 -23.267  1.00  0.00     0.011 C 
HETATM   13  C24 UNL     1      -4.348  49.684 -22.753  1.00  0.00    -0.032 C 
HETATM   14  C25 UNL     1      -5.331  50.693 -22.061  1.00  0.00     0.016 C 
HETATM   15  C26 UNL     1      -0.838  50.625 -23.856  1.00  0.00     0.022 A 
HETATM   16  C27 UNL     1      -1.423  51.960 -24.238  1.00  0.00    -0.024 A 
ENDROOT
BRANCH  10  17
HETATM   17  C14 UNL     1      -3.966  46.983 -19.938  1.00  0.00    -0.014 C 
HETATM   18  C15 UNL     1      -3.761  45.660 -20.701  1.00  0.00     0.010 C 
BRANCH  17  19
HETATM   19  C16 UNL     1      -2.680  47.325 -19.143  1.00  0.00     0.008 C 
BRANCH  19  20
HETATM   20  C17 UNL     1      -2.853  48.328 -17.986  1.00  0.00     0.028 C 
BRANCH  20  21
HETATM   21  C18 UNL     1      -1.711  48.327 -17.007  1.00  0.00    -0.025 C 
HETATM   22  C19 UNL     1      -0.617  49.116 -17.006  1.00  0.00    -0.091 C 
HETATM   23  C20 UNL     1       0.436  48.958 -15.936  1.00  0.00     0.042 C 
HETATM   24  C21 UNL     1      -0.314  50.204 -18.000  1.00  0.00     0.042 C 
ENDBRANCH  20  21
ENDBRANCH  19  20
ENDBRANCH  17  19
ENDBRANCH  10  17
BRANCH  16  25
HETATM   25  C28 UNL     1      -0.804  53.233 -23.665  1.00  0.00     0.021 C 
BRANCH  25  26
HETATM   26  C29 UNL     1       0.572  53.545 -24.252  1.00  0.00     0.111 C 
BRANCH  26  27
HETATM   27  C30 UNL     1       0.538  54.799 -25.079  1.00  0.00     0.139 C 
HETATM   28  O2  UNL     1       0.076  54.946 -26.198  1.00  0.00    -0.650 OA
BRANCH  27  29
HETATM   29  O3  UNL     1       1.112  55.839 -24.438  1.00  0.00    -0.776 OA
HETATM   30  H48 UNL     1       1.040  56.573 -25.083  1.00  0.00     0.167 HD
ENDBRANCH  27  29
ENDBRANCH  26  27
ENDBRANCH  25  26
ENDBRANCH  16  25
BRANCH   1  31
HETATM   31  C2  UNL     1      -1.474  51.131 -26.751  1.00  0.00    -0.061 C 
HETATM   32  C1  UNL     1      -0.189  51.001 -27.132  1.00  0.00     0.017 C 
BRANCH  31  33
HETATM   33  C3  UNL     1      -2.511  50.189 -27.316  1.00  0.00     0.198 C 
BRANCH  33  34
HETATM   34  O1  UNL     1      -2.942  50.646 -28.585  1.00  0.00    -0.397 OA
HETATM   35  H5  UNL     1      -3.606  50.012 -28.902  1.00  0.00     0.209 HD
ENDBRANCH  33  34
ENDBRANCH  31  33
ENDBRANCH   1  31
TORSDOF 11
ENDMDL
MODEL 7
REMARK minimizedAffinity -7.95050097
REMARK  11 active torsions:
REMARK  status: ('A' for Active; 'I' for Inactive)
REMARK    1  A    between atoms: C2_2  and  C3_3 
REMARK    2  A    between atoms: C2_2  and  C4_5 
REMARK    3  A    between atoms: C3_3  and  O1_4 
REMARK    4  A    between atoms: C13_14  and  C14_15 
REMARK    5  A    between atoms: C14_15  and  C16_17 
REMARK    6  A    between atoms: C16_17  and  C17_18 
REMARK    7  A    between atoms: C17_18  and  C18_19 
REMARK    8  A    between atoms: C27_28  and  C28_29 
REMARK    9  A    between atoms: C28_29  and  C29_30 
REMARK   10  A    between atoms: C29_30  and  C30_31 
REMARK   11  A    between atoms: C30_31  and  O3_33 
ROOT
HETATM    1  C4  UNL     1       0.165  51.737 -21.305  1.00  0.00     0.025 C 
HETATM    2  C5  UNL     1       0.568  50.329 -20.830  1.00  0.00     0.010 C 
HETATM    3  C6  UNL     1      -0.502  49.239 -20.919  1.00  0.00     0.007 C 
HETATM    4  C7  UNL     1      -1.934  49.689 -21.276  1.00  0.00     0.004 C 
HETATM    5  C8  UNL     1      -1.904  50.584 -22.536  1.00  0.00    -0.027 A 
HETATM    6  C9  UNL     1      -2.465  49.949 -23.808  1.00  0.00     0.011 C 
HETATM    7  C10 UNL     1      -3.843  49.260 -23.648  1.00  0.00     0.011 C 
HETATM    8  C11 UNL     1      -4.226  48.946 -22.191  1.00  0.00    -0.032 C 
HETATM    9  C12 UNL     1      -4.914  50.197 -21.583  1.00  0.00     0.016 C 
HETATM   10  C13 UNL     1      -5.160  47.711 -21.985  1.00  0.00    -0.002 C 
HETATM   11  C22 UNL     1      -4.877  47.298 -20.517  1.00  0.00     0.006 C 
HETATM   12  C23 UNL     1      -3.537  47.959 -20.113  1.00  0.00     0.011 C 
HETATM   13  C24 UNL     1      -2.929  48.482 -21.431  1.00  0.00    -0.032 C 
HETATM   14  C25 UNL     1      -2.217  47.244 -22.081  1.00  0.00     0.016 C 
HETATM   15  C26 UNL     1      -2.180  52.071 -22.423  1.00  0.00     0.022 A 
HETATM   16  C27 UNL     1      -0.746  51.629 -22.558  1.00  0.00    -0.024 A 
ENDROOT
BRANCH  10  17
HETATM   17  C14 UNL     1      -6.658  47.787 -22.424  1.00  0.00    -0.014 C 
HETATM   18  C15 UNL     1      -7.188  49.200 -22.113  1.00  0.00     0.010 C 
BRANCH  17  19
HETATM   19  C16 UNL     1      -6.951  47.442 -23.906  1.00  0.00     0.008 C 
BRANCH  19  20
HETATM   20  C17 UNL     1      -7.875  46.231 -24.143  1.00  0.00     0.028 C 
BRANCH  20  21
HETATM   21  C18 UNL     1      -8.076  45.897 -25.596  1.00  0.00    -0.025 C 
HETATM   22  C19 UNL     1      -8.119  44.677 -26.170  1.00  0.00    -0.091 C 
HETATM   23  C20 UNL     1      -8.321  44.541 -27.659  1.00  0.00     0.042 C 
HETATM   24  C21 UNL     1      -7.991  43.360 -25.452  1.00  0.00     0.042 C 
ENDBRANCH  20  21
ENDBRANCH  19  20
ENDBRANCH  17  19
ENDBRANCH  10  17
BRANCH  16  25
HETATM   25  C28 UNL     1      -0.014  51.875 -23.876  1.00  0.00     0.021 C 
BRANCH  25  26
HETATM   26  C29 UNL     1      -0.680  52.947 -24.738  1.00  0.00     0.111 C 
BRANCH  26  27
HETATM   27  C30 UNL     1       0.246  54.105 -24.976  1.00  0.00     0.139 C 
HETATM   28  O2  UNL     1       0.212  54.918 -25.884  1.00  0.00    -0.650 OA
BRANCH  27  29
HETATM   29  O3  UNL     1       1.207  54.183 -24.031  1.00  0.00    -0.776 OA
HETATM   30  H48 UNL     1       1.742  54.954 -24.310  1.00  0.00     0.167 HD
ENDBRANCH  27  29
ENDBRANCH  26  27
ENDBRANCH  25  26
ENDBRANCH  16  25
BRANCH   1  31
HETATM   31  C2  UNL     1      -0.275  52.693 -20.180  1.00  0.00    -0.061 C 
HETATM   32  C1  UNL     1      -1.017  52.326 -19.117  1.00  0.00     0.017 C 
BRANCH  31  33
HETATM   33  C3  UNL     1       0.263  54.102 -20.255  1.00  0.00     0.198 C 
BRANCH  33  34
HETATM   34  O1  UNL     1       1.632  54.119 -19.895  1.00  0.00    -0.397 OA
HETATM   35  H5  UNL     1       1.928  55.042 -19.956  1.00  0.00     0.209 HD
ENDBRANCH  33  34
ENDBRANCH  31  33
ENDBRANCH   1  31
TORSDOF 11
ENDMDL
MODEL 8
REMARK minimizedAffinity -7.88005304
REMARK  11 active torsions:
REMARK  status: ('A' for Active; 'I' for Inactive)
REMARK    1  A    between atoms: C2_2  and  C3_3 
REMARK    2  A    between atoms: C2_2  and  C4_5 
REMARK    3  A    between atoms: C3_3  and  O1_4 
REMARK    4  A    between atoms: C13_14  and  C14_15 
REMARK    5  A    between atoms: C14_15  and  C16_17 
REMARK    6  A    between atoms: C16_17  and  C17_18 
REMARK    7  A    between atoms: C17_18  and  C18_19 
REMARK    8  A    between atoms: C27_28  and  C28_29 
REMARK    9  A    between atoms: C28_29  and  C29_30 
REMARK   10  A    between atoms: C29_30  and  C30_31 
REMARK   11  A    between atoms: C30_31  and  O3_33 
ROOT
HETATM    1  C4  UNL     1      -5.856  47.457 -20.606  1.00  0.00     0.025 C 
HETATM    2  C5  UNL     1      -5.461  47.826 -19.164  1.00  0.00     0.010 C 
HETATM    3  C6  UNL     1      -4.337  48.849 -18.997  1.00  0.00     0.007 C 
HETATM    4  C7  UNL     1      -3.566  49.258 -20.269  1.00  0.00     0.004 C 
HETATM    5  C8  UNL     1      -4.562  49.661 -21.379  1.00  0.00    -0.027 A 
HETATM    6  C9  UNL     1      -4.624  51.154 -21.700  1.00  0.00     0.011 C 
HETATM    7  C10 UNL     1      -3.251  51.839 -21.910  1.00  0.00     0.011 C 
HETATM    8  C11 UNL     1      -2.057  51.044 -21.353  1.00  0.00    -0.032 C 
HETATM    9  C12 UNL     1      -1.588  50.039 -22.439  1.00  0.00     0.016 C 
HETATM   10  C13 UNL     1      -0.829  51.894 -20.894  1.00  0.00    -0.002 C 
HETATM   11  C22 UNL     1      -0.114  50.958 -19.884  1.00  0.00     0.006 C 
HETATM   12  C23 UNL     1      -1.139  49.877 -19.466  1.00  0.00     0.011 C 
HETATM   13  C24 UNL     1      -2.497  50.379 -19.998  1.00  0.00    -0.032 C 
HETATM   14  C25 UNL     1      -3.013  51.401 -18.924  1.00  0.00     0.016 C 
HETATM   15  C26 UNL     1      -4.758  48.768 -22.590  1.00  0.00     0.022 A 
HETATM   16  C27 UNL     1      -5.803  48.722 -21.505  1.00  0.00    -0.024 A 
ENDROOT
BRANCH  10  17
HETATM   17  C14 UNL     1       0.066  52.607 -21.957  1.00  0.00    -0.014 C 
HETATM   18  C15 UNL     1       1.543  52.412 -21.563  1.00  0.00     0.010 C 
BRANCH  17  19
HETATM   19  C16 UNL     1      -0.139  52.162 -23.428  1.00  0.00     0.008 C 
BRANCH  19  20
HETATM   20  C17 UNL     1       0.668  52.942 -24.483  1.00  0.00     0.028 C 
BRANCH  20  21
HETATM   21  C18 UNL     1       0.327  52.574 -25.901  1.00  0.00    -0.025 C 
HETATM   22  C19 UNL     1       1.111  51.962 -26.813  1.00  0.00    -0.091 C 
HETATM   23  C20 UNL     1       0.591  51.683 -28.201  1.00  0.00     0.042 C 
HETATM   24  C21 UNL     1       2.521  51.489 -26.587  1.00  0.00     0.042 C 
ENDBRANCH  20  21
ENDBRANCH  19  20
ENDBRANCH  17  19
ENDBRANCH  10  17
BRANCH  16  25
HETATM   25  C28 UNL     1      -7.169  49.354 -21.762  1.00  0.00     0.021 C 
BRANCH  25  26
HETATM   26  C29 UNL     1      -7.386  49.731 -23.227  1.00  0.00     0.111 C 
BRANCH  26  27
HETATM   27  C30 UNL     1      -8.029  48.607 -23.988  1.00  0.00     0.139 C 
HETATM   28  O2  UNL     1      -8.890  47.835 -23.599  1.00  0.00    -0.650 OA
BRANCH  27  29
HETATM   29  O3  UNL     1      -7.536  48.499 -25.239  1.00  0.00    -0.776 OA
HETATM   30  H48 UNL     1      -8.017  47.731 -25.611  1.00  0.00     0.167 HD
ENDBRANCH  27  29
ENDBRANCH  26  27
ENDBRANCH  25  26
ENDBRANCH  16  25
BRANCH   1  31
HETATM   31  C2  UNL     1      -5.202  46.170 -21.141  1.00  0.00    -0.061 C 
HETATM   32  C1  UNL     1      -3.928  45.805 -20.896  1.00  0.00     0.017 C 
BRANCH  31  33
HETATM   33  C3  UNL     1      -6.106  45.231 -21.904  1.00  0.00     0.198 C 
BRANCH  33  34
HETATM   34  O1  UNL     1      -5.711  43.890 -21.682  1.00  0.00    -0.397 OA
HETATM   35  H5  UNL     1      -6.318  43.329 -22.193  1.00  0.00     0.209 HD
ENDBRANCH  33  34
ENDBRANCH  31  33
ENDBRANCH   1  31
TORSDOF 11
ENDMDL
MODEL 9
REMARK minimizedAffinity -7.81213045
REMARK  11 active torsions:
REMARK  status: ('A' for Active; 'I' for Inactive)
REMARK    1  A    between atoms: C2_2  and  C3_3 
REMARK    2  A    between atoms: C2_2  and  C4_5 
REMARK    3  A    between atoms: C3_3  and  O1_4 
REMARK    4  A    between atoms: C13_14  and  C14_15 
REMARK    5  A    between atoms: C14_15  and  C16_17 
REMARK    6  A    between atoms: C16_17  and  C17_18 
REMARK    7  A    between atoms: C17_18  and  C18_19 
REMARK    8  A    between atoms: C27_28  and  C28_29 
REMARK    9  A    between atoms: C28_29  and  C29_30 
REMARK   10  A    between atoms: C29_30  and  C30_31 
REMARK   11  A    between atoms: C30_31  and  O3_33 
ROOT
HETATM    1  C4  UNL     1      -2.382  49.719 -18.696  1.00  0.00     0.025 C 
HETATM    2  C5  UNL     1      -3.712  50.477 -18.860  1.00  0.00     0.010 C 
HETATM    3  C6  UNL     1      -4.152  50.797 -20.290  1.00  0.00     0.007 C 
HETATM    4  C7  UNL     1      -3.133  50.521 -21.415  1.00  0.00     0.004 C 
HETATM    5  C8  UNL     1      -2.581  49.084 -21.282  1.00  0.00    -0.027 A 
HETATM    6  C9  UNL     1      -3.064  48.091 -22.338  1.00  0.00     0.011 C 
HETATM    7  C10 UNL     1      -2.968  48.590 -23.802  1.00  0.00     0.011 C 
HETATM    8  C11 UNL     1      -2.819  50.115 -23.941  1.00  0.00    -0.032 C 
HETATM    9  C12 UNL     1      -1.311  50.471 -23.847  1.00  0.00     0.016 C 
HETATM   10  C13 UNL     1      -3.400  50.738 -25.250  1.00  0.00    -0.002 C 
HETATM   11  C22 UNL     1      -3.654  52.215 -24.852  1.00  0.00     0.006 C 
HETATM   12  C23 UNL     1      -3.664  52.271 -23.306  1.00  0.00     0.011 C 
HETATM   13  C24 UNL     1      -3.719  50.799 -22.847  1.00  0.00    -0.032 C 
HETATM   14  C25 UNL     1      -5.234  50.396 -22.924  1.00  0.00     0.016 C 
HETATM   15  C26 UNL     1      -1.148  48.855 -20.838  1.00  0.00     0.022 A 
HETATM   16  C27 UNL     1      -2.241  48.657 -19.820  1.00  0.00    -0.024 A 
ENDROOT
BRANCH  10  17
HETATM   17  C14 UNL     1      -2.686  50.484 -26.616  1.00  0.00    -0.014 C 
HETATM   18  C15 UNL     1      -3.359  49.281 -27.304  1.00  0.00     0.010 C 
BRANCH  17  19
HETATM   19  C16 UNL     1      -2.647  51.683 -27.597  1.00  0.00     0.008 C 
BRANCH  19  20
HETATM   20  C17 UNL     1      -1.444  52.635 -27.447  1.00  0.00     0.028 C 
BRANCH  20  21
HETATM   21  C18 UNL     1      -0.125  51.927 -27.309  1.00  0.00    -0.025 C 
HETATM   22  C19 UNL     1       0.813  52.095 -26.354  1.00  0.00    -0.091 C 
HETATM   23  C20 UNL     1       2.091  51.293 -26.389  1.00  0.00     0.042 C 
HETATM   24  C21 UNL     1       0.722  53.040 -25.186  1.00  0.00     0.042 C 
ENDBRANCH  20  21
ENDBRANCH  19  20
ENDBRANCH  17  19
ENDBRANCH  10  17
BRANCH  16  25
HETATM   25  C28 UNL     1      -2.594  47.239 -19.376  1.00  0.00     0.021 C 
BRANCH  25  26
HETATM   26  C29 UNL     1      -3.177  46.388 -20.505  1.00  0.00     0.111 C 
BRANCH  26  27
HETATM   27  C30 UNL     1      -4.118  45.347 -19.969  1.00  0.00     0.139 C 
HETATM   28  O2  UNL     1      -3.837  44.311 -19.389  1.00  0.00    -0.650 OA
BRANCH  27  29
HETATM   29  O3  UNL     1      -5.408  45.666 -20.202  1.00  0.00    -0.776 OA
HETATM   30  H48 UNL     1      -5.903  44.909 -19.826  1.00  0.00     0.167 HD
ENDBRANCH  27  29
ENDBRANCH  26  27
ENDBRANCH  25  26
ENDBRANCH  16  25
BRANCH   1  31
HETATM   31  C2  UNL     1      -1.166  50.615 -18.400  1.00  0.00    -0.061 C 
HETATM   32  C1  UNL     1      -0.040  50.193 -17.790  1.00  0.00     0.017 C 
BRANCH  31  33
HETATM   33  C3  UNL     1      -1.233  52.027 -18.930  1.00  0.00     0.198 C 
BRANCH  33  34
HETATM   34  O1  UNL     1       0.072  52.511 -19.190  1.00  0.00    -0.397 OA
HETATM   35  H5  UNL     1      -0.026  53.419 -19.524  1.00  0.00     0.209 HD
ENDBRANCH  33  34
ENDBRANCH  31  33
ENDBRANCH   1  31
TORSDOF 11
ENDMDL
