MODEL 1
REMARK minimizedAffinity -8.9807539
REMARK CNNscore 0.762474239
REMARK CNNaffinity 6.89985657
REMARK  9 active torsions:
REMARK  status: ('A' for Active; 'I' for Inactive)
REMARK    1  A    between atoms: C2_2  and  C30_35 
REMARK    2  A    between atoms: C3_3  and  C4_4 
REMARK    3  A    between atoms: C4_4  and  O1_5 
REMARK    4  A    between atoms: C4_4  and  C5_6 
REMARK    5  A    between atoms: C5_6  and  C6_7 
REMARK    6  A    between atoms: C6_7  and  C8_9 
REMARK    7  A    between atoms: C10_11  and  O2_12 
REMARK    8  A    between atoms: C29_33  and  O5_34 
REMARK    9  A    between atoms: C30_35  and  O7_37 
ROOT
HETATM    1  C8  UNL     1      -0.188  10.857  18.056  1.00  0.00     0.001 C 
HETATM    2  C9  UNL     1      -1.549  11.567  18.332  1.00  0.00     0.038 C 
HETATM    3  C10 UNL     1      -2.530  11.098  17.244  1.00  0.00     0.132 C 
HETATM    4  C11 UNL     1      -1.901   9.795  16.689  1.00  0.00     0.017 C 
HETATM    5  C12 UNL     1      -2.191   8.637  17.702  1.00  0.00     0.023 C 
HETATM    6  C13 UNL     1      -2.347   9.229  15.331  1.00  0.00    -0.029 C 
HETATM    7  C14 UNL     1      -1.501   8.463  14.589  1.00  0.00     0.002 C 
HETATM    8  C15 UNL     1      -0.053   8.313  15.041  1.00  0.00     0.157 C 
HETATM    9  O3  UNL     1       0.732   7.594  14.424  1.00  0.00    -0.293 OA
HETATM   10  C16 UNL     1       0.452   9.032  16.286  1.00  0.00     0.094 C 
HETATM   11  C17 UNL     1      -0.396  10.254  16.626  1.00  0.00    -0.019 C 
HETATM   12  C18 UNL     1      -0.125  11.351  15.549  1.00  0.00     0.017 C 
HETATM   13  C19 UNL     1      -1.927   7.716  13.296  1.00  0.00    -0.008 C 
HETATM   14  C20 UNL     1      -1.363   8.541  12.108  1.00  0.00     0.021 C 
HETATM   15  C21 UNL     1      -1.339   6.269  13.199  1.00  0.00     0.022 C 
HETATM   16  C22 UNL     1      -2.192   5.305  12.388  1.00  0.00     0.080 C 
HETATM   17  C23 UNL     1      -3.556   5.137  13.011  1.00  0.00     0.135 C 
HETATM   18  O4  UNL     1      -4.167   4.072  12.884  1.00  0.00    -0.297 OA
HETATM   19  C24 UNL     1      -4.148   6.342  13.764  1.00  0.00     0.018 C 
HETATM   20  C25 UNL     1      -5.675   6.322  13.520  1.00  0.00     0.023 C 
HETATM   21  C26 UNL     1      -3.917   6.108  15.263  1.00  0.00     0.023 C 
HETATM   22  C27 UNL     1      -3.497   7.631  13.145  1.00  0.00     0.016 C 
HETATM   23  C28 UNL     1      -4.141   8.963  13.536  1.00  0.00     0.043 C 
HETATM   24  C29 UNL     1      -3.796   9.435  14.941  1.00  0.00     0.149 C 
ENDROOT
BRANCH   1  25
HETATM   25  C6  UNL     1       1.023  11.795  18.354  1.00  0.00    -0.011 C 
HETATM   26  C7  UNL     1       1.186  12.889  17.295  1.00  0.00     0.010 C 
BRANCH  25  27
HETATM   27  C5  UNL     1       2.329  10.956  18.444  1.00  0.00     0.040 C 
BRANCH  27  28
HETATM   28  C4  UNL     1       3.079  11.007  19.787  1.00  0.00     0.142 C 
BRANCH  28  29
HETATM   29  C3  UNL     1       2.650   9.923  20.732  1.00  0.00     0.018 C 
HETATM   30  C2  UNL     1       2.933   9.827  22.047  1.00  0.00     0.010 C 
HETATM   31  C1  UNL     1       3.777  10.772  22.848  1.00  0.00     0.055 C 
BRANCH  30  32
HETATM   32  C30 UNL     1       2.347   8.660  22.751  1.00  0.00     0.171 C 
HETATM   33  O6  UNL     1       1.806   7.699  22.231  1.00  0.00    -0.646 OA
BRANCH  32  34
HETATM   34  O7  UNL     1       2.476   8.751  24.087  1.00  0.00    -0.773 OA
HETATM   35  H44 UNL     1       2.059   7.927  24.415  1.00  0.00     0.167 HD
ENDBRANCH  32  34
ENDBRANCH  30  32
ENDBRANCH  28  29
BRANCH  28  36
HETATM   36  O1  UNL     1       4.469  10.824  19.518  1.00  0.00    -0.392 OA
HETATM   37  H6  UNL     1       4.635   9.871  19.404  1.00  0.00     0.210 HD
ENDBRANCH  28  36
ENDBRANCH  27  28
ENDBRANCH  25  27
ENDBRANCH   1  25
BRANCH   3  38
HETATM   38  O2  UNL     1      -3.842  10.914  17.763  1.00  0.00    -0.394 OA
HETATM   39  H17 UNL     1      -4.086  11.737  18.228  1.00  0.00     0.210 HD
ENDBRANCH   3  38
BRANCH  24  40
HETATM   40  O5  UNL     1      -4.125  10.818  14.963  1.00  0.00    -0.391 OA
HETATM   41  H43 UNL     1      -4.569  10.972  15.820  1.00  0.00     0.210 HD
ENDBRANCH  24  40
TORSDOF 9
ENDMDL
MODEL 2
REMARK minimizedAffinity -9.966959
REMARK CNNscore 0.708887815
REMARK CNNaffinity 7.22447777
REMARK  9 active torsions:
REMARK  status: ('A' for Active; 'I' for Inactive)
REMARK    1  A    between atoms: C2_2  and  C30_35 
REMARK    2  A    between atoms: C3_3  and  C4_4 
REMARK    3  A    between atoms: C4_4  and  O1_5 
REMARK    4  A    between atoms: C4_4  and  C5_6 
REMARK    5  A    between atoms: C5_6  and  C6_7 
REMARK    6  A    between atoms: C6_7  and  C8_9 
REMARK    7  A    between atoms: C10_11  and  O2_12 
REMARK    8  A    between atoms: C29_33  and  O5_34 
REMARK    9  A    between atoms: C30_35  and  O7_37 
ROOT
HETATM    1  C8  UNL     1      -6.017   7.334  14.319  1.00  0.00     0.001 C 
HETATM    2  C9  UNL     1      -5.718   8.654  15.095  1.00  0.00     0.038 C 
HETATM    3  C10 UNL     1      -4.191   8.833  15.107  1.00  0.00     0.132 C 
HETATM    4  C11 UNL     1      -3.684   7.930  13.953  1.00  0.00     0.017 C 
HETATM    5  C12 UNL     1      -3.941   8.671  12.598  1.00  0.00     0.023 C 
HETATM    6  C13 UNL     1      -2.208   7.510  13.880  1.00  0.00    -0.029 C 
HETATM    7  C14 UNL     1      -1.847   6.353  13.260  1.00  0.00     0.002 C 
HETATM    8  C15 UNL     1      -2.937   5.398  12.788  1.00  0.00     0.157 C 
HETATM    9  O3  UNL     1      -2.655   4.364  12.183  1.00  0.00    -0.293 OA
HETATM   10  C16 UNL     1      -4.408   5.715  13.030  1.00  0.00     0.094 C 
HETATM   11  C17 UNL     1      -4.602   6.675  14.201  1.00  0.00    -0.019 C 
HETATM   12  C18 UNL     1      -4.266   5.910  15.520  1.00  0.00     0.017 C 
HETATM   13  C19 UNL     1      -0.373   5.943  12.994  1.00  0.00    -0.008 C 
HETATM   14  C20 UNL     1      -0.024   4.859  14.049  1.00  0.00     0.021 C 
HETATM   15  C21 UNL     1      -0.154   5.322  11.575  1.00  0.00     0.022 C 
HETATM   16  C22 UNL     1       1.249   5.522  11.020  1.00  0.00     0.080 C 
HETATM   17  C23 UNL     1       1.562   6.990  10.861  1.00  0.00     0.135 C 
HETATM   18  O4  UNL     1       2.334   7.365   9.975  1.00  0.00    -0.297 OA
HETATM   19  C24 UNL     1       0.914   7.967  11.859  1.00  0.00     0.018 C 
HETATM   20  C25 UNL     1       1.940   9.094  12.120  1.00  0.00     0.023 C 
HETATM   21  C26 UNL     1      -0.299   8.599  11.163  1.00  0.00     0.023 C 
HETATM   22  C27 UNL     1       0.625   7.154  13.172  1.00  0.00     0.016 C 
HETATM   23  C28 UNL     1       0.245   7.979  14.404  1.00  0.00     0.043 C 
HETATM   24  C29 UNL     1      -1.183   8.504  14.387  1.00  0.00     0.149 C 
ENDROOT
BRANCH   1  25
HETATM   25  C6  UNL     1      -7.208   6.549  14.954  1.00  0.00    -0.011 C 
HETATM   26  C7  UNL     1      -7.174   6.577  16.484  1.00  0.00     0.010 C 
BRANCH  25  27
HETATM   27  C5  UNL     1      -7.192   5.076  14.457  1.00  0.00     0.040 C 
BRANCH  27  28
HETATM   28  C4  UNL     1      -7.818   4.817  13.075  1.00  0.00     0.142 C 
BRANCH  28  29
HETATM   29  C3  UNL     1      -6.869   4.148  12.125  1.00  0.00     0.018 C 
HETATM   30  C2  UNL     1      -6.606   2.828  12.029  1.00  0.00     0.010 C 
HETATM   31  C1  UNL     1      -7.179   1.741  12.885  1.00  0.00     0.055 C 
BRANCH  30  32
HETATM   32  C30 UNL     1      -5.644   2.437  10.969  1.00  0.00     0.171 C 
HETATM   33  O6  UNL     1      -5.145   3.175  10.137  1.00  0.00    -0.646 OA
BRANCH  32  34
HETATM   34  O7  UNL     1      -5.344   1.127  11.009  1.00  0.00    -0.773 OA
HETATM   35  H44 UNL     1      -4.708   1.013  10.272  1.00  0.00     0.167 HD
ENDBRANCH  32  34
ENDBRANCH  30  32
ENDBRANCH  28  29
BRANCH  28  36
HETATM   36  O1  UNL     1      -8.935   3.947  13.259  1.00  0.00    -0.392 OA
HETATM   37  H6  UNL     1      -8.602   3.035  13.334  1.00  0.00     0.210 HD
ENDBRANCH  28  36
ENDBRANCH  27  28
ENDBRANCH  25  27
ENDBRANCH   1  25
BRANCH   3  38
HETATM   38  O2  UNL     1      -3.820  10.198  14.958  1.00  0.00    -0.394 OA
HETATM   39  H17 UNL     1      -4.312  10.706  15.632  1.00  0.00     0.210 HD
ENDBRANCH   3  38
BRANCH  24  40
HETATM   40  O5  UNL     1      -1.465   8.865  15.733  1.00  0.00    -0.391 OA
HETATM   41  H43 UNL     1      -1.937   9.719  15.686  1.00  0.00     0.210 HD
ENDBRANCH  24  40
TORSDOF 9
ENDMDL
MODEL 3
REMARK minimizedAffinity -8.53198242
REMARK CNNscore 0.638214171
REMARK CNNaffinity 6.42330408
REMARK  9 active torsions:
REMARK  status: ('A' for Active; 'I' for Inactive)
REMARK    1  A    between atoms: C2_2  and  C30_35 
REMARK    2  A    between atoms: C3_3  and  C4_4 
REMARK    3  A    between atoms: C4_4  and  O1_5 
REMARK    4  A    between atoms: C4_4  and  C5_6 
REMARK    5  A    between atoms: C5_6  and  C6_7 
REMARK    6  A    between atoms: C6_7  and  C8_9 
REMARK    7  A    between atoms: C10_11  and  O2_12 
REMARK    8  A    between atoms: C29_33  and  O5_34 
REMARK    9  A    between atoms: C30_35  and  O7_37 
ROOT
HETATM    1  C8  UNL     1      -3.021   5.994  13.755  1.00  0.00     0.001 C 
HETATM    2  C9  UNL     1      -1.622   5.986  13.065  1.00  0.00     0.038 C 
HETATM    3  C10 UNL     1      -0.978   7.356  13.338  1.00  0.00     0.132 C 
HETATM    4  C11 UNL     1      -1.758   7.917  14.553  1.00  0.00     0.017 C 
HETATM    5  C12 UNL     1      -1.231   7.210  15.847  1.00  0.00     0.023 C 
HETATM    6  C13 UNL     1      -1.704   9.415  14.892  1.00  0.00    -0.029 C 
HETATM    7  C14 UNL     1      -2.733  10.013  15.554  1.00  0.00     0.002 C 
HETATM    8  C15 UNL     1      -4.010   9.220  15.804  1.00  0.00     0.157 C 
HETATM    9  O3  UNL     1      -4.945   9.707  16.437  1.00  0.00    -0.293 OA
HETATM   10  C16 UNL     1      -4.148   7.789  15.298  1.00  0.00     0.094 C 
HETATM   11  C17 UNL     1      -3.216   7.503  14.124  1.00  0.00    -0.019 C 
HETATM   12  C18 UNL     1      -3.743   8.285  12.880  1.00  0.00     0.017 C 
HETATM   13  C19 UNL     1      -2.684  11.472  16.082  1.00  0.00    -0.008 C 
HETATM   14  C20 UNL     1      -3.528  12.324  15.096  1.00  0.00     0.021 C 
HETATM   15  C21 UNL     1      -3.305  11.631  17.509  1.00  0.00     0.022 C 
HETATM   16  C22 UNL     1      -2.720  12.781  18.316  1.00  0.00     0.080 C 
HETATM   17  C23 UNL     1      -1.242  12.579  18.549  1.00  0.00     0.135 C 
HETATM   18  O4  UNL     1      -0.709  13.028  19.567  1.00  0.00    -0.297 OA
HETATM   19  C24 UNL     1      -0.446  11.835  17.462  1.00  0.00     0.018 C 
HETATM   20  C25 UNL     1       0.959  12.479  17.409  1.00  0.00     0.023 C 
HETATM   21  C26 UNL     1      -0.272  10.384  17.930  1.00  0.00     0.023 C 
HETATM   22  C27 UNL     1      -1.213  12.049  16.107  1.00  0.00     0.016 C 
HETATM   23  C28 UNL     1      -0.462  11.644  14.837  1.00  0.00     0.043 C 
HETATM   24  C29 UNL     1      -0.408  10.142  14.596  1.00  0.00     0.149 C 
ENDROOT
BRANCH   1  25
HETATM   25  C6  UNL     1      -4.090   5.242  12.901  1.00  0.00    -0.011 C 
HETATM   26  C7  UNL     1      -5.420   5.082  13.642  1.00  0.00     0.010 C 
BRANCH  25  27
HETATM   27  C5  UNL     1      -3.547   3.843  12.492  1.00  0.00     0.040 C 
BRANCH  27  28
HETATM   28  C4  UNL     1      -3.367   3.598  10.983  1.00  0.00     0.142 C 
BRANCH  28  29
HETATM   29  C3  UNL     1      -2.539   2.382  10.689  1.00  0.00     0.018 C 
HETATM   30  C2  UNL     1      -1.218   2.220  10.910  1.00  0.00     0.010 C 
HETATM   31  C1  UNL     1      -0.276   3.243  11.467  1.00  0.00     0.055 C 
BRANCH  30  32
HETATM   32  C30 UNL     1      -0.661   0.892  10.553  1.00  0.00     0.171 C 
HETATM   33  O6  UNL     1      -0.265   0.041  11.332  1.00  0.00    -0.646 OA
BRANCH  32  34
HETATM   34  O7  UNL     1      -0.636   0.688   9.224  1.00  0.00    -0.773 OA
HETATM   35  H44 UNL     1      -0.257  -0.211   9.136  1.00  0.00     0.167 HD
ENDBRANCH  32  34
ENDBRANCH  30  32
ENDBRANCH  28  29
BRANCH  28  36
HETATM   36  O1  UNL     1      -4.661   3.390  10.418  1.00  0.00    -0.392 OA
HETATM   37  H6  UNL     1      -4.923   2.467  10.587  1.00  0.00     0.210 HD
ENDBRANCH  28  36
ENDBRANCH  27  28
ENDBRANCH  25  27
ENDBRANCH   1  25
BRANCH   3  38
HETATM   38  O2  UNL     1       0.421   7.242  13.570  1.00  0.00    -0.394 OA
HETATM   39  H17 UNL     1       0.797   6.737  12.824  1.00  0.00     0.210 HD
ENDBRANCH   3  38
BRANCH  24  40
HETATM   40  O5  UNL     1      -0.058   9.995  13.226  1.00  0.00    -0.391 OA
HETATM   41  H43 UNL     1       0.602   9.275  13.197  1.00  0.00     0.210 HD
ENDBRANCH  24  40
TORSDOF 9
ENDMDL
MODEL 4
REMARK minimizedAffinity -8.52833843
REMARK CNNscore 0.619089842
REMARK CNNaffinity 6.61251211
REMARK  9 active torsions:
REMARK  status: ('A' for Active; 'I' for Inactive)
REMARK    1  A    between atoms: C2_2  and  C30_35 
REMARK    2  A    between atoms: C3_3  and  C4_4 
REMARK    3  A    between atoms: C4_4  and  O1_5 
REMARK    4  A    between atoms: C4_4  and  C5_6 
REMARK    5  A    between atoms: C5_6  and  C6_7 
REMARK    6  A    between atoms: C6_7  and  C8_9 
REMARK    7  A    between atoms: C10_11  and  O2_12 
REMARK    8  A    between atoms: C29_33  and  O5_34 
REMARK    9  A    between atoms: C30_35  and  O7_37 
ROOT
HETATM    1  C8  UNL     1       1.384   6.690  10.714  1.00  0.00     0.001 C 
HETATM    2  C9  UNL     1       1.496   5.211  11.197  1.00  0.00     0.038 C 
HETATM    3  C10 UNL     1       0.581   5.067  12.424  1.00  0.00     0.132 C 
HETATM    4  C11 UNL     1      -0.392   6.269  12.327  1.00  0.00     0.017 C 
HETATM    5  C12 UNL     1      -1.481   5.937  11.252  1.00  0.00     0.023 C 
HETATM    6  C13 UNL     1      -1.199   6.723  13.554  1.00  0.00    -0.029 C 
HETATM    7  C14 UNL     1      -1.611   8.015  13.672  1.00  0.00     0.002 C 
HETATM    8  C15 UNL     1      -1.119   9.043  12.660  1.00  0.00     0.157 C 
HETATM    9  O3  UNL     1      -1.503  10.211  12.705  1.00  0.00    -0.293 OA
HETATM   10  C16 UNL     1      -0.158   8.640  11.548  1.00  0.00     0.094 C 
HETATM   11  C17 UNL     1       0.635   7.385  11.901  1.00  0.00    -0.019 C 
HETATM   12  C18 UNL     1       1.655   7.752  13.024  1.00  0.00     0.017 C 
HETATM   13  C19 UNL     1      -2.569   8.514  14.788  1.00  0.00    -0.008 C 
HETATM   14  C20 UNL     1      -1.686   9.262  15.822  1.00  0.00     0.021 C 
HETATM   15  C21 UNL     1      -3.652   9.515  14.266  1.00  0.00     0.022 C 
HETATM   16  C22 UNL     1      -4.943   9.509  15.072  1.00  0.00     0.080 C 
HETATM   17  C23 UNL     1      -5.603   8.152  15.023  1.00  0.00     0.135 C 
HETATM   18  O4  UNL     1      -6.830   8.058  15.104  1.00  0.00    -0.297 OA
HETATM   19  C24 UNL     1      -4.688   6.920  14.907  1.00  0.00     0.018 C 
HETATM   20  C25 UNL     1      -5.349   5.786  15.725  1.00  0.00     0.023 C 
HETATM   21  C26 UNL     1      -4.684   6.486  13.435  1.00  0.00     0.023 C 
HETATM   22  C27 UNL     1      -3.300   7.322  15.524  1.00  0.00     0.016 C 
HETATM   23  C28 UNL     1      -2.320   6.175  15.780  1.00  0.00     0.043 C 
HETATM   24  C29 UNL     1      -1.636   5.647  14.527  1.00  0.00     0.149 C 
ENDROOT
BRANCH   1  25
HETATM   25  C6  UNL     1       2.756   7.239  10.212  1.00  0.00    -0.011 C 
HETATM   26  C7  UNL     1       2.689   7.740   8.766  1.00  0.00     0.010 C 
BRANCH  25  27
HETATM   27  C5  UNL     1       3.842   6.133  10.333  1.00  0.00     0.040 C 
BRANCH  27  28
HETATM   28  C4  UNL     1       5.139   6.530  11.060  1.00  0.00     0.142 C 
BRANCH  28  29
HETATM   29  C3  UNL     1       5.616   7.903  10.686  1.00  0.00     0.018 C 
HETATM   30  C2  UNL     1       6.536   8.651  11.329  1.00  0.00     0.010 C 
HETATM   31  C1  UNL     1       7.257   8.286  12.591  1.00  0.00     0.055 C 
BRANCH  30  32
HETATM   32  C30 UNL     1       6.844   9.966  10.715  1.00  0.00     0.171 C 
HETATM   33  O6  UNL     1       7.844  10.249  10.077  1.00  0.00    -0.646 OA
BRANCH  32  34
HETATM   34  O7  UNL     1       5.869  10.869  10.924  1.00  0.00    -0.773 OA
HETATM   35  H44 UNL     1       6.198  11.671  10.468  1.00  0.00     0.167 HD
ENDBRANCH  32  34
ENDBRANCH  30  32
ENDBRANCH  28  29
BRANCH  28  36
HETATM   36  O1  UNL     1       4.869   6.531  12.462  1.00  0.00    -0.392 OA
HETATM   37  H6  UNL     1       4.427   7.370  12.687  1.00  0.00     0.210 HD
ENDBRANCH  28  36
ENDBRANCH  27  28
ENDBRANCH  25  27
ENDBRANCH   1  25
BRANCH   3  38
HETATM   38  O2  UNL     1      -0.080   3.807  12.443  1.00  0.00    -0.394 OA
HETATM   39  H17 UNL     1       0.607   3.121  12.342  1.00  0.00     0.210 HD
ENDBRANCH   3  38
BRANCH  24  40
HETATM   40  O5  UNL     1      -0.511   4.915  14.995  1.00  0.00    -0.391 OA
HETATM   41  H43 UNL     1      -0.482   4.100  14.457  1.00  0.00     0.210 HD
ENDBRANCH  24  40
TORSDOF 9
ENDMDL
MODEL 5
REMARK minimizedAffinity -8.60597992
REMARK CNNscore 0.520529151
REMARK CNNaffinity 6.53885412
REMARK  9 active torsions:
REMARK  status: ('A' for Active; 'I' for Inactive)
REMARK    1  A    between atoms: C2_2  and  C30_35 
REMARK    2  A    between atoms: C3_3  and  C4_4 
REMARK    3  A    between atoms: C4_4  and  O1_5 
REMARK    4  A    between atoms: C4_4  and  C5_6 
REMARK    5  A    between atoms: C5_6  and  C6_7 
REMARK    6  A    between atoms: C6_7  and  C8_9 
REMARK    7  A    between atoms: C10_11  and  O2_12 
REMARK    8  A    between atoms: C29_33  and  O5_34 
REMARK    9  A    between atoms: C30_35  and  O7_37 
ROOT
HETATM    1  C8  UNL     1       0.749   8.199  13.445  1.00  0.00     0.001 C 
HETATM    2  C9  UNL     1      -0.532   7.311  13.491  1.00  0.00     0.038 C 
HETATM    3  C10 UNL     1      -1.332   7.740  14.733  1.00  0.00     0.132 C 
HETATM    4  C11 UNL     1      -0.785   9.148  15.081  1.00  0.00     0.017 C 
HETATM    5  C12 UNL     1      -1.420  10.183  14.092  1.00  0.00     0.023 C 
HETATM    6  C13 UNL     1      -1.025   9.757  16.471  1.00  0.00    -0.029 C 
HETATM    7  C14 UNL     1      -0.158  10.674  16.984  1.00  0.00     0.002 C 
HETATM    8  C15 UNL     1       1.139  10.962  16.237  1.00  0.00     0.157 C 
HETATM    9  O3  UNL     1       1.928  11.814  16.643  1.00  0.00    -0.293 OA
HETATM   10  C16 UNL     1       1.479  10.216  14.952  1.00  0.00     0.094 C 
HETATM   11  C17 UNL     1       0.750   8.879  14.856  1.00  0.00    -0.019 C 
HETATM   12  C18 UNL     1       1.372   7.907  15.908  1.00  0.00     0.017 C 
HETATM   13  C19 UNL     1      -0.415  11.460  18.298  1.00  0.00    -0.008 C 
HETATM   14  C20 UNL     1       0.476  10.802  19.385  1.00  0.00     0.021 C 
HETATM   15  C21 UNL     1      -0.018  12.970  18.199  1.00  0.00     0.022 C 
HETATM   16  C22 UNL     1      -0.814  13.883  19.120  1.00  0.00     0.080 C 
HETATM   17  C23 UNL     1      -2.284  13.840  18.783  1.00  0.00     0.135 C 
HETATM   18  O4  UNL     1      -2.993  14.830  18.979  1.00  0.00    -0.297 OA
HETATM   19  C24 UNL     1      -2.848  12.519  18.229  1.00  0.00     0.018 C 
HETATM   20  C25 UNL     1      -4.285  12.374  18.781  1.00  0.00     0.023 C 
HETATM   21  C26 UNL     1      -2.951  12.665  16.705  1.00  0.00     0.023 C 
HETATM   22  C27 UNL     1      -1.922  11.367  18.764  1.00  0.00     0.016 C 
HETATM   23  C28 UNL     1      -2.448   9.942  18.581  1.00  0.00     0.043 C 
HETATM   24  C29 UNL     1      -2.328   9.410  17.161  1.00  0.00     0.149 C 
ENDROOT
BRANCH   1  25
HETATM   25  C6  UNL     1       1.992   7.393  12.952  1.00  0.00    -0.011 C 
HETATM   26  C7  UNL     1       2.935   8.242  12.096  1.00  0.00     0.010 C 
BRANCH  25  27
HETATM   27  C5  UNL     1       1.526   6.150  12.142  1.00  0.00     0.040 C 
BRANCH  27  28
HETATM   28  C4  UNL     1       0.633   6.431  10.920  1.00  0.00     0.142 C 
BRANCH  28  29
HETATM   29  C3  UNL     1       1.423   6.803   9.699  1.00  0.00     0.018 C 
HETATM   30  C2  UNL     1       1.107   7.734   8.775  1.00  0.00     0.010 C 
HETATM   31  C1  UNL     1      -0.131   8.577   8.747  1.00  0.00     0.055 C 
BRANCH  30  32
HETATM   32  C30 UNL     1       2.094   7.920   7.683  1.00  0.00     0.171 C 
HETATM   33  O6  UNL     1       2.967   8.770   7.635  1.00  0.00    -0.646 OA
BRANCH  32  34
HETATM   34  O7  UNL     1       1.942   7.018   6.697  1.00  0.00    -0.773 OA
HETATM   35  H44 UNL     1       2.648   7.252   6.060  1.00  0.00     0.167 HD
ENDBRANCH  32  34
ENDBRANCH  30  32
ENDBRANCH  28  29
BRANCH  28  36
HETATM   36  O1  UNL     1      -0.088   5.235  10.623  1.00  0.00    -0.392 OA
HETATM   37  H6  UNL     1       0.499   4.642  10.121  1.00  0.00     0.210 HD
ENDBRANCH  28  36
ENDBRANCH  27  28
ENDBRANCH  25  27
ENDBRANCH   1  25
BRANCH   3  38
HETATM   38  O2  UNL     1      -2.733   7.726  14.486  1.00  0.00    -0.394 OA
HETATM   39  H17 UNL     1      -2.953   6.847  14.123  1.00  0.00     0.210 HD
ENDBRANCH   3  38
BRANCH  24  40
HETATM   40  O5  UNL     1      -2.468   8.000  17.276  1.00  0.00    -0.391 OA
HETATM   41  H43 UNL     1      -3.048   7.729  16.538  1.00  0.00     0.210 HD
ENDBRANCH  24  40
TORSDOF 9
ENDMDL
MODEL 6
REMARK minimizedAffinity -9.40847969
REMARK CNNscore 0.506751597
REMARK CNNaffinity 6.65446138
REMARK  9 active torsions:
REMARK  status: ('A' for Active; 'I' for Inactive)
REMARK    1  A    between atoms: C2_2  and  C30_35 
REMARK    2  A    between atoms: C3_3  and  C4_4 
REMARK    3  A    between atoms: C4_4  and  O1_5 
REMARK    4  A    between atoms: C4_4  and  C5_6 
REMARK    5  A    between atoms: C5_6  and  C6_7 
REMARK    6  A    between atoms: C6_7  and  C8_9 
REMARK    7  A    between atoms: C10_11  and  O2_12 
REMARK    8  A    between atoms: C29_33  and  O5_34 
REMARK    9  A    between atoms: C30_35  and  O7_37 
ROOT
HETATM    1  C8  UNL     1       6.587   9.473  14.102  1.00  0.00     0.001 C 
HETATM    2  C9  UNL     1       7.631   8.504  13.468  1.00  0.00     0.038 C 
HETATM    3  C10 UNL     1       6.862   7.577  12.511  1.00  0.00     0.132 C 
HETATM    4  C11 UNL     1       5.532   8.322  12.232  1.00  0.00     0.017 C 
HETATM    5  C12 UNL     1       5.813   9.459  11.192  1.00  0.00     0.023 C 
HETATM    6  C13 UNL     1       4.322   7.572  11.654  1.00  0.00    -0.029 C 
HETATM    7  C14 UNL     1       3.056   8.010  11.896  1.00  0.00     0.002 C 
HETATM    8  C15 UNL     1       2.846   9.152  12.883  1.00  0.00     0.157 C 
HETATM    9  O3  UNL     1       1.723   9.607  13.096  1.00  0.00    -0.293 OA
HETATM   10  C16 UNL     1       4.029   9.776  13.613  1.00  0.00     0.094 C 
HETATM   11  C17 UNL     1       5.221   8.827  13.691  1.00  0.00    -0.019 C 
HETATM   12  C18 UNL     1       4.864   7.676  14.684  1.00  0.00     0.017 C 
HETATM   13  C19 UNL     1       1.795   7.415  11.213  1.00  0.00    -0.008 C 
HETATM   14  C20 UNL     1       1.110   6.509  12.273  1.00  0.00     0.021 C 
HETATM   15  C21 UNL     1       0.762   8.503  10.772  1.00  0.00     0.022 C 
HETATM   16  C22 UNL     1      -0.094   8.100   9.580  1.00  0.00     0.080 C 
HETATM   17  C23 UNL     1       0.761   7.850   8.362  1.00  0.00     0.135 C 
HETATM   18  O4  UNL     1       0.307   8.058   7.234  1.00  0.00    -0.297 OA
HETATM   19  C24 UNL     1       2.181   7.302   8.590  1.00  0.00     0.018 C 
HETATM   20  C25 UNL     1       2.491   6.344   7.417  1.00  0.00     0.023 C 
HETATM   21  C26 UNL     1       3.154   8.486   8.489  1.00  0.00     0.023 C 
HETATM   22  C27 UNL     1       2.158   6.528   9.957  1.00  0.00     0.016 C 
HETATM   23  C28 UNL     1       3.379   5.656  10.258  1.00  0.00     0.043 C 
HETATM   24  C29 UNL     1       4.611   6.435  10.694  1.00  0.00     0.149 C 
ENDROOT
BRANCH   1  25
HETATM   25  C6  UNL     1       6.907   9.766  15.601  1.00  0.00    -0.011 C 
HETATM   26  C7  UNL     1       6.893  11.264  15.918  1.00  0.00     0.010 C 
BRANCH  25  27
HETATM   27  C5  UNL     1       8.294   9.166  15.970  1.00  0.00     0.040 C 
BRANCH  27  28
HETATM   28  C4  UNL     1       9.437  10.175  16.177  1.00  0.00     0.142 C 
BRANCH  28  29
HETATM   29  C3  UNL     1       9.888  10.255  17.606  1.00  0.00     0.018 C 
HETATM   30  C2  UNL     1      10.615  11.237  18.179  1.00  0.00     0.010 C 
HETATM   31  C1  UNL     1      11.167  12.451  17.496  1.00  0.00     0.055 C 
BRANCH  30  32
HETATM   32  C30 UNL     1      10.889  11.075  19.628  1.00  0.00     0.171 C 
HETATM   33  O6  UNL     1      10.161  11.416  20.545  1.00  0.00    -0.646 OA
BRANCH  32  34
HETATM   34  O7  UNL     1      12.072  10.480  19.861  1.00  0.00    -0.773 OA
HETATM   35  H44 UNL     1      12.119  10.435  20.839  1.00  0.00     0.167 HD
ENDBRANCH  32  34
ENDBRANCH  30  32
ENDBRANCH  28  29
BRANCH  28  36
HETATM   36  O1  UNL     1      10.549   9.740  15.395  1.00  0.00    -0.392 OA
HETATM   37  H6  UNL     1      11.013   9.038  15.886  1.00  0.00     0.210 HD
ENDBRANCH  28  36
ENDBRANCH  27  28
ENDBRANCH  25  27
ENDBRANCH   1  25
BRANCH   3  38
HETATM   38  O2  UNL     1       7.610   7.299  11.334  1.00  0.00    -0.394 OA
HETATM   39  H17 UNL     1       8.488   6.981  11.618  1.00  0.00     0.210 HD
ENDBRANCH   3  38
BRANCH  24  40
HETATM   40  O5  UNL     1       5.464   5.476  11.303  1.00  0.00    -0.391 OA
HETATM   41  H43 UNL     1       6.364   5.678  10.980  1.00  0.00     0.210 HD
ENDBRANCH  24  40
TORSDOF 9
ENDMDL
MODEL 7
REMARK minimizedAffinity -7.66164064
REMARK CNNscore 0.447965354
REMARK CNNaffinity 5.67646408
REMARK  9 active torsions:
REMARK  status: ('A' for Active; 'I' for Inactive)
REMARK    1  A    between atoms: C2_2  and  C30_35 
REMARK    2  A    between atoms: C3_3  and  C4_4 
REMARK    3  A    between atoms: C4_4  and  O1_5 
REMARK    4  A    between atoms: C4_4  and  C5_6 
REMARK    5  A    between atoms: C5_6  and  C6_7 
REMARK    6  A    between atoms: C6_7  and  C8_9 
REMARK    7  A    between atoms: C10_11  and  O2_12 
REMARK    8  A    between atoms: C29_33  and  O5_34 
REMARK    9  A    between atoms: C30_35  and  O7_37 
ROOT
HETATM    1  C8  UNL     1     -17.169   1.582  14.779  1.00  0.00     0.001 C 
HETATM    2  C9  UNL     1     -17.035   1.920  13.262  1.00  0.00     0.038 C 
HETATM    3  C10 UNL     1     -16.316   0.733  12.599  1.00  0.00     0.132 C 
HETATM    4  C11 UNL     1     -16.496  -0.439  13.597  1.00  0.00     0.017 C 
HETATM    5  C12 UNL     1     -17.950  -1.000  13.443  1.00  0.00     0.023 C 
HETATM    6  C13 UNL     1     -15.599  -1.684  13.511  1.00  0.00    -0.029 C 
HETATM    7  C14 UNL     1     -15.352  -2.436  14.619  1.00  0.00     0.002 C 
HETATM    8  C15 UNL     1     -15.836  -1.936  15.975  1.00  0.00     0.157 C 
HETATM    9  O3  UNL     1     -15.672  -2.606  16.993  1.00  0.00    -0.293 OA
HETATM   10  C16 UNL     1     -16.559  -0.600  16.098  1.00  0.00     0.094 C 
HETATM   11  C17 UNL     1     -16.230   0.339  14.941  1.00  0.00    -0.019 C 
HETATM   12  C18 UNL     1     -14.752   0.814  15.102  1.00  0.00     0.017 C 
HETATM   13  C19 UNL     1     -14.602  -3.796  14.585  1.00  0.00    -0.008 C 
HETATM   14  C20 UNL     1     -13.168  -3.518  15.109  1.00  0.00     0.021 C 
HETATM   15  C21 UNL     1     -15.251  -4.879  15.509  1.00  0.00     0.022 C 
HETATM   16  C22 UNL     1     -15.020  -6.310  15.045  1.00  0.00     0.080 C 
HETATM   17  C23 UNL     1     -15.628  -6.538  13.682  1.00  0.00     0.135 C 
HETATM   18  O4  UNL     1     -16.044  -7.657  13.370  1.00  0.00    -0.297 OA
HETATM   19  C24 UNL     1     -15.668  -5.344  12.712  1.00  0.00     0.018 C 
HETATM   20  C25 UNL     1     -15.448  -5.909  11.289  1.00  0.00     0.023 C 
HETATM   21  C26 UNL     1     -17.086  -4.757  12.761  1.00  0.00     0.023 C 
HETATM   22  C27 UNL     1     -14.495  -4.383  13.122  1.00  0.00     0.016 C 
HETATM   23  C28 UNL     1     -14.158  -3.270  12.127  1.00  0.00     0.043 C 
HETATM   24  C29 UNL     1     -15.141  -2.109  12.131  1.00  0.00     0.149 C 
ENDROOT
BRANCH   1  25
HETATM   25  C6  UNL     1     -16.971   2.847  15.671  1.00  0.00    -0.011 C 
HETATM   26  C7  UNL     1     -18.129   3.057  16.650  1.00  0.00     0.010 C 
BRANCH  25  27
HETATM   27  C5  UNL     1     -16.812   4.106  14.772  1.00  0.00     0.040 C 
BRANCH  27  28
HETATM   28  C4  UNL     1     -15.678   5.075  15.153  1.00  0.00     0.142 C 
BRANCH  28  29
HETATM   29  C3  UNL     1     -15.287   5.982  14.024  1.00  0.00     0.018 C 
HETATM   30  C2  UNL     1     -16.084   6.455  13.043  1.00  0.00     0.010 C 
HETATM   31  C1  UNL     1     -17.535   6.140  12.846  1.00  0.00     0.055 C 
BRANCH  30  32
HETATM   32  C30 UNL     1     -15.437   7.369  12.070  1.00  0.00     0.171 C 
HETATM   33  O6  UNL     1     -15.948   7.834  11.065  1.00  0.00    -0.646 OA
BRANCH  32  34
HETATM   34  O7  UNL     1     -14.171   7.667  12.411  1.00  0.00    -0.773 OA
HETATM   35  H44 UNL     1     -13.876   8.270  11.697  1.00  0.00     0.167 HD
ENDBRANCH  32  34
ENDBRANCH  30  32
ENDBRANCH  28  29
BRANCH  28  36
HETATM   36  O1  UNL     1     -16.146   5.893  16.226  1.00  0.00    -0.392 OA
HETATM   37  H6  UNL     1     -16.695   6.604  15.850  1.00  0.00     0.210 HD
ENDBRANCH  28  36
ENDBRANCH  27  28
ENDBRANCH  25  27
ENDBRANCH   1  25
BRANCH   3  38
HETATM   38  O2  UNL     1     -16.841   0.456  11.305  1.00  0.00    -0.394 OA
HETATM   39  H17 UNL     1     -16.828   1.294  10.804  1.00  0.00     0.210 HD
ENDBRANCH   3  38
BRANCH  24  40
HETATM   40  O5  UNL     1     -14.464  -1.041  11.482  1.00  0.00    -0.391 OA
HETATM   41  H43 UNL     1     -15.122  -0.630  10.890  1.00  0.00     0.210 HD
ENDBRANCH  24  40
TORSDOF 9
ENDMDL
MODEL 8
REMARK minimizedAffinity -7.61000824
REMARK CNNscore 0.4219428
REMARK CNNaffinity 6.28377151
REMARK  9 active torsions:
REMARK  status: ('A' for Active; 'I' for Inactive)
REMARK    1  A    between atoms: C2_2  and  C30_35 
REMARK    2  A    between atoms: C3_3  and  C4_4 
REMARK    3  A    between atoms: C4_4  and  O1_5 
REMARK    4  A    between atoms: C4_4  and  C5_6 
REMARK    5  A    between atoms: C5_6  and  C6_7 
REMARK    6  A    between atoms: C6_7  and  C8_9 
REMARK    7  A    between atoms: C10_11  and  O2_12 
REMARK    8  A    between atoms: C29_33  and  O5_34 
REMARK    9  A    between atoms: C30_35  and  O7_37 
ROOT
HETATM    1  C8  UNL     1       3.600   9.725  13.249  1.00  0.00     0.001 C 
HETATM    2  C9  UNL     1       3.028  10.485  14.485  1.00  0.00     0.038 C 
HETATM    3  C10 UNL     1       4.194  10.686  15.468  1.00  0.00     0.132 C 
HETATM    4  C11 UNL     1       5.467  10.504  14.604  1.00  0.00     0.017 C 
HETATM    5  C12 UNL     1       5.698  11.817  13.781  1.00  0.00     0.023 C 
HETATM    6  C13 UNL     1       6.827  10.229  15.264  1.00  0.00    -0.029 C 
HETATM    7  C14 UNL     1       7.800   9.554  14.591  1.00  0.00     0.002 C 
HETATM    8  C15 UNL     1       7.466   8.929  13.242  1.00  0.00     0.157 C 
HETATM    9  O3  UNL     1       8.327   8.350  12.581  1.00  0.00    -0.293 OA
HETATM   10  C16 UNL     1       6.059   9.030  12.665  1.00  0.00     0.094 C 
HETATM   11  C17 UNL     1       5.010   9.264  13.748  1.00  0.00    -0.019 C 
HETATM   12  C18 UNL     1       4.869   7.951  14.582  1.00  0.00     0.017 C 
HETATM   13  C19 UNL     1       9.251   9.384  15.118  1.00  0.00    -0.008 C 
HETATM   14  C20 UNL     1       9.356   7.929  15.650  1.00  0.00     0.021 C 
HETATM   15  C21 UNL     1      10.335   9.569  14.005  1.00  0.00     0.022 C 
HETATM   16  C22 UNL     1      11.676  10.069  14.522  1.00  0.00     0.080 C 
HETATM   17  C23 UNL     1      11.534  11.427  15.164  1.00  0.00     0.135 C 
HETATM   18  O4  UNL     1      12.475  12.224  15.142  1.00  0.00    -0.297 OA
HETATM   19  C24 UNL     1      10.200  11.747  15.863  1.00  0.00     0.018 C 
HETATM   20  C25 UNL     1      10.533  12.624  17.093  1.00  0.00     0.023 C 
HETATM   21  C26 UNL     1       9.367  12.602  14.898  1.00  0.00     0.023 C 
HETATM   22  C27 UNL     1       9.575  10.375  16.305  1.00  0.00     0.016 C 
HETATM   23  C28 UNL     1       8.390  10.455  17.269  1.00  0.00     0.043 C 
HETATM   24  C29 UNL     1       7.079  10.867  16.615  1.00  0.00     0.149 C 
ENDROOT
BRANCH   1  25
HETATM   25  C6  UNL     1       2.578   8.687  12.687  1.00  0.00    -0.011 C 
HETATM   26  C7  UNL     1       2.309   7.544  13.670  1.00  0.00     0.010 C 
BRANCH  25  27
HETATM   27  C5  UNL     1       3.101   8.108  11.342  1.00  0.00     0.040 C 
BRANCH  27  28
HETATM   28  C4  UNL     1       3.236   6.577  11.267  1.00  0.00     0.142 C 
BRANCH  28  29
HETATM   29  C3  UNL     1       2.981   6.039   9.890  1.00  0.00     0.018 C 
HETATM   30  C2  UNL     1       2.945   6.736   8.735  1.00  0.00     0.010 C 
HETATM   31  C1  UNL     1       3.115   8.217   8.582  1.00  0.00     0.055 C 
BRANCH  30  32
HETATM   32  C30 UNL     1       2.704   5.939   7.507  1.00  0.00     0.171 C 
HETATM   33  O6  UNL     1       2.078   6.297   6.523  1.00  0.00    -0.646 OA
BRANCH  32  34
HETATM   34  O7  UNL     1       3.274   4.722   7.567  1.00  0.00    -0.773 OA
HETATM   35  H44 UNL     1       3.043   4.317   6.705  1.00  0.00     0.167 HD
ENDBRANCH  32  34
ENDBRANCH  30  32
ENDBRANCH  28  29
BRANCH  28  36
HETATM   36  O1  UNL     1       4.577   6.240  11.623  1.00  0.00    -0.392 OA
HETATM   37  H6  UNL     1       5.144   6.378  10.843  1.00  0.00     0.210 HD
ENDBRANCH  28  36
ENDBRANCH  27  28
ENDBRANCH  25  27
ENDBRANCH   1  25
BRANCH   3  38
HETATM   38  O2  UNL     1       4.126  11.953  16.111  1.00  0.00    -0.394 OA
HETATM   39  H17 UNL     1       3.231  12.036  16.492  1.00  0.00     0.210 HD
ENDBRANCH   3  38
BRANCH  24  40
HETATM   40  O5  UNL     1       6.065  10.493  17.538  1.00  0.00    -0.391 OA
HETATM   41  H43 UNL     1       5.434  11.238  17.556  1.00  0.00     0.210 HD
ENDBRANCH  24  40
TORSDOF 9
ENDMDL
MODEL 9
REMARK minimizedAffinity -7.95561743
REMARK CNNscore 0.403601795
REMARK CNNaffinity 5.79571342
REMARK  9 active torsions:
REMARK  status: ('A' for Active; 'I' for Inactive)
REMARK    1  A    between atoms: C2_2  and  C30_35 
REMARK    2  A    between atoms: C3_3  and  C4_4 
REMARK    3  A    between atoms: C4_4  and  O1_5 
REMARK    4  A    between atoms: C4_4  and  C5_6 
REMARK    5  A    between atoms: C5_6  and  C6_7 
REMARK    6  A    between atoms: C6_7  and  C8_9 
REMARK    7  A    between atoms: C10_11  and  O2_12 
REMARK    8  A    between atoms: C29_33  and  O5_34 
REMARK    9  A    between atoms: C30_35  and  O7_37 
ROOT
HETATM    1  C8  UNL     1      -2.136  10.928  16.505  1.00  0.00     0.001 C 
HETATM    2  C9  UNL     1      -1.119  10.532  17.619  1.00  0.00     0.038 C 
HETATM    3  C10 UNL     1      -0.172   9.484  17.011  1.00  0.00     0.132 C 
HETATM    4  C11 UNL     1      -0.328   9.661  15.479  1.00  0.00     0.017 C 
HETATM    5  C12 UNL     1       0.494  10.920  15.042  1.00  0.00     0.023 C 
HETATM    6  C13 UNL     1       0.131   8.556  14.514  1.00  0.00    -0.029 C 
HETATM    7  C14 UNL     1      -0.448   8.422  13.289  1.00  0.00     0.002 C 
HETATM    8  C15 UNL     1      -1.669   9.271  12.953  1.00  0.00     0.157 C 
HETATM    9  O3  UNL     1      -2.195   9.213  11.842  1.00  0.00    -0.293 OA
HETATM   10  C16 UNL     1      -2.253  10.234  13.980  1.00  0.00     0.094 C 
HETATM   11  C17 UNL     1      -1.891   9.838  15.409  1.00  0.00    -0.019 C 
HETATM   12  C18 UNL     1      -2.681   8.541  15.771  1.00  0.00     0.017 C 
HETATM   13  C19 UNL     1       0.068   7.450  12.195  1.00  0.00    -0.008 C 
HETATM   14  C20 UNL     1      -0.902   6.237  12.193  1.00  0.00     0.021 C 
HETATM   15  C21 UNL     1       0.059   8.075  10.761  1.00  0.00     0.022 C 
HETATM   16  C22 UNL     1       1.107   7.494   9.823  1.00  0.00     0.080 C 
HETATM   17  C23 UNL     1       2.499   7.740  10.352  1.00  0.00     0.135 C 
HETATM   18  O4  UNL     1       3.444   7.869   9.570  1.00  0.00    -0.297 OA
HETATM   19  C24 UNL     1       2.682   7.785  11.880  1.00  0.00     0.018 C 
HETATM   20  C25 UNL     1       4.063   7.163  12.189  1.00  0.00     0.023 C 
HETATM   21  C26 UNL     1       2.737   9.261  12.294  1.00  0.00     0.023 C 
HETATM   22  C27 UNL     1       1.526   6.923  12.504  1.00  0.00     0.016 C 
HETATM   23  C28 UNL     1       1.664   6.585  13.989  1.00  0.00     0.043 C 
HETATM   24  C29 UNL     1       1.340   7.740  14.925  1.00  0.00     0.149 C 
ENDROOT
BRANCH   1  25
HETATM   25  C6  UNL     1      -3.566  11.162  17.087  1.00  0.00    -0.011 C 
HETATM   26  C7  UNL     1      -4.346  12.224  16.307  1.00  0.00     0.010 C 
BRANCH  25  27
HETATM   27  C5  UNL     1      -3.465  11.578  18.582  1.00  0.00     0.040 C 
BRANCH  27  28
HETATM   28  C4  UNL     1      -3.978  12.986  18.931  1.00  0.00     0.142 C 
BRANCH  28  29
HETATM   29  C3  UNL     1      -4.821  13.005  20.172  1.00  0.00     0.018 C 
HETATM   30  C2  UNL     1      -6.077  13.480  20.299  1.00  0.00     0.010 C 
HETATM   31  C1  UNL     1      -6.895  14.134  19.227  1.00  0.00     0.055 C 
BRANCH  30  32
HETATM   32  C30 UNL     1      -6.689  13.338  21.644  1.00  0.00     0.171 C 
HETATM   33  O6  UNL     1      -7.859  13.094  21.883  1.00  0.00    -0.646 OA
BRANCH  32  34
HETATM   34  O7  UNL     1      -5.793  13.502  22.633  1.00  0.00    -0.773 OA
HETATM   35  H44 UNL     1      -6.324  13.379  23.447  1.00  0.00     0.167 HD
ENDBRANCH  32  34
ENDBRANCH  30  32
ENDBRANCH  28  29
BRANCH  28  36
HETATM   36  O1  UNL     1      -2.842  13.818  19.165  1.00  0.00    -0.392 OA
HETATM   37  H6  UNL     1      -2.525  13.655  20.071  1.00  0.00     0.210 HD
ENDBRANCH  28  36
ENDBRANCH  27  28
ENDBRANCH  25  27
ENDBRANCH   1  25
BRANCH   3  38
HETATM   38  O2  UNL     1       1.165   9.657  17.465  1.00  0.00    -0.394 OA
HETATM   39  H17 UNL     1       1.137   9.687  18.440  1.00  0.00     0.210 HD
ENDBRANCH   3  38
BRANCH  24  40
HETATM   40  O5  UNL     1       1.126   7.143  16.197  1.00  0.00    -0.391 OA
HETATM   41  H43 UNL     1       1.579   7.721  16.842  1.00  0.00     0.210 HD
ENDBRANCH  24  40
TORSDOF 9
ENDMDL
