MODEL 1
REMARK minimizedAffinity -7.84966707
REMARK CNNscore 0.749792933
REMARK CNNaffinity 7.32211637
REMARK  9 active torsions:
REMARK  status: ('A' for Active; 'I' for Inactive)
REMARK    1  A    between atoms: C2_2  and  C3_3 
REMARK    2  A    between atoms: C3_3  and  C5_5 
REMARK    3  A    between atoms: C3_3  and  C6_7 
REMARK    4  A    between atoms: C5_5  and  O1_6 
REMARK    5  A    between atoms: C7_8  and  O2_9 
REMARK    6  A    between atoms: C18_22  and  O5_23 
REMARK    7  A    between atoms: O5_23  and  C19_24 
REMARK    8  A    between atoms: C19_24  and  C20_26 
REMARK    9  A    between atoms: C29_36  and  O8_37 
ROOT
HETATM    1  C6  UNL     1      -0.749  52.281 -23.926  1.00  0.00     0.023 A 
HETATM    2  C7  UNL     1       0.402  53.083 -23.718  1.00  0.00     0.076 A 
HETATM    3  C8  UNL     1       0.964  53.278 -22.454  1.00  0.00     0.053 A 
HETATM    4  C9  UNL     1       0.395  52.671 -21.336  1.00  0.00     0.034 A 
HETATM    5  C10 UNL     1       1.002  52.899 -20.014  1.00  0.00     0.192 A 
HETATM    6  O3  UNL     1       1.944  53.675 -19.901  1.00  0.00    -0.287 OA
HETATM    7  C11 UNL     1       0.445  52.183 -18.836  1.00  0.00     0.035 A 
HETATM    8  C12 UNL     1      -0.658  51.431 -18.962  1.00  0.00     0.131 A 
HETATM    9  O4  UNL     1      -1.278  50.796 -17.911  1.00  0.00    -0.336 OA
HETATM   10  C13 UNL     1      -0.625  50.714 -16.630  1.00  0.00     0.065 C 
HETATM   11  C14 UNL     1      -1.789  50.590 -15.623  1.00  0.00     0.046 C 
HETATM   12  C15 UNL     1       0.142  49.387 -16.605  1.00  0.00     0.046 C 
HETATM   13  C16 UNL     1       0.203  52.001 -16.333  1.00  0.00     0.031 C 
HETATM   14  C17 UNL     1       0.939  52.036 -14.980  1.00  0.00     0.041 C 
HETATM   15  C18 UNL     1       2.341  51.421 -14.981  1.00  0.00     0.136 C 
HETATM   16  C23 UNL     1       3.224  51.996 -16.098  1.00  0.00     0.012 C 
HETATM   17  C24 UNL     1       3.639  53.455 -15.864  1.00  0.00     0.012 C 
HETATM   18  C25 UNL     1       2.530  51.813 -17.454  1.00  0.00     0.017 C 
HETATM   19  C26 UNL     1       1.117  52.429 -17.507  1.00  0.00     0.033 C 
HETATM   20  C27 UNL     1      -1.322  51.249 -20.286  1.00  0.00     0.219 A 
HETATM   21  O7  UNL     1      -2.346  50.580 -20.404  1.00  0.00    -0.284 OA
HETATM   22  C28 UNL     1      -0.732  51.877 -21.483  1.00  0.00     0.065 A 
HETATM   23  C29 UNL     1      -1.301  51.686 -22.767  1.00  0.00     0.091 A 
ENDROOT
BRANCH   1  24
HETATM   24  C3  UNL     1      -1.324  52.102 -25.371  1.00  0.00     0.027 C 
HETATM   25  C4  UNL     1      -2.852  52.393 -25.310  1.00  0.00     0.027 C 
BRANCH  24  26
HETATM   26  C2  UNL     1      -0.663  53.063 -26.380  1.00  0.00    -0.021 C 
HETATM   27  C1  UNL     1      -0.422  52.830 -27.680  1.00  0.00     0.008 C 
ENDBRANCH  24  26
BRANCH  24  28
HETATM   28  C5  UNL     1      -1.177  50.676 -26.010  1.00  0.00     0.182 C 
BRANCH  28  29
HETATM   29  O1  UNL     1      -2.394  50.182 -26.593  1.00  0.00    -0.399 OA
HETATM   30  H9  UNL     1      -2.934  49.823 -25.869  1.00  0.00     0.209 HD
ENDBRANCH  28  29
ENDBRANCH  24  28
ENDBRANCH   1  24
BRANCH   2  31
HETATM   31  O2  UNL     1       1.010  53.700 -24.779  1.00  0.00    -0.360 OA
HETATM   32  H10 UNL     1       1.855  54.091 -24.506  1.00  0.00     0.217 HD
ENDBRANCH   2  31
BRANCH  23  33
HETATM   33  O8  UNL     1      -2.421  50.905 -22.896  1.00  0.00    -0.359 OA
HETATM   34  H36 UNL     1      -2.701  50.565 -22.014  1.00  0.00     0.217 HD
ENDBRANCH  23  33
BRANCH  15  35
HETATM   35  O5  UNL     1       2.973  51.671 -13.711  1.00  0.00    -0.315 OA
BRANCH  35  36
HETATM   36  C19 UNL     1       3.234  50.575 -12.941  1.00  0.00     0.262 C 
HETATM   37  O6  UNL     1       4.155  50.491 -12.139  1.00  0.00    -0.265 OA
BRANCH  36  38
HETATM   38  C20 UNL     1       2.233  49.475 -13.247  1.00  0.00     0.077 C 
HETATM   39  C21 UNL     1       1.235  49.332 -12.101  1.00  0.00     0.020 C 
HETATM   40  C22 UNL     1       2.946  48.149 -13.507  1.00  0.00     0.020 C 
ENDBRANCH  36  38
ENDBRANCH  35  36
ENDBRANCH  15  35
TORSDOF 9
ENDMDL
MODEL 2
REMARK minimizedAffinity -6.36262655
REMARK CNNscore 0.745938122
REMARK CNNaffinity 5.91050005
REMARK  9 active torsions:
REMARK  status: ('A' for Active; 'I' for Inactive)
REMARK    1  A    between atoms: C2_2  and  C3_3 
REMARK    2  A    between atoms: C3_3  and  C5_5 
REMARK    3  A    between atoms: C3_3  and  C6_7 
REMARK    4  A    between atoms: C5_5  and  O1_6 
REMARK    5  A    between atoms: C7_8  and  O2_9 
REMARK    6  A    between atoms: C18_22  and  O5_23 
REMARK    7  A    between atoms: O5_23  and  C19_24 
REMARK    8  A    between atoms: C19_24  and  C20_26 
REMARK    9  A    between atoms: C29_36  and  O8_37 
ROOT
HETATM    1  C6  UNL     1       3.544  56.141  -8.164  1.00  0.00     0.023 A 
HETATM    2  C7  UNL     1       4.524  56.694  -7.301  1.00  0.00     0.076 A 
HETATM    3  C8  UNL     1       4.196  57.345  -6.110  1.00  0.00     0.053 A 
HETATM    4  C9  UNL     1       2.862  57.469  -5.727  1.00  0.00     0.034 A 
HETATM    5  C10 UNL     1       2.543  58.168  -4.470  1.00  0.00     0.192 A 
HETATM    6  O3  UNL     1       3.439  58.696  -3.821  1.00  0.00    -0.287 OA
HETATM    7  C11 UNL     1       1.127  58.224  -4.020  1.00  0.00     0.035 A 
HETATM    8  C12 UNL     1       0.150  57.743  -4.803  1.00  0.00     0.131 A 
HETATM    9  O4  UNL     1      -1.188  57.821  -4.496  1.00  0.00    -0.336 OA
HETATM   10  C13 UNL     1      -1.604  58.224  -3.177  1.00  0.00     0.065 C 
HETATM   11  C14 UNL     1      -3.007  58.830  -3.396  1.00  0.00     0.046 C 
HETATM   12  C15 UNL     1      -1.784  56.944  -2.355  1.00  0.00     0.046 C 
HETATM   13  C16 UNL     1      -0.645  59.301  -2.585  1.00  0.00     0.031 C 
HETATM   14  C17 UNL     1      -0.996  59.822  -1.179  1.00  0.00     0.041 C 
HETATM   15  C18 UNL     1      -0.417  59.011  -0.016  1.00  0.00     0.136 C 
HETATM   16  C23 UNL     1       1.097  58.797  -0.157  1.00  0.00     0.012 C 
HETATM   17  C24 UNL     1       1.920  60.075   0.054  1.00  0.00     0.012 C 
HETATM   18  C25 UNL     1       1.404  58.139  -1.509  1.00  0.00     0.017 C 
HETATM   19  C26 UNL     1       0.852  58.928  -2.713  1.00  0.00     0.033 C 
HETATM   20  C27 UNL     1       0.457  57.094  -6.112  1.00  0.00     0.219 A 
HETATM   21  O7  UNL     1      -0.435  56.672  -6.844  1.00  0.00    -0.284 OA
HETATM   22  C28 UNL     1       1.863  56.947  -6.533  1.00  0.00     0.065 A 
HETATM   23  C29 UNL     1       2.201  56.291  -7.743  1.00  0.00     0.091 A 
ENDROOT
BRANCH   1  24
HETATM   24  C3  UNL     1       3.982  55.420  -9.482  1.00  0.00     0.027 C 
HETATM   25  C4  UNL     1       3.609  56.349 -10.674  1.00  0.00     0.027 C 
BRANCH  24  26
HETATM   26  C2  UNL     1       5.498  55.139  -9.511  1.00  0.00    -0.021 C 
HETATM   27  C1  UNL     1       6.101  53.945  -9.397  1.00  0.00     0.008 C 
ENDBRANCH  24  26
BRANCH  24  28
HETATM   28  C5  UNL     1       3.305  54.036  -9.780  1.00  0.00     0.182 C 
BRANCH  28  29
HETATM   29  O1  UNL     1       2.954  53.303  -8.595  1.00  0.00    -0.399 OA
HETATM   30  H9  UNL     1       3.760  52.863  -8.281  1.00  0.00     0.209 HD
ENDBRANCH  28  29
ENDBRANCH  24  28
ENDBRANCH   1  24
BRANCH   2  31
HETATM   31  O2  UNL     1       5.853  56.598  -7.621  1.00  0.00    -0.360 OA
HETATM   32  H10 UNL     1       6.403  56.892  -6.877  1.00  0.00     0.217 HD
ENDBRANCH   2  31
BRANCH  23  33
HETATM   33  O8  UNL     1       1.201  55.787  -8.535  1.00  0.00    -0.359 OA
HETATM   34  H36 UNL     1       0.322  55.969  -8.129  1.00  0.00     0.217 HD
ENDBRANCH  23  33
BRANCH  15  35
HETATM   35  O5  UNL     1      -0.679  59.698   1.222  1.00  0.00    -0.315 OA
BRANCH  35  36
HETATM   36  C19 UNL     1      -1.448  60.822   1.137  1.00  0.00     0.262 C 
HETATM   37  O6  UNL     1      -1.010  61.962   1.067  1.00  0.00    -0.265 OA
BRANCH  36  38
HETATM   38  C20 UNL     1      -2.920  60.448   1.171  1.00  0.00     0.077 C 
HETATM   39  C21 UNL     1      -3.788  61.701   1.092  1.00  0.00     0.020 C 
HETATM   40  C22 UNL     1      -3.248  59.645   2.429  1.00  0.00     0.020 C 
ENDBRANCH  36  38
ENDBRANCH  35  36
ENDBRANCH  15  35
TORSDOF 9
ENDMDL
MODEL 3
REMARK minimizedAffinity -6.95973158
REMARK CNNscore 0.685846329
REMARK CNNaffinity 6.55129004
REMARK  9 active torsions:
REMARK  status: ('A' for Active; 'I' for Inactive)
REMARK    1  A    between atoms: C2_2  and  C3_3 
REMARK    2  A    between atoms: C3_3  and  C5_5 
REMARK    3  A    between atoms: C3_3  and  C6_7 
REMARK    4  A    between atoms: C5_5  and  O1_6 
REMARK    5  A    between atoms: C7_8  and  O2_9 
REMARK    6  A    between atoms: C18_22  and  O5_23 
REMARK    7  A    between atoms: O5_23  and  C19_24 
REMARK    8  A    between atoms: C19_24  and  C20_26 
REMARK    9  A    between atoms: C29_36  and  O8_37 
ROOT
HETATM    1  C6  UNL     1       7.196  57.330  -5.547  1.00  0.00     0.023 A 
HETATM    2  C7  UNL     1       6.070  58.153  -5.294  1.00  0.00     0.076 A 
HETATM    3  C8  UNL     1       4.844  57.971  -5.938  1.00  0.00     0.053 A 
HETATM    4  C9  UNL     1       4.692  56.945  -6.870  1.00  0.00     0.034 A 
HETATM    5  C10 UNL     1       3.392  56.780  -7.541  1.00  0.00     0.192 A 
HETATM    6  O3  UNL     1       2.490  57.585  -7.333  1.00  0.00    -0.287 OA
HETATM    7  C11 UNL     1       3.205  55.634  -8.470  1.00  0.00     0.035 A 
HETATM    8  C12 UNL     1       4.239  54.835  -8.773  1.00  0.00     0.131 A 
HETATM    9  O4  UNL     1       4.170  53.801  -9.677  1.00  0.00    -0.336 OA
HETATM   10  C13 UNL     1       2.893  53.366 -10.182  1.00  0.00     0.065 C 
HETATM   11  C14 UNL     1       3.224  52.751 -11.558  1.00  0.00     0.046 C 
HETATM   12  C15 UNL     1       2.420  52.225  -9.275  1.00  0.00     0.046 C 
HETATM   13  C16 UNL     1       1.915  54.567 -10.355  1.00  0.00     0.031 C 
HETATM   14  C17 UNL     1       0.516  54.228 -10.904  1.00  0.00     0.041 C 
HETATM   15  C18 UNL     1      -0.525  53.840  -9.849  1.00  0.00     0.136 C 
HETATM   16  C23 UNL     1      -0.618  54.876  -8.720  1.00  0.00     0.012 C 
HETATM   17  C24 UNL     1      -1.251  56.205  -9.156  1.00  0.00     0.012 C 
HETATM   18  C25 UNL     1       0.766  55.085  -8.093  1.00  0.00     0.017 C 
HETATM   19  C26 UNL     1       1.847  55.491  -9.115  1.00  0.00     0.033 C 
HETATM   20  C27 UNL     1       5.580  55.037  -8.150  1.00  0.00     0.219 A 
HETATM   21  O7  UNL     1       6.537  54.322  -8.441  1.00  0.00    -0.284 OA
HETATM   22  C28 UNL     1       5.761  56.112  -7.157  1.00  0.00     0.065 A 
HETATM   23  C29 UNL     1       7.004  56.305  -6.503  1.00  0.00     0.091 A 
ENDROOT
BRANCH   1  24
HETATM   24  C3  UNL     1       8.539  57.589  -4.785  1.00  0.00     0.027 C 
HETATM   25  C4  UNL     1       8.946  59.070  -5.036  1.00  0.00     0.027 C 
BRANCH  24  26
HETATM   26  C2  UNL     1       8.399  57.349  -3.268  1.00  0.00    -0.021 C 
HETATM   27  C1  UNL     1       8.948  56.356  -2.553  1.00  0.00     0.008 C 
ENDBRANCH  24  26
BRANCH  24  28
HETATM   28  C5  UNL     1       9.770  56.719  -5.223  1.00  0.00     0.182 C 
BRANCH  28  29
HETATM   29  O1  UNL     1      10.985  57.474  -5.361  1.00  0.00    -0.399 OA
HETATM   30  H9  UNL     1      10.956  57.907  -6.231  1.00  0.00     0.209 HD
ENDBRANCH  28  29
ENDBRANCH  24  28
ENDBRANCH   1  24
BRANCH   2  31
HETATM   31  O2  UNL     1       6.156  59.173  -4.383  1.00  0.00    -0.360 OA
HETATM   32  H10 UNL     1       5.279  59.553  -4.213  1.00  0.00     0.217 HD
ENDBRANCH   2  31
BRANCH  23  33
HETATM   33  O8  UNL     1       8.056  55.477  -6.803  1.00  0.00    -0.359 OA
HETATM   34  H36 UNL     1       7.786  54.820  -7.486  1.00  0.00     0.217 HD
ENDBRANCH  23  33
BRANCH  15  35
HETATM   35  O5  UNL     1      -1.816  53.715 -10.476  1.00  0.00    -0.315 OA
BRANCH  35  36
HETATM   36  C19 UNL     1      -2.609  52.701 -10.027  1.00  0.00     0.262 C 
HETATM   37  O6  UNL     1      -2.303  51.918  -9.138  1.00  0.00    -0.265 OA
BRANCH  36  38
HETATM   38  C20 UNL     1      -3.910  52.673 -10.812  1.00  0.00     0.077 C 
HETATM   39  C21 UNL     1      -4.589  51.314 -10.665  1.00  0.00     0.020 C 
HETATM   40  C22 UNL     1      -3.663  52.994 -12.285  1.00  0.00     0.020 C 
ENDBRANCH  36  38
ENDBRANCH  35  36
ENDBRANCH  15  35
TORSDOF 9
ENDMDL
MODEL 4
REMARK minimizedAffinity -7.59922886
REMARK CNNscore 0.654357016
REMARK CNNaffinity 7.02405882
REMARK  9 active torsions:
REMARK  status: ('A' for Active; 'I' for Inactive)
REMARK    1  A    between atoms: C2_2  and  C3_3 
REMARK    2  A    between atoms: C3_3  and  C5_5 
REMARK    3  A    between atoms: C3_3  and  C6_7 
REMARK    4  A    between atoms: C5_5  and  O1_6 
REMARK    5  A    between atoms: C7_8  and  O2_9 
REMARK    6  A    between atoms: C18_22  and  O5_23 
REMARK    7  A    between atoms: O5_23  and  C19_24 
REMARK    8  A    between atoms: C19_24  and  C20_26 
REMARK    9  A    between atoms: C29_36  and  O8_37 
ROOT
HETATM    1  C6  UNL     1      -1.430  51.470 -22.321  1.00  0.00     0.023 A 
HETATM    2  C7  UNL     1      -0.283  52.251 -22.027  1.00  0.00     0.076 A 
HETATM    3  C8  UNL     1       0.247  52.355 -20.739  1.00  0.00     0.053 A 
HETATM    4  C9  UNL     1      -0.352  51.673 -19.681  1.00  0.00     0.034 A 
HETATM    5  C10 UNL     1       0.221  51.806 -18.331  1.00  0.00     0.192 A 
HETATM    6  O3  UNL     1       1.162  52.569 -18.141  1.00  0.00    -0.287 OA
HETATM    7  C11 UNL     1      -0.367  51.012 -17.221  1.00  0.00     0.035 A 
HETATM    8  C12 UNL     1      -1.468  50.275 -17.427  1.00  0.00     0.131 A 
HETATM    9  O4  UNL     1      -2.116  49.571 -16.439  1.00  0.00    -0.336 OA
HETATM   10  C13 UNL     1      -1.496  49.396 -15.151  1.00  0.00     0.065 C 
HETATM   11  C14 UNL     1      -2.686  49.207 -14.186  1.00  0.00     0.046 C 
HETATM   12  C15 UNL     1      -0.733  48.068 -15.200  1.00  0.00     0.046 C 
HETATM   13  C16 UNL     1      -0.674  50.656 -14.744  1.00  0.00     0.031 C 
HETATM   14  C17 UNL     1       0.027  50.593 -13.373  1.00  0.00     0.041 C 
HETATM   15  C18 UNL     1       1.428  49.974 -13.382  1.00  0.00     0.136 C 
HETATM   16  C23 UNL     1       2.340  50.623 -14.433  1.00  0.00     0.012 C 
HETATM   17  C24 UNL     1       2.752  52.060 -14.086  1.00  0.00     0.012 C 
HETATM   18  C25 UNL     1       1.681  50.538 -15.815  1.00  0.00     0.017 C 
HETATM   19  C26 UNL     1       0.271  51.162 -15.861  1.00  0.00     0.033 C 
HETATM   20  C27 UNL     1      -2.098  50.189 -18.777  1.00  0.00     0.219 A 
HETATM   21  O7  UNL     1      -3.120  49.533 -18.968  1.00  0.00    -0.284 OA
HETATM   22  C28 UNL     1      -1.476  50.897 -19.912  1.00  0.00     0.065 A 
HETATM   23  C29 UNL     1      -2.012  50.798 -21.220  1.00  0.00     0.091 A 
ENDROOT
BRANCH   1  24
HETATM   24  C3  UNL     1      -1.968  51.395 -23.789  1.00  0.00     0.027 C 
HETATM   25  C4  UNL     1      -0.738  51.297 -24.738  1.00  0.00     0.027 C 
BRANCH  24  26
HETATM   26  C2  UNL     1      -2.878  50.170 -24.009  1.00  0.00    -0.021 C 
HETATM   27  C1  UNL     1      -2.757  49.235 -24.963  1.00  0.00     0.008 C 
ENDBRANCH  24  26
BRANCH  24  28
HETATM   28  C5  UNL     1      -2.807  52.623 -24.289  1.00  0.00     0.182 C 
BRANCH  28  29
HETATM   29  O1  UNL     1      -2.850  52.742 -25.721  1.00  0.00    -0.399 OA
HETATM   30  H9  UNL     1      -2.023  53.169 -25.998  1.00  0.00     0.209 HD
ENDBRANCH  28  29
ENDBRANCH  24  28
ENDBRANCH   1  24
BRANCH   2  31
HETATM   31  O2  UNL     1       0.354  52.939 -23.027  1.00  0.00    -0.360 OA
HETATM   32  H10 UNL     1       1.192  53.306 -22.705  1.00  0.00     0.217 HD
ENDBRANCH   2  31
BRANCH  23  33
HETATM   33  O8  UNL     1      -3.130  50.032 -21.432  1.00  0.00    -0.359 OA
HETATM   34  H36 UNL     1      -3.433  49.633 -20.583  1.00  0.00     0.217 HD
ENDBRANCH  23  33
BRANCH  15  35
HETATM   35  O5  UNL     1       2.027  50.132 -12.082  1.00  0.00    -0.315 OA
BRANCH  35  36
HETATM   36  C19 UNL     1       3.142  49.385 -11.836  1.00  0.00     0.262 C 
HETATM   37  O6  UNL     1       3.270  48.206 -12.137  1.00  0.00    -0.265 OA
BRANCH  36  38
HETATM   38  C20 UNL     1       4.181  50.224 -11.113  1.00  0.00     0.077 C 
HETATM   39  C21 UNL     1       4.911  49.383 -10.070  1.00  0.00     0.020 C 
HETATM   40  C22 UNL     1       3.535  51.446 -10.462  1.00  0.00     0.020 C 
ENDBRANCH  36  38
ENDBRANCH  35  36
ENDBRANCH  15  35
TORSDOF 9
ENDMDL
MODEL 5
REMARK minimizedAffinity -9.0425148
REMARK CNNscore 0.644909978
REMARK CNNaffinity 7.57668829
REMARK  9 active torsions:
REMARK  status: ('A' for Active; 'I' for Inactive)
REMARK    1  A    between atoms: C2_2  and  C3_3 
REMARK    2  A    between atoms: C3_3  and  C5_5 
REMARK    3  A    between atoms: C3_3  and  C6_7 
REMARK    4  A    between atoms: C5_5  and  O1_6 
REMARK    5  A    between atoms: C7_8  and  O2_9 
REMARK    6  A    between atoms: C18_22  and  O5_23 
REMARK    7  A    between atoms: O5_23  and  C19_24 
REMARK    8  A    between atoms: C19_24  and  C20_26 
REMARK    9  A    between atoms: C29_36  and  O8_37 
ROOT
HETATM    1  C6  UNL     1      -0.582  52.299 -24.972  1.00  0.00     0.023 A 
HETATM    2  C7  UNL     1       0.302  53.081 -24.185  1.00  0.00     0.076 A 
HETATM    3  C8  UNL     1       0.347  52.993 -22.792  1.00  0.00     0.053 A 
HETATM    4  C9  UNL     1      -0.496  52.109 -22.121  1.00  0.00     0.034 A 
HETATM    5  C10 UNL     1      -0.435  52.041 -20.651  1.00  0.00     0.192 A 
HETATM    6  O3  UNL     1       0.293  52.811 -20.035  1.00  0.00    -0.287 OA
HETATM    7  C11 UNL     1      -1.273  51.037 -19.944  1.00  0.00     0.035 A 
HETATM    8  C12 UNL     1      -2.149  50.286 -20.628  1.00  0.00     0.131 A 
HETATM    9  O4  UNL     1      -3.012  49.389 -20.043  1.00  0.00    -0.336 OA
HETATM   10  C13 UNL     1      -2.852  49.032 -18.657  1.00  0.00     0.065 C 
HETATM   11  C14 UNL     1      -4.270  48.615 -18.211  1.00  0.00     0.046 C 
HETATM   12  C15 UNL     1      -1.975  47.776 -18.618  1.00  0.00     0.046 C 
HETATM   13  C16 UNL     1      -2.363  50.247 -17.812  1.00  0.00     0.031 C 
HETATM   14  C17 UNL     1      -2.168  49.991 -16.306  1.00  0.00     0.041 C 
HETATM   15  C18 UNL     1      -0.788  49.461 -15.905  1.00  0.00     0.136 C 
HETATM   16  C23 UNL     1       0.349  50.330 -16.463  1.00  0.00     0.012 C 
HETATM   17  C24 UNL     1       0.455  51.707 -15.795  1.00  0.00     0.012 C 
HETATM   18  C25 UNL     1       0.213  50.445 -17.986  1.00  0.00     0.017 C 
HETATM   19  C26 UNL     1      -1.157  50.988 -18.440  1.00  0.00     0.033 C 
HETATM   20  C27 UNL     1      -2.269  50.397 -22.112  1.00  0.00     0.219 A 
HETATM   21  O7  UNL     1      -3.085  49.727 -22.741  1.00  0.00    -0.284 OA
HETATM   22  C28 UNL     1      -1.381  51.321 -22.841  1.00  0.00     0.065 A 
HETATM   23  C29 UNL     1      -1.425  51.418 -24.255  1.00  0.00     0.091 A 
ENDROOT
BRANCH   1  24
HETATM   24  C3  UNL     1      -0.576  52.446 -26.530  1.00  0.00     0.027 C 
HETATM   25  C4  UNL     1      -0.016  53.858 -26.869  1.00  0.00     0.027 C 
BRANCH  24  26
HETATM   26  C2  UNL     1       0.301  51.375 -27.209  1.00  0.00    -0.021 C 
HETATM   27  C1  UNL     1       1.282  51.580 -28.102  1.00  0.00     0.008 C 
ENDBRANCH  24  26
BRANCH  24  28
HETATM   28  C5  UNL     1      -1.968  52.346 -27.247  1.00  0.00     0.182 C 
BRANCH  28  29
HETATM   29  O1  UNL     1      -2.228  53.435 -28.148  1.00  0.00    -0.399 OA
HETATM   30  H9  UNL     1      -2.536  54.184 -27.612  1.00  0.00     0.209 HD
ENDBRANCH  28  29
ENDBRANCH  24  28
ENDBRANCH   1  24
BRANCH   2  31
HETATM   31  O2  UNL     1       1.160  53.963 -24.787  1.00  0.00    -0.360 OA
HETATM   32  H10 UNL     1       1.792  54.317 -24.142  1.00  0.00     0.217 HD
ENDBRANCH   2  31
BRANCH  23  33
HETATM   33  O8  UNL     1      -2.311  50.639 -24.954  1.00  0.00    -0.359 OA
HETATM   34  H36 UNL     1      -2.838  50.084 -24.332  1.00  0.00     0.217 HD
ENDBRANCH  23  33
BRANCH  15  35
HETATM   35  O5  UNL     1      -0.689  49.428 -14.468  1.00  0.00    -0.315 OA
BRANCH  35  36
HETATM   36  C19 UNL     1       0.263  50.231 -13.910  1.00  0.00     0.262 C 
HETATM   37  O6  UNL     1       1.464  50.142 -14.127  1.00  0.00    -0.265 OA
BRANCH  36  38
HETATM   38  C20 UNL     1      -0.387  51.227 -12.966  1.00  0.00     0.077 C 
HETATM   39  C21 UNL     1      -1.649  51.811 -13.597  1.00  0.00     0.020 C 
HETATM   40  C22 UNL     1       0.591  52.339 -12.591  1.00  0.00     0.020 C 
ENDBRANCH  36  38
ENDBRANCH  35  36
ENDBRANCH  15  35
TORSDOF 9
ENDMDL
MODEL 6
REMARK minimizedAffinity -7.98477221
REMARK CNNscore 0.621643126
REMARK CNNaffinity 6.59415817
REMARK  9 active torsions:
REMARK  status: ('A' for Active; 'I' for Inactive)
REMARK    1  A    between atoms: C2_2  and  C3_3 
REMARK    2  A    between atoms: C3_3  and  C5_5 
REMARK    3  A    between atoms: C3_3  and  C6_7 
REMARK    4  A    between atoms: C5_5  and  O1_6 
REMARK    5  A    between atoms: C7_8  and  O2_9 
REMARK    6  A    between atoms: C18_22  and  O5_23 
REMARK    7  A    between atoms: O5_23  and  C19_24 
REMARK    8  A    between atoms: C19_24  and  C20_26 
REMARK    9  A    between atoms: C29_36  and  O8_37 
ROOT
HETATM    1  C6  UNL     1      -1.769  52.559 -11.832  1.00  0.00     0.023 A 
HETATM    2  C7  UNL     1      -0.569  52.119 -12.446  1.00  0.00     0.076 A 
HETATM    3  C8  UNL     1       0.690  52.587 -12.061  1.00  0.00     0.053 A 
HETATM    4  C9  UNL     1       0.802  53.521 -11.033  1.00  0.00     0.034 A 
HETATM    5  C10 UNL     1       2.139  54.004 -10.651  1.00  0.00     0.192 A 
HETATM    6  O3  UNL     1       3.123  53.642 -11.287  1.00  0.00    -0.287 OA
HETATM    7  C11 UNL     1       2.264  54.935  -9.499  1.00  0.00     0.035 A 
HETATM    8  C12 UNL     1       1.166  55.410  -8.893  1.00  0.00     0.131 A 
HETATM    9  O4  UNL     1       1.191  56.330  -7.870  1.00  0.00    -0.336 OA
HETATM   10  C13 UNL     1       2.437  56.660  -7.226  1.00  0.00     0.065 C 
HETATM   11  C14 UNL     1       2.213  58.090  -6.689  1.00  0.00     0.046 C 
HETATM   12  C15 UNL     1       2.571  55.734  -6.013  1.00  0.00     0.046 C 
HETATM   13  C16 UNL     1       3.619  56.651  -8.242  1.00  0.00     0.031 C 
HETATM   14  C17 UNL     1       5.005  57.005  -7.672  1.00  0.00     0.041 C 
HETATM   15  C18 UNL     1       5.799  55.825  -7.101  1.00  0.00     0.136 C 
HETATM   16  C23 UNL     1       5.898  54.660  -8.096  1.00  0.00     0.012 C 
HETATM   17  C24 UNL     1       6.804  54.955  -9.299  1.00  0.00     0.012 C 
HETATM   18  C25 UNL     1       4.492  54.231  -8.534  1.00  0.00     0.017 C 
HETATM   19  C26 UNL     1       3.658  55.383  -9.129  1.00  0.00     0.033 C 
HETATM   20  C27 UNL     1      -0.199  54.980  -9.317  1.00  0.00     0.219 A 
HETATM   21  O7  UNL     1      -1.209  55.428  -8.780  1.00  0.00    -0.284 OA
HETATM   22  C28 UNL     1      -0.339  53.987 -10.398  1.00  0.00     0.065 A 
HETATM   23  C29 UNL     1      -1.614  53.512 -10.797  1.00  0.00     0.091 A 
ENDROOT
BRANCH   1  24
HETATM   24  C3  UNL     1      -3.146  51.990 -12.311  1.00  0.00     0.027 C 
HETATM   25  C4  UNL     1      -2.903  50.542 -12.830  1.00  0.00     0.027 C 
BRANCH  24  26
HETATM   26  C2  UNL     1      -4.185  51.954 -11.172  1.00  0.00    -0.021 C 
HETATM   27  C1  UNL     1      -4.538  50.891 -10.433  1.00  0.00     0.008 C 
ENDBRANCH  24  26
BRANCH  24  28
HETATM   28  C5  UNL     1      -3.851  52.760 -13.482  1.00  0.00     0.182 C 
BRANCH  28  29
HETATM   29  O1  UNL     1      -4.265  54.089 -13.127  1.00  0.00    -0.399 OA
HETATM   30  H9  UNL     1      -5.106  54.009 -12.647  1.00  0.00     0.209 HD
ENDBRANCH  28  29
ENDBRANCH  24  28
ENDBRANCH   1  24
BRANCH   2  31
HETATM   31  O2  UNL     1      -0.614  51.196 -13.457  1.00  0.00    -0.360 OA
HETATM   32  H10 UNL     1       0.280  50.890 -13.679  1.00  0.00     0.217 HD
ENDBRANCH   2  31
BRANCH  23  33
HETATM   33  O8  UNL     1      -2.735  53.988 -10.165  1.00  0.00    -0.359 OA
HETATM   34  H36 UNL     1      -2.482  54.647  -9.477  1.00  0.00     0.217 HD
ENDBRANCH  23  33
BRANCH  15  35
HETATM   35  O5  UNL     1       7.128  56.265  -6.761  1.00  0.00    -0.315 OA
BRANCH  35  36
HETATM   36  C19 UNL     1       7.617  55.836  -5.562  1.00  0.00     0.262 C 
HETATM   37  O6  UNL     1       7.554  54.683  -5.156  1.00  0.00    -0.265 OA
BRANCH  36  38
HETATM   38  C20 UNL     1       8.223  57.003  -4.802  1.00  0.00     0.077 C 
HETATM   39  C21 UNL     1       7.506  58.301  -5.163  1.00  0.00     0.020 C 
HETATM   40  C22 UNL     1       9.719  57.118  -5.085  1.00  0.00     0.020 C 
ENDBRANCH  36  38
ENDBRANCH  35  36
ENDBRANCH  15  35
TORSDOF 9
ENDMDL
MODEL 7
REMARK minimizedAffinity -9.12125587
REMARK CNNscore 0.539412618
REMARK CNNaffinity 6.92939138
REMARK  9 active torsions:
REMARK  status: ('A' for Active; 'I' for Inactive)
REMARK    1  A    between atoms: C2_2  and  C3_3 
REMARK    2  A    between atoms: C3_3  and  C5_5 
REMARK    3  A    between atoms: C3_3  and  C6_7 
REMARK    4  A    between atoms: C5_5  and  O1_6 
REMARK    5  A    between atoms: C7_8  and  O2_9 
REMARK    6  A    between atoms: C18_22  and  O5_23 
REMARK    7  A    between atoms: O5_23  and  C19_24 
REMARK    8  A    between atoms: C19_24  and  C20_26 
REMARK    9  A    between atoms: C29_36  and  O8_37 
ROOT
HETATM    1  C6  UNL     1      -0.950  51.495 -26.289  1.00  0.00     0.023 A 
HETATM    2  C7  UNL     1      -1.925  50.821 -27.067  1.00  0.00     0.076 A 
HETATM    3  C8  UNL     1      -2.859  49.945 -26.509  1.00  0.00     0.053 A 
HETATM    4  C9  UNL     1      -2.858  49.706 -25.136  1.00  0.00     0.034 A 
HETATM    5  C10 UNL     1      -3.848  48.772 -24.574  1.00  0.00     0.192 A 
HETATM    6  O3  UNL     1      -4.603  48.161 -25.322  1.00  0.00    -0.287 OA
HETATM    7  C11 UNL     1      -3.901  48.584 -23.100  1.00  0.00     0.035 A 
HETATM    8  C12 UNL     1      -2.989  49.172 -22.311  1.00  0.00     0.131 A 
HETATM    9  O4  UNL     1      -2.922  48.992 -20.949  1.00  0.00    -0.336 OA
HETATM   10  C13 UNL     1      -3.998  48.333 -20.254  1.00  0.00     0.065 C 
HETATM   11  C14 UNL     1      -3.323  47.733 -19.002  1.00  0.00     0.046 C 
HETATM   12  C15 UNL     1      -4.957  49.427 -19.775  1.00  0.00     0.046 C 
HETATM   13  C16 UNL     1      -4.619  47.196 -21.122  1.00  0.00     0.031 C 
HETATM   14  C17 UNL     1      -5.774  46.406 -20.477  1.00  0.00     0.041 C 
HETATM   15  C18 UNL     1      -7.170  47.002 -20.683  1.00  0.00     0.136 C 
HETATM   16  C23 UNL     1      -7.463  47.288 -22.163  1.00  0.00     0.012 C 
HETATM   17  C24 UNL     1      -7.653  46.022 -23.009  1.00  0.00     0.012 C 
HETATM   18  C25 UNL     1      -6.373  48.200 -22.740  1.00  0.00     0.017 C 
HETATM   19  C26 UNL     1      -4.949  47.636 -22.569  1.00  0.00     0.033 C 
HETATM   20  C27 UNL     1      -1.938  50.067 -22.879  1.00  0.00     0.219 A 
HETATM   21  O7  UNL     1      -1.086  50.590 -22.164  1.00  0.00    -0.284 OA
HETATM   22  C28 UNL     1      -1.925  50.338 -24.328  1.00  0.00     0.065 A 
HETATM   23  C29 UNL     1      -0.977  51.223 -24.901  1.00  0.00     0.091 A 
ENDROOT
BRANCH   1  24
HETATM   24  C3  UNL     1       0.064  52.467 -26.980  1.00  0.00     0.027 C 
HETATM   25  C4  UNL     1       0.373  53.617 -25.978  1.00  0.00     0.027 C 
BRANCH  24  26
HETATM   26  C2  UNL     1       1.379  51.756 -27.360  1.00  0.00    -0.021 C 
HETATM   27  C1  UNL     1       2.391  51.437 -26.538  1.00  0.00     0.008 C 
ENDBRANCH  24  26
BRANCH  24  28
HETATM   28  C5  UNL     1      -0.421  53.160 -28.302  1.00  0.00     0.182 C 
BRANCH  28  29
HETATM   29  O1  UNL     1      -1.618  53.938 -28.134  1.00  0.00    -0.399 OA
HETATM   30  H9  UNL     1      -2.367  53.320 -28.160  1.00  0.00     0.209 HD
ENDBRANCH  28  29
ENDBRANCH  24  28
ENDBRANCH   1  24
BRANCH   2  31
HETATM   31  O2  UNL     1      -1.981  51.020 -28.422  1.00  0.00    -0.360 OA
HETATM   32  H10 UNL     1      -2.777  50.609 -28.793  1.00  0.00     0.217 HD
ENDBRANCH   2  31
BRANCH  23  33
HETATM   33  O8  UNL     1      -0.055  51.834 -24.091  1.00  0.00    -0.359 OA
HETATM   34  H36 UNL     1      -0.183  51.548 -23.156  1.00  0.00     0.217 HD
ENDBRANCH  23  33
BRANCH  15  35
HETATM   35  O5  UNL     1      -8.159  46.083 -20.180  1.00  0.00    -0.315 OA
BRANCH  35  36
HETATM   36  C19 UNL     1      -8.824  46.470 -19.053  1.00  0.00     0.262 C 
HETATM   37  O6  UNL     1      -9.093  45.730 -18.116  1.00  0.00    -0.265 OA
BRANCH  36  38
HETATM   38  C20 UNL     1      -9.198  47.938 -19.149  1.00  0.00     0.077 C 
HETATM   39  C21 UNL     1      -8.816  48.669 -17.864  1.00  0.00     0.020 C 
HETATM   40  C22 UNL     1     -10.690  48.101 -19.436  1.00  0.00     0.020 C 
ENDBRANCH  36  38
ENDBRANCH  35  36
ENDBRANCH  15  35
TORSDOF 9
ENDMDL
MODEL 8
REMARK minimizedAffinity -9.25248051
REMARK CNNscore 0.535373867
REMARK CNNaffinity 7.29030085
REMARK  9 active torsions:
REMARK  status: ('A' for Active; 'I' for Inactive)
REMARK    1  A    between atoms: C2_2  and  C3_3 
REMARK    2  A    between atoms: C3_3  and  C5_5 
REMARK    3  A    between atoms: C3_3  and  C6_7 
REMARK    4  A    between atoms: C5_5  and  O1_6 
REMARK    5  A    between atoms: C7_8  and  O2_9 
REMARK    6  A    between atoms: C18_22  and  O5_23 
REMARK    7  A    between atoms: O5_23  and  C19_24 
REMARK    8  A    between atoms: C19_24  and  C20_26 
REMARK    9  A    between atoms: C29_36  and  O8_37 
ROOT
HETATM    1  C6  UNL     1      -0.888  52.139 -25.119  1.00  0.00     0.023 A 
HETATM    2  C7  UNL     1       0.136  52.888 -24.486  1.00  0.00     0.076 A 
HETATM    3  C8  UNL     1       0.312  52.902 -23.101  1.00  0.00     0.053 A 
HETATM    4  C9  UNL     1      -0.536  52.157 -22.283  1.00  0.00     0.034 A 
HETATM    5  C10 UNL     1      -0.335  52.195 -20.824  1.00  0.00     0.192 A 
HETATM    6  O3  UNL     1       0.517  52.934 -20.345  1.00  0.00    -0.287 OA
HETATM    7  C11 UNL     1      -1.185  51.334 -19.960  1.00  0.00     0.035 A 
HETATM    8  C12 UNL     1      -2.188  50.622 -20.494  1.00  0.00     0.131 A 
HETATM    9  O4  UNL     1      -3.065  49.859 -19.758  1.00  0.00    -0.336 OA
HETATM   10  C13 UNL     1      -2.800  49.594 -18.368  1.00  0.00     0.065 C 
HETATM   11  C14 UNL     1      -4.198  49.352 -17.760  1.00  0.00     0.046 C 
HETATM   12  C15 UNL     1      -2.039  48.265 -18.304  1.00  0.00     0.046 C 
HETATM   13  C16 UNL     1      -2.122  50.817 -17.677  1.00  0.00     0.031 C 
HETATM   14  C17 UNL     1      -1.802  50.657 -16.179  1.00  0.00     0.041 C 
HETATM   15  C18 UNL     1      -0.441  50.027 -15.864  1.00  0.00     0.136 C 
HETATM   16  C23 UNL     1       0.707  50.736 -16.596  1.00  0.00     0.012 C 
HETATM   17  C24 UNL     1       1.002  52.144 -16.060  1.00  0.00     0.012 C 
HETATM   18  C25 UNL     1       0.431  50.749 -18.105  1.00  0.00     0.017 C 
HETATM   19  C26 UNL     1      -0.924  51.387 -18.474  1.00  0.00     0.033 C 
HETATM   20  C27 UNL     1      -2.445  50.631 -21.965  1.00  0.00     0.219 A 
HETATM   21  O7  UNL     1      -3.376  49.999 -22.458  1.00  0.00    -0.284 OA
HETATM   22  C28 UNL     1      -1.555  51.407 -22.849  1.00  0.00     0.065 A 
HETATM   23  C29 UNL     1      -1.731  51.401 -24.255  1.00  0.00     0.091 A 
ENDROOT
BRANCH   1  24
HETATM   24  C3  UNL     1      -1.025  52.166 -26.678  1.00  0.00     0.027 C 
HETATM   25  C4  UNL     1      -0.108  51.047 -27.252  1.00  0.00     0.027 C 
BRANCH  24  26
HETATM   26  C2  UNL     1      -2.477  51.919 -27.136  1.00  0.00    -0.021 C 
HETATM   27  C1  UNL     1      -2.917  50.927 -27.926  1.00  0.00     0.008 C 
ENDBRANCH  24  26
BRANCH  24  28
HETATM   28  C5  UNL     1      -0.593  53.493 -27.395  1.00  0.00     0.182 C 
BRANCH  28  29
HETATM   29  O1  UNL     1      -1.642  54.093 -28.173  1.00  0.00    -0.399 OA
HETATM   30  H9  UNL     1      -1.675  53.622 -29.021  1.00  0.00     0.209 HD
ENDBRANCH  28  29
ENDBRANCH  24  28
ENDBRANCH   1  24
BRANCH   2  31
HETATM   31  O2  UNL     1       1.005  53.635 -25.238  1.00  0.00    -0.360 OA
HETATM   32  H10 UNL     1       1.728  53.973 -24.685  1.00  0.00     0.217 HD
ENDBRANCH   2  31
BRANCH  23  33
HETATM   33  O8  UNL     1      -2.749  50.660 -24.801  1.00  0.00    -0.359 OA
HETATM   34  H36 UNL     1      -3.259  50.208 -24.089  1.00  0.00     0.217 HD
ENDBRANCH  23  33
BRANCH  15  35
HETATM   35  O5  UNL     1      -0.202  50.093 -14.446  1.00  0.00    -0.315 OA
BRANCH  35  36
HETATM   36  C19 UNL     1       0.272  51.280 -13.968  1.00  0.00     0.262 C 
HETATM   37  O6  UNL     1      -0.179  52.379 -14.262  1.00  0.00    -0.265 OA
BRANCH  36  38
HETATM   38  C20 UNL     1       1.453  51.033 -13.045  1.00  0.00     0.077 C 
HETATM   39  C21 UNL     1       1.374  51.949 -11.826  1.00  0.00     0.020 C 
HETATM   40  C22 UNL     1       2.773  51.236 -13.785  1.00  0.00     0.020 C 
ENDBRANCH  36  38
ENDBRANCH  35  36
ENDBRANCH  15  35
TORSDOF 9
ENDMDL
MODEL 9
REMARK minimizedAffinity -8.95312405
REMARK CNNscore 0.508113682
REMARK CNNaffinity 6.6436162
REMARK  9 active torsions:
REMARK  status: ('A' for Active; 'I' for Inactive)
REMARK    1  A    between atoms: C2_2  and  C3_3 
REMARK    2  A    between atoms: C3_3  and  C5_5 
REMARK    3  A    between atoms: C3_3  and  C6_7 
REMARK    4  A    between atoms: C5_5  and  O1_6 
REMARK    5  A    between atoms: C7_8  and  O2_9 
REMARK    6  A    between atoms: C18_22  and  O5_23 
REMARK    7  A    between atoms: O5_23  and  C19_24 
REMARK    8  A    between atoms: C19_24  and  C20_26 
REMARK    9  A    between atoms: C29_36  and  O8_37 
ROOT
HETATM    1  C6  UNL     1      -1.020  51.371 -25.894  1.00  0.00     0.023 A 
HETATM    2  C7  UNL     1      -1.693  50.867 -27.035  1.00  0.00     0.076 A 
HETATM    3  C8  UNL     1      -2.802  50.022 -26.942  1.00  0.00     0.053 A 
HETATM    4  C9  UNL     1      -3.289  49.646 -25.692  1.00  0.00     0.034 A 
HETATM    5  C10 UNL     1      -4.454  48.748 -25.622  1.00  0.00     0.192 A 
HETATM    6  O3  UNL     1      -4.930  48.283 -26.652  1.00  0.00    -0.287 OA
HETATM    7  C11 UNL     1      -5.025  48.416 -24.290  1.00  0.00     0.035 A 
HETATM    8  C12 UNL     1      -4.419  48.839 -23.171  1.00  0.00     0.131 A 
HETATM    9  O4  UNL     1      -4.839  48.517 -21.901  1.00  0.00    -0.336 OA
HETATM   10  C13 UNL     1      -6.118  47.885 -21.702  1.00  0.00     0.065 C 
HETATM   11  C14 UNL     1      -5.949  47.105 -20.381  1.00  0.00     0.046 C 
HETATM   12  C15 UNL     1      -7.133  49.004 -21.444  1.00  0.00     0.046 C 
HETATM   13  C16 UNL     1      -6.450  46.901 -22.864  1.00  0.00     0.031 C 
HETATM   14  C17 UNL     1      -7.791  46.151 -22.755  1.00  0.00     0.041 C 
HETATM   15  C18 UNL     1      -9.000  46.883 -23.347  1.00  0.00     0.136 C 
HETATM   16  C23 UNL     1      -8.747  47.343 -24.790  1.00  0.00     0.012 C 
HETATM   17  C24 UNL     1      -8.688  46.190 -25.802  1.00  0.00     0.012 C 
HETATM   18  C25 UNL     1      -7.484  48.212 -24.843  1.00  0.00     0.017 C 
HETATM   19  C26 UNL     1      -6.235  47.513 -24.270  1.00  0.00     0.033 C 
HETATM   20  C27 UNL     1      -3.196  49.694 -23.230  1.00  0.00     0.219 A 
HETATM   21  O7  UNL     1      -2.624  50.066 -22.209  1.00  0.00    -0.284 OA
HETATM   22  C28 UNL     1      -2.668  50.109 -24.543  1.00  0.00     0.065 A 
HETATM   23  C29 UNL     1      -1.541  50.963 -24.643  1.00  0.00     0.091 A 
ENDROOT
BRANCH   1  24
HETATM   24  C3  UNL     1       0.214  52.318 -26.071  1.00  0.00     0.027 C 
HETATM   25  C4  UNL     1       0.733  52.688 -24.650  1.00  0.00     0.027 C 
BRANCH  24  26
HETATM   26  C2  UNL     1       1.350  51.644 -26.867  1.00  0.00    -0.021 C 
HETATM   27  C1  UNL     1       2.556  51.280 -26.403  1.00  0.00     0.008 C 
ENDBRANCH  24  26
BRANCH  24  28
HETATM   28  C5  UNL     1      -0.048  53.678 -26.807  1.00  0.00     0.182 C 
BRANCH  28  29
HETATM   29  O1  UNL     1       0.204  54.831 -25.987  1.00  0.00    -0.399 OA
HETATM   30  H9  UNL     1      -0.578  54.961 -25.426  1.00  0.00     0.209 HD
ENDBRANCH  28  29
ENDBRANCH  24  28
ENDBRANCH   1  24
BRANCH   2  31
HETATM   31  O2  UNL     1      -1.265  51.207 -28.291  1.00  0.00    -0.360 OA
HETATM   32  H10 UNL     1      -1.901  50.906 -28.960  1.00  0.00     0.217 HD
ENDBRANCH   2  31
BRANCH  23  33
HETATM   33  O8  UNL     1      -0.931  51.407 -23.498  1.00  0.00    -0.359 OA
HETATM   34  H36 UNL     1      -1.389  51.039 -22.706  1.00  0.00     0.217 HD
ENDBRANCH  23  33
BRANCH  15  35
HETATM   35  O5  UNL     1     -10.143  46.007 -23.330  1.00  0.00    -0.315 OA
BRANCH  35  36
HETATM   36  C19 UNL     1     -11.352  46.597 -23.107  1.00  0.00     0.262 C 
HETATM   37  O6  UNL     1     -12.076  47.054 -23.982  1.00  0.00    -0.265 OA
BRANCH  36  38
HETATM   38  C20 UNL     1     -11.650  46.625 -21.618  1.00  0.00     0.077 C 
HETATM   39  C21 UNL     1     -11.482  45.231 -21.018  1.00  0.00     0.020 C 
HETATM   40  C22 UNL     1     -13.057  47.157 -21.355  1.00  0.00     0.020 C 
ENDBRANCH  36  38
ENDBRANCH  35  36
ENDBRANCH  15  35
TORSDOF 9
ENDMDL
