MODEL 1
REMARK minimizedAffinity -9.19098473
REMARK  4 active torsions:
REMARK  status: ('A' for Active; 'I' for Inactive)
REMARK    1  A    between atoms: C4_4  and  C5_5 
REMARK    2  A    between atoms: C5_5  and  C6_7 
REMARK    3  A    between atoms: C6_7  and  C7_8 
REMARK    4  A    between atoms: C7_8  and  C9_10 
ROOT
HETATM    1  C9  UNL     1       1.085   6.523  11.693  1.00  0.00    -0.001 C 
HETATM    2  C10 UNL     1       1.362   4.990  11.652  1.00  0.00     0.007 C 
HETATM    3  C11 UNL     1       0.069   4.273  12.098  1.00  0.00     0.015 C 
HETATM    4  C12 UNL     1      -1.007   5.373  12.084  1.00  0.00    -0.013 C 
HETATM    5  C13 UNL     1      -1.477   5.495  10.589  1.00  0.00     0.021 C 
HETATM    6  C14 UNL     1      -2.290   5.158  12.890  1.00  0.00    -0.070 C 
HETATM    7  C15 UNL     1      -2.922   3.970  12.871  1.00  0.00    -0.022 C 
HETATM    8  C16 UNL     1      -4.343   3.781  13.300  1.00  0.00     0.034 C 
HETATM    9  C17 UNL     1      -5.127   5.108  13.190  1.00  0.00     0.013 C 
HETATM   10  C18 UNL     1      -6.680   4.935  13.358  1.00  0.00     0.018 C 
HETATM   11  C19 UNL     1      -7.236   4.168  12.129  1.00  0.00     0.023 C 
HETATM   12  C20 UNL     1      -7.133   4.163  14.608  1.00  0.00     0.023 C 
HETATM   13  C21 UNL     1      -7.345   6.320  13.393  1.00  0.00     0.135 C 
HETATM   14  O2  UNL     1      -8.406   6.559  12.811  1.00  0.00    -0.297 OA
HETATM   15  C22 UNL     1      -6.707   7.380  14.257  1.00  0.00     0.080 C 
HETATM   16  C23 UNL     1      -5.237   7.534  13.902  1.00  0.00     0.017 C 
HETATM   17  C24 UNL     1      -4.423   6.225  14.040  1.00  0.00    -0.031 C 
HETATM   18  C25 UNL     1      -4.340   5.860  15.550  1.00  0.00     0.016 C 
HETATM   19  C26 UNL     1      -2.906   6.402  13.554  1.00  0.00     0.024 C 
HETATM   20  C27 UNL     1      -2.569   7.675  12.743  1.00  0.00     0.010 C 
HETATM   21  C28 UNL     1      -1.056   7.876  12.444  1.00  0.00     0.011 C 
HETATM   22  C29 UNL     1      -0.186   6.606  12.604  1.00  0.00    -0.029 C 
HETATM   23  C30 UNL     1       0.290   6.475  14.086  1.00  0.00     0.016 C 
ENDROOT
BRANCH   1  24
HETATM   24  C7  UNL     1       2.356   7.345  12.051  1.00  0.00    -0.007 C 
HETATM   25  C8  UNL     1       2.051   8.552  12.944  1.00  0.00     0.011 C 
BRANCH  24  26
HETATM   26  C6  UNL     1       3.150   7.805  10.804  1.00  0.00     0.087 C 
BRANCH  26  27
HETATM   27  C5  UNL     1       3.646   6.671   9.922  1.00  0.00     0.149 C 
HETATM   28  O1  UNL     1       4.628   5.995  10.222  1.00  0.00    -0.293 OA
BRANCH  27  29
HETATM   29  C4  UNL     1       2.894   6.422   8.654  1.00  0.00     0.052 C 
HETATM   30  C2  UNL     1       2.585   7.363   7.743  1.00  0.00    -0.084 C 
HETATM   31  C1  UNL     1       2.997   8.807   7.820  1.00  0.00     0.043 C 
HETATM   32  C3  UNL     1       1.766   7.008   6.529  1.00  0.00     0.043 C 
ENDBRANCH  27  29
ENDBRANCH  26  27
ENDBRANCH  24  26
ENDBRANCH   1  24
TORSDOF 4
ENDMDL
MODEL 2
REMARK minimizedAffinity -9.01045322
REMARK  4 active torsions:
REMARK  status: ('A' for Active; 'I' for Inactive)
REMARK    1  A    between atoms: C4_4  and  C5_5 
REMARK    2  A    between atoms: C5_5  and  C6_7 
REMARK    3  A    between atoms: C6_7  and  C7_8 
REMARK    4  A    between atoms: C7_8  and  C9_10 
ROOT
HETATM    1  C9  UNL     1      -6.205   7.235  14.447  1.00  0.00    -0.001 C 
HETATM    2  C10 UNL     1      -5.907   8.614  15.109  1.00  0.00     0.007 C 
HETATM    3  C11 UNL     1      -4.406   8.914  14.900  1.00  0.00     0.015 C 
HETATM    4  C12 UNL     1      -3.945   7.872  13.866  1.00  0.00    -0.013 C 
HETATM    5  C13 UNL     1      -4.354   8.449  12.462  1.00  0.00     0.021 C 
HETATM    6  C14 UNL     1      -2.451   7.560  13.750  1.00  0.00    -0.070 C 
HETATM    7  C15 UNL     1      -1.540   8.551  13.763  1.00  0.00    -0.022 C 
HETATM    8  C16 UNL     1      -0.132   8.388  13.283  1.00  0.00     0.034 C 
HETATM    9  C17 UNL     1      -0.031   7.219  12.278  1.00  0.00     0.013 C 
HETATM   10  C18 UNL     1       1.348   7.157  11.525  1.00  0.00     0.018 C 
HETATM   11  C19 UNL     1       1.451   8.373  10.565  1.00  0.00     0.023 C 
HETATM   12  C20 UNL     1       2.598   7.187  12.419  1.00  0.00     0.023 C 
HETATM   13  C21 UNL     1       1.406   5.878  10.676  1.00  0.00     0.135 C 
HETATM   14  O2  UNL     1       1.876   5.861   9.536  1.00  0.00    -0.297 OA
HETATM   15  C22 UNL     1       0.953   4.590  11.320  1.00  0.00     0.080 C 
HETATM   16  C23 UNL     1      -0.445   4.752  11.895  1.00  0.00     0.017 C 
HETATM   17  C24 UNL     1      -0.563   5.895  12.932  1.00  0.00    -0.031 C 
HETATM   18  C25 UNL     1       0.247   5.489  14.198  1.00  0.00     0.016 C 
HETATM   19  C26 UNL     1      -2.071   6.104  13.433  1.00  0.00     0.024 C 
HETATM   20  C27 UNL     1      -3.188   5.415  12.614  1.00  0.00     0.010 C 
HETATM   21  C28 UNL     1      -4.609   5.513  13.239  1.00  0.00     0.011 C 
HETATM   22  C29 UNL     1      -4.774   6.615  14.313  1.00  0.00    -0.029 C 
HETATM   23  C30 UNL     1      -4.373   6.053  15.714  1.00  0.00     0.016 C 
ENDROOT
BRANCH   1  24
HETATM   24  C7  UNL     1      -7.328   6.454  15.189  1.00  0.00    -0.007 C 
HETATM   25  C8  UNL     1      -7.394   6.786  16.683  1.00  0.00     0.011 C 
BRANCH  24  26
HETATM   26  C6  UNL     1      -7.225   4.921  14.998  1.00  0.00     0.087 C 
BRANCH  26  27
HETATM   27  C5  UNL     1      -7.871   4.403  13.723  1.00  0.00     0.149 C 
HETATM   28  O1  UNL     1      -8.621   5.100  13.044  1.00  0.00    -0.293 OA
BRANCH  27  29
HETATM   29  C4  UNL     1      -7.567   2.991  13.338  1.00  0.00     0.052 C 
HETATM   30  C2  UNL     1      -6.829   2.621  12.276  1.00  0.00    -0.084 C 
HETATM   31  C1  UNL     1      -6.138   3.569  11.335  1.00  0.00     0.043 C 
HETATM   32  C3  UNL     1      -6.641   1.163  11.948  1.00  0.00     0.043 C 
ENDBRANCH  27  29
ENDBRANCH  26  27
ENDBRANCH  24  26
ENDBRANCH   1  24
TORSDOF 4
ENDMDL
MODEL 3
REMARK minimizedAffinity -8.7656498
REMARK  4 active torsions:
REMARK  status: ('A' for Active; 'I' for Inactive)
REMARK    1  A    between atoms: C4_4  and  C5_5 
REMARK    2  A    between atoms: C5_5  and  C6_7 
REMARK    3  A    between atoms: C6_7  and  C7_8 
REMARK    4  A    between atoms: C7_8  and  C9_10 
ROOT
HETATM    1  C9  UNL     1      -3.385   8.653  14.272  1.00  0.00    -0.001 C 
HETATM    2  C10 UNL     1      -2.925   8.046  15.632  1.00  0.00     0.007 C 
HETATM    3  C11 UNL     1      -1.462   7.579  15.460  1.00  0.00     0.015 C 
HETATM    4  C12 UNL     1      -1.012   8.202  14.127  1.00  0.00    -0.013 C 
HETATM    5  C13 UNL     1      -0.601   9.683  14.461  1.00  0.00     0.021 C 
HETATM    6  C14 UNL     1       0.199   7.605  13.406  1.00  0.00    -0.070 C 
HETATM    7  C15 UNL     1       1.307   7.265  14.091  1.00  0.00    -0.022 C 
HETATM    8  C16 UNL     1       2.640   7.042  13.451  1.00  0.00     0.034 C 
HETATM    9  C17 UNL     1       2.729   7.791  12.102  1.00  0.00     0.013 C 
HETATM   10  C18 UNL     1       4.182   7.833  11.502  1.00  0.00     0.018 C 
HETATM   11  C19 UNL     1       5.068   8.741  12.396  1.00  0.00     0.023 C 
HETATM   12  C20 UNL     1       4.897   6.476  11.395  1.00  0.00     0.023 C 
HETATM   13  C21 UNL     1       4.134   8.453  10.097  1.00  0.00     0.135 C 
HETATM   14  O2  UNL     1       4.985   9.252   9.698  1.00  0.00    -0.297 OA
HETATM   15  C22 UNL     1       3.051   7.977   9.159  1.00  0.00     0.080 C 
HETATM   16  C23 UNL     1       1.688   8.111   9.817  1.00  0.00     0.017 C 
HETATM   17  C24 UNL     1       1.563   7.339  11.153  1.00  0.00    -0.031 C 
HETATM   18  C25 UNL     1       1.607   5.815  10.840  1.00  0.00     0.016 C 
HETATM   19  C26 UNL     1       0.152   7.593  11.869  1.00  0.00     0.024 C 
HETATM   20  C27 UNL     1      -0.706   8.766  11.341  1.00  0.00     0.010 C 
HETATM   21  C28 UNL     1      -2.132   8.861  11.956  1.00  0.00     0.011 C 
HETATM   22  C29 UNL     1      -2.325   8.074  13.275  1.00  0.00    -0.029 C 
HETATM   23  C30 UNL     1      -2.737   6.602  12.956  1.00  0.00     0.016 C 
ENDROOT
BRANCH   1  24
HETATM   24  C7  UNL     1      -4.902   8.436  14.011  1.00  0.00    -0.007 C 
HETATM   25  C8  UNL     1      -5.756   8.644  15.265  1.00  0.00     0.011 C 
BRANCH  24  26
HETATM   26  C6  UNL     1      -5.217   7.054  13.388  1.00  0.00     0.087 C 
BRANCH  26  27
HETATM   27  C5  UNL     1      -5.942   6.096  14.320  1.00  0.00     0.149 C 
HETATM   28  O1  UNL     1      -6.331   6.441  15.434  1.00  0.00    -0.293 OA
BRANCH  27  29
HETATM   29  C4  UNL     1      -6.144   4.699  13.829  1.00  0.00     0.052 C 
HETATM   30  C2  UNL     1      -7.262   4.243  13.236  1.00  0.00    -0.084 C 
HETATM   31  C1  UNL     1      -8.470   5.080  12.915  1.00  0.00     0.043 C 
HETATM   32  C3  UNL     1      -7.378   2.795  12.837  1.00  0.00     0.043 C 
ENDBRANCH  27  29
ENDBRANCH  26  27
ENDBRANCH  24  26
ENDBRANCH   1  24
TORSDOF 4
ENDMDL
MODEL 4
REMARK minimizedAffinity -8.69266796
REMARK  4 active torsions:
REMARK  status: ('A' for Active; 'I' for Inactive)
REMARK    1  A    between atoms: C4_4  and  C5_5 
REMARK    2  A    between atoms: C5_5  and  C6_7 
REMARK    3  A    between atoms: C6_7  and  C7_8 
REMARK    4  A    between atoms: C7_8  and  C9_10 
ROOT
HETATM    1  C9  UNL     1      -2.918   4.181  12.750  1.00  0.00    -0.001 C 
HETATM    2  C10 UNL     1      -3.023   3.961  11.211  1.00  0.00     0.007 C 
HETATM    3  C11 UNL     1      -1.785   4.619  10.563  1.00  0.00     0.015 C 
HETATM    4  C12 UNL     1      -0.847   4.923  11.744  1.00  0.00    -0.013 C 
HETATM    5  C13 UNL     1      -0.091   3.579  12.051  1.00  0.00     0.021 C 
HETATM    6  C14 UNL     1       0.256   5.968  11.559  1.00  0.00    -0.070 C 
HETATM    7  C15 UNL     1       0.996   5.993  10.435  1.00  0.00    -0.022 C 
HETATM    8  C16 UNL     1       2.309   6.702  10.323  1.00  0.00     0.034 C 
HETATM    9  C17 UNL     1       2.959   6.868  11.716  1.00  0.00     0.013 C 
HETATM   10  C18 UNL     1       4.453   7.353  11.657  1.00  0.00     0.018 C 
HETATM   11  C19 UNL     1       5.327   6.217  11.063  1.00  0.00     0.023 C 
HETATM   12  C20 UNL     1       4.713   8.607  10.806  1.00  0.00     0.023 C 
HETATM   13  C21 UNL     1       4.952   7.638  13.082  1.00  0.00     0.135 C 
HETATM   14  O2  UNL     1       6.080   7.319  13.464  1.00  0.00    -0.297 OA
HETATM   15  C22 UNL     1       4.044   8.424  13.996  1.00  0.00     0.080 C 
HETATM   16  C23 UNL     1       2.672   7.774  14.061  1.00  0.00     0.017 C 
HETATM   17  C24 UNL     1       1.984   7.630  12.681  1.00  0.00    -0.031 C 
HETATM   18  C25 UNL     1       1.627   9.054  12.165  1.00  0.00     0.016 C 
HETATM   19  C26 UNL     1       0.591   6.844  12.779  1.00  0.00     0.024 C 
HETATM   20  C27 UNL     1       0.301   6.081  14.093  1.00  0.00     0.010 C 
HETATM   21  C28 UNL     1      -1.129   5.479  14.196  1.00  0.00     0.011 C 
HETATM   22  C29 UNL     1      -1.879   5.349  12.849  1.00  0.00    -0.029 C 
HETATM   23  C30 UNL     1      -2.637   6.678  12.534  1.00  0.00     0.016 C 
ENDROOT
BRANCH   1  24
HETATM   24  C7  UNL     1      -4.313   4.319  13.424  1.00  0.00    -0.007 C 
HETATM   25  C8  UNL     1      -5.440   3.706  12.587  1.00  0.00     0.011 C 
BRANCH  24  26
HETATM   26  C6  UNL     1      -4.668   5.782  13.786  1.00  0.00     0.087 C 
BRANCH  26  27
HETATM   27  C5  UNL     1      -5.895   5.929  14.672  1.00  0.00     0.149 C 
HETATM   28  O1  UNL     1      -5.809   6.002  15.896  1.00  0.00    -0.293 OA
BRANCH  27  29
HETATM   29  C4  UNL     1      -7.223   5.961  13.986  1.00  0.00     0.052 C 
HETATM   30  C2  UNL     1      -8.256   6.747  14.340  1.00  0.00    -0.084 C 
HETATM   31  C1  UNL     1      -8.225   7.766  15.446  1.00  0.00     0.043 C 
HETATM   32  C3  UNL     1      -9.572   6.650  13.614  1.00  0.00     0.043 C 
ENDBRANCH  27  29
ENDBRANCH  26  27
ENDBRANCH  24  26
ENDBRANCH   1  24
TORSDOF 4
ENDMDL
MODEL 5
REMARK minimizedAffinity -8.66285896
REMARK  4 active torsions:
REMARK  status: ('A' for Active; 'I' for Inactive)
REMARK    1  A    between atoms: C4_4  and  C5_5 
REMARK    2  A    between atoms: C5_5  and  C6_7 
REMARK    3  A    between atoms: C6_7  and  C7_8 
REMARK    4  A    between atoms: C7_8  and  C9_10 
ROOT
HETATM    1  C9  UNL     1      -3.067   4.807  13.245  1.00  0.00    -0.001 C 
HETATM    2  C10 UNL     1      -2.035   5.049  12.103  1.00  0.00     0.007 C 
HETATM    3  C11 UNL     1      -1.246   6.330  12.455  1.00  0.00     0.015 C 
HETATM    4  C12 UNL     1      -1.614   6.619  13.921  1.00  0.00    -0.013 C 
HETATM    5  C13 UNL     1      -0.685   5.693  14.787  1.00  0.00     0.021 C 
HETATM    6  C14 UNL     1      -1.395   8.030  14.471  1.00  0.00    -0.070 C 
HETATM    7  C15 UNL     1      -0.266   8.709  14.192  1.00  0.00    -0.022 C 
HETATM    8  C16 UNL     1       0.198   9.899  14.971  1.00  0.00     0.034 C 
HETATM    9  C17 UNL     1      -0.398   9.884  16.397  1.00  0.00     0.013 C 
HETATM   10  C18 UNL     1       0.251  10.943  17.360  1.00  0.00     0.018 C 
HETATM   11  C19 UNL     1       1.716  10.522  17.654  1.00  0.00     0.023 C 
HETATM   12  C20 UNL     1       0.300  12.385  16.829  1.00  0.00     0.023 C 
HETATM   13  C21 UNL     1      -0.515  10.956  18.692  1.00  0.00     0.135 C 
HETATM   14  O2  UNL     1       0.056  11.039  19.782  1.00  0.00    -0.297 OA
HETATM   15  C22 UNL     1      -2.023  10.965  18.631  1.00  0.00     0.080 C 
HETATM   16  C23 UNL     1      -2.522   9.814  17.773  1.00  0.00     0.017 C 
HETATM   17  C24 UNL     1      -1.966   9.829  16.328  1.00  0.00    -0.031 C 
HETATM   18  C25 UNL     1      -2.573  11.054  15.585  1.00  0.00     0.016 C 
HETATM   19  C26 UNL     1      -2.427   8.543  15.489  1.00  0.00     0.024 C 
HETATM   20  C27 UNL     1      -3.040   7.366  16.284  1.00  0.00     0.010 C 
HETATM   21  C28 UNL     1      -3.622   6.220  15.406  1.00  0.00     0.011 C 
HETATM   22  C29 UNL     1      -3.130   6.209  13.939  1.00  0.00    -0.029 C 
HETATM   23  C30 UNL     1      -4.048   7.124  13.067  1.00  0.00     0.016 C 
ENDROOT
BRANCH   1  24
HETATM   24  C7  UNL     1      -4.371   4.132  12.731  1.00  0.00    -0.007 C 
HETATM   25  C8  UNL     1      -4.255   3.641  11.285  1.00  0.00     0.011 C 
BRANCH  24  26
HETATM   26  C6  UNL     1      -5.619   5.037  12.877  1.00  0.00     0.087 C 
BRANCH  26  27
HETATM   27  C5  UNL     1      -6.874   4.307  13.326  1.00  0.00     0.149 C 
HETATM   28  O1  UNL     1      -6.971   3.083  13.270  1.00  0.00    -0.293 OA
BRANCH  27  29
HETATM   29  C4  UNL     1      -8.003   5.150  13.826  1.00  0.00     0.052 C 
HETATM   30  C2  UNL     1      -8.862   5.832  13.046  1.00  0.00    -0.084 C 
HETATM   31  C1  UNL     1      -8.865   5.810  11.542  1.00  0.00     0.043 C 
HETATM   32  C3  UNL     1      -9.926   6.702  13.662  1.00  0.00     0.043 C 
ENDBRANCH  27  29
ENDBRANCH  26  27
ENDBRANCH  24  26
ENDBRANCH   1  24
TORSDOF 4
ENDMDL
MODEL 6
REMARK minimizedAffinity -8.44047832
REMARK  4 active torsions:
REMARK  status: ('A' for Active; 'I' for Inactive)
REMARK    1  A    between atoms: C4_4  and  C5_5 
REMARK    2  A    between atoms: C5_5  and  C6_7 
REMARK    3  A    between atoms: C6_7  and  C7_8 
REMARK    4  A    between atoms: C7_8  and  C9_10 
ROOT
HETATM    1  C9  UNL     1      -2.016   9.423  15.662  1.00  0.00    -0.001 C 
HETATM    2  C10 UNL     1      -1.027   8.753  16.663  1.00  0.00     0.007 C 
HETATM    3  C11 UNL     1       0.088   8.081  15.833  1.00  0.00     0.015 C 
HETATM    4  C12 UNL     1      -0.102   8.636  14.410  1.00  0.00    -0.013 C 
HETATM    5  C13 UNL     1       0.604  10.041  14.399  1.00  0.00     0.021 C 
HETATM    6  C14 UNL     1       0.511   7.873  13.234  1.00  0.00    -0.070 C 
HETATM    7  C15 UNL     1       1.759   7.375  13.313  1.00  0.00    -0.022 C 
HETATM    8  C16 UNL     1       2.564   6.964  12.121  1.00  0.00     0.034 C 
HETATM    9  C17 UNL     1       2.071   7.696  10.852  1.00  0.00     0.013 C 
HETATM   10  C18 UNL     1       3.032   7.530   9.619  1.00  0.00     0.018 C 
HETATM   11  C19 UNL     1       4.350   8.298   9.902  1.00  0.00     0.023 C 
HETATM   12  C20 UNL     1       3.424   6.085   9.270  1.00  0.00     0.023 C 
HETATM   13  C21 UNL     1       2.378   8.155   8.377  1.00  0.00     0.135 C 
HETATM   14  O2  UNL     1       3.015   8.824   7.560  1.00  0.00    -0.297 OA
HETATM   15  C22 UNL     1       0.924   7.842   8.121  1.00  0.00     0.080 C 
HETATM   16  C23 UNL     1       0.091   8.169   9.349  1.00  0.00     0.017 C 
HETATM   17  C24 UNL     1       0.543   7.419  10.626  1.00  0.00    -0.031 C 
HETATM   18  C25 UNL     1       0.234   5.905  10.437  1.00  0.00     0.016 C 
HETATM   19  C26 UNL     1      -0.288   7.871  11.919  1.00  0.00     0.024 C 
HETATM   20  C27 UNL     1      -1.139   9.158  11.797  1.00  0.00     0.010 C 
HETATM   21  C28 UNL     1      -2.051   9.455  13.022  1.00  0.00     0.011 C 
HETATM   22  C29 UNL     1      -1.668   8.700  14.318  1.00  0.00    -0.029 C 
HETATM   23  C30 UNL     1      -2.366   7.303  14.342  1.00  0.00     0.016 C 
ENDROOT
BRANCH   1  24
HETATM   24  C7  UNL     1      -3.480   9.427  16.190  1.00  0.00    -0.007 C 
HETATM   25  C8  UNL     1      -4.508   9.151  15.088  1.00  0.00     0.011 C 
BRANCH  24  26
HETATM   26  C6  UNL     1      -3.851  10.732  16.935  1.00  0.00     0.087 C 
BRANCH  26  27
HETATM   27  C5  UNL     1      -3.185  10.890  18.293  1.00  0.00     0.149 C 
HETATM   28  O1  UNL     1      -3.275  10.029  19.165  1.00  0.00    -0.293 OA
BRANCH  27  29
HETATM   29  C4  UNL     1      -2.428  12.157  18.531  1.00  0.00     0.052 C 
HETATM   30  C2  UNL     1      -1.193  12.230  19.060  1.00  0.00    -0.084 C 
HETATM   31  C1  UNL     1      -0.347  11.047  19.443  1.00  0.00     0.043 C 
HETATM   32  C3  UNL     1      -0.551  13.569  19.313  1.00  0.00     0.043 C 
ENDBRANCH  27  29
ENDBRANCH  26  27
ENDBRANCH  24  26
ENDBRANCH   1  24
TORSDOF 4
ENDMDL
MODEL 7
REMARK minimizedAffinity -8.4398365
REMARK  4 active torsions:
REMARK  status: ('A' for Active; 'I' for Inactive)
REMARK    1  A    between atoms: C4_4  and  C5_5 
REMARK    2  A    between atoms: C5_5  and  C6_7 
REMARK    3  A    between atoms: C6_7  and  C7_8 
REMARK    4  A    between atoms: C7_8  and  C9_10 
ROOT
HETATM    1  C9  UNL     1      -1.119   9.801  14.674  1.00  0.00    -0.001 C 
HETATM    2  C10 UNL     1      -0.266   8.632  14.096  1.00  0.00     0.007 C 
HETATM    3  C11 UNL     1      -1.220   7.445  13.838  1.00  0.00     0.015 C 
HETATM    4  C12 UNL     1      -2.630   8.047  13.973  1.00  0.00    -0.013 C 
HETATM    5  C13 UNL     1      -2.943   8.722  12.588  1.00  0.00     0.021 C 
HETATM    6  C14 UNL     1      -3.810   7.108  14.234  1.00  0.00    -0.070 C 
HETATM    7  C15 UNL     1      -3.925   5.946  13.563  1.00  0.00    -0.022 C 
HETATM    8  C16 UNL     1      -5.199   5.168  13.468  1.00  0.00     0.034 C 
HETATM    9  C17 UNL     1      -6.419   6.090  13.692  1.00  0.00     0.013 C 
HETATM   10  C18 UNL     1      -7.792   5.410  13.340  1.00  0.00     0.018 C 
HETATM   11  C19 UNL     1      -7.868   5.197  11.804  1.00  0.00     0.023 C 
HETATM   12  C20 UNL     1      -8.045   4.041  13.993  1.00  0.00     0.023 C 
HETATM   13  C21 UNL     1      -8.941   6.345  13.745  1.00  0.00     0.135 C 
HETATM   14  O2  UNL     1      -9.941   6.509  13.041  1.00  0.00    -0.297 OA
HETATM   15  C22 UNL     1      -8.864   7.000  15.103  1.00  0.00     0.080 C 
HETATM   16  C23 UNL     1      -7.540   7.728  15.262  1.00  0.00     0.017 C 
HETATM   17  C24 UNL     1      -6.302   6.817  15.078  1.00  0.00    -0.031 C 
HETATM   18  C25 UNL     1      -6.251   5.819  16.272  1.00  0.00     0.016 C 
HETATM   19  C26 UNL     1      -4.929   7.641  15.145  1.00  0.00     0.024 C 
HETATM   20  C27 UNL     1      -5.025   9.181  15.045  1.00  0.00     0.010 C 
HETATM   21  C28 UNL     1      -3.685   9.935  15.284  1.00  0.00     0.011 C 
HETATM   22  C29 UNL     1      -2.414   9.062  15.152  1.00  0.00    -0.029 C 
HETATM   23  C30 UNL     1      -2.091   8.387  16.522  1.00  0.00     0.016 C 
ENDROOT
BRANCH   1  24
HETATM   24  C7  UNL     1      -0.314  10.685  15.669  1.00  0.00    -0.007 C 
HETATM   25  C8  UNL     1      -0.196  12.141  15.208  1.00  0.00     0.011 C 
BRANCH  24  26
HETATM   26  C6  UNL     1       1.093  10.119  15.978  1.00  0.00     0.087 C 
BRANCH  26  27
HETATM   27  C5  UNL     1       1.543  10.307  17.419  1.00  0.00     0.149 C 
HETATM   28  O1  UNL     1       2.157   9.434  18.028  1.00  0.00    -0.293 OA
BRANCH  27  29
HETATM   29  C4  UNL     1       1.187  11.602  18.074  1.00  0.00     0.052 C 
HETATM   30  C2  UNL     1       0.933  11.760  19.386  1.00  0.00    -0.084 C 
HETATM   31  C1  UNL     1       1.025  10.670  20.419  1.00  0.00     0.043 C 
HETATM   32  C3  UNL     1       0.521  13.104  19.927  1.00  0.00     0.043 C 
ENDBRANCH  27  29
ENDBRANCH  26  27
ENDBRANCH  24  26
ENDBRANCH   1  24
TORSDOF 4
ENDMDL
MODEL 8
REMARK minimizedAffinity -8.42000866
REMARK  4 active torsions:
REMARK  status: ('A' for Active; 'I' for Inactive)
REMARK    1  A    between atoms: C4_4  and  C5_5 
REMARK    2  A    between atoms: C5_5  and  C6_7 
REMARK    3  A    between atoms: C6_7  and  C7_8 
REMARK    4  A    between atoms: C7_8  and  C9_10 
ROOT
HETATM    1  C9  UNL     1      -3.578   3.437  12.242  1.00  0.00    -0.001 C 
HETATM    2  C10 UNL     1      -3.296   3.603  10.717  1.00  0.00     0.007 C 
HETATM    3  C11 UNL     1      -2.203   4.683  10.563  1.00  0.00     0.015 C 
HETATM    4  C12 UNL     1      -1.659   4.889  11.987  1.00  0.00    -0.013 C 
HETATM    5  C13 UNL     1      -0.619   3.733  12.222  1.00  0.00     0.021 C 
HETATM    6  C14 UNL     1      -0.901   6.179  12.307  1.00  0.00    -0.070 C 
HETATM    7  C15 UNL     1       0.012   6.670  11.448  1.00  0.00    -0.022 C 
HETATM    8  C16 UNL     1       1.050   7.678  11.830  1.00  0.00     0.034 C 
HETATM    9  C17 UNL     1       1.323   7.630  13.350  1.00  0.00     0.013 C 
HETATM   10  C18 UNL     1       2.586   8.459  13.787  1.00  0.00     0.018 C 
HETATM   11  C19 UNL     1       3.859   7.758  13.242  1.00  0.00     0.023 C 
HETATM   12  C20 UNL     1       2.631   9.914  13.292  1.00  0.00     0.023 C 
HETATM   13  C21 UNL     1       2.675   8.478  15.320  1.00  0.00     0.135 C 
HETATM   14  O2  UNL     1       3.744   8.352  15.922  1.00  0.00    -0.297 OA
HETATM   15  C22 UNL     1       1.409   8.760  16.091  1.00  0.00     0.080 C 
HETATM   16  C23 UNL     1       0.307   7.805  15.661  1.00  0.00     0.017 C 
HETATM   17  C24 UNL     1      -0.010   7.861  14.147  1.00  0.00    -0.031 C 
HETATM   18  C25 UNL     1      -0.658   9.241  13.836  1.00  0.00     0.016 C 
HETATM   19  C26 UNL     1      -1.097   6.765  13.716  1.00  0.00     0.024 C 
HETATM   20  C27 UNL     1      -1.410   5.643  14.734  1.00  0.00     0.010 C 
HETATM   21  C28 UNL     1      -2.588   4.710  14.333  1.00  0.00     0.011 C 
HETATM   22  C29 UNL     1      -2.974   4.754  12.835  1.00  0.00    -0.029 C 
HETATM   23  C30 UNL     1      -4.010   5.897  12.590  1.00  0.00     0.016 C 
ENDROOT
BRANCH   1  24
HETATM   24  C7  UNL     1      -5.058   3.058  12.532  1.00  0.00    -0.007 C 
HETATM   25  C8  UNL     1      -5.585   1.966  11.595  1.00  0.00     0.011 C 
BRANCH  24  26
HETATM   26  C6  UNL     1      -6.012   4.276  12.502  1.00  0.00     0.087 C 
BRANCH  26  27
HETATM   27  C5  UNL     1      -7.303   4.082  13.282  1.00  0.00     0.149 C 
HETATM   28  O1  UNL     1      -7.393   3.268  14.199  1.00  0.00    -0.293 OA
BRANCH  27  29
HETATM   29  C4  UNL     1      -8.474   4.915  12.869  1.00  0.00     0.052 C 
HETATM   30  C2  UNL     1      -8.871   6.046  13.481  1.00  0.00    -0.084 C 
HETATM   31  C1  UNL     1      -8.167   6.689  14.644  1.00  0.00     0.043 C 
HETATM   32  C3  UNL     1     -10.106   6.771  13.016  1.00  0.00     0.043 C 
ENDBRANCH  27  29
ENDBRANCH  26  27
ENDBRANCH  24  26
ENDBRANCH   1  24
TORSDOF 4
ENDMDL
MODEL 9
REMARK minimizedAffinity -8.34818459
REMARK  4 active torsions:
REMARK  status: ('A' for Active; 'I' for Inactive)
REMARK    1  A    between atoms: C4_4  and  C5_5 
REMARK    2  A    between atoms: C5_5  and  C6_7 
REMARK    3  A    between atoms: C6_7  and  C7_8 
REMARK    4  A    between atoms: C7_8  and  C9_10 
ROOT
HETATM    1  C9  UNL     1      -5.538   5.124  13.840  1.00  0.00    -0.001 C 
HETATM    2  C10 UNL     1      -4.979   4.547  12.504  1.00  0.00     0.007 C 
HETATM    3  C11 UNL     1      -3.578   5.159  12.285  1.00  0.00     0.015 C 
HETATM    4  C12 UNL     1      -3.230   5.819  13.631  1.00  0.00    -0.013 C 
HETATM    5  C13 UNL     1      -2.688   4.663  14.549  1.00  0.00     0.021 C 
HETATM    6  C14 UNL     1      -2.145   6.897  13.664  1.00  0.00    -0.070 C 
HETATM    7  C15 UNL     1      -0.997   6.738  12.981  1.00  0.00    -0.022 C 
HETATM    8  C16 UNL     1       0.244   7.530  13.249  1.00  0.00     0.034 C 
HETATM    9  C17 UNL     1       0.240   8.075  14.695  1.00  0.00     0.013 C 
HETATM   10  C18 UNL     1       1.621   8.681  15.140  1.00  0.00     0.018 C 
HETATM   11  C19 UNL     1       2.656   7.532  15.267  1.00  0.00     0.023 C 
HETATM   12  C20 UNL     1       2.228   9.725  14.189  1.00  0.00     0.023 C 
HETATM   13  C21 UNL     1       1.467   9.334  16.522  1.00  0.00     0.135 C 
HETATM   14  O2  UNL     1       2.323   9.226  17.404  1.00  0.00    -0.297 OA
HETATM   15  C22 UNL     1       0.262  10.214  16.749  1.00  0.00     0.080 C 
HETATM   16  C23 UNL     1      -1.012   9.463  16.401  1.00  0.00     0.017 C 
HETATM   17  C24 UNL     1      -1.047   8.937  14.945  1.00  0.00    -0.031 C 
HETATM   18  C25 UNL     1      -1.139  10.162  13.989  1.00  0.00     0.016 C 
HETATM   19  C26 UNL     1      -2.355   8.059  14.650  1.00  0.00     0.024 C 
HETATM   20  C27 UNL     1      -3.183   7.594  15.872  1.00  0.00     0.010 C 
HETATM   21  C28 UNL     1      -4.525   6.892  15.520  1.00  0.00     0.011 C 
HETATM   22  C29 UNL     1      -4.631   6.381  14.063  1.00  0.00    -0.029 C 
HETATM   23  C30 UNL     1      -5.172   7.520  13.141  1.00  0.00     0.016 C 
ENDROOT
BRANCH   1  24
HETATM   24  C7  UNL     1      -7.086   5.273  13.817  1.00  0.00    -0.007 C 
HETATM   25  C8  UNL     1      -7.700   4.882  12.469  1.00  0.00     0.011 C 
BRANCH  24  26
HETATM   26  C6  UNL     1      -7.564   6.690  14.217  1.00  0.00     0.087 C 
BRANCH  26  27
HETATM   27  C5  UNL     1      -8.794   6.709  15.110  1.00  0.00     0.149 C 
HETATM   28  O1  UNL     1      -8.804   6.173  16.216  1.00  0.00    -0.293 OA
BRANCH  27  29
HETATM   29  C4  UNL     1     -10.008   7.396  14.572  1.00  0.00     0.052 C 
HETATM   30  C2  UNL     1     -10.260   8.713  14.676  1.00  0.00    -0.084 C 
HETATM   31  C1  UNL     1      -9.333   9.722  15.297  1.00  0.00     0.043 C 
HETATM   32  C3  UNL     1     -11.550   9.287  14.151  1.00  0.00     0.043 C 
ENDBRANCH  27  29
ENDBRANCH  26  27
ENDBRANCH  24  26
ENDBRANCH   1  24
TORSDOF 4
ENDMDL
