MODEL 1
REMARK minimizedAffinity -9.62654305
REMARK CNNscore 0.724538565
REMARK CNNaffinity 7.94273758
REMARK  8 active torsions:
REMARK  status: ('A' for Active; 'I' for Inactive)
REMARK    1  A    between atoms: C3_3  and  O1_4 
REMARK    2  A    between atoms: N1_14  and  O2_16 
REMARK    3  A    between atoms: O2_16  and  C13_17 
REMARK    4  A    between atoms: C13_17  and  C14_18 
REMARK       I    between atoms: C14_18  and  N2_20 
REMARK    5  A    between atoms: N2_20  and  C15_21 
REMARK    6  A    between atoms: C15_21  and  C16_22 
REMARK    7  A    between atoms: C16_22  and  O4_23 
REMARK    8  A    between atoms: C16_22  and  C17_24 
ROOT
HETATM    1  C1  UNL     1       1.891   7.549   8.523  1.00  0.00     0.015 C 
HETATM    2  C2  UNL     1       1.456   7.106   9.552  1.00  0.00    -0.078 C 
HETATM    3  C3  UNL     1       0.922   6.549  10.804  1.00  0.00     0.128 C 
HETATM    4  C4  UNL     1       2.021   5.928  11.674  1.00  0.00     0.052 C 
HETATM    5  C5  UNL     1       1.311   5.724  13.005  1.00  0.00     0.010 C 
HETATM    6  C6  UNL     1       0.489   7.005  13.193  1.00  0.00     0.002 C 
HETATM    7  C7  UNL     1      -0.735   6.911  14.129  1.00  0.00    -0.004 C 
HETATM    8  C8  UNL     1      -1.639   5.677  13.977  1.00  0.00     0.010 C 
HETATM    9  C9  UNL     1      -2.768   5.680  15.009  1.00  0.00     0.035 C 
HETATM   10  C10 UNL     1      -3.542   6.979  15.086  1.00  0.00    -0.069 C 
HETATM   11  C11 UNL     1      -4.883   6.946  15.199  1.00  0.00     0.030 C 
HETATM   12  C12 UNL     1      -5.683   8.174  15.475  1.00  0.00     0.032 C 
HETATM   13  N1  UNL     1      -6.970   8.218  15.648  1.00  0.00    -0.271 N 
ATOM     14  H1  UNL     1      -7.483   9.072  15.870  1.00  0.00     0.194 HD
HETATM   15  C23 UNL     1      -4.930   9.477  15.667  1.00  0.00     0.060 C 
HETATM   16  C24 UNL     1      -3.641   9.502  14.856  1.00  0.00     0.020 C 
HETATM   17  C25 UNL     1      -2.724   8.270  15.110  1.00  0.00    -0.016 C 
HETATM   18  C26 UNL     1      -2.100   8.426  16.526  1.00  0.00     0.020 C 
HETATM   19  C27 UNL     1      -1.572   8.214  14.032  1.00  0.00     0.002 C 
HETATM   20  C28 UNL     1      -2.068   8.448  12.581  1.00  0.00     0.007 C 
HETATM   21  C29 UNL     1      -1.261   7.773  11.468  1.00  0.00     0.014 C 
HETATM   22  C30 UNL     1       0.237   7.589  11.763  1.00  0.00     0.003 C 
HETATM   23  C31 UNL     1       0.927   8.981  11.691  1.00  0.00     0.020 C 
ENDROOT
BRANCH   3  24
HETATM   24  O1  UNL     1       0.013   5.497  10.465  1.00  0.00    -0.377 OA
HETATM   25  H2  UNL     1       0.457   4.938   9.803  1.00  0.00     0.211 HD
ENDBRANCH   3  24
BRANCH  13  26
HETATM   26  O2  UNL     1      -7.577   6.961  15.495  1.00  0.00    -0.271 OA
BRANCH  26  27
HETATM   27  C13 UNL     1      -8.621   7.082  14.532  1.00  0.00     0.303 C 
BRANCH  27  28
HETATM   28  C14 UNL     1      -8.415   6.098  13.389  1.00  0.00     0.243 C 
HETATM   29  O3  UNL     1      -7.981   6.450  12.293  1.00  0.00    -0.271 OA
HETATM   30  N2  UNL     1      -8.675   4.782  13.724  1.00  0.00    -0.356 N 
HETATM   31  H16 UNL     1      -9.227   4.628  14.560  1.00  0.00     0.162 HD
BRANCH  30  32
HETATM   32  C15 UNL     1      -8.541   3.707  12.750  1.00  0.00     0.159 C 
BRANCH  32  33
HETATM   33  C16 UNL     1      -7.430   2.688  13.093  1.00  0.00     0.170 C 
BRANCH  33  34
HETATM   34  O4  UNL     1      -7.857   1.348  12.818  1.00  0.00    -0.389 OA
HETATM   35  H20 UNL     1      -7.068   0.819  12.607  1.00  0.00     0.210 HD
ENDBRANCH  33  34
BRANCH  33  36
HETATM   36  C17 UNL     1      -6.162   3.010  12.340  1.00  0.00    -0.013 A 
HETATM   37  C18 UNL     1      -5.266   3.987  12.791  1.00  0.00     0.013 A 
HETATM   38  C19 UNL     1      -4.086   4.225  12.088  1.00  0.00     0.025 A 
HETATM   39  C20 UNL     1      -3.822   3.472  10.949  1.00  0.00     0.005 A 
HETATM   40  C21 UNL     1      -2.571   3.715  10.161  1.00  0.00     0.068 C 
HETATM   41  N3  UNL     1      -4.670   2.519  10.491  1.00  0.00    -0.369 N 
HETATM   42  C22 UNL     1      -5.809   2.308  11.192  1.00  0.00     0.097 A 
ATOM     43  H3  UNL     1      -4.457   1.980   9.651  1.00  0.00     0.165 HD
ENDBRANCH  33  36
ENDBRANCH  32  33
ENDBRANCH  30  32
ENDBRANCH  27  28
ENDBRANCH  26  27
ENDBRANCH  13  26
TORSDOF 8
ENDMDL
MODEL 2
REMARK minimizedAffinity -8.73953629
REMARK CNNscore 0.663664222
REMARK CNNaffinity 6.70306253
REMARK  8 active torsions:
REMARK  status: ('A' for Active; 'I' for Inactive)
REMARK    1  A    between atoms: C3_3  and  O1_4 
REMARK    2  A    between atoms: N1_14  and  O2_16 
REMARK    3  A    between atoms: O2_16  and  C13_17 
REMARK    4  A    between atoms: C13_17  and  C14_18 
REMARK       I    between atoms: C14_18  and  N2_20 
REMARK    5  A    between atoms: N2_20  and  C15_21 
REMARK    6  A    between atoms: C15_21  and  C16_22 
REMARK    7  A    between atoms: C16_22  and  O4_23 
REMARK    8  A    between atoms: C16_22  and  C17_24 
ROOT
HETATM    1  C1  UNL     1       5.180   5.480  10.190  1.00  0.00     0.015 C 
HETATM    2  C2  UNL     1       4.155   6.105  10.234  1.00  0.00    -0.078 C 
HETATM    3  C3  UNL     1       2.908   6.883  10.282  1.00  0.00     0.128 C 
HETATM    4  C4  UNL     1       2.246   7.002   8.904  1.00  0.00     0.052 C 
HETATM    5  C5  UNL     1       0.864   7.541   9.247  1.00  0.00     0.010 C 
HETATM    6  C6  UNL     1       0.450   6.746  10.492  1.00  0.00     0.002 C 
HETATM    7  C7  UNL     1      -0.617   7.393  11.401  1.00  0.00    -0.004 C 
HETATM    8  C8  UNL     1      -0.457   8.890  11.713  1.00  0.00     0.010 C 
HETATM    9  C9  UNL     1      -1.615   9.412  12.564  1.00  0.00     0.035 C 
HETATM   10  C10 UNL     1      -1.917   8.577  13.791  1.00  0.00    -0.069 C 
HETATM   11  C11 UNL     1      -2.191   9.188  14.958  1.00  0.00     0.030 C 
HETATM   12  C12 UNL     1      -2.685   8.436  16.146  1.00  0.00     0.032 C 
HETATM   13  N1  UNL     1      -3.020   8.956  17.289  1.00  0.00    -0.271 N 
ATOM     14  H1  UNL     1      -3.388   8.416  18.073  1.00  0.00     0.194 HD
HETATM   15  C23 UNL     1      -2.912   6.943  15.992  1.00  0.00     0.060 C 
HETATM   16  C24 UNL     1      -1.953   6.335  14.976  1.00  0.00     0.020 C 
HETATM   17  C25 UNL     1      -1.968   7.061  13.599  1.00  0.00    -0.016 C 
HETATM   18  C26 UNL     1      -3.304   6.703  12.887  1.00  0.00     0.020 C 
HETATM   19  C27 UNL     1      -0.755   6.575  12.712  1.00  0.00     0.002 C 
HETATM   20  C28 UNL     1       0.593   6.524  13.478  1.00  0.00     0.007 C 
HETATM   21  C29 UNL     1       1.859   6.744  12.646  1.00  0.00     0.014 C 
HETATM   22  C30 UNL     1       1.772   6.276  11.183  1.00  0.00     0.003 C 
HETATM   23  C31 UNL     1       1.789   4.721  11.164  1.00  0.00     0.020 C 
ENDROOT
BRANCH   3  24
HETATM   24  O1  UNL     1       3.234   8.211  10.705  1.00  0.00    -0.377 OA
HETATM   25  H2  UNL     1       3.999   8.499  10.175  1.00  0.00     0.211 HD
ENDBRANCH   3  24
BRANCH  13  26
HETATM   26  O2  UNL     1      -2.819  10.345  17.326  1.00  0.00    -0.271 OA
BRANCH  26  27
HETATM   27  C13 UNL     1      -2.308  10.690  18.612  1.00  0.00     0.303 C 
BRANCH  27  28
HETATM   28  C14 UNL     1      -0.799  10.881  18.557  1.00  0.00     0.243 C 
HETATM   29  O3  UNL     1      -0.140  10.592  17.559  1.00  0.00    -0.271 OA
HETATM   30  N2  UNL     1      -0.264  11.479  19.683  1.00  0.00    -0.356 N 
HETATM   31  H16 UNL     1      -0.841  11.471  20.516  1.00  0.00     0.162 HD
BRANCH  30  32
HETATM   32  C15 UNL     1       1.165  11.728  19.808  1.00  0.00     0.159 C 
BRANCH  32  33
HETATM   33  C16 UNL     1       1.967  10.516  20.337  1.00  0.00     0.170 C 
BRANCH  33  34
HETATM   34  O4  UNL     1       2.365   9.653  19.264  1.00  0.00    -0.389 OA
HETATM   35  H20 UNL     1       3.186   9.204  19.530  1.00  0.00     0.210 HD
ENDBRANCH  33  34
BRANCH  33  36
HETATM   36  C17 UNL     1       3.168  10.976  21.127  1.00  0.00    -0.013 A 
HETATM   37  C18 UNL     1       3.683  10.224  22.189  1.00  0.00     0.013 A 
HETATM   38  C19 UNL     1       4.818  10.665  22.867  1.00  0.00     0.025 A 
HETATM   39  C20 UNL     1       5.423  11.851  22.461  1.00  0.00     0.005 A 
HETATM   40  C21 UNL     1       6.634  12.361  23.179  1.00  0.00     0.068 C 
HETATM   41  N3  UNL     1       4.947  12.597  21.435  1.00  0.00    -0.369 N 
HETATM   42  C22 UNL     1       3.842  12.147  20.795  1.00  0.00     0.097 A 
ATOM     43  H3  UNL     1       5.404  13.466  21.156  1.00  0.00     0.165 HD
ENDBRANCH  33  36
ENDBRANCH  32  33
ENDBRANCH  30  32
ENDBRANCH  27  28
ENDBRANCH  26  27
ENDBRANCH  13  26
TORSDOF 8
ENDMDL
MODEL 3
REMARK minimizedAffinity -7.62663984
REMARK CNNscore 0.491073042
REMARK CNNaffinity 5.87531614
REMARK  8 active torsions:
REMARK  status: ('A' for Active; 'I' for Inactive)
REMARK    1  A    between atoms: C3_3  and  O1_4 
REMARK    2  A    between atoms: N1_14  and  O2_16 
REMARK    3  A    between atoms: O2_16  and  C13_17 
REMARK    4  A    between atoms: C13_17  and  C14_18 
REMARK       I    between atoms: C14_18  and  N2_20 
REMARK    5  A    between atoms: N2_20  and  C15_21 
REMARK    6  A    between atoms: C15_21  and  C16_22 
REMARK    7  A    between atoms: C16_22  and  O4_23 
REMARK    8  A    between atoms: C16_22  and  C17_24 
ROOT
HETATM    1  C1  UNL     1       6.697  19.280  23.074  1.00  0.00     0.015 C 
HETATM    2  C2  UNL     1       6.850  18.102  22.892  1.00  0.00    -0.078 C 
HETATM    3  C3  UNL     1       7.051  16.664  22.660  1.00  0.00     0.128 C 
HETATM    4  C4  UNL     1       8.059  16.055  23.641  1.00  0.00     0.052 C 
HETATM    5  C5  UNL     1       7.862  14.560  23.432  1.00  0.00     0.010 C 
HETATM    6  C6  UNL     1       6.341  14.393  23.326  1.00  0.00     0.002 C 
HETATM    7  C7  UNL     1       5.833  13.135  22.589  1.00  0.00    -0.004 C 
HETATM    8  C8  UNL     1       6.536  12.765  21.272  1.00  0.00     0.010 C 
HETATM    9  C9  UNL     1       5.979  11.466  20.687  1.00  0.00     0.035 C 
HETATM   10  C10 UNL     1       4.469  11.420  20.590  1.00  0.00    -0.069 C 
HETATM   11  C11 UNL     1       3.892  10.909  19.487  1.00  0.00     0.030 C 
HETATM   12  C12 UNL     1       2.424  10.655  19.410  1.00  0.00     0.032 C 
HETATM   13  N1  UNL     1       1.798  10.119  18.404  1.00  0.00    -0.271 N 
ATOM     14  H1  UNL     1       0.796   9.927  18.397  1.00  0.00     0.194 HD
HETATM   15  C23 UNL     1       1.591  10.956  20.641  1.00  0.00     0.060 C 
HETATM   16  C24 UNL     1       2.183  12.103  21.450  1.00  0.00     0.020 C 
HETATM   17  C25 UNL     1       3.683  11.895  21.812  1.00  0.00    -0.016 C 
HETATM   18  C26 UNL     1       3.760  10.789  22.903  1.00  0.00     0.020 C 
HETATM   19  C27 UNL     1       4.299  13.234  22.378  1.00  0.00     0.002 C 
HETATM   20  C28 UNL     1       3.933  14.488  21.542  1.00  0.00     0.007 C 
HETATM   21  C29 UNL     1       4.948  15.635  21.553  1.00  0.00     0.014 C 
HETATM   22  C30 UNL     1       5.772  15.769  22.845  1.00  0.00     0.003 C 
HETATM   23  C31 UNL     1       4.843  16.315  23.966  1.00  0.00     0.020 C 
ENDROOT
BRANCH   3  24
HETATM   24  O1  UNL     1       7.597  16.502  21.347  1.00  0.00    -0.377 OA
HETATM   25  H2  UNL     1       8.325  17.143  21.259  1.00  0.00     0.211 HD
ENDBRANCH   3  24
BRANCH  13  26
HETATM   26  O2  UNL     1       2.654   9.833  17.329  1.00  0.00    -0.271 OA
BRANCH  26  27
HETATM   27  C13 UNL     1       2.000  10.217  16.122  1.00  0.00     0.303 C 
BRANCH  27  28
HETATM   28  C14 UNL     1       2.465   9.351  14.959  1.00  0.00     0.243 C 
HETATM   29  O3  UNL     1       3.580   9.478  14.455  1.00  0.00    -0.271 OA
HETATM   30  N2  UNL     1       1.563   8.370  14.590  1.00  0.00    -0.356 N 
HETATM   31  H16 UNL     1       0.608   8.491  14.908  1.00  0.00     0.162 HD
BRANCH  30  32
HETATM   32  C15 UNL     1       1.838   7.458  13.489  1.00  0.00     0.159 C 
BRANCH  32  33
HETATM   33  C16 UNL     1       3.023   7.894  12.597  1.00  0.00     0.170 C 
BRANCH  33  34
HETATM   34  O4  UNL     1       4.220   7.187  12.947  1.00  0.00    -0.389 OA
HETATM   35  H20 UNL     1       4.776   7.127  12.151  1.00  0.00     0.210 HD
ENDBRANCH  33  34
BRANCH  33  36
HETATM   36  C17 UNL     1       2.693   7.695  11.138  1.00  0.00    -0.013 A 
HETATM   37  C18 UNL     1       1.452   8.068  10.606  1.00  0.00     0.013 A 
HETATM   38  C19 UNL     1       1.202   7.905   9.245  1.00  0.00     0.025 A 
HETATM   39  C20 UNL     1       2.205   7.377   8.438  1.00  0.00     0.005 A 
HETATM   40  C21 UNL     1       1.962   7.172   6.974  1.00  0.00     0.068 C 
HETATM   41  N3  UNL     1       3.415   7.009   8.925  1.00  0.00    -0.369 N 
HETATM   42  C22 UNL     1       3.631   7.177  10.251  1.00  0.00     0.097 A 
ATOM     43  H3  UNL     1       4.135   6.621   8.316  1.00  0.00     0.165 HD
ENDBRANCH  33  36
ENDBRANCH  32  33
ENDBRANCH  30  32
ENDBRANCH  27  28
ENDBRANCH  26  27
ENDBRANCH  13  26
TORSDOF 8
ENDMDL
MODEL 4
REMARK minimizedAffinity -7.6442585
REMARK CNNscore 0.427104652
REMARK CNNaffinity 6.45445442
REMARK  8 active torsions:
REMARK  status: ('A' for Active; 'I' for Inactive)
REMARK    1  A    between atoms: C3_3  and  O1_4 
REMARK    2  A    between atoms: N1_14  and  O2_16 
REMARK    3  A    between atoms: O2_16  and  C13_17 
REMARK    4  A    between atoms: C13_17  and  C14_18 
REMARK       I    between atoms: C14_18  and  N2_20 
REMARK    5  A    between atoms: N2_20  and  C15_21 
REMARK    6  A    between atoms: C15_21  and  C16_22 
REMARK    7  A    between atoms: C16_22  and  O4_23 
REMARK    8  A    between atoms: C16_22  and  C17_24 
ROOT
HETATM    1  C1  UNL     1     -15.911  -2.907  28.573  1.00  0.00     0.015 C 
HETATM    2  C2  UNL     1     -15.619  -3.992  29.000  1.00  0.00    -0.078 C 
HETATM    3  C3  UNL     1     -15.251  -5.312  29.534  1.00  0.00     0.128 C 
HETATM    4  C4  UNL     1     -16.091  -5.694  30.758  1.00  0.00     0.052 C 
HETATM    5  C5  UNL     1     -15.775  -7.174  30.926  1.00  0.00     0.010 C 
HETATM    6  C6  UNL     1     -15.784  -7.724  29.494  1.00  0.00     0.002 C 
HETATM    7  C7  UNL     1     -14.989  -9.025  29.249  1.00  0.00    -0.004 C 
HETATM    8  C8  UNL     1     -13.592  -9.122  29.884  1.00  0.00     0.010 C 
HETATM    9  C9  UNL     1     -12.950 -10.484  29.617  1.00  0.00     0.035 C 
HETATM   10  C10 UNL     1     -12.976 -10.916  28.166  1.00  0.00    -0.069 C 
HETATM   11  C11 UNL     1     -11.887 -11.494  27.627  1.00  0.00     0.030 C 
HETATM   12  C12 UNL     1     -11.912 -12.115  26.272  1.00  0.00     0.032 C 
HETATM   13  N1  UNL     1     -10.921 -12.736  25.702  1.00  0.00    -0.271 N 
ATOM     14  H1  UNL     1     -10.982 -13.181  24.786  1.00  0.00     0.194 HD
HETATM   15  C23 UNL     1     -13.229 -12.114  25.520  1.00  0.00     0.060 C 
HETATM   16  C24 UNL     1     -14.078 -10.902  25.883  1.00  0.00     0.020 C 
HETATM   17  C25 UNL     1     -14.295 -10.734  27.415  1.00  0.00    -0.016 C 
HETATM   18  C26 UNL     1     -15.280 -11.844  27.881  1.00  0.00     0.020 C 
HETATM   19  C27 UNL     1     -14.917  -9.317  27.727  1.00  0.00     0.002 C 
HETATM   20  C28 UNL     1     -14.222  -8.154  26.971  1.00  0.00     0.007 C 
HETATM   21  C29 UNL     1     -14.243  -6.785  27.658  1.00  0.00     0.014 C 
HETATM   22  C30 UNL     1     -15.468  -6.517  28.549  1.00  0.00     0.003 C 
HETATM   23  C31 UNL     1     -16.704  -6.299  27.631  1.00  0.00     0.020 C 
ENDROOT
BRANCH   3  24
HETATM   24  O1  UNL     1     -13.888  -5.249  29.965  1.00  0.00    -0.377 OA
HETATM   25  H2  UNL     1     -13.794  -4.436  30.494  1.00  0.00     0.211 HD
ENDBRANCH   3  24
BRANCH  13  26
HETATM   26  O2  UNL     1      -9.758 -12.725  26.488  1.00  0.00    -0.271 OA
BRANCH  26  27
HETATM   27  C13 UNL     1      -8.629 -12.769  25.618  1.00  0.00     0.303 C 
BRANCH  27  28
HETATM   28  C14 UNL     1      -9.070 -12.727  24.162  1.00  0.00     0.243 C 
HETATM   29  O3  UNL     1      -9.346 -13.748  23.533  1.00  0.00    -0.271 OA
HETATM   30  N2  UNL     1      -9.213 -11.451  23.651  1.00  0.00    -0.356 N 
HETATM   31  H16 UNL     1      -8.757 -10.705  24.164  1.00  0.00     0.162 HD
BRANCH  30  32
HETATM   32  C15 UNL     1      -9.617 -11.222  22.271  1.00  0.00     0.159 C 
BRANCH  32  33
HETATM   33  C16 UNL     1      -8.695 -10.247  21.503  1.00  0.00     0.170 C 
BRANCH  33  34
HETATM   34  O4  UNL     1      -7.405 -10.828  21.276  1.00  0.00    -0.389 OA
HETATM   35  H20 UNL     1      -7.038 -10.436  20.464  1.00  0.00     0.210 HD
ENDBRANCH  33  34
BRANCH  33  36
HETATM   36  C17 UNL     1      -9.330  -9.829  20.199  1.00  0.00    -0.013 A 
HETATM   37  C18 UNL     1     -10.514 -10.415  19.735  1.00  0.00     0.013 A 
HETATM   38  C19 UNL     1     -11.090  -9.971  18.546  1.00  0.00     0.025 A 
HETATM   39  C20 UNL     1     -10.472  -8.940  17.847  1.00  0.00     0.005 A 
HETATM   40  C21 UNL     1     -11.055  -8.452  16.556  1.00  0.00     0.068 C 
HETATM   41  N3  UNL     1      -9.327  -8.353  18.273  1.00  0.00    -0.369 N 
HETATM   42  C22 UNL     1      -8.788  -8.804  19.431  1.00  0.00     0.097 A 
ATOM     43  H3  UNL     1      -8.889  -7.600  17.743  1.00  0.00     0.165 HD
ENDBRANCH  33  36
ENDBRANCH  32  33
ENDBRANCH  30  32
ENDBRANCH  27  28
ENDBRANCH  26  27
ENDBRANCH  13  26
TORSDOF 8
ENDMDL
MODEL 5
REMARK minimizedAffinity -9.11630249
REMARK CNNscore 0.375632793
REMARK CNNaffinity 7.1811347
REMARK  8 active torsions:
REMARK  status: ('A' for Active; 'I' for Inactive)
REMARK    1  A    between atoms: C3_3  and  O1_4 
REMARK    2  A    between atoms: N1_14  and  O2_16 
REMARK    3  A    between atoms: O2_16  and  C13_17 
REMARK    4  A    between atoms: C13_17  and  C14_18 
REMARK       I    between atoms: C14_18  and  N2_20 
REMARK    5  A    between atoms: N2_20  and  C15_21 
REMARK    6  A    between atoms: C15_21  and  C16_22 
REMARK    7  A    between atoms: C16_22  and  O4_23 
REMARK    8  A    between atoms: C16_22  and  C17_24 
ROOT
HETATM    1  C1  UNL     1       3.464   9.108   7.981  1.00  0.00     0.015 C 
HETATM    2  C2  UNL     1       3.013   8.179   8.596  1.00  0.00    -0.078 C 
HETATM    3  C3  UNL     1       2.462   7.033   9.335  1.00  0.00     0.128 C 
HETATM    4  C4  UNL     1       3.563   6.143   9.924  1.00  0.00     0.052 C 
HETATM    5  C5  UNL     1       2.787   5.249  10.881  1.00  0.00     0.010 C 
HETATM    6  C6  UNL     1       1.795   6.200  11.563  1.00  0.00     0.002 C 
HETATM    7  C7  UNL     1       0.527   5.560  12.167  1.00  0.00    -0.004 C 
HETATM    8  C8  UNL     1      -0.197   4.504  11.315  1.00  0.00     0.010 C 
HETATM    9  C9  UNL     1      -1.392   3.907  12.061  1.00  0.00     0.035 C 
HETATM   10  C10 UNL     1      -2.330   4.932  12.661  1.00  0.00    -0.069 C 
HETATM   11  C11 UNL     1      -3.660   4.748  12.569  1.00  0.00     0.030 C 
HETATM   12  C12 UNL     1      -4.630   5.610  13.304  1.00  0.00     0.032 C 
HETATM   13  N1  UNL     1      -5.922   5.466  13.309  1.00  0.00    -0.271 N 
ATOM     14  H1  UNL     1      -6.556   6.054  13.851  1.00  0.00     0.194 HD
HETATM   15  C23 UNL     1      -4.068   6.694  14.204  1.00  0.00     0.060 C 
HETATM   16  C24 UNL     1      -2.735   7.217  13.683  1.00  0.00     0.020 C 
HETATM   17  C25 UNL     1      -1.689   6.094  13.419  1.00  0.00    -0.016 C 
HETATM   18  C26 UNL     1      -1.199   5.568  14.798  1.00  0.00     0.020 C 
HETATM   19  C27 UNL     1      -0.461   6.671  12.611  1.00  0.00     0.002 C 
HETATM   20  C28 UNL     1      -0.872   7.562  11.409  1.00  0.00     0.007 C 
HETATM   21  C29 UNL     1       0.097   7.595  10.224  1.00  0.00     0.014 C 
HETATM   22  C30 UNL     1       1.579   7.400  10.582  1.00  0.00     0.003 C 
HETATM   23  C31 UNL     1       2.087   8.688  11.290  1.00  0.00     0.020 C 
ENDROOT
BRANCH   3  24
HETATM   24  O1  UNL     1       1.724   6.227   8.411  1.00  0.00    -0.377 OA
HETATM   25  H2  UNL     1       2.286   6.109   7.623  1.00  0.00     0.211 HD
ENDBRANCH   3  24
BRANCH  13  26
HETATM   26  O2  UNL     1      -6.348   4.413  12.484  1.00  0.00    -0.271 OA
BRANCH  26  27
HETATM   27  C13 UNL     1      -7.773   4.410  12.462  1.00  0.00     0.303 C 
BRANCH  27  28
HETATM   28  C14 UNL     1      -8.329   5.451  13.424  1.00  0.00     0.243 C 
HETATM   29  O3  UNL     1      -9.103   6.333  13.055  1.00  0.00    -0.271 OA
HETATM   30  N2  UNL     1      -7.955   5.260  14.741  1.00  0.00    -0.356 N 
HETATM   31  H16 UNL     1      -7.156   4.656  14.901  1.00  0.00     0.162 HD
BRANCH  30  32
HETATM   32  C15 UNL     1      -8.385   6.168  15.795  1.00  0.00     0.159 C 
BRANCH  32  33
HETATM   33  C16 UNL     1      -7.907   7.625  15.597  1.00  0.00     0.170 C 
BRANCH  33  34
HETATM   34  O4  UNL     1      -7.084   7.744  14.431  1.00  0.00    -0.389 OA
HETATM   35  H20 UNL     1      -7.177   8.650  14.089  1.00  0.00     0.210 HD
ENDBRANCH  33  34
BRANCH  33  36
HETATM   36  C17 UNL     1      -9.085   8.565  15.518  1.00  0.00    -0.013 A 
HETATM   37  C18 UNL     1      -8.917   9.947  15.370  1.00  0.00     0.013 A 
HETATM   38  C19 UNL     1     -10.032  10.776  15.259  1.00  0.00     0.025 A 
HETATM   39  C20 UNL     1     -11.299  10.202  15.291  1.00  0.00     0.005 A 
HETATM   40  C21 UNL     1     -12.518  11.067  15.193  1.00  0.00     0.068 C 
HETATM   41  N3  UNL     1     -11.491   8.868  15.431  1.00  0.00    -0.369 N 
HETATM   42  C22 UNL     1     -10.391   8.086  15.538  1.00  0.00     0.097 A 
ATOM     43  H3  UNL     1     -12.430   8.469  15.455  1.00  0.00     0.165 HD
ENDBRANCH  33  36
ENDBRANCH  32  33
ENDBRANCH  30  32
ENDBRANCH  27  28
ENDBRANCH  26  27
ENDBRANCH  13  26
TORSDOF 8
ENDMDL
MODEL 6
REMARK minimizedAffinity -9.53631878
REMARK CNNscore 0.33379364
REMARK CNNaffinity 7.26339149
REMARK  8 active torsions:
REMARK  status: ('A' for Active; 'I' for Inactive)
REMARK    1  A    between atoms: C3_3  and  O1_4 
REMARK    2  A    between atoms: N1_14  and  O2_16 
REMARK    3  A    between atoms: O2_16  and  C13_17 
REMARK    4  A    between atoms: C13_17  and  C14_18 
REMARK       I    between atoms: C14_18  and  N2_20 
REMARK    5  A    between atoms: N2_20  and  C15_21 
REMARK    6  A    between atoms: C15_21  and  C16_22 
REMARK    7  A    between atoms: C16_22  and  O4_23 
REMARK    8  A    between atoms: C16_22  and  C17_24 
ROOT
HETATM    1  C1  UNL     1     -14.474   9.953  12.599  1.00  0.00     0.015 C 
HETATM    2  C2  UNL     1     -13.478   9.822  13.258  1.00  0.00    -0.078 C 
HETATM    3  C3  UNL     1     -12.257   9.679  14.064  1.00  0.00     0.128 C 
HETATM    4  C4  UNL     1     -12.510   9.952  15.552  1.00  0.00     0.052 C 
HETATM    5  C5  UNL     1     -11.233   9.440  16.203  1.00  0.00     0.010 C 
HETATM    6  C6  UNL     1     -10.931   8.132  15.462  1.00  0.00     0.002 C 
HETATM    7  C7  UNL     1      -9.465   7.647  15.484  1.00  0.00    -0.004 C 
HETATM    8  C8  UNL     1      -8.375   8.703  15.236  1.00  0.00     0.010 C 
HETATM    9  C9  UNL     1      -6.975   8.099  15.354  1.00  0.00     0.035 C 
HETATM   10  C10 UNL     1      -6.770   6.831  14.552  1.00  0.00    -0.069 C 
HETATM   11  C11 UNL     1      -5.624   6.657  13.869  1.00  0.00     0.030 C 
HETATM   12  C12 UNL     1      -5.278   5.358  13.224  1.00  0.00     0.032 C 
HETATM   13  N1  UNL     1      -4.173   5.093  12.592  1.00  0.00    -0.271 N 
ATOM     14  H1  UNL     1      -3.954   4.181  12.191  1.00  0.00     0.194 HD
HETATM   15  C23 UNL     1      -6.251   4.206  13.393  1.00  0.00     0.060 C 
HETATM   16  C24 UNL     1      -7.686   4.701  13.524  1.00  0.00     0.020 C 
HETATM   17  C25 UNL     1      -7.871   5.775  14.637  1.00  0.00    -0.016 C 
HETATM   18  C26 UNL     1      -7.756   5.058  16.013  1.00  0.00     0.020 C 
HETATM   19  C27 UNL     1      -9.294   6.449  14.514  1.00  0.00     0.002 C 
HETATM   20  C28 UNL     1      -9.667   6.851  13.063  1.00  0.00     0.007 C 
HETATM   21  C29 UNL     1     -10.610   8.048  12.909  1.00  0.00     0.014 C 
HETATM   22  C30 UNL     1     -11.614   8.245  14.058  1.00  0.00     0.003 C 
HETATM   23  C31 UNL     1     -12.692   7.129  13.965  1.00  0.00     0.020 C 
ENDROOT
BRANCH   3  24
HETATM   24  O1  UNL     1     -11.315  10.658  13.615  1.00  0.00    -0.377 OA
HETATM   25  H2  UNL     1     -11.792  11.505  13.552  1.00  0.00     0.211 HD
ENDBRANCH   3  24
BRANCH  13  26
HETATM   26  O2  UNL     1      -3.316   6.202  12.522  1.00  0.00    -0.271 OA
BRANCH  26  27
HETATM   27  C13 UNL     1      -2.448   6.169  13.653  1.00  0.00     0.303 C 
BRANCH  27  28
HETATM   28  C14 UNL     1      -0.996   6.311  13.220  1.00  0.00     0.243 C 
HETATM   29  O3  UNL     1      -0.343   7.330  13.447  1.00  0.00    -0.271 OA
HETATM   30  N2  UNL     1      -0.466   5.175  12.637  1.00  0.00    -0.356 N 
HETATM   31  H16 UNL     1      -1.130   4.488  12.301  1.00  0.00     0.162 HD
BRANCH  30  32
HETATM   32  C15 UNL     1       0.907   5.136  12.153  1.00  0.00     0.159 C 
BRANCH  32  33
HETATM   33  C16 UNL     1       1.502   6.530  11.849  1.00  0.00     0.170 C 
BRANCH  33  34
HETATM   34  O4  UNL     1       2.816   6.662  12.407  1.00  0.00    -0.389 OA
HETATM   35  H20 UNL     1       3.312   7.294  11.857  1.00  0.00     0.210 HD
ENDBRANCH  33  34
BRANCH  33  36
HETATM   36  C17 UNL     1       1.525   6.786  10.362  1.00  0.00    -0.013 A 
HETATM   37  C18 UNL     1       0.732   7.779   9.773  1.00  0.00     0.013 A 
HETATM   38  C19 UNL     1       0.813   8.010   8.401  1.00  0.00     0.025 A 
HETATM   39  C20 UNL     1       1.695   7.247   7.644  1.00  0.00     0.005 A 
HETATM   40  C21 UNL     1       1.793   7.459   6.164  1.00  0.00     0.068 C 
HETATM   41  N3  UNL     1       2.476   6.282   8.187  1.00  0.00    -0.369 N 
HETATM   42  C22 UNL     1       2.377   6.076   9.522  1.00  0.00     0.097 A 
ATOM     43  H3  UNL     1       3.114   5.731   7.612  1.00  0.00     0.165 HD
ENDBRANCH  33  36
ENDBRANCH  32  33
ENDBRANCH  30  32
ENDBRANCH  27  28
ENDBRANCH  26  27
ENDBRANCH  13  26
TORSDOF 8
ENDMDL
MODEL 7
REMARK minimizedAffinity -7.45281696
REMARK CNNscore 0.307076335
REMARK CNNaffinity 6.57147169
REMARK  8 active torsions:
REMARK  status: ('A' for Active; 'I' for Inactive)
REMARK    1  A    between atoms: C3_3  and  O1_4 
REMARK    2  A    between atoms: N1_14  and  O2_16 
REMARK    3  A    between atoms: O2_16  and  C13_17 
REMARK    4  A    between atoms: C13_17  and  C14_18 
REMARK       I    between atoms: C14_18  and  N2_20 
REMARK    5  A    between atoms: N2_20  and  C15_21 
REMARK    6  A    between atoms: C15_21  and  C16_22 
REMARK    7  A    between atoms: C16_22  and  O4_23 
REMARK    8  A    between atoms: C16_22  and  C17_24 
ROOT
HETATM    1  C1  UNL     1      -7.163   2.903  13.122  1.00  0.00     0.015 C 
HETATM    2  C2  UNL     1      -7.348   3.881  13.794  1.00  0.00    -0.078 C 
HETATM    3  C3  UNL     1      -7.571   5.070  14.630  1.00  0.00     0.128 C 
HETATM    4  C4  UNL     1      -6.273   5.842  14.895  1.00  0.00     0.052 C 
HETATM    5  C5  UNL     1      -6.782   7.154  15.476  1.00  0.00     0.010 C 
HETATM    6  C6  UNL     1      -7.996   7.504  14.606  1.00  0.00     0.002 C 
HETATM    7  C7  UNL     1      -9.046   8.446  15.233  1.00  0.00    -0.004 C 
HETATM    8  C8  UNL     1      -9.455   8.170  16.689  1.00  0.00     0.010 C 
HETATM    9  C9  UNL     1     -10.446   9.216  17.201  1.00  0.00     0.035 C 
HETATM   10  C10 UNL     1     -11.629   9.457  16.287  1.00  0.00    -0.069 C 
HETATM   11  C11 UNL     1     -12.859   9.591  16.815  1.00  0.00     0.030 C 
HETATM   12  C12 UNL     1     -14.028  10.022  15.997  1.00  0.00     0.032 C 
HETATM   13  N1  UNL     1     -15.233  10.223  16.440  1.00  0.00    -0.271 N 
ATOM     14  H1  UNL     1     -16.004  10.552  15.858  1.00  0.00     0.194 HD
HETATM   15  C23 UNL     1     -13.783  10.350  14.536  1.00  0.00     0.060 C 
HETATM   16  C24 UNL     1     -12.640   9.523  13.962  1.00  0.00     0.020 C 
HETATM   17  C25 UNL     1     -11.329   9.615  14.796  1.00  0.00    -0.016 C 
HETATM   18  C26 UNL     1     -10.719  11.028  14.568  1.00  0.00     0.020 C 
HETATM   19  C27 UNL     1     -10.299   8.517  14.320  1.00  0.00     0.002 C 
HETATM   20  C28 UNL     1     -10.931   7.112  14.137  1.00  0.00     0.007 C 
HETATM   21  C29 UNL     1     -10.004   5.913  14.356  1.00  0.00     0.014 C 
HETATM   22  C30 UNL     1      -8.525   6.156  14.013  1.00  0.00     0.003 C 
HETATM   23  C31 UNL     1      -8.386   6.234  12.466  1.00  0.00     0.020 C 
ENDROOT
BRANCH   3  24
HETATM   24  O1  UNL     1      -8.061   4.629  15.900  1.00  0.00    -0.377 OA
HETATM   25  H2  UNL     1      -7.486   3.898  16.190  1.00  0.00     0.211 HD
ENDBRANCH   3  24
BRANCH  13  26
HETATM   26  O2  UNL     1     -15.356   9.937  17.809  1.00  0.00    -0.271 OA
BRANCH  26  27
HETATM   27  C13 UNL     1     -16.353   8.930  17.968  1.00  0.00     0.303 C 
BRANCH  27  28
HETATM   28  C14 UNL     1     -16.392   8.435  19.407  1.00  0.00     0.243 C 
HETATM   29  O3  UNL     1     -17.286   8.762  20.187  1.00  0.00    -0.271 OA
HETATM   30  N2  UNL     1     -15.395   7.530  19.720  1.00  0.00    -0.356 N 
HETATM   31  H16 UNL     1     -14.598   7.500  19.094  1.00  0.00     0.162 HD
BRANCH  30  32
HETATM   32  C15 UNL     1     -15.274   6.961  21.055  1.00  0.00     0.159 C 
BRANCH  32  33
HETATM   33  C16 UNL     1     -13.863   6.416  21.376  1.00  0.00     0.170 C 
BRANCH  33  34
HETATM   34  O4  UNL     1     -13.023   7.444  21.916  1.00  0.00    -0.389 OA
HETATM   35  H20 UNL     1     -12.367   7.021  22.496  1.00  0.00     0.210 HD
ENDBRANCH  33  34
BRANCH  33  36
HETATM   36  C17 UNL     1     -13.948   5.244  22.323  1.00  0.00    -0.013 A 
HETATM   37  C18 UNL     1     -14.135   5.420  23.700  1.00  0.00     0.013 A 
HETATM   38  C19 UNL     1     -14.249   4.310  24.534  1.00  0.00     0.025 A 
HETATM   39  C20 UNL     1     -14.182   3.040  23.971  1.00  0.00     0.005 A 
HETATM   40  C21 UNL     1     -14.284   1.825  24.843  1.00  0.00     0.068 C 
HETATM   41  N3  UNL     1     -14.005   2.839  22.643  1.00  0.00    -0.369 N 
HETATM   42  C22 UNL     1     -13.896   3.935  21.855  1.00  0.00     0.097 A 
ATOM     43  H3  UNL     1     -13.956   1.898  22.252  1.00  0.00     0.165 HD
ENDBRANCH  33  36
ENDBRANCH  32  33
ENDBRANCH  30  32
ENDBRANCH  27  28
ENDBRANCH  26  27
ENDBRANCH  13  26
TORSDOF 8
ENDMDL
MODEL 8
REMARK minimizedAffinity -8.74008179
REMARK CNNscore 0.246951863
REMARK CNNaffinity 6.45245171
REMARK  8 active torsions:
REMARK  status: ('A' for Active; 'I' for Inactive)
REMARK    1  A    between atoms: C3_3  and  O1_4 
REMARK    2  A    between atoms: N1_14  and  O2_16 
REMARK    3  A    between atoms: O2_16  and  C13_17 
REMARK    4  A    between atoms: C13_17  and  C14_18 
REMARK       I    between atoms: C14_18  and  N2_20 
REMARK    5  A    between atoms: N2_20  and  C15_21 
REMARK    6  A    between atoms: C15_21  and  C16_22 
REMARK    7  A    between atoms: C16_22  and  O4_23 
REMARK    8  A    between atoms: C16_22  and  C17_24 
ROOT
HETATM    1  C1  UNL     1      -7.505   8.169  15.528  1.00  0.00     0.015 C 
HETATM    2  C2  UNL     1      -6.568   7.493  15.198  1.00  0.00    -0.078 C 
HETATM    3  C3  UNL     1      -5.424   6.656  14.808  1.00  0.00     0.128 C 
HETATM    4  C4  UNL     1      -5.859   5.414  14.021  1.00  0.00     0.052 C 
HETATM    5  C5  UNL     1      -4.539   4.898  13.464  1.00  0.00     0.010 C 
HETATM    6  C6  UNL     1      -3.803   6.165  13.009  1.00  0.00     0.002 C 
HETATM    7  C7  UNL     1      -2.265   6.071  12.906  1.00  0.00    -0.004 C 
HETATM    8  C8  UNL     1      -1.528   5.371  14.059  1.00  0.00     0.010 C 
HETATM    9  C9  UNL     1      -0.024   5.290  13.794  1.00  0.00     0.035 C 
HETATM   10  C10 UNL     1       0.612   6.603  13.391  1.00  0.00    -0.069 C 
HETATM   11  C11 UNL     1       1.806   6.948  13.908  1.00  0.00     0.030 C 
HETATM   12  C12 UNL     1       2.573   8.125  13.407  1.00  0.00     0.032 C 
HETATM   13  N1  UNL     1       3.751   8.493  13.817  1.00  0.00    -0.271 N 
ATOM     14  H1  UNL     1       4.264   9.285  13.428  1.00  0.00     0.194 HD
HETATM   15  C23 UNL     1       1.982   8.913  12.254  1.00  0.00     0.060 C 
HETATM   16  C24 UNL     1       0.459   8.875  12.274  1.00  0.00     0.020 C 
HETATM   17  C25 UNL     1      -0.123   7.433  12.338  1.00  0.00    -0.016 C 
HETATM   18  C26 UNL     1       0.099   6.768  10.949  1.00  0.00     0.020 C 
HETATM   19  C27 UNL     1      -1.669   7.481  12.655  1.00  0.00     0.002 C 
HETATM   20  C28 UNL     1      -2.037   8.452  13.808  1.00  0.00     0.007 C 
HETATM   21  C29 UNL     1      -3.282   8.099  14.626  1.00  0.00     0.014 C 
HETATM   22  C30 UNL     1      -4.381   7.347  13.857  1.00  0.00     0.003 C 
HETATM   23  C31 UNL     1      -5.063   8.343  12.877  1.00  0.00     0.020 C 
ENDROOT
BRANCH   3  24
HETATM   24  O1  UNL     1      -4.790   6.192  16.004  1.00  0.00    -0.377 OA
HETATM   25  H2  UNL     1      -5.494   5.859  16.589  1.00  0.00     0.211 HD
ENDBRANCH   3  24
BRANCH  13  26
HETATM   26  O2  UNL     1       4.238   7.681  14.853  1.00  0.00    -0.271 OA
BRANCH  26  27
HETATM   27  C13 UNL     1       5.662   7.692  14.800  1.00  0.00     0.303 C 
BRANCH  27  28
HETATM   28  C14 UNL     1       6.211   9.006  15.336  1.00  0.00     0.243 C 
HETATM   29  O3  UNL     1       5.478   9.950  15.628  1.00  0.00    -0.271 OA
HETATM   30  N2  UNL     1       7.578   9.005  15.543  1.00  0.00    -0.356 N 
HETATM   31  H16 UNL     1       8.106   8.278  15.072  1.00  0.00     0.162 HD
BRANCH  30  32
HETATM   32  C15 UNL     1       8.275  10.182  16.042  1.00  0.00     0.159 C 
BRANCH  32  33
HETATM   33  C16 UNL     1       9.525   9.855  16.892  1.00  0.00     0.170 C 
BRANCH  33  34
HETATM   34  O4  UNL     1      10.728  10.105  16.156  1.00  0.00    -0.389 OA
HETATM   35  H20 UNL     1      11.428  10.330  16.794  1.00  0.00     0.210 HD
ENDBRANCH  33  34
BRANCH  33  36
HETATM   36  C17 UNL     1       9.512  10.641  18.180  1.00  0.00    -0.013 A 
HETATM   37  C18 UNL     1       8.316  11.008  18.808  1.00  0.00     0.013 A 
HETATM   38  C19 UNL     1       8.350  11.698  20.018  1.00  0.00     0.025 A 
HETATM   39  C20 UNL     1       9.584  12.001  20.583  1.00  0.00     0.005 A 
HETATM   40  C21 UNL     1       9.655  12.757  21.874  1.00  0.00     0.068 C 
HETATM   41  N3  UNL     1      10.757  11.656  19.999  1.00  0.00    -0.369 N 
HETATM   42  C22 UNL     1      10.697  10.987  18.823  1.00  0.00     0.097 A 
ATOM     43  H3  UNL     1      11.652  11.890  20.430  1.00  0.00     0.165 HD
ENDBRANCH  33  36
ENDBRANCH  32  33
ENDBRANCH  30  32
ENDBRANCH  27  28
ENDBRANCH  26  27
ENDBRANCH  13  26
TORSDOF 8
ENDMDL
MODEL 9
REMARK minimizedAffinity -8.82527351
REMARK CNNscore 0.238268018
REMARK CNNaffinity 6.99716806
REMARK  8 active torsions:
REMARK  status: ('A' for Active; 'I' for Inactive)
REMARK    1  A    between atoms: C3_3  and  O1_4 
REMARK    2  A    between atoms: N1_14  and  O2_16 
REMARK    3  A    between atoms: O2_16  and  C13_17 
REMARK    4  A    between atoms: C13_17  and  C14_18 
REMARK       I    between atoms: C14_18  and  N2_20 
REMARK    5  A    between atoms: N2_20  and  C15_21 
REMARK    6  A    between atoms: C15_21  and  C16_22 
REMARK    7  A    between atoms: C16_22  and  O4_23 
REMARK    8  A    between atoms: C16_22  and  C17_24 
ROOT
HETATM    1  C1  UNL     1       2.629   5.739   6.674  1.00  0.00     0.015 C 
HETATM    2  C2  UNL     1       2.691   5.865   7.867  1.00  0.00    -0.078 C 
HETATM    3  C3  UNL     1       2.771   6.002   9.329  1.00  0.00     0.128 C 
HETATM    4  C4  UNL     1       4.213   6.199   9.813  1.00  0.00     0.052 C 
HETATM    5  C5  UNL     1       4.019   6.631  11.260  1.00  0.00     0.010 C 
HETATM    6  C6  UNL     1       2.839   7.610  11.204  1.00  0.00     0.002 C 
HETATM    7  C7  UNL     1       2.045   7.812  12.513  1.00  0.00    -0.004 C 
HETATM    8  C8  UNL     1       1.697   6.550  13.321  1.00  0.00     0.010 C 
HETATM    9  C9  UNL     1       0.973   6.902  14.622  1.00  0.00     0.035 C 
HETATM   10  C10 UNL     1      -0.201   7.842  14.451  1.00  0.00    -0.069 C 
HETATM   11  C11 UNL     1      -1.338   7.614  15.133  1.00  0.00     0.030 C 
HETATM   12  C12 UNL     1      -2.455   8.603  15.161  1.00  0.00     0.032 C 
HETATM   13  N1  UNL     1      -3.560   8.481  15.834  1.00  0.00    -0.271 N 
ATOM     14  H1  UNL     1      -4.290   9.194  15.858  1.00  0.00     0.194 HD
HETATM   15  C23 UNL     1      -2.256   9.912  14.420  1.00  0.00     0.060 C 
HETATM   16  C24 UNL     1      -1.345   9.737  13.212  1.00  0.00     0.020 C 
HETATM   17  C25 UNL     1       0.016   9.061  13.554  1.00  0.00    -0.016 C 
HETATM   18  C26 UNL     1       0.876  10.096  14.335  1.00  0.00     0.020 C 
HETATM   19  C27 UNL     1       0.768   8.646  12.230  1.00  0.00     0.002 C 
HETATM   20  C28 UNL     1      -0.142   7.934  11.195  1.00  0.00     0.007 C 
HETATM   21  C29 UNL     1       0.541   6.931  10.262  1.00  0.00     0.014 C 
HETATM   22  C30 UNL     1       2.011   7.240   9.929  1.00  0.00     0.003 C 
HETATM   23  C31 UNL     1       2.049   8.462   8.968  1.00  0.00     0.020 C 
ENDROOT
BRANCH   3  24
HETATM   24  O1  UNL     1       2.297   4.785   9.912  1.00  0.00    -0.377 OA
HETATM   25  H2  UNL     1       2.734   4.053   9.441  1.00  0.00     0.211 HD
ENDBRANCH   3  24
BRANCH  13  26
HETATM   26  O2  UNL     1      -3.638   7.260  16.522  1.00  0.00    -0.271 OA
BRANCH  26  27
HETATM   27  C13 UNL     1      -4.190   6.284  15.642  1.00  0.00     0.303 C 
BRANCH  27  28
HETATM   28  C14 UNL     1      -5.635   6.620  15.304  1.00  0.00     0.243 C 
HETATM   29  O3  UNL     1      -5.958   7.705  14.820  1.00  0.00    -0.271 OA
HETATM   30  N2  UNL     1      -6.520   5.578  15.508  1.00  0.00    -0.356 N 
HETATM   31  H16 UNL     1      -6.201   4.824  16.105  1.00  0.00     0.162 HD
BRANCH  30  32
HETATM   32  C15 UNL     1      -7.946   5.726  15.248  1.00  0.00     0.159 C 
BRANCH  32  33
HETATM   33  C16 UNL     1      -8.327   5.575  13.757  1.00  0.00     0.170 C 
BRANCH  33  34
HETATM   34  O4  UNL     1      -8.043   6.776  13.028  1.00  0.00    -0.389 OA
HETATM   35  H20 UNL     1      -7.859   6.529  12.104  1.00  0.00     0.210 HD
ENDBRANCH  33  34
BRANCH  33  36
HETATM   36  C17 UNL     1      -7.615   4.395  13.142  1.00  0.00    -0.013 A 
HETATM   37  C18 UNL     1      -8.102   3.089  13.276  1.00  0.00     0.013 A 
HETATM   38  C19 UNL     1      -7.436   2.032  12.658  1.00  0.00     0.025 A 
HETATM   39  C20 UNL     1      -6.296   2.305  11.909  1.00  0.00     0.005 A 
HETATM   40  C21 UNL     1      -5.548   1.189  11.247  1.00  0.00     0.068 C 
HETATM   41  N3  UNL     1      -5.804   3.558  11.760  1.00  0.00    -0.369 N 
HETATM   42  C22 UNL     1      -6.469   4.567  12.372  1.00  0.00     0.097 A 
ATOM     43  H3  UNL     1      -4.964   3.736  11.209  1.00  0.00     0.165 HD
ENDBRANCH  33  36
ENDBRANCH  32  33
ENDBRANCH  30  32
ENDBRANCH  27  28
ENDBRANCH  26  27
ENDBRANCH  13  26
TORSDOF 8
ENDMDL
