MODEL 1
REMARK minimizedAffinity -8.04347515
REMARK  12 active torsions:
REMARK  status: ('A' for Active; 'I' for Inactive)
REMARK    1  A    between atoms: O1_2  and  C2_3 
REMARK    2  A    between atoms: C3_6  and  C4_7 
REMARK    3  A    between atoms: C4_7  and  C5_8 
REMARK    4  A    between atoms: C6_9  and  C8_11 
REMARK    5  A    between atoms: C8_11  and  C9_12 
REMARK    6  A    between atoms: C10_13  and  C11_14 
REMARK    7  A    between atoms: C13_16  and  C14_17 
REMARK    8  A    between atoms: C14_17  and  C16_19 
REMARK    9  A    between atoms: C16_19  and  O2_20 
REMARK   10  A    between atoms: C16_19  and  C18_22 
REMARK   11  A    between atoms: C24_29  and  O4_30 
REMARK   12  A    between atoms: C25_31  and  O5_32 
ROOT
HETATM    1  C5  UNL     1      -3.261  50.747 -26.227  1.00  0.00    -0.018 C 
HETATM    2  C6  UNL     1      -3.490  49.430 -26.033  1.00  0.00    -0.084 C 
HETATM    3  C7  UNL     1      -3.904  48.815 -24.722  1.00  0.00     0.043 C 
ENDROOT
BRANCH   2   4
HETATM    4  C8  UNL     1      -3.280  48.439 -27.162  1.00  0.00     0.060 C 
BRANCH   4   5
HETATM    5  C9  UNL     1      -4.460  48.395 -28.093  1.00  0.00    -0.022 C 
HETATM    6  C10 UNL     1      -5.586  47.707 -27.840  1.00  0.00     0.003 C 
BRANCH   6   7
HETATM    7  C11 UNL     1      -6.761  47.614 -28.707  1.00  0.00    -0.066 C 
HETATM    8  C12 UNL     1      -8.112  47.499 -28.048  1.00  0.00     0.048 C 
HETATM    9  C13 UNL     1      -6.572  47.611 -30.045  1.00  0.00    -0.013 C 
BRANCH   9  10
HETATM   10  C14 UNL     1      -7.626  47.559 -31.145  1.00  0.00     0.037 C 
HETATM   11  C15 UNL     1      -8.220  48.966 -31.292  1.00  0.00     0.017 C 
BRANCH  10  12
HETATM   12  C16 UNL     1      -7.009  47.021 -32.471  1.00  0.00     0.165 C 
BRANCH  12  13
HETATM   13  O2  UNL     1      -7.483  47.868 -33.536  1.00  0.00    -0.387 OA
HETATM   14  C17 UNL     1      -8.199  47.162 -34.539  1.00  0.00     0.202 C 
ENDBRANCH  12  13
BRANCH  12  15
HETATM   15  C18 UNL     1      -5.486  47.040 -32.448  1.00  0.00     0.110 A 
HETATM   16  C19 UNL     1      -4.786  45.846 -31.869  1.00  0.00     0.051 C 
HETATM   17  O3  UNL     1      -4.921  48.299 -32.025  1.00  0.00    -0.367 OA
HETATM   18  C20 UNL     1      -4.758  47.978 -33.407  1.00  0.00     0.155 A 
HETATM   19  C21 UNL     1      -3.350  47.776 -33.839  1.00  0.00     0.042 C 
ENDBRANCH  12  15
ENDBRANCH  10  12
ENDBRANCH   9  10
ENDBRANCH   6   7
ENDBRANCH   4   5
ENDBRANCH   2   4
BRANCH   1  20
HETATM   20  C4  UNL     1      -3.413  51.875 -25.240  1.00  0.00     0.085 C 
BRANCH  20  21
HETATM   21  C3  UNL     1      -2.191  52.064 -24.364  1.00  0.00     0.023 A 
HETATM   22  N1  UNL     1      -1.059  52.418 -25.032  1.00  0.00    -0.337 N 
HETATM   23  C2  UNL     1       0.073  52.662 -24.327  1.00  0.00     0.179 A 
ATOM     24  H1  UNL     1      -1.062  52.499 -26.048  1.00  0.00     0.168 HD
HETATM   25  C25 UNL     1       0.137  52.579 -22.942  1.00  0.00     0.153 A 
HETATM   26  C24 UNL     1      -1.040  52.195 -22.289  1.00  0.00     0.111 A 
HETATM   27  C22 UNL     1      -2.226  51.917 -22.974  1.00  0.00    -0.003 A 
HETATM   28  C23 UNL     1      -3.474  51.551 -22.225  1.00  0.00     0.053 C 
BRANCH  23  29
HETATM   29  O1  UNL     1       1.208  52.990 -25.038  1.00  0.00    -0.339 OA
HETATM   30  C1  UNL     1       1.645  51.966 -25.929  1.00  0.00     0.211 C 
ENDBRANCH  23  29
BRANCH  25  31
HETATM   31  O5  UNL     1       1.192  52.805 -22.097  1.00  0.00    -0.349 OA
HETATM   32  C26 UNL     1       1.412  54.142 -21.665  1.00  0.00     0.210 C 
ENDBRANCH  25  31
BRANCH  26  33
HETATM   33  O4  UNL     1      -1.027  52.100 -20.916  1.00  0.00    -0.357 OA
HETATM   34  H36 UNL     1      -0.115  52.330 -20.651  1.00  0.00     0.217 HD
ENDBRANCH  26  33
ENDBRANCH  20  21
ENDBRANCH   1  20
TORSDOF 12
ENDMDL
MODEL 2
REMARK minimizedAffinity -7.97680235
REMARK  12 active torsions:
REMARK  status: ('A' for Active; 'I' for Inactive)
REMARK    1  A    between atoms: O1_2  and  C2_3 
REMARK    2  A    between atoms: C3_6  and  C4_7 
REMARK    3  A    between atoms: C4_7  and  C5_8 
REMARK    4  A    between atoms: C6_9  and  C8_11 
REMARK    5  A    between atoms: C8_11  and  C9_12 
REMARK    6  A    between atoms: C10_13  and  C11_14 
REMARK    7  A    between atoms: C13_16  and  C14_17 
REMARK    8  A    between atoms: C14_17  and  C16_19 
REMARK    9  A    between atoms: C16_19  and  O2_20 
REMARK   10  A    between atoms: C16_19  and  C18_22 
REMARK   11  A    between atoms: C24_29  and  O4_30 
REMARK   12  A    between atoms: C25_31  and  O5_32 
ROOT
HETATM    1  C5  UNL     1       0.166  51.874 -24.732  1.00  0.00    -0.018 C 
HETATM    2  C6  UNL     1       0.662  51.306 -25.852  1.00  0.00    -0.084 C 
HETATM    3  C7  UNL     1       2.096  51.406 -26.302  1.00  0.00     0.043 C 
ENDROOT
BRANCH   2   4
HETATM    4  C8  UNL     1      -0.248  50.543 -26.795  1.00  0.00     0.060 C 
BRANCH   4   5
HETATM    5  C9  UNL     1      -1.517  50.108 -26.117  1.00  0.00    -0.022 C 
HETATM    6  C10 UNL     1      -2.368  49.203 -26.630  1.00  0.00     0.003 C 
BRANCH   6   7
HETATM    7  C11 UNL     1      -3.621  48.748 -26.028  1.00  0.00    -0.066 C 
HETATM    8  C12 UNL     1      -4.698  48.237 -26.951  1.00  0.00     0.048 C 
HETATM    9  C13 UNL     1      -3.755  48.831 -24.686  1.00  0.00    -0.013 C 
BRANCH   9  10
HETATM   10  C14 UNL     1      -4.936  48.392 -23.828  1.00  0.00     0.037 C 
HETATM   11  C15 UNL     1      -4.376  47.745 -22.555  1.00  0.00     0.017 C 
BRANCH  10  12
HETATM   12  C16 UNL     1      -5.876  49.598 -23.530  1.00  0.00     0.165 C 
BRANCH  12  13
HETATM   13  O2  UNL     1      -6.822  49.166 -22.532  1.00  0.00    -0.387 OA
HETATM   14  C17 UNL     1      -8.010  48.619 -23.084  1.00  0.00     0.202 C 
ENDBRANCH  12  13
BRANCH  12  15
HETATM   15  C18 UNL     1      -5.112  50.811 -23.013  1.00  0.00     0.110 A 
HETATM   16  C19 UNL     1      -4.738  50.826 -21.560  1.00  0.00     0.051 C 
HETATM   17  O3  UNL     1      -5.622  52.074 -23.489  1.00  0.00    -0.367 OA
HETATM   18  C20 UNL     1      -4.357  51.676 -24.019  1.00  0.00     0.155 A 
HETATM   19  C21 UNL     1      -3.220  52.559 -23.648  1.00  0.00     0.042 C 
ENDBRANCH  12  15
ENDBRANCH  10  12
ENDBRANCH   9  10
ENDBRANCH   6   7
ENDBRANCH   4   5
ENDBRANCH   2   4
BRANCH   1  20
HETATM   20  C4  UNL     1       0.903  52.662 -23.681  1.00  0.00     0.085 C 
BRANCH  20  21
HETATM   21  C3  UNL     1       0.412  52.380 -22.276  1.00  0.00     0.023 A 
HETATM   22  N1  UNL     1      -0.332  51.248 -22.147  1.00  0.00    -0.337 N 
HETATM   23  C2  UNL     1      -0.771  50.883 -20.917  1.00  0.00     0.179 A 
ATOM     24  H1  UNL     1      -0.556  50.681 -22.965  1.00  0.00     0.168 HD
HETATM   25  C25 UNL     1      -0.489  51.607 -19.766  1.00  0.00     0.153 A 
HETATM   26  C24 UNL     1       0.262  52.776 -19.937  1.00  0.00     0.111 A 
HETATM   27  C22 UNL     1       0.723  53.200 -21.186  1.00  0.00    -0.003 A 
HETATM   28  C23 UNL     1       1.563  54.438 -21.313  1.00  0.00     0.053 C 
BRANCH  23  29
HETATM   29  O1  UNL     1      -1.546  49.747 -20.828  1.00  0.00    -0.339 OA
HETATM   30  C1  UNL     1      -0.799  48.534 -20.875  1.00  0.00     0.211 C 
ENDBRANCH  23  29
BRANCH  25  31
HETATM   31  O5  UNL     1      -0.847  51.364 -18.466  1.00  0.00    -0.349 OA
HETATM   32  C26 UNL     1      -0.103  50.383 -17.753  1.00  0.00     0.210 C 
ENDBRANCH  25  31
BRANCH  26  33
HETATM   33  O4  UNL     1       0.570  53.527 -18.826  1.00  0.00    -0.357 OA
HETATM   34  H36 UNL     1       0.155  53.057 -18.075  1.00  0.00     0.217 HD
ENDBRANCH  26  33
ENDBRANCH  20  21
ENDBRANCH   1  20
TORSDOF 12
ENDMDL
MODEL 3
REMARK minimizedAffinity -7.92694187
REMARK  12 active torsions:
REMARK  status: ('A' for Active; 'I' for Inactive)
REMARK    1  A    between atoms: O1_2  and  C2_3 
REMARK    2  A    between atoms: C3_6  and  C4_7 
REMARK    3  A    between atoms: C4_7  and  C5_8 
REMARK    4  A    between atoms: C6_9  and  C8_11 
REMARK    5  A    between atoms: C8_11  and  C9_12 
REMARK    6  A    between atoms: C10_13  and  C11_14 
REMARK    7  A    between atoms: C13_16  and  C14_17 
REMARK    8  A    between atoms: C14_17  and  C16_19 
REMARK    9  A    between atoms: C16_19  and  O2_20 
REMARK   10  A    between atoms: C16_19  and  C18_22 
REMARK   11  A    between atoms: C24_29  and  O4_30 
REMARK   12  A    between atoms: C25_31  and  O5_32 
ROOT
HETATM    1  C5  UNL     1      -1.825  49.883 -22.510  1.00  0.00    -0.018 C 
HETATM    2  C6  UNL     1      -3.169  49.874 -22.630  1.00  0.00    -0.084 C 
HETATM    3  C7  UNL     1      -4.071  51.024 -22.265  1.00  0.00     0.043 C 
ENDROOT
BRANCH   2   4
HETATM    4  C8  UNL     1      -3.890  48.629 -23.110  1.00  0.00     0.060 C 
BRANCH   4   5
HETATM    5  C9  UNL     1      -4.035  48.610 -24.607  1.00  0.00    -0.022 C 
HETATM    6  C10 UNL     1      -5.122  48.147 -25.247  1.00  0.00     0.003 C 
BRANCH   6   7
HETATM    7  C11 UNL     1      -5.319  48.090 -26.696  1.00  0.00    -0.066 C 
HETATM    8  C12 UNL     1      -4.174  48.522 -27.577  1.00  0.00     0.048 C 
HETATM    9  C13 UNL     1      -6.518  47.679 -27.164  1.00  0.00    -0.013 C 
BRANCH   9  10
HETATM   10  C14 UNL     1      -6.952  47.502 -28.614  1.00  0.00     0.037 C 
HETATM   11  C15 UNL     1      -7.192  46.006 -28.853  1.00  0.00     0.017 C 
BRANCH  10  12
HETATM   12  C16 UNL     1      -8.208  48.372 -28.922  1.00  0.00     0.165 C 
BRANCH  12  13
HETATM   13  O2  UNL     1      -8.567  48.132 -30.297  1.00  0.00    -0.387 OA
HETATM   14  C17 UNL     1      -8.323  49.246 -31.143  1.00  0.00     0.202 C 
ENDBRANCH  12  13
BRANCH  12  15
HETATM   15  C18 UNL     1      -9.386  48.021 -28.022  1.00  0.00     0.110 A 
HETATM   16  C19 UNL     1      -9.320  48.462 -26.589  1.00  0.00     0.051 C 
HETATM   17  O3  UNL     1      -9.870  46.671 -28.187  1.00  0.00    -0.367 OA
HETATM   18  C20 UNL     1     -10.728  47.702 -28.676  1.00  0.00     0.155 A 
HETATM   19  C21 UNL     1     -12.031  47.817 -27.968  1.00  0.00     0.042 C 
ENDBRANCH  12  15
ENDBRANCH  10  12
ENDBRANCH   9  10
ENDBRANCH   6   7
ENDBRANCH   4   5
ENDBRANCH   2   4
BRANCH   1  20
HETATM   20  C4  UNL     1      -0.936  51.012 -22.056  1.00  0.00     0.085 C 
BRANCH  20  21
HETATM   21  C3  UNL     1      -0.551  51.952 -23.180  1.00  0.00     0.023 A 
HETATM   22  N1  UNL     1      -1.201  51.733 -24.356  1.00  0.00    -0.337 N 
HETATM   23  C2  UNL     1      -0.963  52.558 -25.406  1.00  0.00     0.179 A 
ATOM     24  H1  UNL     1      -1.859  50.959 -24.447  1.00  0.00     0.168 HD
HETATM   25  C25 UNL     1      -0.087  53.634 -25.340  1.00  0.00     0.153 A 
HETATM   26  C24 UNL     1       0.578  53.819 -24.123  1.00  0.00     0.111 A 
HETATM   27  C22 UNL     1       0.377  52.986 -23.019  1.00  0.00    -0.003 A 
HETATM   28  C23 UNL     1       1.081  53.252 -21.720  1.00  0.00     0.053 C 
BRANCH  23  29
HETATM   29  O1  UNL     1      -1.616  52.288 -26.589  1.00  0.00    -0.339 OA
HETATM   30  C1  UNL     1      -1.473  50.941 -27.033  1.00  0.00     0.211 C 
ENDBRANCH  23  29
BRANCH  25  31
HETATM   31  O5  UNL     1       0.247  54.554 -26.299  1.00  0.00    -0.349 OA
HETATM   32  C26 UNL     1      -0.049  54.229 -27.652  1.00  0.00     0.210 C 
ENDBRANCH  25  31
BRANCH  26  33
HETATM   33  O4  UNL     1       1.455  54.874 -24.007  1.00  0.00    -0.357 OA
HETATM   34  H36 UNL     1       1.444  55.314 -24.881  1.00  0.00     0.217 HD
ENDBRANCH  26  33
ENDBRANCH  20  21
ENDBRANCH   1  20
TORSDOF 12
ENDMDL
MODEL 4
REMARK minimizedAffinity -7.84034872
REMARK  12 active torsions:
REMARK  status: ('A' for Active; 'I' for Inactive)
REMARK    1  A    between atoms: O1_2  and  C2_3 
REMARK    2  A    between atoms: C3_6  and  C4_7 
REMARK    3  A    between atoms: C4_7  and  C5_8 
REMARK    4  A    between atoms: C6_9  and  C8_11 
REMARK    5  A    between atoms: C8_11  and  C9_12 
REMARK    6  A    between atoms: C10_13  and  C11_14 
REMARK    7  A    between atoms: C13_16  and  C14_17 
REMARK    8  A    between atoms: C14_17  and  C16_19 
REMARK    9  A    between atoms: C16_19  and  O2_20 
REMARK   10  A    between atoms: C16_19  and  C18_22 
REMARK   11  A    between atoms: C24_29  and  O4_30 
REMARK   12  A    between atoms: C25_31  and  O5_32 
ROOT
HETATM    1  C5  UNL     1      -0.014  52.176 -24.881  1.00  0.00    -0.018 C 
HETATM    2  C6  UNL     1       0.476  51.455 -25.912  1.00  0.00    -0.084 C 
HETATM    3  C7  UNL     1       1.929  51.389 -26.300  1.00  0.00     0.043 C 
ENDROOT
BRANCH   2   4
HETATM    4  C8  UNL     1      -0.459  50.675 -26.816  1.00  0.00     0.060 C 
BRANCH   4   5
HETATM    5  C9  UNL     1      -1.729  50.291 -26.109  1.00  0.00    -0.022 C 
HETATM    6  C10 UNL     1      -2.315  49.087 -26.223  1.00  0.00     0.003 C 
BRANCH   6   7
HETATM    7  C11 UNL     1      -3.553  48.657 -25.574  1.00  0.00    -0.066 C 
HETATM    8  C12 UNL     1      -4.698  48.233 -26.458  1.00  0.00     0.048 C 
HETATM    9  C13 UNL     1      -3.613  48.685 -24.225  1.00  0.00    -0.013 C 
BRANCH   9  10
HETATM   10  C14 UNL     1      -4.765  48.257 -23.323  1.00  0.00     0.037 C 
HETATM   11  C15 UNL     1      -4.170  47.504 -22.126  1.00  0.00     0.017 C 
BRANCH  10  12
HETATM   12  C16 UNL     1      -5.617  49.491 -22.898  1.00  0.00     0.165 C 
BRANCH  12  13
HETATM   13  O2  UNL     1      -5.470  50.486 -23.929  1.00  0.00    -0.387 OA
HETATM   14  C17 UNL     1      -5.152  51.775 -23.425  1.00  0.00     0.202 C 
ENDBRANCH  12  13
BRANCH  12  15
HETATM   15  C18 UNL     1      -7.091  49.144 -22.735  1.00  0.00     0.110 A 
HETATM   16  C19 UNL     1      -7.930  49.075 -23.977  1.00  0.00     0.051 C 
HETATM   17  O3  UNL     1      -7.738  49.829 -21.641  1.00  0.00    -0.367 OA
HETATM   18  C20 UNL     1      -7.531  48.427 -21.460  1.00  0.00     0.155 A 
HETATM   19  C21 UNL     1      -8.776  47.620 -21.363  1.00  0.00     0.042 C 
ENDBRANCH  12  15
ENDBRANCH  10  12
ENDBRANCH   9  10
ENDBRANCH   6   7
ENDBRANCH   4   5
ENDBRANCH   2   4
BRANCH   1  20
HETATM   20  C4  UNL     1       0.747  53.007 -23.880  1.00  0.00     0.085 C 
BRANCH  20  21
HETATM   21  C3  UNL     1       0.342  52.726 -22.447  1.00  0.00     0.023 A 
HETATM   22  N1  UNL     1      -0.540  51.701 -22.293  1.00  0.00    -0.337 N 
HETATM   23  C2  UNL     1      -0.920  51.341 -21.042  1.00  0.00     0.179 A 
ATOM     24  H1  UNL     1      -0.910  51.211 -23.106  1.00  0.00     0.168 HD
HETATM   25  C25 UNL     1      -0.443  51.964 -19.895  1.00  0.00     0.153 A 
HETATM   26  C24 UNL     1       0.447  53.025 -20.091  1.00  0.00     0.111 A 
HETATM   27  C22 UNL     1       0.856  53.443 -21.361  1.00  0.00    -0.003 A 
HETATM   28  C23 UNL     1       1.847  54.559 -21.518  1.00  0.00     0.053 C 
BRANCH  23  29
HETATM   29  O1  UNL     1      -1.837  50.318 -20.925  1.00  0.00    -0.339 OA
HETATM   30  C1  UNL     1      -3.130  50.749 -20.508  1.00  0.00     0.211 C 
ENDBRANCH  23  29
BRANCH  25  31
HETATM   31  O5  UNL     1      -0.720  51.708 -18.578  1.00  0.00    -0.349 OA
HETATM   32  C26 UNL     1      -0.125  50.557 -17.993  1.00  0.00     0.210 C 
ENDBRANCH  25  31
BRANCH  26  33
HETATM   33  O4  UNL     1       0.950  53.673 -18.986  1.00  0.00    -0.357 OA
HETATM   34  H36 UNL     1       0.538  53.228 -18.218  1.00  0.00     0.217 HD
ENDBRANCH  26  33
ENDBRANCH  20  21
ENDBRANCH   1  20
TORSDOF 12
ENDMDL
MODEL 5
REMARK minimizedAffinity -7.78840446
REMARK  12 active torsions:
REMARK  status: ('A' for Active; 'I' for Inactive)
REMARK    1  A    between atoms: O1_2  and  C2_3 
REMARK    2  A    between atoms: C3_6  and  C4_7 
REMARK    3  A    between atoms: C4_7  and  C5_8 
REMARK    4  A    between atoms: C6_9  and  C8_11 
REMARK    5  A    between atoms: C8_11  and  C9_12 
REMARK    6  A    between atoms: C10_13  and  C11_14 
REMARK    7  A    between atoms: C13_16  and  C14_17 
REMARK    8  A    between atoms: C14_17  and  C16_19 
REMARK    9  A    between atoms: C16_19  and  O2_20 
REMARK   10  A    between atoms: C16_19  and  C18_22 
REMARK   11  A    between atoms: C24_29  and  O4_30 
REMARK   12  A    between atoms: C25_31  and  O5_32 
ROOT
HETATM    1  C5  UNL     1      -2.209  50.027 -22.890  1.00  0.00    -0.018 C 
HETATM    2  C6  UNL     1      -2.674  48.806 -22.548  1.00  0.00    -0.084 C 
HETATM    3  C7  UNL     1      -1.889  47.772 -21.784  1.00  0.00     0.043 C 
ENDROOT
BRANCH   2   4
HETATM    4  C8  UNL     1      -4.059  48.362 -22.979  1.00  0.00     0.060 C 
BRANCH   4   5
HETATM    5  C9  UNL     1      -4.198  48.344 -24.476  1.00  0.00    -0.022 C 
HETATM    6  C10 UNL     1      -5.357  48.115 -25.117  1.00  0.00     0.003 C 
BRANCH   6   7
HETATM    7  C11 UNL     1      -5.556  48.072 -26.565  1.00  0.00    -0.066 C 
HETATM    8  C12 UNL     1      -4.396  48.467 -27.444  1.00  0.00     0.048 C 
HETATM    9  C13 UNL     1      -6.768  47.704 -27.035  1.00  0.00    -0.013 C 
BRANCH   9  10
HETATM   10  C14 UNL     1      -7.208  47.549 -28.487  1.00  0.00     0.037 C 
HETATM   11  C15 UNL     1      -6.631  46.229 -29.013  1.00  0.00     0.017 C 
BRANCH  10  12
HETATM   12  C16 UNL     1      -8.760  47.619 -28.600  1.00  0.00     0.165 C 
BRANCH  12  13
HETATM   13  O2  UNL     1      -9.212  48.622 -27.670  1.00  0.00    -0.387 OA
HETATM   14  C17 UNL     1     -10.330  48.210 -26.897  1.00  0.00     0.202 C 
ENDBRANCH  12  13
BRANCH  12  15
HETATM   15  C18 UNL     1      -9.219  47.988 -30.006  1.00  0.00     0.110 A 
HETATM   16  C19 UNL     1      -8.625  49.217 -30.629  1.00  0.00     0.051 C 
HETATM   17  O3  UNL     1     -10.644  47.871 -30.208  1.00  0.00    -0.367 OA
HETATM   18  C20 UNL     1      -9.839  46.897 -30.875  1.00  0.00     0.155 A 
HETATM   19  C21 UNL     1      -9.886  46.962 -32.360  1.00  0.00     0.042 C 
ENDBRANCH  12  15
ENDBRANCH  10  12
ENDBRANCH   9  10
ENDBRANCH   6   7
ENDBRANCH   4   5
ENDBRANCH   2   4
BRANCH   1  20
HETATM   20  C4  UNL     1      -0.875  50.643 -22.558  1.00  0.00     0.085 C 
BRANCH  20  21
HETATM   21  C3  UNL     1      -0.470  51.735 -23.527  1.00  0.00     0.023 A 
HETATM   22  N1  UNL     1      -1.022  51.633 -24.767  1.00  0.00    -0.337 N 
HETATM   23  C2  UNL     1      -0.761  52.595 -25.686  1.00  0.00     0.179 A 
ATOM     24  H1  UNL     1      -1.625  50.845 -25.001  1.00  0.00     0.168 HD
HETATM   25  C25 UNL     1       0.043  53.697 -25.424  1.00  0.00     0.153 A 
HETATM   26  C24 UNL     1       0.610  53.760 -24.146  1.00  0.00     0.111 A 
HETATM   27  C22 UNL     1       0.382  52.785 -23.170  1.00  0.00    -0.003 A 
HETATM   28  C23 UNL     1       0.978  52.921 -21.799  1.00  0.00     0.053 C 
BRANCH  23  29
HETATM   29  O1  UNL     1      -1.314  52.444 -26.940  1.00  0.00    -0.339 OA
HETATM   30  C1  UNL     1      -0.652  51.475 -27.749  1.00  0.00     0.211 C 
ENDBRANCH  23  29
BRANCH  25  31
HETATM   31  O5  UNL     1       0.387  54.746 -26.235  1.00  0.00    -0.349 OA
HETATM   32  C26 UNL     1      -0.292  54.863 -27.480  1.00  0.00     0.210 C 
ENDBRANCH  25  31
BRANCH  26  33
HETATM   33  O4  UNL     1       1.412  54.835 -23.836  1.00  0.00    -0.357 OA
HETATM   34  H36 UNL     1       1.436  55.380 -24.648  1.00  0.00     0.217 HD
ENDBRANCH  26  33
ENDBRANCH  20  21
ENDBRANCH   1  20
TORSDOF 12
ENDMDL
MODEL 6
REMARK minimizedAffinity -7.75983572
REMARK  12 active torsions:
REMARK  status: ('A' for Active; 'I' for Inactive)
REMARK    1  A    between atoms: O1_2  and  C2_3 
REMARK    2  A    between atoms: C3_6  and  C4_7 
REMARK    3  A    between atoms: C4_7  and  C5_8 
REMARK    4  A    between atoms: C6_9  and  C8_11 
REMARK    5  A    between atoms: C8_11  and  C9_12 
REMARK    6  A    between atoms: C10_13  and  C11_14 
REMARK    7  A    between atoms: C13_16  and  C14_17 
REMARK    8  A    between atoms: C14_17  and  C16_19 
REMARK    9  A    between atoms: C16_19  and  O2_20 
REMARK   10  A    between atoms: C16_19  and  C18_22 
REMARK   11  A    between atoms: C24_29  and  O4_30 
REMARK   12  A    between atoms: C25_31  and  O5_32 
ROOT
HETATM    1  C5  UNL     1      -2.743  49.485 -24.760  1.00  0.00    -0.018 C 
HETATM    2  C6  UNL     1      -3.619  48.878 -25.589  1.00  0.00    -0.084 C 
HETATM    3  C7  UNL     1      -5.020  48.475 -25.212  1.00  0.00     0.043 C 
ENDROOT
BRANCH   2   4
HETATM    4  C8  UNL     1      -3.206  48.500 -26.999  1.00  0.00     0.060 C 
BRANCH   4   5
HETATM    5  C9  UNL     1      -4.387  48.438 -27.928  1.00  0.00    -0.022 C 
HETATM    6  C10 UNL     1      -5.433  47.613 -27.755  1.00  0.00     0.003 C 
BRANCH   6   7
HETATM    7  C11 UNL     1      -6.602  47.497 -28.626  1.00  0.00    -0.066 C 
HETATM    8  C12 UNL     1      -7.910  47.089 -27.995  1.00  0.00     0.048 C 
HETATM    9  C13 UNL     1      -6.444  47.736 -29.946  1.00  0.00    -0.013 C 
BRANCH   9  10
HETATM   10  C14 UNL     1      -7.505  47.715 -31.041  1.00  0.00     0.037 C 
HETATM   11  C15 UNL     1      -8.018  49.149 -31.225  1.00  0.00     0.017 C 
BRANCH  10  12
HETATM   12  C16 UNL     1      -6.927  47.106 -32.354  1.00  0.00     0.165 C 
BRANCH  12  13
HETATM   13  O2  UNL     1      -7.405  47.916 -33.446  1.00  0.00    -0.387 OA
HETATM   14  C17 UNL     1      -8.172  47.185 -34.392  1.00  0.00     0.202 C 
ENDBRANCH  12  13
BRANCH  12  15
HETATM   15  C18 UNL     1      -5.403  47.095 -32.362  1.00  0.00     0.110 A 
HETATM   16  C19 UNL     1      -4.716  45.915 -31.739  1.00  0.00     0.051 C 
HETATM   17  O3  UNL     1      -4.804  48.360 -32.012  1.00  0.00    -0.367 OA
HETATM   18  C20 UNL     1      -4.676  47.970 -33.379  1.00  0.00     0.155 A 
HETATM   19  C21 UNL     1      -3.281  47.717 -33.828  1.00  0.00     0.042 C 
ENDBRANCH  12  15
ENDBRANCH  10  12
ENDBRANCH   9  10
ENDBRANCH   6   7
ENDBRANCH   4   5
ENDBRANCH   2   4
BRANCH   1  20
HETATM   20  C4  UNL     1      -2.964  49.935 -23.339  1.00  0.00     0.085 C 
BRANCH  20  21
HETATM   21  C3  UNL     1      -1.800  50.729 -22.781  1.00  0.00     0.023 A 
HETATM   22  N1  UNL     1      -1.362  50.319 -21.559  1.00  0.00    -0.337 N 
HETATM   23  C2  UNL     1      -0.289  50.934 -21.003  1.00  0.00     0.179 A 
ATOM     24  H1  UNL     1      -1.834  49.560 -21.069  1.00  0.00     0.168 HD
HETATM   25  C25 UNL     1       0.401  51.966 -21.626  1.00  0.00     0.153 A 
HETATM   26  C24 UNL     1      -0.087  52.374 -22.873  1.00  0.00     0.111 A 
HETATM   27  C22 UNL     1      -1.198  51.782 -23.479  1.00  0.00    -0.003 A 
HETATM   28  C23 UNL     1      -1.657  52.226 -24.837  1.00  0.00     0.053 C 
BRANCH  23  29
HETATM   29  O1  UNL     1       0.109  50.513 -19.752  1.00  0.00    -0.339 OA
HETATM   30  C1  UNL     1      -0.735  50.966 -18.697  1.00  0.00     0.211 C 
ENDBRANCH  23  29
BRANCH  25  31
HETATM   31  O5  UNL     1       1.498  52.670 -21.202  1.00  0.00    -0.349 OA
HETATM   32  C26 UNL     1       1.283  53.716 -20.263  1.00  0.00     0.210 C 
ENDBRANCH  25  31
BRANCH  26  33
HETATM   33  O4  UNL     1       0.564  53.392 -23.531  1.00  0.00    -0.357 OA
HETATM   34  H36 UNL     1       1.296  53.656 -22.938  1.00  0.00     0.217 HD
ENDBRANCH  26  33
ENDBRANCH  20  21
ENDBRANCH   1  20
TORSDOF 12
ENDMDL
MODEL 7
REMARK minimizedAffinity -7.73166227
REMARK  12 active torsions:
REMARK  status: ('A' for Active; 'I' for Inactive)
REMARK    1  A    between atoms: O1_2  and  C2_3 
REMARK    2  A    between atoms: C3_6  and  C4_7 
REMARK    3  A    between atoms: C4_7  and  C5_8 
REMARK    4  A    between atoms: C6_9  and  C8_11 
REMARK    5  A    between atoms: C8_11  and  C9_12 
REMARK    6  A    between atoms: C10_13  and  C11_14 
REMARK    7  A    between atoms: C13_16  and  C14_17 
REMARK    8  A    between atoms: C14_17  and  C16_19 
REMARK    9  A    between atoms: C16_19  and  O2_20 
REMARK   10  A    between atoms: C16_19  and  C18_22 
REMARK   11  A    between atoms: C24_29  and  O4_30 
REMARK   12  A    between atoms: C25_31  and  O5_32 
ROOT
HETATM    1  C5  UNL     1      -0.409  49.954 -21.374  1.00  0.00    -0.018 C 
HETATM    2  C6  UNL     1      -0.903  49.063 -20.488  1.00  0.00    -0.084 C 
HETATM    3  C7  UNL     1      -1.118  49.339 -19.023  1.00  0.00     0.043 C 
ENDROOT
BRANCH   2   4
HETATM    4  C8  UNL     1      -1.236  47.649 -20.924  1.00  0.00     0.060 C 
BRANCH   4   5
HETATM    5  C9  UNL     1      -2.367  47.622 -21.914  1.00  0.00    -0.022 C 
HETATM    6  C10 UNL     1      -2.537  48.538 -22.882  1.00  0.00     0.003 C 
BRANCH   6   7
HETATM    7  C11 UNL     1      -3.619  48.574 -23.865  1.00  0.00    -0.066 C 
HETATM    8  C12 UNL     1      -3.242  48.703 -25.320  1.00  0.00     0.048 C 
HETATM    9  C13 UNL     1      -4.893  48.515 -23.420  1.00  0.00    -0.013 C 
BRANCH   9  10
HETATM   10  C14 UNL     1      -6.179  48.499 -24.239  1.00  0.00     0.037 C 
HETATM   11  C15 UNL     1      -5.848  47.921 -25.620  1.00  0.00     0.017 C 
BRANCH  10  12
HETATM   12  C16 UNL     1      -7.292  47.699 -23.499  1.00  0.00     0.165 C 
BRANCH  12  13
HETATM   13  O2  UNL     1      -7.962  48.619 -22.615  1.00  0.00    -0.387 OA
HETATM   14  C17 UNL     1      -7.462  49.945 -22.699  1.00  0.00     0.202 C 
ENDBRANCH  12  13
BRANCH  12  15
HETATM   15  C18 UNL     1      -8.305  47.095 -24.463  1.00  0.00     0.110 A 
HETATM   16  C19 UNL     1      -9.080  48.038 -25.337  1.00  0.00     0.051 C 
HETATM   17  O3  UNL     1      -9.114  46.048 -23.886  1.00  0.00    -0.367 OA
HETATM   18  C20 UNL     1      -8.150  45.626 -24.851  1.00  0.00     0.155 A 
HETATM   19  C21 UNL     1      -8.724  45.042 -26.092  1.00  0.00     0.042 C 
ENDBRANCH  12  15
ENDBRANCH  10  12
ENDBRANCH   9  10
ENDBRANCH   6   7
ENDBRANCH   4   5
ENDBRANCH   2   4
BRANCH   1  20
HETATM   20  C4  UNL     1      -0.023  51.390 -21.135  1.00  0.00     0.085 C 
BRANCH  20  21
HETATM   21  C3  UNL     1       0.059  52.202 -22.412  1.00  0.00     0.023 A 
HETATM   22  N1  UNL     1      -0.739  51.761 -23.422  1.00  0.00    -0.337 N 
HETATM   23  C2  UNL     1      -0.775  52.455 -24.586  1.00  0.00     0.179 A 
ATOM     24  H1  UNL     1      -1.304  50.919 -23.305  1.00  0.00     0.168 HD
HETATM   25  C25 UNL     1      -0.038  53.612 -24.802  1.00  0.00     0.153 A 
HETATM   26  C24 UNL     1       0.786  54.027 -23.749  1.00  0.00     0.111 A 
HETATM   27  C22 UNL     1       0.868  53.336 -22.537  1.00  0.00    -0.003 A 
HETATM   28  C23 UNL     1       1.734  53.846 -21.422  1.00  0.00     0.053 C 
BRANCH  23  29
HETATM   29  O1  UNL     1      -1.572  51.962 -25.597  1.00  0.00    -0.339 OA
HETATM   30  C1  UNL     1      -2.948  52.313 -25.469  1.00  0.00     0.211 C 
ENDBRANCH  23  29
BRANCH  25  31
HETATM   31  O5  UNL     1       0.022  54.422 -25.906  1.00  0.00    -0.349 OA
HETATM   32  C26 UNL     1       0.137  53.793 -27.176  1.00  0.00     0.210 C 
ENDBRANCH  25  31
BRANCH  26  33
HETATM   33  O4  UNL     1       1.535  55.171 -23.914  1.00  0.00    -0.357 OA
HETATM   34  H36 UNL     1       1.330  55.484 -24.817  1.00  0.00     0.217 HD
ENDBRANCH  26  33
ENDBRANCH  20  21
ENDBRANCH   1  20
TORSDOF 12
ENDMDL
MODEL 8
REMARK minimizedAffinity -7.68075895
REMARK  12 active torsions:
REMARK  status: ('A' for Active; 'I' for Inactive)
REMARK    1  A    between atoms: O1_2  and  C2_3 
REMARK    2  A    between atoms: C3_6  and  C4_7 
REMARK    3  A    between atoms: C4_7  and  C5_8 
REMARK    4  A    between atoms: C6_9  and  C8_11 
REMARK    5  A    between atoms: C8_11  and  C9_12 
REMARK    6  A    between atoms: C10_13  and  C11_14 
REMARK    7  A    between atoms: C13_16  and  C14_17 
REMARK    8  A    between atoms: C14_17  and  C16_19 
REMARK    9  A    between atoms: C16_19  and  O2_20 
REMARK   10  A    between atoms: C16_19  and  C18_22 
REMARK   11  A    between atoms: C24_29  and  O4_30 
REMARK   12  A    between atoms: C25_31  and  O5_32 
ROOT
HETATM    1  C5  UNL     1      -0.723  51.761 -20.725  1.00  0.00    -0.018 C 
HETATM    2  C6  UNL     1      -0.359  51.489 -19.454  1.00  0.00    -0.084 C 
HETATM    3  C7  UNL     1      -0.392  50.121 -18.825  1.00  0.00     0.043 C 
ENDROOT
BRANCH   2   4
HETATM    4  C8  UNL     1       0.072  52.606 -18.522  1.00  0.00     0.060 C 
BRANCH   4   5
HETATM    5  C9  UNL     1       0.917  52.093 -17.389  1.00  0.00    -0.022 C 
HETATM    6  C10 UNL     1       2.077  52.653 -17.008  1.00  0.00     0.003 C 
BRANCH   6   7
HETATM    7  C11 UNL     1       2.949  52.197 -15.926  1.00  0.00    -0.066 C 
HETATM    8  C12 UNL     1       4.436  52.376 -16.100  1.00  0.00     0.048 C 
HETATM    9  C13 UNL     1       2.381  51.620 -14.845  1.00  0.00    -0.013 C 
BRANCH   9  10
HETATM   10  C14 UNL     1       3.065  51.101 -13.585  1.00  0.00     0.037 C 
HETATM   11  C15 UNL     1       2.030  51.108 -12.452  1.00  0.00     0.017 C 
BRANCH  10  12
HETATM   12  C16 UNL     1       3.679  49.691 -13.834  1.00  0.00     0.165 C 
BRANCH  12  13
HETATM   13  O2  UNL     1       4.848  49.581 -12.999  1.00  0.00    -0.387 OA
HETATM   14  C17 UNL     1       4.639  50.053 -11.676  1.00  0.00     0.202 C 
ENDBRANCH  12  13
BRANCH  12  15
HETATM   15  C18 UNL     1       2.705  48.570 -13.494  1.00  0.00     0.110 A 
HETATM   16  C19 UNL     1       1.416  48.950 -12.828  1.00  0.00     0.051 C 
HETATM   17  O3  UNL     1       3.330  47.404 -12.917  1.00  0.00    -0.367 OA
HETATM   18  C20 UNL     1       2.831  47.247 -14.246  1.00  0.00     0.155 A 
HETATM   19  C21 UNL     1       1.715  46.274 -14.382  1.00  0.00     0.042 C 
ENDBRANCH  12  15
ENDBRANCH  10  12
ENDBRANCH   9  10
ENDBRANCH   6   7
ENDBRANCH   4   5
ENDBRANCH   2   4
BRANCH   1  20
HETATM   20  C4  UNL     1      -1.175  50.797 -21.791  1.00  0.00     0.085 C 
BRANCH  20  21
HETATM   21  C3  UNL     1      -0.808  51.247 -23.191  1.00  0.00     0.023 A 
HETATM   22  N1  UNL     1      -1.447  50.581 -24.191  1.00  0.00    -0.337 N 
HETATM   23  C2  UNL     1      -1.224  50.951 -25.477  1.00  0.00     0.179 A 
ATOM     24  H1  UNL     1      -2.086  49.816 -23.977  1.00  0.00     0.168 HD
HETATM   25  C25 UNL     1      -0.375  51.991 -25.831  1.00  0.00     0.153 A 
HETATM   26  C24 UNL     1       0.280  52.642 -24.778  1.00  0.00     0.111 A 
HETATM   27  C22 UNL     1       0.094  52.287 -23.439  1.00  0.00    -0.003 A 
HETATM   28  C23 UNL     1       0.786  53.044 -22.344  1.00  0.00     0.053 C 
BRANCH  23  29
HETATM   29  O1  UNL     1      -1.866  50.236 -26.466  1.00  0.00    -0.339 OA
HETATM   30  C1  UNL     1      -3.212  50.646 -26.691  1.00  0.00     0.211 C 
ENDBRANCH  23  29
BRANCH  25  31
HETATM   31  O5  UNL     1      -0.060  52.485 -27.069  1.00  0.00    -0.349 OA
HETATM   32  C26 UNL     1       0.875  51.752 -27.850  1.00  0.00     0.210 C 
ENDBRANCH  25  31
BRANCH  26  33
HETATM   33  O4  UNL     1       1.131  53.682 -25.078  1.00  0.00    -0.357 OA
HETATM   34  H36 UNL     1       1.112  53.756 -26.053  1.00  0.00     0.217 HD
ENDBRANCH  26  33
ENDBRANCH  20  21
ENDBRANCH   1  20
TORSDOF 12
ENDMDL
MODEL 9
REMARK minimizedAffinity -7.60350657
REMARK  12 active torsions:
REMARK  status: ('A' for Active; 'I' for Inactive)
REMARK    1  A    between atoms: O1_2  and  C2_3 
REMARK    2  A    between atoms: C3_6  and  C4_7 
REMARK    3  A    between atoms: C4_7  and  C5_8 
REMARK    4  A    between atoms: C6_9  and  C8_11 
REMARK    5  A    between atoms: C8_11  and  C9_12 
REMARK    6  A    between atoms: C10_13  and  C11_14 
REMARK    7  A    between atoms: C13_16  and  C14_17 
REMARK    8  A    between atoms: C14_17  and  C16_19 
REMARK    9  A    between atoms: C16_19  and  O2_20 
REMARK   10  A    between atoms: C16_19  and  C18_22 
REMARK   11  A    between atoms: C24_29  and  O4_30 
REMARK   12  A    between atoms: C25_31  and  O5_32 
ROOT
HETATM    1  C5  UNL     1      -0.213  52.398 -24.778  1.00  0.00    -0.018 C 
HETATM    2  C6  UNL     1       0.053  51.869 -25.991  1.00  0.00    -0.084 C 
HETATM    3  C7  UNL     1       1.416  51.424 -26.453  1.00  0.00     0.043 C 
ENDROOT
BRANCH   2   4
HETATM    4  C8  UNL     1      -1.044  51.735 -27.029  1.00  0.00     0.060 C 
BRANCH   4   5
HETATM    5  C9  UNL     1      -1.898  50.521 -26.787  1.00  0.00    -0.022 C 
HETATM    6  C10 UNL     1      -2.961  50.191 -27.539  1.00  0.00     0.003 C 
BRANCH   6   7
HETATM    7  C11 UNL     1      -3.836  49.034 -27.348  1.00  0.00    -0.066 C 
HETATM    8  C12 UNL     1      -3.751  48.300 -26.034  1.00  0.00     0.048 C 
HETATM    9  C13 UNL     1      -4.652  48.673 -28.362  1.00  0.00    -0.013 C 
BRANCH   9  10
HETATM   10  C14 UNL     1      -5.671  47.540 -28.394  1.00  0.00     0.037 C 
HETATM   11  C15 UNL     1      -6.662  47.767 -27.245  1.00  0.00     0.017 C 
BRANCH  10  12
HETATM   12  C16 UNL     1      -6.366  47.465 -29.787  1.00  0.00     0.165 C 
BRANCH  12  13
HETATM   13  O2  UNL     1      -5.857  46.295 -30.456  1.00  0.00    -0.387 OA
HETATM   14  C17 UNL     1      -5.046  46.600 -31.581  1.00  0.00     0.202 C 
ENDBRANCH  12  13
BRANCH  12  15
HETATM   15  C18 UNL     1      -7.882  47.362 -29.669  1.00  0.00     0.110 A 
HETATM   16  C19 UNL     1      -8.632  48.601 -29.278  1.00  0.00     0.051 C 
HETATM   17  O3  UNL     1      -8.339  46.174 -28.990  1.00  0.00    -0.367 OA
HETATM   18  C20 UNL     1      -8.590  46.221 -30.395  1.00  0.00     0.155 A 
HETATM   19  C21 UNL     1     -10.028  46.258 -30.771  1.00  0.00     0.042 C 
ENDBRANCH  12  15
ENDBRANCH  10  12
ENDBRANCH   9  10
ENDBRANCH   6   7
ENDBRANCH   4   5
ENDBRANCH   2   4
BRANCH   1  20
HETATM   20  C4  UNL     1       0.733  52.610 -23.625  1.00  0.00     0.085 C 
BRANCH  20  21
HETATM   21  C3  UNL     1       0.068  52.444 -22.275  1.00  0.00     0.023 A 
HETATM   22  N1  UNL     1      -0.942  51.531 -22.243  1.00  0.00    -0.337 N 
HETATM   23  C2  UNL     1      -1.562  51.274 -21.065  1.00  0.00     0.179 A 
ATOM     24  H1  UNL     1      -1.227  51.047 -23.093  1.00  0.00     0.168 HD
HETATM   25  C25 UNL     1      -1.210  51.893 -19.872  1.00  0.00     0.153 A 
HETATM   26  C24 UNL     1      -0.181  52.839 -19.944  1.00  0.00     0.111 A 
HETATM   27  C22 UNL     1       0.477  53.149 -21.137  1.00  0.00    -0.003 A 
HETATM   28  C23 UNL     1       1.604  54.139 -21.155  1.00  0.00     0.053 C 
BRANCH  23  29
HETATM   29  O1  UNL     1      -2.599  50.366 -21.076  1.00  0.00    -0.339 OA
HETATM   30  C1  UNL     1      -3.747  50.811 -21.793  1.00  0.00     0.211 C 
ENDBRANCH  23  29
BRANCH  25  31
HETATM   31  O5  UNL     1      -1.728  51.732 -18.613  1.00  0.00    -0.349 OA
HETATM   32  C26 UNL     1      -1.342  50.571 -17.888  1.00  0.00     0.210 C 
ENDBRANCH  25  31
BRANCH  26  33
HETATM   33  O4  UNL     1       0.205  53.478 -18.787  1.00  0.00    -0.357 OA
HETATM   34  H36 UNL     1      -0.377  53.118 -18.088  1.00  0.00     0.217 HD
ENDBRANCH  26  33
ENDBRANCH  20  21
ENDBRANCH   1  20
TORSDOF 12
ENDMDL
