MODEL 1
REMARK minimizedAffinity -7.90465403
REMARK  8 active torsions:
REMARK  status: ('A' for Active; 'I' for Inactive)
REMARK    1  A    between atoms: O1_2  and  C2_3 
REMARK    2  A    between atoms: C3_6  and  N2_7 
REMARK    3  A    between atoms: N5_15  and  C7_16 
REMARK    4  A    between atoms: C9_18  and  N6_19 
REMARK    5  A    between atoms: N6_19  and  N7_21 
REMARK    6  A    between atoms: N7_21  and  N8_22 
REMARK    7  A    between atoms: C10_25  and  C11_26 
REMARK    8  A    between atoms: C11_26  and  O2_27 
ROOT
HETATM    1  C2  UNL     1      -0.118  52.313 -20.422  1.00  0.00     0.175 A 
HETATM    2  N1  UNL     1       0.788  53.324 -20.483  1.00  0.00    -0.311 N 
ATOM      3  H1  UNL     1       1.179  53.726 -19.631  1.00  0.00     0.170 HD
HETATM    4  C3  UNL     1       1.157  53.784 -21.688  1.00  0.00     0.158 A 
HETATM    5  N3  UNL     1       0.745  53.338 -22.883  1.00  0.00    -0.317 N 
ATOM      6  H3  UNL     1       1.071  53.716 -23.774  1.00  0.00     0.170 HD
HETATM    7  C4  UNL     1      -0.144  52.337 -22.777  1.00  0.00     0.144 A 
HETATM    8  C5  UNL     1      -0.624  51.772 -21.606  1.00  0.00     0.129 A 
HETATM    9  N4  UNL     1      -1.530  50.771 -21.882  1.00  0.00    -0.346 N 
ATOM     10  H4  UNL     1      -2.039  50.192 -21.215  1.00  0.00     0.167 HD
HETATM   11  C6  UNL     1      -1.594  50.725 -23.196  1.00  0.00     0.188 A 
HETATM   12  N5  UNL     1      -0.781  51.660 -23.783  1.00  0.00    -0.300 N 
ENDROOT
BRANCH  12  13
HETATM   13  C7  UNL     1      -0.663  51.875 -25.207  1.00  0.00     0.233 C 
HETATM   14  C8  UNL     1      -0.067  53.212 -25.615  1.00  0.00     0.084 C 
HETATM   15  C9  UNL     1       0.494  52.897 -26.985  1.00  0.00     0.149 C 
HETATM   16  C10 UNL     1       0.953  51.440 -26.829  1.00  0.00     0.172 C 
HETATM   17  O3  UNL     1       0.161  50.845 -25.782  1.00  0.00    -0.357 OA
BRANCH  15  18
HETATM   18  N6  UNL     1      -0.612  52.990 -27.960  1.00  0.00    -0.245 N 
ATOM     19  H6  UNL     1      -0.762  53.819 -28.535  1.00  0.00     0.197 HD
BRANCH  18  20
HETATM   20  N7  UNL     1      -1.350  51.988 -28.032  1.00  0.00    -0.248 NA
BRANCH  20  21
HETATM   21  N8  UNL     1      -2.022  51.071 -28.100  1.00  0.00    -0.261 N 
ATOM     22  H82 UNL     1      -1.303  51.794 -28.112  1.00  0.00     0.193 HD
ATOM     23  H81 UNL     1      -2.626  50.251 -28.160  1.00  0.00     0.193 HD
ENDBRANCH  20  21
ENDBRANCH  18  20
ENDBRANCH  15  18
BRANCH  16  24
HETATM   24  C11 UNL     1       2.435  51.329 -26.460  1.00  0.00     0.198 C 
BRANCH  24  25
HETATM   25  O2  UNL     1       3.230  52.044 -27.399  1.00  0.00    -0.398 OA
HETATM   26  H14 UNL     1       4.161  51.877 -27.167  1.00  0.00     0.209 HD
ENDBRANCH  24  25
ENDBRANCH  16  24
ENDBRANCH  12  13
BRANCH   4  27
HETATM   27  N2  UNL     1       2.096  54.798 -21.692  1.00  0.00    -0.274 NA
HETATM   28  H4  UNL     1       2.636  54.763 -22.544  1.00  0.00     0.127 HD
HETATM   29  H5  UNL     1       2.607  54.784 -20.821  1.00  0.00     0.127 HD
ENDBRANCH   4  27
BRANCH   1  30
HETATM   30  O1  UNL     1      -0.529  51.819 -19.199  1.00  0.00    -0.339 OA
HETATM   31  C1  UNL     1       0.372  52.122 -18.141  1.00  0.00     0.211 C 
ENDBRANCH   1  30
TORSDOF 8
ENDMDL
MODEL 2
REMARK minimizedAffinity -7.8472414
REMARK  8 active torsions:
REMARK  status: ('A' for Active; 'I' for Inactive)
REMARK    1  A    between atoms: O1_2  and  C2_3 
REMARK    2  A    between atoms: C3_6  and  N2_7 
REMARK    3  A    between atoms: N5_15  and  C7_16 
REMARK    4  A    between atoms: C9_18  and  N6_19 
REMARK    5  A    between atoms: N6_19  and  N7_21 
REMARK    6  A    between atoms: N7_21  and  N8_22 
REMARK    7  A    between atoms: C10_25  and  C11_26 
REMARK    8  A    between atoms: C11_26  and  O2_27 
ROOT
HETATM    1  C2  UNL     1       0.176  51.842 -20.805  1.00  0.00     0.175 A 
HETATM    2  N1  UNL     1       0.968  52.944 -20.744  1.00  0.00    -0.311 N 
ATOM      3  H1  UNL     1       1.365  53.252 -19.856  1.00  0.00     0.170 HD
HETATM    4  C3  UNL     1       1.218  53.620 -21.875  1.00  0.00     0.158 A 
HETATM    5  N3  UNL     1       0.786  53.318 -23.108  1.00  0.00    -0.317 N 
ATOM      6  H3  UNL     1       1.019  53.861 -23.940  1.00  0.00     0.170 HD
HETATM    7  C4  UNL     1       0.011  52.221 -23.123  1.00  0.00     0.144 A 
HETATM    8  C5  UNL     1      -0.340  51.436 -22.037  1.00  0.00     0.129 A 
HETATM    9  N4  UNL     1      -1.154  50.395 -22.430  1.00  0.00    -0.346 N 
ATOM     10  H4  UNL     1      -1.562  49.669 -21.841  1.00  0.00     0.167 HD
HETATM   11  C6  UNL     1      -1.289  50.542 -23.730  1.00  0.00     0.188 A 
HETATM   12  N5  UNL     1      -0.611  51.639 -24.196  1.00  0.00    -0.300 N 
ENDROOT
BRANCH  12  13
HETATM   13  C7  UNL     1      -0.598  52.079 -25.572  1.00  0.00     0.233 C 
HETATM   14  C8  UNL     1       0.029  51.108 -26.559  1.00  0.00     0.084 C 
HETATM   15  C9  UNL     1      -0.644  51.504 -27.855  1.00  0.00     0.149 C 
HETATM   16  C10 UNL     1      -2.048  51.914 -27.389  1.00  0.00     0.172 C 
HETATM   17  O3  UNL     1      -1.946  52.327 -26.011  1.00  0.00    -0.357 OA
BRANCH  15  18
HETATM   18  N6  UNL     1       0.079  52.669 -28.404  1.00  0.00    -0.245 N 
ATOM     19  H6  UNL     1       0.684  52.597 -29.222  1.00  0.00     0.197 HD
BRANCH  18  20
HETATM   20  N7  UNL     1      -0.098  53.745 -27.800  1.00  0.00    -0.248 NA
BRANCH  20  21
HETATM   21  N8  UNL     1      -0.262  54.727 -27.246  1.00  0.00    -0.261 N 
ATOM     22  H82 UNL     1      -0.215  53.780 -27.623  1.00  0.00     0.193 HD
ATOM     23  H81 UNL     1      -0.406  55.608 -26.752  1.00  0.00     0.193 HD
ENDBRANCH  20  21
ENDBRANCH  18  20
ENDBRANCH  15  18
BRANCH  16  24
HETATM   24  C11 UNL     1      -3.058  50.767 -27.493  1.00  0.00     0.198 C 
BRANCH  24  25
HETATM   25  O2  UNL     1      -3.510  50.631 -28.835  1.00  0.00    -0.398 OA
HETATM   26  H14 UNL     1      -4.203  49.948 -28.833  1.00  0.00     0.209 HD
ENDBRANCH  24  25
ENDBRANCH  16  24
ENDBRANCH  12  13
BRANCH   4  27
HETATM   27  N2  UNL     1       2.047  54.719 -21.759  1.00  0.00    -0.274 NA
HETATM   28  H4  UNL     1       2.538  54.874 -22.627  1.00  0.00     0.127 HD
HETATM   29  H5  UNL     1       2.607  54.629 -20.922  1.00  0.00     0.127 HD
ENDBRANCH   4  27
BRANCH   1  30
HETATM   30  O1  UNL     1      -0.112  51.126 -19.659  1.00  0.00    -0.339 OA
HETATM   31  C1  UNL     1       0.096  51.872 -18.466  1.00  0.00     0.211 C 
ENDBRANCH   1  30
TORSDOF 8
ENDMDL
MODEL 3
REMARK minimizedAffinity -7.75395966
REMARK  8 active torsions:
REMARK  status: ('A' for Active; 'I' for Inactive)
REMARK    1  A    between atoms: O1_2  and  C2_3 
REMARK    2  A    between atoms: C3_6  and  N2_7 
REMARK    3  A    between atoms: N5_15  and  C7_16 
REMARK    4  A    between atoms: C9_18  and  N6_19 
REMARK    5  A    between atoms: N6_19  and  N7_21 
REMARK    6  A    between atoms: N7_21  and  N8_22 
REMARK    7  A    between atoms: C10_25  and  C11_26 
REMARK    8  A    between atoms: C11_26  and  O2_27 
ROOT
HETATM    1  C2  UNL     1       5.695  61.785 -34.691  1.00  0.00     0.175 A 
HETATM    2  N1  UNL     1       4.819  61.507 -33.690  1.00  0.00    -0.311 N 
ATOM      3  H1  UNL     1       4.853  60.613 -33.201  1.00  0.00     0.170 HD
HETATM    4  C3  UNL     1       3.908  62.434 -33.358  1.00  0.00     0.158 A 
HETATM    5  N3  UNL     1       3.764  63.654 -33.896  1.00  0.00    -0.317 N 
ATOM      6  H3  UNL     1       3.060  64.328 -33.595  1.00  0.00     0.170 HD
HETATM    7  C4  UNL     1       4.651  63.887 -34.877  1.00  0.00     0.144 A 
HETATM    8  C5  UNL     1       5.634  63.023 -35.333  1.00  0.00     0.129 A 
HETATM    9  N4  UNL     1       6.355  63.599 -36.357  1.00  0.00    -0.346 N 
ATOM     10  H4  UNL     1       7.130  63.190 -36.878  1.00  0.00     0.167 HD
HETATM   11  C6  UNL     1       5.823  64.792 -36.516  1.00  0.00     0.188 A 
HETATM   12  N5  UNL     1       4.782  65.010 -35.651  1.00  0.00    -0.300 N 
ENDROOT
BRANCH  12  13
HETATM   13  C7  UNL     1       3.980  66.212 -35.609  1.00  0.00     0.233 C 
HETATM   14  C8  UNL     1       4.412  67.314 -36.562  1.00  0.00     0.084 C 
HETATM   15  C9  UNL     1       3.123  68.083 -36.753  1.00  0.00     0.149 C 
HETATM   16  C10 UNL     1       2.063  66.974 -36.692  1.00  0.00     0.172 C 
HETATM   17  O3  UNL     1       2.613  65.889 -35.918  1.00  0.00    -0.357 OA
BRANCH  15  18
HETATM   18  N6  UNL     1       2.972  69.006 -35.609  1.00  0.00    -0.245 N 
ATOM     19  H6  UNL     1       2.083  69.130 -35.125  1.00  0.00     0.197 HD
BRANCH  18  20
HETATM   20  N7  UNL     1       4.002  69.623 -35.276  1.00  0.00    -0.248 NA
BRANCH  20  21
HETATM   21  N8  UNL     1       4.942  70.188 -34.969  1.00  0.00    -0.261 N 
ATOM     22  H82 UNL     1       4.038  69.732 -35.095  1.00  0.00     0.193 HD
ATOM     23  H81 UNL     1       5.786  70.693 -34.697  1.00  0.00     0.193 HD
ENDBRANCH  20  21
ENDBRANCH  18  20
ENDBRANCH  15  18
BRANCH  16  24
HETATM   24  C11 UNL     1       1.678  66.454 -38.080  1.00  0.00     0.198 C 
BRANCH  24  25
HETATM   25  O2  UNL     1       0.321  66.772 -38.365  1.00  0.00    -0.398 OA
HETATM   26  H14 UNL     1       0.105  66.354 -39.217  1.00  0.00     0.209 HD
ENDBRANCH  24  25
ENDBRANCH  16  24
ENDBRANCH  12  13
BRANCH   4  27
HETATM   27  N2  UNL     1       3.057  62.109 -32.320  1.00  0.00    -0.274 NA
HETATM   28  H4  UNL     1       2.755  62.947 -31.846  1.00  0.00     0.127 HD
HETATM   29  H5  UNL     1       3.481  61.387 -31.753  1.00  0.00     0.127 HD
ENDBRANCH   4  27
BRANCH   1  30
HETATM   30  O1  UNL     1       6.641  60.851 -35.068  1.00  0.00    -0.339 OA
HETATM   31  C1  UNL     1       7.878  61.000 -34.382  1.00  0.00     0.211 C 
ENDBRANCH   1  30
TORSDOF 8
ENDMDL
MODEL 4
REMARK minimizedAffinity -7.74599504
REMARK  8 active torsions:
REMARK  status: ('A' for Active; 'I' for Inactive)
REMARK    1  A    between atoms: O1_2  and  C2_3 
REMARK    2  A    between atoms: C3_6  and  N2_7 
REMARK    3  A    between atoms: N5_15  and  C7_16 
REMARK    4  A    between atoms: C9_18  and  N6_19 
REMARK    5  A    between atoms: N6_19  and  N7_21 
REMARK    6  A    between atoms: N7_21  and  N8_22 
REMARK    7  A    between atoms: C10_25  and  C11_26 
REMARK    8  A    between atoms: C11_26  and  O2_27 
ROOT
HETATM    1  C2  UNL     1       6.156  63.645 -34.155  1.00  0.00     0.175 A 
HETATM    2  N1  UNL     1       5.347  62.830 -33.429  1.00  0.00    -0.311 N 
ATOM      3  H1  UNL     1       5.741  62.108 -32.825  1.00  0.00     0.170 HD
HETATM    4  C3  UNL     1       4.019  62.994 -33.522  1.00  0.00     0.158 A 
HETATM    5  N3  UNL     1       3.368  63.910 -34.252  1.00  0.00    -0.317 N 
ATOM      6  H3  UNL     1       2.352  64.000 -34.276  1.00  0.00     0.170 HD
HETATM    7  C4  UNL     1       4.205  64.696 -34.949  1.00  0.00     0.144 A 
HETATM    8  C5  UNL     1       5.589  64.635 -34.960  1.00  0.00     0.129 A 
HETATM    9  N4  UNL     1       6.114  65.595 -35.798  1.00  0.00    -0.346 N 
ATOM     10  H4  UNL     1       7.098  65.774 -35.999  1.00  0.00     0.167 HD
HETATM   11  C6  UNL     1       5.069  66.231 -36.281  1.00  0.00     0.188 A 
HETATM   12  N5  UNL     1       3.890  65.718 -35.806  1.00  0.00    -0.300 N 
ENDROOT
BRANCH  12  13
HETATM   13  C7  UNL     1       2.575  66.185 -36.181  1.00  0.00     0.233 C 
HETATM   14  C8  UNL     1       2.414  67.695 -36.239  1.00  0.00     0.084 C 
HETATM   15  C9  UNL     1       1.262  67.848 -37.209  1.00  0.00     0.149 C 
HETATM   16  C10 UNL     1       1.492  66.684 -38.184  1.00  0.00     0.172 C 
HETATM   17  O3  UNL     1       2.233  65.667 -37.479  1.00  0.00    -0.357 OA
BRANCH  15  18
HETATM   18  N6  UNL     1       0.007  67.652 -36.457  1.00  0.00    -0.245 N 
ATOM     19  H6  UNL     1      -0.173  66.810 -35.908  1.00  0.00     0.197 HD
BRANCH  18  20
HETATM   20  N7  UNL     1      -0.819  68.582 -36.536  1.00  0.00    -0.248 NA
BRANCH  20  21
HETATM   21  N8  UNL     1      -1.574  69.432 -36.606  1.00  0.00    -0.261 N 
ATOM     22  H82 UNL     1      -0.876  68.722 -36.384  1.00  0.00     0.193 HD
ATOM     23  H81 UNL     1      -2.250  70.193 -36.671  1.00  0.00     0.193 HD
ENDBRANCH  20  21
ENDBRANCH  18  20
ENDBRANCH  15  18
BRANCH  16  24
HETATM   24  C11 UNL     1       2.282  67.106 -39.426  1.00  0.00     0.198 C 
BRANCH  24  25
HETATM   25  O2  UNL     1       1.710  66.525 -40.592  1.00  0.00    -0.398 OA
HETATM   26  H14 UNL     1       2.290  66.758 -41.338  1.00  0.00     0.209 HD
ENDBRANCH  24  25
ENDBRANCH  16  24
ENDBRANCH  12  13
BRANCH   4  27
HETATM   27  N2  UNL     1       3.245  62.152 -32.747  1.00  0.00    -0.274 NA
HETATM   28  H4  UNL     1       2.373  62.604 -32.513  1.00  0.00     0.127 HD
HETATM   29  H5  UNL     1       3.801  61.798 -31.980  1.00  0.00     0.127 HD
ENDBRANCH   4  27
BRANCH   1  30
HETATM   30  O1  UNL     1       7.529  63.501 -34.092  1.00  0.00    -0.339 OA
HETATM   31  C1  UNL     1       7.951  62.143 -34.142  1.00  0.00     0.211 C 
ENDBRANCH   1  30
TORSDOF 8
ENDMDL
MODEL 5
REMARK minimizedAffinity -7.72562551
REMARK  8 active torsions:
REMARK  status: ('A' for Active; 'I' for Inactive)
REMARK    1  A    between atoms: O1_2  and  C2_3 
REMARK    2  A    between atoms: C3_6  and  N2_7 
REMARK    3  A    between atoms: N5_15  and  C7_16 
REMARK    4  A    between atoms: C9_18  and  N6_19 
REMARK    5  A    between atoms: N6_19  and  N7_21 
REMARK    6  A    between atoms: N7_21  and  N8_22 
REMARK    7  A    between atoms: C10_25  and  C11_26 
REMARK    8  A    between atoms: C11_26  and  O2_27 
ROOT
HETATM    1  C2  UNL     1      10.928  63.279 -34.723  1.00  0.00     0.175 A 
HETATM    2  N1  UNL     1      10.831  62.486 -33.624  1.00  0.00    -0.311 N 
ATOM      3  H1  UNL     1      11.667  62.112 -33.175  1.00  0.00     0.170 HD
HETATM    4  C3  UNL     1       9.611  62.205 -33.140  1.00  0.00     0.158 A 
HETATM    5  N3  UNL     1       8.436  62.644 -33.611  1.00  0.00    -0.317 N 
ATOM      6  H3  UNL     1       7.534  62.411 -33.194  1.00  0.00     0.170 HD
HETATM    7  C4  UNL     1       8.579  63.426 -34.693  1.00  0.00     0.144 A 
HETATM    8  C5  UNL     1       9.767  63.789 -35.307  1.00  0.00     0.129 A 
HETATM    9  N4  UNL     1       9.528  64.597 -36.397  1.00  0.00    -0.346 N 
ATOM     10  H4  UNL     1      10.214  65.005 -37.032  1.00  0.00     0.167 HD
HETATM   11  C6  UNL     1       8.219  64.727 -36.442  1.00  0.00     0.188 A 
HETATM   12  N5  UNL     1       7.599  64.029 -35.437  1.00  0.00    -0.300 N 
ENDROOT
BRANCH  12  13
HETATM   13  C7  UNL     1       6.169  63.952 -35.246  1.00  0.00     0.233 C 
HETATM   14  C8  UNL     1       5.680  64.303 -33.850  1.00  0.00     0.084 C 
HETATM   15  C9  UNL     1       4.257  64.742 -34.120  1.00  0.00     0.149 C 
HETATM   16  C10 UNL     1       4.373  65.417 -35.495  1.00  0.00     0.172 C 
HETATM   17  O3  UNL     1       5.512  64.842 -36.167  1.00  0.00    -0.357 OA
BRANCH  15  18
HETATM   18  N6  UNL     1       3.418  63.530 -34.208  1.00  0.00    -0.245 N 
ATOM     19  H6  UNL     1       2.877  63.303 -35.043  1.00  0.00     0.197 HD
BRANCH  18  20
HETATM   20  N7  UNL     1       3.413  62.804 -33.195  1.00  0.00    -0.248 NA
BRANCH  20  21
HETATM   21  N8  UNL     1       3.406  62.142 -32.269  1.00  0.00    -0.261 N 
ATOM     22  H82 UNL     1       3.266  62.795 -33.039  1.00  0.00     0.193 HD
ATOM     23  H81 UNL     1       3.403  61.547 -31.440  1.00  0.00     0.193 HD
ENDBRANCH  20  21
ENDBRANCH  18  20
ENDBRANCH  15  18
BRANCH  16  24
HETATM   24  C11 UNL     1       4.567  66.932 -35.389  1.00  0.00     0.198 C 
BRANCH  24  25
HETATM   25  O2  UNL     1       5.363  67.247 -34.253  1.00  0.00    -0.398 OA
HETATM   26  H14 UNL     1       5.390  68.218 -34.186  1.00  0.00     0.209 HD
ENDBRANCH  24  25
ENDBRANCH  16  24
ENDBRANCH  12  13
BRANCH   4  27
HETATM   27  N2  UNL     1       9.572  61.413 -32.009  1.00  0.00    -0.274 NA
HETATM   28  H4  UNL     1       8.745  61.624 -31.470  1.00  0.00     0.127 HD
HETATM   29  H5  UNL     1      10.460  61.468 -31.531  1.00  0.00     0.127 HD
ENDBRANCH   4  27
BRANCH   1  30
HETATM   30  O1  UNL     1      12.167  63.582 -35.256  1.00  0.00    -0.339 OA
HETATM   31  C1  UNL     1      12.560  62.696 -36.297  1.00  0.00     0.211 C 
ENDBRANCH   1  30
TORSDOF 8
ENDMDL
MODEL 6
REMARK minimizedAffinity -7.50928926
REMARK  8 active torsions:
REMARK  status: ('A' for Active; 'I' for Inactive)
REMARK    1  A    between atoms: O1_2  and  C2_3 
REMARK    2  A    between atoms: C3_6  and  N2_7 
REMARK    3  A    between atoms: N5_15  and  C7_16 
REMARK    4  A    between atoms: C9_18  and  N6_19 
REMARK    5  A    between atoms: N6_19  and  N7_21 
REMARK    6  A    between atoms: N7_21  and  N8_22 
REMARK    7  A    between atoms: C10_25  and  C11_26 
REMARK    8  A    between atoms: C11_26  and  O2_27 
ROOT
HETATM    1  C2  UNL     1      -4.326  48.924 -25.618  1.00  0.00     0.175 A 
HETATM    2  N1  UNL     1      -4.338  49.036 -26.972  1.00  0.00    -0.311 N 
ATOM      3  H1  UNL     1      -4.915  48.415 -27.540  1.00  0.00     0.170 HD
HETATM    4  C3  UNL     1      -3.576  49.978 -27.546  1.00  0.00     0.158 A 
HETATM    5  N3  UNL     1      -2.792  50.871 -26.925  1.00  0.00    -0.317 N 
ATOM      6  H3  UNL     1      -2.242  51.580 -27.412  1.00  0.00     0.170 HD
HETATM    7  C4  UNL     1      -2.813  50.729 -25.590  1.00  0.00     0.144 A 
HETATM    8  C5  UNL     1      -3.538  49.797 -24.864  1.00  0.00     0.129 A 
HETATM    9  N4  UNL     1      -3.308  49.943 -23.513  1.00  0.00    -0.346 N 
ATOM     10  H4  UNL     1      -3.705  49.393 -22.752  1.00  0.00     0.167 HD
HETATM   11  C6  UNL     1      -2.463  50.948 -23.420  1.00  0.00     0.188 A 
HETATM   12  N5  UNL     1      -2.126  51.451 -24.651  1.00  0.00    -0.300 N 
ENDROOT
BRANCH  12  13
HETATM   13  C7  UNL     1      -1.194  52.533 -24.873  1.00  0.00     0.233 C 
HETATM   14  C8  UNL     1      -0.111  52.685 -23.817  1.00  0.00     0.084 C 
HETATM   15  C9  UNL     1       0.984  53.384 -24.594  1.00  0.00     0.149 C 
HETATM   16  C10 UNL     1       0.832  52.782 -25.998  1.00  0.00     0.172 C 
HETATM   17  O3  UNL     1      -0.536  52.348 -26.139  1.00  0.00    -0.357 OA
BRANCH  15  18
HETATM   18  N6  UNL     1       0.673  54.828 -24.614  1.00  0.00    -0.245 N 
ATOM     19  H6  UNL     1       0.716  55.405 -23.773  1.00  0.00     0.197 HD
BRANCH  18  20
HETATM   20  N7  UNL     1       0.355  55.295 -25.725  1.00  0.00    -0.248 NA
BRANCH  20  21
HETATM   21  N8  UNL     1       0.061  55.722 -26.739  1.00  0.00    -0.261 N 
ATOM     22  H82 UNL     1       0.165  55.375 -25.785  1.00  0.00     0.193 HD
ATOM     23  H81 UNL     1      -0.199  56.104 -27.648  1.00  0.00     0.193 HD
ENDBRANCH  20  21
ENDBRANCH  18  20
ENDBRANCH  15  18
BRANCH  16  24
HETATM   24  C11 UNL     1       1.762  51.588 -26.228  1.00  0.00     0.198 C 
BRANCH  24  25
HETATM   25  O2  UNL     1       2.994  52.026 -26.787  1.00  0.00    -0.398 OA
HETATM   26  H14 UNL     1       3.515  51.227 -26.986  1.00  0.00     0.209 HD
ENDBRANCH  24  25
ENDBRANCH  16  24
ENDBRANCH  12  13
BRANCH   4  27
HETATM   27  N2  UNL     1      -3.643  50.061 -28.924  1.00  0.00    -0.274 NA
HETATM   28  H4  UNL     1      -3.448  51.006 -29.221  1.00  0.00     0.127 HD
HETATM   29  H5  UNL     1      -4.507  49.646 -29.242  1.00  0.00     0.127 HD
ENDBRANCH   4  27
BRANCH   1  30
HETATM   30  O1  UNL     1      -5.090  47.959 -24.991  1.00  0.00    -0.339 OA
HETATM   31  C1  UNL     1      -6.469  48.301 -24.913  1.00  0.00     0.211 C 
ENDBRANCH   1  30
TORSDOF 8
ENDMDL
MODEL 7
REMARK minimizedAffinity -7.4283185
REMARK  8 active torsions:
REMARK  status: ('A' for Active; 'I' for Inactive)
REMARK    1  A    between atoms: O1_2  and  C2_3 
REMARK    2  A    between atoms: C3_6  and  N2_7 
REMARK    3  A    between atoms: N5_15  and  C7_16 
REMARK    4  A    between atoms: C9_18  and  N6_19 
REMARK    5  A    between atoms: N6_19  and  N7_21 
REMARK    6  A    between atoms: N7_21  and  N8_22 
REMARK    7  A    between atoms: C10_25  and  C11_26 
REMARK    8  A    between atoms: C11_26  and  O2_27 
ROOT
HETATM    1  C2  UNL     1      -3.741  51.111 -21.029  1.00  0.00     0.175 A 
HETATM    2  N1  UNL     1      -4.852  51.122 -21.811  1.00  0.00    -0.311 N 
ATOM      3  H1  UNL     1      -5.765  50.883 -21.422  1.00  0.00     0.170 HD
HETATM    4  C3  UNL     1      -4.725  51.454 -23.104  1.00  0.00     0.158 A 
HETATM    5  N3  UNL     1      -3.600  51.811 -23.739  1.00  0.00    -0.317 N 
ATOM      6  H3  UNL     1      -3.561  52.070 -24.725  1.00  0.00     0.170 HD
HETATM    7  C4  UNL     1      -2.528  51.791 -22.929  1.00  0.00     0.144 A 
HETATM    8  C5  UNL     1      -2.508  51.458 -21.584  1.00  0.00     0.129 A 
HETATM    9  N4  UNL     1      -1.228  51.542 -21.079  1.00  0.00    -0.346 N 
ATOM     10  H4  UNL     1      -0.922  51.350 -20.125  1.00  0.00     0.167 HD
HETATM   11  C6  UNL     1      -0.487  51.925 -22.097  1.00  0.00     0.188 A 
HETATM   12  N5  UNL     1      -1.226  52.079 -23.242  1.00  0.00    -0.300 N 
ENDROOT
BRANCH  12  13
HETATM   13  C7  UNL     1      -0.687  52.458 -24.528  1.00  0.00     0.233 C 
HETATM   14  C8  UNL     1      -0.042  51.331 -25.318  1.00  0.00     0.084 C 
HETATM   15  C9  UNL     1      -0.171  51.837 -26.739  1.00  0.00     0.149 C 
HETATM   16  C10 UNL     1      -1.508  52.590 -26.705  1.00  0.00     0.172 C 
HETATM   17  O3  UNL     1      -1.734  53.011 -25.344  1.00  0.00    -0.357 OA
BRANCH  15  18
HETATM   18  N6  UNL     1       0.944  52.772 -26.990  1.00  0.00    -0.245 N 
ATOM     19  H6  UNL     1       0.800  53.778 -27.080  1.00  0.00     0.197 HD
BRANCH  18  20
HETATM   20  N7  UNL     1       2.073  52.252 -27.084  1.00  0.00    -0.248 NA
BRANCH  20  21
HETATM   21  N8  UNL     1       3.104  51.774 -27.167  1.00  0.00    -0.261 N 
ATOM     22  H82 UNL     1       2.162  52.105 -26.955  1.00  0.00     0.193 HD
ATOM     23  H81 UNL     1       4.027  51.349 -27.244  1.00  0.00     0.193 HD
ENDBRANCH  20  21
ENDBRANCH  18  20
ENDBRANCH  15  18
BRANCH  16  24
HETATM   24  C11 UNL     1      -2.683  51.721 -27.162  1.00  0.00     0.198 C 
BRANCH  24  25
HETATM   25  O2  UNL     1      -2.304  50.935 -28.285  1.00  0.00    -0.398 OA
HETATM   26  H14 UNL     1      -3.102  50.464 -28.583  1.00  0.00     0.209 HD
ENDBRANCH  24  25
ENDBRANCH  16  24
ENDBRANCH  12  13
BRANCH   4  27
HETATM   27  N2  UNL     1      -5.890  51.470 -23.847  1.00  0.00    -0.274 NA
HETATM   28  H4  UNL     1      -5.806  52.132 -24.604  1.00  0.00     0.127 HD
HETATM   29  H5  UNL     1      -6.681  51.576 -23.227  1.00  0.00     0.127 HD
ENDBRANCH   4  27
BRANCH   1  30
HETATM   30  O1  UNL     1      -3.831  50.764 -19.694  1.00  0.00    -0.339 OA
HETATM   31  C1  UNL     1      -2.956  51.514 -18.861  1.00  0.00     0.211 C 
ENDBRANCH   1  30
TORSDOF 8
ENDMDL
MODEL 8
REMARK minimizedAffinity -7.41856575
REMARK  8 active torsions:
REMARK  status: ('A' for Active; 'I' for Inactive)
REMARK    1  A    between atoms: O1_2  and  C2_3 
REMARK    2  A    between atoms: C3_6  and  N2_7 
REMARK    3  A    between atoms: N5_15  and  C7_16 
REMARK    4  A    between atoms: C9_18  and  N6_19 
REMARK    5  A    between atoms: N6_19  and  N7_21 
REMARK    6  A    between atoms: N7_21  and  N8_22 
REMARK    7  A    between atoms: C10_25  and  C11_26 
REMARK    8  A    between atoms: C11_26  and  O2_27 
ROOT
HETATM    1  C2  UNL     1      -0.017  53.524 -25.487  1.00  0.00     0.175 A 
HETATM    2  N1  UNL     1      -0.749  52.380 -25.539  1.00  0.00    -0.311 N 
ATOM      3  H1  UNL     1      -1.204  52.092 -26.406  1.00  0.00     0.170 HD
HETATM    4  C3  UNL     1      -0.863  51.638 -24.428  1.00  0.00     0.158 A 
HETATM    5  N3  UNL     1      -0.304  51.881 -23.234  1.00  0.00    -0.317 N 
ATOM      6  H3  UNL     1      -0.411  51.273 -22.422  1.00  0.00     0.170 HD
HETATM    7  C4  UNL     1       0.414  53.017 -23.228  1.00  0.00     0.144 A 
HETATM    8  C5  UNL     1       0.607  53.884 -24.291  1.00  0.00     0.129 A 
HETATM    9  N4  UNL     1       1.396  54.950 -23.914  1.00  0.00    -0.346 N 
ATOM     10  H4  UNL     1       1.693  55.737 -24.491  1.00  0.00     0.167 HD
HETATM   11  C6  UNL     1       1.681  54.731 -22.649  1.00  0.00     0.188 A 
HETATM   12  N5  UNL     1       1.101  53.578 -22.184  1.00  0.00    -0.300 N 
ENDROOT
BRANCH  12  13
HETATM   13  C7  UNL     1       1.205  53.090 -20.828  1.00  0.00     0.233 C 
HETATM   14  C8  UNL     1       0.551  53.966 -19.772  1.00  0.00     0.084 C 
HETATM   15  C9  UNL     1       0.266  52.965 -18.672  1.00  0.00     0.149 C 
HETATM   16  C10 UNL     1      -0.059  51.689 -19.460  1.00  0.00     0.172 C 
HETATM   17  O3  UNL     1       0.602  51.787 -20.738  1.00  0.00    -0.357 OA
BRANCH  15  18
HETATM   18  N6  UNL     1       1.505  52.788 -17.888  1.00  0.00    -0.245 N 
ATOM     19  H6  UNL     1       2.416  52.667 -18.332  1.00  0.00     0.197 HD
BRANCH  18  20
HETATM   20  N7  UNL     1       1.364  52.796 -16.650  1.00  0.00    -0.248 NA
BRANCH  20  21
HETATM   21  N8  UNL     1       1.233  52.801 -15.519  1.00  0.00    -0.261 N 
ATOM     22  H82 UNL     1       1.230  52.678 -16.531  1.00  0.00     0.193 HD
ATOM     23  H81 UNL     1       1.119  52.808 -14.505  1.00  0.00     0.193 HD
ENDBRANCH  20  21
ENDBRANCH  18  20
ENDBRANCH  15  18
BRANCH  16  24
HETATM   24  C11 UNL     1      -1.562  51.506 -19.688  1.00  0.00     0.198 C 
BRANCH  24  25
HETATM   25  O2  UNL     1      -2.293  52.043 -18.592  1.00  0.00    -0.398 OA
HETATM   26  H14 UNL     1      -3.231  51.833 -18.746  1.00  0.00     0.209 HD
ENDBRANCH  24  25
ENDBRANCH  16  24
ENDBRANCH  12  13
BRANCH   4  27
HETATM   27  N2  UNL     1      -1.601  50.476 -24.543  1.00  0.00    -0.274 NA
HETATM   28  H4  UNL     1      -1.271  49.791 -23.879  1.00  0.00     0.127 HD
HETATM   29  H5  UNL     1      -1.635  50.196 -25.514  1.00  0.00     0.127 HD
ENDBRANCH   4  27
BRANCH   1  30
HETATM   30  O1  UNL     1       0.115  54.319 -26.609  1.00  0.00    -0.339 OA
HETATM   31  C1  UNL     1      -0.384  53.706 -27.791  1.00  0.00     0.211 C 
ENDBRANCH   1  30
TORSDOF 8
ENDMDL
MODEL 9
REMARK minimizedAffinity -7.34428406
REMARK  8 active torsions:
REMARK  status: ('A' for Active; 'I' for Inactive)
REMARK    1  A    between atoms: O1_2  and  C2_3 
REMARK    2  A    between atoms: C3_6  and  N2_7 
REMARK    3  A    between atoms: N5_15  and  C7_16 
REMARK    4  A    between atoms: C9_18  and  N6_19 
REMARK    5  A    between atoms: N6_19  and  N7_21 
REMARK    6  A    between atoms: N7_21  and  N8_22 
REMARK    7  A    between atoms: C10_25  and  C11_26 
REMARK    8  A    between atoms: C11_26  and  O2_27 
ROOT
HETATM    1  C2  UNL     1      -2.021  51.082 -20.693  1.00  0.00     0.175 A 
HETATM    2  N1  UNL     1      -3.375  51.054 -20.811  1.00  0.00    -0.311 N 
ATOM      3  H1  UNL     1      -3.957  50.695 -20.054  1.00  0.00     0.170 HD
HETATM    4  C3  UNL     1      -3.931  51.508 -21.945  1.00  0.00     0.158 A 
HETATM    5  N3  UNL     1      -3.294  52.025 -23.005  1.00  0.00    -0.317 N 
ATOM      6  H3  UNL     1      -3.769  52.371 -23.840  1.00  0.00     0.170 HD
HETATM    7  C4  UNL     1      -1.961  52.038 -22.844  1.00  0.00     0.144 A 
HETATM    8  C5  UNL     1      -1.252  51.594 -21.740  1.00  0.00     0.129 A 
HETATM    9  N4  UNL     1       0.103  51.757 -21.931  1.00  0.00    -0.346 N 
ATOM     10  H4  UNL     1       0.856  51.513 -21.288  1.00  0.00     0.167 HD
HETATM   11  C6  UNL     1       0.214  52.296 -23.127  1.00  0.00     0.188 A 
HETATM   12  N5  UNL     1      -1.007  52.477 -23.724  1.00  0.00    -0.300 N 
ENDROOT
BRANCH  12  13
HETATM   13  C7  UNL     1      -1.206  53.016 -25.050  1.00  0.00     0.233 C 
HETATM   14  C8  UNL     1      -0.100  52.711 -26.047  1.00  0.00     0.084 C 
HETATM   15  C9  UNL     1      -0.835  52.812 -27.366  1.00  0.00     0.149 C 
HETATM   16  C10 UNL     1      -2.232  52.283 -27.010  1.00  0.00     0.172 C 
HETATM   17  O3  UNL     1      -2.432  52.502 -25.599  1.00  0.00    -0.357 OA
BRANCH  15  18
HETATM   18  N6  UNL     1      -0.903  54.239 -27.739  1.00  0.00    -0.245 N 
ATOM     19  H6  UNL     1      -1.438  54.566 -28.544  1.00  0.00     0.197 HD
BRANCH  18  20
HETATM   20  N7  UNL     1      -0.263  55.018 -27.006  1.00  0.00    -0.248 NA
BRANCH  20  21
HETATM   21  N8  UNL     1       0.319  55.732 -26.336  1.00  0.00    -0.261 N 
ATOM     22  H82 UNL     1      -0.333  55.196 -26.909  1.00  0.00     0.193 HD
ATOM     23  H81 UNL     1       0.843  56.369 -25.736  1.00  0.00     0.193 HD
ENDBRANCH  20  21
ENDBRANCH  18  20
ENDBRANCH  15  18
BRANCH  16  24
HETATM   24  C11 UNL     1      -2.388  50.789 -27.311  1.00  0.00     0.198 C 
BRANCH  24  25
HETATM   25  O2  UNL     1      -3.061  50.606 -28.551  1.00  0.00    -0.398 OA
HETATM   26  H14 UNL     1      -3.204  49.649 -28.656  1.00  0.00     0.209 HD
ENDBRANCH  24  25
ENDBRANCH  16  24
ENDBRANCH  12  13
BRANCH   4  27
HETATM   27  N2  UNL     1      -5.311  51.476 -22.003  1.00  0.00    -0.274 NA
HETATM   28  H4  UNL     1      -5.647  52.207 -22.613  1.00  0.00     0.127 HD
HETATM   29  H5  UNL     1      -5.684  51.451 -21.064  1.00  0.00     0.127 HD
ENDBRANCH   4  27
BRANCH   1  30
HETATM   30  O1  UNL     1      -1.412  50.615 -19.545  1.00  0.00    -0.339 OA
HETATM   31  C1  UNL     1      -1.124  51.643 -18.606  1.00  0.00     0.211 C 
ENDBRANCH   1  30
TORSDOF 8
ENDMDL
