MODEL 1
REMARK minimizedAffinity -7.0907197
REMARK CNNscore 0.751085162
REMARK CNNaffinity 7.12252283
REMARK  4 active torsions:
REMARK  status: ('A' for Active; 'I' for Inactive)
REMARK    1  A    between atoms: C4_4  and  C5_5 
REMARK    2  A    between atoms: C5_5  and  C6_6 
REMARK    3  A    between atoms: C6_6  and  C7_7 
REMARK    4  A    between atoms: C7_7  and  C9_9 
ROOT
HETATM    1  C9  UNL     1      -1.880  52.172 -10.934  1.00  0.00    -0.002 C 
HETATM    2  C10 UNL     1      -1.075  50.864 -11.199  1.00  0.00     0.007 C 
HETATM    3  C11 UNL     1       0.393  51.138 -10.824  1.00  0.00     0.015 C 
HETATM    4  C12 UNL     1       0.477  52.669 -10.666  1.00  0.00    -0.013 C 
HETATM    5  C13 UNL     1       0.659  53.240 -12.110  1.00  0.00     0.021 C 
HETATM    6  C14 UNL     1       1.620  53.245  -9.836  1.00  0.00    -0.070 C 
HETATM    7  C15 UNL     1       2.830  52.660  -9.776  1.00  0.00    -0.022 C 
HETATM    8  C16 UNL     1       4.020  53.239  -9.076  1.00  0.00     0.034 C 
HETATM    9  C17 UNL     1       3.726  54.477  -8.198  1.00  0.00     0.013 C 
HETATM   10  C18 UNL     1       5.036  55.188  -7.691  1.00  0.00     0.018 C 
HETATM   11  C19 UNL     1       6.193  55.216  -8.709  1.00  0.00     0.023 C 
HETATM   12  C20 UNL     1       5.557  54.466  -6.429  1.00  0.00     0.023 C 
HETATM   13  C21 UNL     1       4.710  56.626  -7.271  1.00  0.00     0.135 C 
HETATM   14  O1  UNL     1       5.551  57.524  -7.260  1.00  0.00    -0.297 OA
HETATM   15  C22 UNL     1       3.311  56.879  -6.783  1.00  0.00     0.080 C 
HETATM   16  C23 UNL     1       2.286  56.588  -7.867  1.00  0.00     0.017 C 
HETATM   17  C24 UNL     1       2.647  55.423  -8.847  1.00  0.00    -0.031 C 
HETATM   18  C25 UNL     1       3.164  56.046 -10.167  1.00  0.00     0.016 C 
HETATM   19  C26 UNL     1       1.344  54.558  -9.103  1.00  0.00     0.024 C 
HETATM   20  C27 UNL     1       0.158  55.337  -9.721  1.00  0.00     0.010 C 
HETATM   21  C28 UNL     1      -1.126  54.507  -9.961  1.00  0.00     0.011 C 
HETATM   22  C29 UNL     1      -0.913  52.978 -10.002  1.00  0.00    -0.029 C 
HETATM   23  C30 UNL     1      -1.052  52.409  -8.552  1.00  0.00     0.016 C 
ENDROOT
BRANCH   1  24
HETATM   24  C7  UNL     1      -3.344  51.881 -10.480  1.00  0.00    -0.014 C 
HETATM   25  C8  UNL     1      -4.305  53.000 -10.898  1.00  0.00     0.010 C 
BRANCH  24  26
HETATM   26  C6  UNL     1      -3.824  50.522 -11.063  1.00  0.00     0.008 C 
BRANCH  26  27
HETATM   27  C5  UNL     1      -4.594  49.606 -10.100  1.00  0.00     0.028 C 
BRANCH  27  28
HETATM   28  C4  UNL     1      -6.085  49.798 -10.178  1.00  0.00    -0.025 C 
HETATM   29  C2  UNL     1      -6.995  49.028 -10.806  1.00  0.00    -0.091 C 
HETATM   30  C1  UNL     1      -6.698  47.772 -11.579  1.00  0.00     0.042 C 
HETATM   31  C3  UNL     1      -8.457  49.397 -10.776  1.00  0.00     0.042 C 
ENDBRANCH  27  28
ENDBRANCH  26  27
ENDBRANCH  24  26
ENDBRANCH   1  24
TORSDOF 4
ENDMDL
MODEL 2
REMARK minimizedAffinity -8.09083939
REMARK CNNscore 0.537623405
REMARK CNNaffinity 5.88220167
REMARK  4 active torsions:
REMARK  status: ('A' for Active; 'I' for Inactive)
REMARK    1  A    between atoms: C4_4  and  C5_5 
REMARK    2  A    between atoms: C5_5  and  C6_6 
REMARK    3  A    between atoms: C6_6  and  C7_7 
REMARK    4  A    between atoms: C7_7  and  C9_9 
ROOT
HETATM    1  C9  UNL     1      -6.720  47.279 -30.165  1.00  0.00    -0.002 C 
HETATM    2  C10 UNL     1      -5.567  47.977 -30.947  1.00  0.00     0.007 C 
HETATM    3  C11 UNL     1      -5.915  47.913 -32.446  1.00  0.00     0.015 C 
HETATM    4  C12 UNL     1      -7.078  46.905 -32.533  1.00  0.00    -0.013 C 
HETATM    5  C13 UNL     1      -6.418  45.488 -32.547  1.00  0.00     0.021 C 
HETATM    6  C14 UNL     1      -7.987  46.960 -33.757  1.00  0.00    -0.070 C 
HETATM    7  C15 UNL     1      -7.537  47.323 -34.971  1.00  0.00    -0.022 C 
HETATM    8  C16 UNL     1      -8.350  47.283 -36.226  1.00  0.00     0.034 C 
HETATM    9  C17 UNL     1      -9.859  47.012 -36.023  1.00  0.00     0.013 C 
HETATM   10  C18 UNL     1     -10.616  46.734 -37.374  1.00  0.00     0.018 C 
HETATM   11  C19 UNL     1      -9.814  45.921 -38.410  1.00  0.00     0.023 C 
HETATM   12  C20 UNL     1     -10.988  48.077 -38.040  1.00  0.00     0.023 C 
HETATM   13  C21 UNL     1     -11.934  46.008 -37.085  1.00  0.00     0.135 C 
HETATM   14  O1  UNL     1     -12.498  45.295 -37.913  1.00  0.00    -0.297 OA
HETATM   15  C22 UNL     1     -12.565  46.275 -35.747  1.00  0.00     0.080 C 
HETATM   16  C23 UNL     1     -11.660  45.830 -34.610  1.00  0.00     0.017 C 
HETATM   17  C24 UNL     1     -10.124  45.973 -34.869  1.00  0.00    -0.031 C 
HETATM   18  C25 UNL     1      -9.564  44.576 -35.229  1.00  0.00     0.016 C 
HETATM   19  C26 UNL     1      -9.442  46.533 -33.553  1.00  0.00     0.024 C 
HETATM   20  C27 UNL     1      -9.623  45.645 -32.298  1.00  0.00     0.010 C 
HETATM   21  C28 UNL     1      -8.974  46.190 -31.002  1.00  0.00     0.011 C 
HETATM   22  C29 UNL     1      -7.874  47.252 -31.223  1.00  0.00    -0.029 C 
HETATM   23  C30 UNL     1      -8.537  48.668 -31.253  1.00  0.00     0.016 C 
ENDROOT
BRANCH   1  24
HETATM   24  C7  UNL     1      -6.957  47.923 -28.764  1.00  0.00    -0.014 C 
HETATM   25  C8  UNL     1      -8.265  47.439 -28.127  1.00  0.00     0.010 C 
BRANCH  24  26
HETATM   26  C6  UNL     1      -5.759  47.610 -27.823  1.00  0.00     0.008 C 
BRANCH  26  27
HETATM   27  C5  UNL     1      -4.527  48.515 -27.972  1.00  0.00     0.028 C 
BRANCH  27  28
HETATM   28  C4  UNL     1      -3.674  48.550 -26.733  1.00  0.00    -0.025 C 
HETATM   29  C2  UNL     1      -4.070  48.527 -25.445  1.00  0.00    -0.091 C 
HETATM   30  C1  UNL     1      -5.494  48.452 -24.966  1.00  0.00     0.042 C 
HETATM   31  C3  UNL     1      -3.053  48.580 -24.333  1.00  0.00     0.042 C 
ENDBRANCH  27  28
ENDBRANCH  26  27
ENDBRANCH  24  26
ENDBRANCH   1  24
TORSDOF 4
ENDMDL
MODEL 3
REMARK minimizedAffinity -6.70860624
REMARK CNNscore 0.491549671
REMARK CNNaffinity 5.75129652
REMARK  4 active torsions:
REMARK  status: ('A' for Active; 'I' for Inactive)
REMARK    1  A    between atoms: C4_4  and  C5_5 
REMARK    2  A    between atoms: C5_5  and  C6_6 
REMARK    3  A    between atoms: C6_6  and  C7_7 
REMARK    4  A    between atoms: C7_7  and  C9_9 
ROOT
HETATM    1  C9  UNL     1     -10.095  46.490 -29.544  1.00  0.00    -0.002 C 
HETATM    2  C10 UNL     1     -10.557  45.436 -30.596  1.00  0.00     0.007 C 
HETATM    3  C11 UNL     1     -11.858  44.798 -30.073  1.00  0.00     0.015 C 
HETATM    4  C12 UNL     1     -11.948  45.245 -28.601  1.00  0.00    -0.013 C 
HETATM    5  C13 UNL     1     -11.047  44.253 -27.795  1.00  0.00     0.021 C 
HETATM    6  C14 UNL     1     -13.315  45.220 -27.924  1.00  0.00    -0.070 C 
HETATM    7  C15 UNL     1     -14.256  44.313 -28.238  1.00  0.00    -0.022 C 
HETATM    8  C16 UNL     1     -15.566  44.165 -27.529  1.00  0.00     0.034 C 
HETATM    9  C17 UNL     1     -15.900  45.294 -26.527  1.00  0.00     0.013 C 
HETATM   10  C18 UNL     1     -17.155  44.966 -25.635  1.00  0.00     0.018 C 
HETATM   11  C19 UNL     1     -17.278  43.490 -25.210  1.00  0.00     0.023 C 
HETATM   12  C20 UNL     1     -18.443  45.326 -26.409  1.00  0.00     0.023 C 
HETATM   13  C21 UNL     1     -17.137  45.845 -24.380  1.00  0.00     0.135 C 
HETATM   14  O1  UNL     1     -17.702  45.525 -23.335  1.00  0.00    -0.297 OA
HETATM   15  C22 UNL     1     -16.457  47.179 -24.507  1.00  0.00     0.080 C 
HETATM   16  C23 UNL     1     -14.984  47.019 -24.846  1.00  0.00     0.017 C 
HETATM   17  C24 UNL     1     -14.624  45.793 -25.748  1.00  0.00    -0.031 C 
HETATM   18  C25 UNL     1     -14.048  44.679 -24.840  1.00  0.00     0.016 C 
HETATM   19  C26 UNL     1     -13.556  46.254 -26.823  1.00  0.00     0.024 C 
HETATM   20  C27 UNL     1     -12.235  46.803 -26.233  1.00  0.00     0.010 C 
HETATM   21  C28 UNL     1     -11.189  47.272 -27.273  1.00  0.00     0.011 C 
HETATM   22  C29 UNL     1     -11.394  46.712 -28.698  1.00  0.00    -0.029 C 
HETATM   23  C30 UNL     1     -12.330  47.680 -29.492  1.00  0.00     0.016 C 
ENDROOT
BRANCH   1  24
HETATM   24  C7  UNL     1      -9.374  47.705 -30.206  1.00  0.00    -0.014 C 
HETATM   25  C8  UNL     1      -8.685  48.596 -29.165  1.00  0.00     0.010 C 
BRANCH  24  26
HETATM   26  C6  UNL     1      -8.334  47.206 -31.249  1.00  0.00     0.008 C 
BRANCH  26  27
HETATM   27  C5  UNL     1      -8.222  48.030 -32.541  1.00  0.00     0.028 C 
BRANCH  27  28
HETATM   28  C4  UNL     1      -6.952  47.757 -33.300  1.00  0.00    -0.025 C 
HETATM   29  C2  UNL     1      -5.680  47.893 -32.877  1.00  0.00    -0.091 C 
HETATM   30  C1  UNL     1      -5.255  48.355 -31.510  1.00  0.00     0.042 C 
HETATM   31  C3  UNL     1      -4.531  47.575 -33.799  1.00  0.00     0.042 C 
ENDBRANCH  27  28
ENDBRANCH  26  27
ENDBRANCH  24  26
ENDBRANCH   1  24
TORSDOF 4
ENDMDL
MODEL 4
REMARK minimizedAffinity -6.64351988
REMARK CNNscore 0.434441954
REMARK CNNaffinity 6.67413521
REMARK  4 active torsions:
REMARK  status: ('A' for Active; 'I' for Inactive)
REMARK    1  A    between atoms: C4_4  and  C5_5 
REMARK    2  A    between atoms: C5_5  and  C6_6 
REMARK    3  A    between atoms: C6_6  and  C7_7 
REMARK    4  A    between atoms: C7_7  and  C9_9 
ROOT
HETATM    1  C9  UNL     1      -1.988  51.871 -10.706  1.00  0.00    -0.002 C 
HETATM    2  C10 UNL     1      -2.751  51.640  -9.367  1.00  0.00     0.007 C 
HETATM    3  C11 UNL     1      -1.939  52.318  -8.247  1.00  0.00     0.015 C 
HETATM    4  C12 UNL     1      -0.577  52.639  -8.892  1.00  0.00    -0.013 C 
HETATM    5  C13 UNL     1       0.260  51.321  -8.805  1.00  0.00     0.021 C 
HETATM    6  C14 UNL     1       0.281  53.728  -8.255  1.00  0.00    -0.070 C 
HETATM    7  C15 UNL     1       0.277  53.964  -6.931  1.00  0.00    -0.022 C 
HETATM    8  C16 UNL     1       1.181  54.934  -6.237  1.00  0.00     0.034 C 
HETATM    9  C17 UNL     1       1.995  55.857  -7.173  1.00  0.00     0.013 C 
HETATM   10  C18 UNL     1       3.101  56.676  -6.410  1.00  0.00     0.018 C 
HETATM   11  C19 UNL     1       3.804  55.910  -5.272  1.00  0.00     0.023 C 
HETATM   12  C20 UNL     1       2.467  57.938  -5.785  1.00  0.00     0.023 C 
HETATM   13  C21 UNL     1       4.158  57.164  -7.407  1.00  0.00     0.135 C 
HETATM   14  O1  UNL     1       5.314  57.426  -7.077  1.00  0.00    -0.297 OA
HETATM   15  C22 UNL     1       3.692  57.394  -8.817  1.00  0.00     0.080 C 
HETATM   16  C23 UNL     1       3.181  56.107  -9.447  1.00  0.00     0.017 C 
HETATM   17  C24 UNL     1       2.479  55.107  -8.471  1.00  0.00    -0.031 C 
HETATM   18  C25 UNL     1       3.484  53.980  -8.130  1.00  0.00     0.016 C 
HETATM   19  C26 UNL     1       1.196  54.519  -9.191  1.00  0.00     0.024 C 
HETATM   20  C27 UNL     1       1.480  53.762 -10.511  1.00  0.00     0.010 C 
HETATM   21  C28 UNL     1       0.233  53.197 -11.233  1.00  0.00     0.011 C 
HETATM   22  C29 UNL     1      -1.021  53.048 -10.342  1.00  0.00    -0.029 C 
HETATM   23  C30 UNL     1      -1.838  54.380 -10.392  1.00  0.00     0.016 C 
ENDROOT
BRANCH   1  24
HETATM   24  C7  UNL     1      -2.958  52.002 -11.921  1.00  0.00    -0.014 C 
HETATM   25  C8  UNL     1      -3.907  53.195 -11.768  1.00  0.00     0.010 C 
BRANCH  24  26
HETATM   26  C6  UNL     1      -2.146  52.135 -13.241  1.00  0.00     0.008 C 
BRANCH  26  27
HETATM   27  C5  UNL     1      -1.157  50.999 -13.545  1.00  0.00     0.028 C 
BRANCH  27  28
HETATM   28  C4  UNL     1      -0.920  50.809 -15.019  1.00  0.00    -0.025 C 
HETATM   29  C2  UNL     1       0.158  51.163 -15.745  1.00  0.00    -0.091 C 
HETATM   30  C1  UNL     1       1.392  51.837 -15.211  1.00  0.00     0.042 C 
HETATM   31  C3  UNL     1       0.201  50.892 -17.228  1.00  0.00     0.042 C 
ENDBRANCH  27  28
ENDBRANCH  26  27
ENDBRANCH  24  26
ENDBRANCH   1  24
TORSDOF 4
ENDMDL
MODEL 5
REMARK minimizedAffinity -6.84816074
REMARK CNNscore 0.426786661
REMARK CNNaffinity 5.95206594
REMARK  4 active torsions:
REMARK  status: ('A' for Active; 'I' for Inactive)
REMARK    1  A    between atoms: C4_4  and  C5_5 
REMARK    2  A    between atoms: C5_5  and  C6_6 
REMARK    3  A    between atoms: C6_6  and  C7_7 
REMARK    4  A    between atoms: C7_7  and  C9_9 
ROOT
HETATM    1  C9  UNL     1       1.629  55.902  -8.344  1.00  0.00    -0.002 C 
HETATM    2  C10 UNL     1       2.397  55.457  -9.625  1.00  0.00     0.007 C 
HETATM    3  C11 UNL     1       3.902  55.486  -9.299  1.00  0.00     0.015 C 
HETATM    4  C12 UNL     1       3.998  56.252  -7.965  1.00  0.00    -0.013 C 
HETATM    5  C13 UNL     1       3.971  57.770  -8.339  1.00  0.00     0.021 C 
HETATM    6  C14 UNL     1       5.242  56.049  -7.107  1.00  0.00    -0.070 C 
HETATM    7  C15 UNL     1       6.452  55.807  -7.642  1.00  0.00    -0.022 C 
HETATM    8  C16 UNL     1       7.725  55.718  -6.860  1.00  0.00     0.034 C 
HETATM    9  C17 UNL     1       7.551  55.688  -5.324  1.00  0.00     0.013 C 
HETATM   10  C18 UNL     1       8.914  55.844  -4.553  1.00  0.00     0.018 C 
HETATM   11  C19 UNL     1       9.916  56.820  -5.202  1.00  0.00     0.023 C 
HETATM   12  C20 UNL     1       9.613  54.470  -4.460  1.00  0.00     0.023 C 
HETATM   13  C21 UNL     1       8.642  56.296  -3.114  1.00  0.00     0.135 C 
HETATM   14  O1  UNL     1       9.470  56.906  -2.439  1.00  0.00    -0.297 OA
HETATM   15  C22 UNL     1       7.324  55.883  -2.521  1.00  0.00     0.080 C 
HETATM   16  C23 UNL     1       6.158  56.469  -3.302  1.00  0.00     0.017 C 
HETATM   17  C24 UNL     1       6.385  56.631  -4.841  1.00  0.00    -0.031 C 
HETATM   18  C25 UNL     1       6.707  58.117  -5.127  1.00  0.00     0.016 C 
HETATM   19  C26 UNL     1       5.064  56.184  -5.594  1.00  0.00     0.024 C 
HETATM   20  C27 UNL     1       3.798  56.992  -5.221  1.00  0.00     0.010 C 
HETATM   21  C28 UNL     1       2.498  56.554  -5.938  1.00  0.00     0.011 C 
HETATM   22  C29 UNL     1       2.713  55.729  -7.227  1.00  0.00    -0.029 C 
HETATM   23  C30 UNL     1       2.783  54.213  -6.851  1.00  0.00     0.016 C 
ENDROOT
BRANCH   1  24
HETATM   24  C7  UNL     1       0.246  55.193  -8.210  1.00  0.00    -0.014 C 
HETATM   25  C8  UNL     1      -0.257  55.192  -6.762  1.00  0.00     0.010 C 
BRANCH  24  26
HETATM   26  C6  UNL     1      -0.798  55.881  -9.134  1.00  0.00     0.008 C 
BRANCH  26  27
HETATM   27  C5  UNL     1      -1.367  55.019 -10.272  1.00  0.00     0.028 C 
BRANCH  27  28
HETATM   28  C4  UNL     1      -1.702  53.619  -9.833  1.00  0.00    -0.025 C 
HETATM   29  C2  UNL     1      -2.840  52.929 -10.039  1.00  0.00    -0.091 C 
HETATM   30  C1  UNL     1      -4.049  53.430 -10.781  1.00  0.00     0.042 C 
HETATM   31  C3  UNL     1      -2.988  51.526  -9.506  1.00  0.00     0.042 C 
ENDBRANCH  27  28
ENDBRANCH  26  27
ENDBRANCH  24  26
ENDBRANCH   1  24
TORSDOF 4
ENDMDL
MODEL 6
REMARK minimizedAffinity -6.83420467
REMARK CNNscore 0.380729049
REMARK CNNaffinity 5.75446367
REMARK  4 active torsions:
REMARK  status: ('A' for Active; 'I' for Inactive)
REMARK    1  A    between atoms: C4_4  and  C5_5 
REMARK    2  A    between atoms: C5_5  and  C6_6 
REMARK    3  A    between atoms: C6_6  and  C7_7 
REMARK    4  A    between atoms: C7_7  and  C9_9 
ROOT
HETATM    1  C9  UNL     1      -7.504  46.613 -30.202  1.00  0.00    -0.002 C 
HETATM    2  C10 UNL     1      -7.823  45.488 -29.172  1.00  0.00     0.007 C 
HETATM    3  C11 UNL     1      -8.723  44.454 -29.876  1.00  0.00     0.015 C 
HETATM    4  C12 UNL     1      -9.175  45.151 -31.175  1.00  0.00    -0.013 C 
HETATM    5  C13 UNL     1     -10.389  46.052 -30.778  1.00  0.00     0.021 C 
HETATM    6  C14 UNL     1      -9.655  44.278 -32.329  1.00  0.00    -0.070 C 
HETATM    7  C15 UNL     1     -10.292  43.110 -32.130  1.00  0.00    -0.022 C 
HETATM    8  C16 UNL     1     -10.888  42.271 -33.217  1.00  0.00     0.034 C 
HETATM    9  C17 UNL     1     -10.528  42.708 -34.656  1.00  0.00     0.013 C 
HETATM   10  C18 UNL     1     -11.373  41.955 -35.750  1.00  0.00     0.018 C 
HETATM   11  C19 UNL     1     -12.841  41.689 -35.365  1.00  0.00     0.023 C 
HETATM   12  C20 UNL     1     -10.724  40.585 -36.047  1.00  0.00     0.023 C 
HETATM   13  C21 UNL     1     -11.340  42.749 -37.061  1.00  0.00     0.135 C 
HETATM   14  O1  UNL     1     -12.220  42.661 -37.916  1.00  0.00    -0.297 OA
HETATM   15  C22 UNL     1     -10.120  43.595 -37.300  1.00  0.00     0.080 C 
HETATM   16  C23 UNL     1      -9.974  44.668 -36.233  1.00  0.00     0.017 C 
HETATM   17  C24 UNL     1     -10.469  44.276 -34.802  1.00  0.00    -0.031 C 
HETATM   18  C25 UNL     1     -11.860  44.916 -34.581  1.00  0.00     0.016 C 
HETATM   19  C26 UNL     1      -9.423  44.817 -33.742  1.00  0.00     0.024 C 
HETATM   20  C27 UNL     1      -9.214  46.350 -33.759  1.00  0.00     0.010 C 
HETATM   21  C28 UNL     1      -8.183  46.889 -32.738  1.00  0.00     0.011 C 
HETATM   22  C29 UNL     1      -7.869  45.933 -31.565  1.00  0.00    -0.029 C 
HETATM   23  C30 UNL     1      -6.683  45.002 -31.975  1.00  0.00     0.016 C 
ENDROOT
BRANCH   1  24
HETATM   24  C7  UNL     1      -6.084  47.224 -29.987  1.00  0.00    -0.014 C 
HETATM   25  C8  UNL     1      -5.925  48.567 -30.709  1.00  0.00     0.010 C 
BRANCH  24  26
HETATM   26  C6  UNL     1      -5.804  47.400 -28.468  1.00  0.00     0.008 C 
BRANCH  26  27
HETATM   27  C5  UNL     1      -4.627  48.317 -28.099  1.00  0.00     0.028 C 
BRANCH  27  28
HETATM   28  C4  UNL     1      -4.317  48.305 -26.626  1.00  0.00    -0.025 C 
HETATM   29  C2  UNL     1      -3.270  48.863 -25.988  1.00  0.00    -0.091 C 
HETATM   30  C1  UNL     1      -2.161  49.644 -26.638  1.00  0.00     0.042 C 
HETATM   31  C3  UNL     1      -3.130  48.731 -24.492  1.00  0.00     0.042 C 
ENDBRANCH  27  28
ENDBRANCH  26  27
ENDBRANCH  24  26
ENDBRANCH   1  24
TORSDOF 4
ENDMDL
MODEL 7
REMARK minimizedAffinity -8.48575211
REMARK CNNscore 0.323018163
REMARK CNNaffinity 6.85275221
REMARK  4 active torsions:
REMARK  status: ('A' for Active; 'I' for Inactive)
REMARK    1  A    between atoms: C4_4  and  C5_5 
REMARK    2  A    between atoms: C5_5  and  C6_6 
REMARK    3  A    between atoms: C6_6  and  C7_7 
REMARK    4  A    between atoms: C7_7  and  C9_9 
ROOT
HETATM    1  C9  UNL     1      -1.211  51.249 -22.832  1.00  0.00    -0.002 C 
HETATM    2  C10 UNL     1      -2.505  51.857 -23.453  1.00  0.00     0.007 C 
HETATM    3  C11 UNL     1      -3.697  51.011 -22.966  1.00  0.00     0.015 C 
HETATM    4  C12 UNL     1      -3.055  49.751 -22.353  1.00  0.00    -0.013 C 
HETATM    5  C13 UNL     1      -2.763  48.790 -23.551  1.00  0.00     0.021 C 
HETATM    6  C14 UNL     1      -3.874  48.942 -21.352  1.00  0.00    -0.070 C 
HETATM    7  C15 UNL     1      -5.213  48.843 -21.432  1.00  0.00    -0.022 C 
HETATM    8  C16 UNL     1      -6.056  47.972 -20.553  1.00  0.00     0.034 C 
HETATM    9  C17 UNL     1      -5.315  47.339 -19.353  1.00  0.00     0.013 C 
HETATM   10  C18 UNL     1      -6.175  46.247 -18.614  1.00  0.00     0.018 C 
HETATM   11  C19 UNL     1      -7.043  45.372 -19.540  1.00  0.00     0.023 C 
HETATM   12  C20 UNL     1      -7.127  46.934 -17.612  1.00  0.00     0.023 C 
HETATM   13  C21 UNL     1      -5.254  45.338 -17.792  1.00  0.00     0.135 C 
HETATM   14  O1  UNL     1      -5.556  44.186 -17.485  1.00  0.00    -0.297 OA
HETATM   15  C22 UNL     1      -3.976  45.954 -17.295  1.00  0.00     0.080 C 
HETATM   16  C23 UNL     1      -3.092  46.400 -18.449  1.00  0.00     0.017 C 
HETATM   17  C24 UNL     1      -3.844  46.912 -19.722  1.00  0.00    -0.031 C 
HETATM   18  C25 UNL     1      -3.834  45.778 -20.776  1.00  0.00     0.016 C 
HETATM   19  C26 UNL     1      -3.094  48.197 -20.267  1.00  0.00     0.024 C 
HETATM   20  C27 UNL     1      -1.615  47.969 -20.660  1.00  0.00     0.010 C 
HETATM   21  C28 UNL     1      -0.867  49.220 -21.179  1.00  0.00     0.011 C 
HETATM   22  C29 UNL     1      -1.780  50.366 -21.671  1.00  0.00    -0.029 C 
HETATM   23  C30 UNL     1      -2.109  51.304 -20.465  1.00  0.00     0.016 C 
ENDROOT
BRANCH   1  24
HETATM   24  C7  UNL     1      -0.134  52.337 -22.533  1.00  0.00    -0.014 C 
HETATM   25  C8  UNL     1       0.661  52.018 -21.261  1.00  0.00     0.010 C 
BRANCH  24  26
HETATM   26  C6  UNL     1       0.833  52.477 -23.743  1.00  0.00     0.008 C 
BRANCH  26  27
HETATM   27  C5  UNL     1       0.469  53.551 -24.779  1.00  0.00     0.028 C 
BRANCH  27  28
HETATM   28  C4  UNL     1       0.161  52.975 -26.135  1.00  0.00    -0.025 C 
HETATM   29  C2  UNL     1       0.930  52.173 -26.897  1.00  0.00    -0.091 C 
HETATM   30  C1  UNL     1       2.299  51.667 -26.533  1.00  0.00     0.042 C 
HETATM   31  C3  UNL     1       0.443  51.704 -28.244  1.00  0.00     0.042 C 
ENDBRANCH  27  28
ENDBRANCH  26  27
ENDBRANCH  24  26
ENDBRANCH   1  24
TORSDOF 4
ENDMDL
MODEL 8
REMARK minimizedAffinity -7.28908968
REMARK CNNscore 0.310696721
REMARK CNNaffinity 5.74119377
REMARK  4 active torsions:
REMARK  status: ('A' for Active; 'I' for Inactive)
REMARK    1  A    between atoms: C4_4  and  C5_5 
REMARK    2  A    between atoms: C5_5  and  C6_6 
REMARK    3  A    between atoms: C6_6  and  C7_7 
REMARK    4  A    between atoms: C7_7  and  C9_9 
ROOT
HETATM    1  C9  UNL     1       7.892  65.750 -36.738  1.00  0.00    -0.002 C 
HETATM    2  C10 UNL     1       8.676  67.061 -37.049  1.00  0.00     0.007 C 
HETATM    3  C11 UNL     1       7.652  68.122 -37.492  1.00  0.00     0.015 C 
HETATM    4  C12 UNL     1       6.354  67.329 -37.746  1.00  0.00    -0.013 C 
HETATM    5  C13 UNL     1       6.486  66.742 -39.189  1.00  0.00     0.021 C 
HETATM    6  C14 UNL     1       5.031  68.088 -37.717  1.00  0.00    -0.070 C 
HETATM    7  C15 UNL     1       4.929  69.370 -38.109  1.00  0.00    -0.022 C 
HETATM    8  C16 UNL     1       3.642  70.127 -38.214  1.00  0.00     0.034 C 
HETATM    9  C17 UNL     1       2.410  69.414 -37.610  1.00  0.00     0.013 C 
HETATM   10  C18 UNL     1       1.055  70.133 -37.965  1.00  0.00     0.018 C 
HETATM   11  C19 UNL     1       0.990  70.724 -39.387  1.00  0.00     0.023 C 
HETATM   12  C20 UNL     1       0.816  71.296 -36.977  1.00  0.00     0.023 C 
HETATM   13  C21 UNL     1      -0.109  69.154 -37.780  1.00  0.00     0.135 C 
HETATM   14  O1  UNL     1      -1.179  69.271 -38.376  1.00  0.00    -0.297 OA
HETATM   15  C22 UNL     1       0.084  68.070 -36.757  1.00  0.00     0.080 C 
HETATM   16  C23 UNL     1       1.251  67.165 -37.124  1.00  0.00     0.017 C 
HETATM   17  C24 UNL     1       2.442  67.859 -37.863  1.00  0.00    -0.031 C 
HETATM   18  C25 UNL     1       2.331  67.531 -39.371  1.00  0.00     0.016 C 
HETATM   19  C26 UNL     1       3.799  67.304 -37.262  1.00  0.00     0.024 C 
HETATM   20  C27 UNL     1       3.992  65.774 -37.399  1.00  0.00     0.010 C 
HETATM   21  C28 UNL     1       5.307  65.217 -36.802  1.00  0.00     0.011 C 
HETATM   22  C29 UNL     1       6.421  66.267 -36.590  1.00  0.00    -0.029 C 
HETATM   23  C30 UNL     1       6.266  66.887 -35.164  1.00  0.00     0.016 C 
ENDROOT
BRANCH   1  24
HETATM   24  C7  UNL     1       8.551  64.927 -35.588  1.00  0.00    -0.014 C 
HETATM   25  C8  UNL     1       7.565  64.645 -34.449  1.00  0.00     0.010 C 
BRANCH  24  26
HETATM   26  C6  UNL     1       9.117  63.590 -36.145  1.00  0.00     0.008 C 
BRANCH  26  27
HETATM   27  C5  UNL     1      10.581  63.277 -35.799  1.00  0.00     0.028 C 
BRANCH  27  28
HETATM   28  C4  UNL     1      10.772  62.902 -34.354  1.00  0.00    -0.025 C 
HETATM   29  C2  UNL     1      10.064  62.024 -33.618  1.00  0.00    -0.091 C 
HETATM   30  C1  UNL     1       8.901  61.205 -34.108  1.00  0.00     0.042 C 
HETATM   31  C3  UNL     1      10.408  61.791 -32.168  1.00  0.00     0.042 C 
ENDBRANCH  27  28
ENDBRANCH  26  27
ENDBRANCH  24  26
ENDBRANCH   1  24
TORSDOF 4
ENDMDL
MODEL 9
REMARK minimizedAffinity -7.42700148
REMARK CNNscore 0.304937422
REMARK CNNaffinity 6.48280001
REMARK  4 active torsions:
REMARK  status: ('A' for Active; 'I' for Inactive)
REMARK    1  A    between atoms: C4_4  and  C5_5 
REMARK    2  A    between atoms: C5_5  and  C6_6 
REMARK    3  A    between atoms: C6_6  and  C7_7 
REMARK    4  A    between atoms: C7_7  and  C9_9 
ROOT
HETATM    1  C9  UNL     1       0.755  50.618 -14.843  1.00  0.00    -0.002 C 
HETATM    2  C10 UNL     1      -0.033  51.903 -14.442  1.00  0.00     0.007 C 
HETATM    3  C11 UNL     1       0.582  52.436 -13.135  1.00  0.00     0.015 C 
HETATM    4  C12 UNL     1       1.481  51.290 -12.630  1.00  0.00    -0.013 C 
HETATM    5  C13 UNL     1       0.534  50.303 -11.873  1.00  0.00     0.021 C 
HETATM    6  C14 UNL     1       2.603  51.633 -11.656  1.00  0.00    -0.070 C 
HETATM    7  C15 UNL     1       2.496  52.628 -10.757  1.00  0.00    -0.022 C 
HETATM    8  C16 UNL     1       3.512  52.933  -9.701  1.00  0.00     0.034 C 
HETATM    9  C17 UNL     1       4.849  52.169  -9.837  1.00  0.00     0.013 C 
HETATM   10  C18 UNL     1       5.776  52.336  -8.576  1.00  0.00     0.018 C 
HETATM   11  C19 UNL     1       5.033  52.367  -7.226  1.00  0.00     0.023 C 
HETATM   12  C20 UNL     1       6.566  53.658  -8.691  1.00  0.00     0.023 C 
HETATM   13  C21 UNL     1       6.812  51.207  -8.547  1.00  0.00     0.135 C 
HETATM   14  O1  UNL     1       7.353  50.825  -7.510  1.00  0.00    -0.297 OA
HETATM   15  C22 UNL     1       7.209  50.629  -9.877  1.00  0.00     0.080 C 
HETATM   16  C23 UNL     1       6.020  49.999 -10.583  1.00  0.00     0.017 C 
HETATM   17  C24 UNL     1       4.639  50.689 -10.335  1.00  0.00    -0.031 C 
HETATM   18  C25 UNL     1       3.860  49.849  -9.294  1.00  0.00     0.016 C 
HETATM   19  C26 UNL     1       3.853  50.753 -11.710  1.00  0.00     0.024 C 
HETATM   20  C27 UNL     1       3.577  49.379 -12.365  1.00  0.00     0.010 C 
HETATM   21  C28 UNL     1       2.824  49.429 -13.717  1.00  0.00     0.011 C 
HETATM   22  C29 UNL     1       2.059  50.744 -13.986  1.00  0.00    -0.029 C 
HETATM   23  C30 UNL     1       3.016  51.749 -14.705  1.00  0.00     0.016 C 
ENDROOT
BRANCH   1  24
HETATM   24  C7  UNL     1       0.848  50.444 -16.391  1.00  0.00    -0.014 C 
HETATM   25  C8  UNL     1      -0.240  49.506 -16.926  1.00  0.00     0.010 C 
BRANCH  24  26
HETATM   26  C6  UNL     1       0.748  51.828 -17.091  1.00  0.00     0.008 C 
BRANCH  26  27
HETATM   27  C5  UNL     1       0.082  51.840 -18.476  1.00  0.00     0.028 C 
BRANCH  27  28
HETATM   28  C4  UNL     1       0.570  52.964 -19.349  1.00  0.00    -0.025 C 
HETATM   29  C2  UNL     1       0.818  52.945 -20.674  1.00  0.00    -0.091 C 
HETATM   30  C1  UNL     1       0.645  51.759 -21.582  1.00  0.00     0.042 C 
HETATM   31  C3  UNL     1       1.317  54.184 -21.374  1.00  0.00     0.042 C 
ENDBRANCH  27  28
ENDBRANCH  26  27
ENDBRANCH  24  26
ENDBRANCH   1  24
TORSDOF 4
ENDMDL
