MODEL 1
REMARK minimizedAffinity -9.50490379
REMARK CNNscore 0.3773233
REMARK CNNaffinity 6.94414902
REMARK  8 active torsions:
REMARK  status: ('A' for Active; 'I' for Inactive)
REMARK    1  A    between atoms: C10_11  and  C11_12 
REMARK    2  A    between atoms: C29_32  and  C30_33 
REMARK    3  A    between atoms: C29_32  and  C31_35 
REMARK    4  A    between atoms: C30_33  and  O1_34 
REMARK    5  A    between atoms: C31_35  and  O3_37 
REMARK    6  A    between atoms: C38_45  and  O4_46 
REMARK    7  A    between atoms: C41_49  and  C42_50 
REMARK    8  A    between atoms: C42_50  and  O6_52 
ROOT
HETATM    1  C11 UNL     1       5.526  12.762  19.748  1.00  0.00     0.070 C 
HETATM    2  C12 UNL     1       6.936  13.271  20.139  1.00  0.00     0.026 C 
HETATM    3  C13 UNL     1       7.077  14.573  20.991  1.00  0.00     0.039 C 
HETATM    4  C14 UNL     1       5.935  15.568  20.789  1.00  0.00    -0.051 C 
HETATM    5  C15 UNL     1       5.946  16.403  19.728  1.00  0.00    -0.026 C 
HETATM    6  C16 UNL     1       4.956  17.480  19.409  1.00  0.00     0.036 C 
HETATM    7  C17 UNL     1       4.865  15.589  21.867  1.00  0.00     0.306 C 
HETATM    8  N2  UNL     1       4.791  14.363  22.645  1.00  0.00     0.094 N 
HETATM    9  C18 UNL     1       3.748  14.418  23.662  1.00  0.00     0.310 C 
HETATM   10  C19 UNL     1       6.054  13.768  23.152  1.00  0.00     0.248 C 
HETATM   11  C20 UNL     1       5.989  12.206  23.062  1.00  0.00     0.079 C 
HETATM   12  C21 UNL     1       5.016  11.582  22.100  1.00  0.00    -0.020 A 
HETATM   13  C22 UNL     1       4.871  11.810  20.735  1.00  0.00     0.025 A 
HETATM   14  N3  UNL     1       3.843  10.988  20.309  1.00  0.00    -0.358 N 
HETATM   15  C23 UNL     1       3.343  10.226  21.332  1.00  0.00     0.043 A 
HETATM   16  C24 UNL     1       2.325   9.263  21.322  1.00  0.00     0.030 A 
HETATM   17  C25 UNL     1       2.009   8.645  22.534  1.00  0.00     0.002 A 
HETATM   18  C26 UNL     1       2.692   8.974  23.701  1.00  0.00     0.001 A 
HETATM   19  C27 UNL     1       3.715   9.930  23.684  1.00  0.00     0.014 A 
HETATM   20  C28 UNL     1       4.050  10.577  22.474  1.00  0.00    -0.001 A 
HETATM   21  C29 UNL     1       7.342  14.371  22.513  1.00  0.00     0.107 C 
HETATM   22  H28 UNL     1       3.513  10.935  19.355  1.00  0.00     0.166 HD
ENDROOT
BRANCH   1  23
HETATM   23  C10 UNL     1       5.584  12.119  18.349  1.00  0.00    -0.048 A 
HETATM   24  C9  UNL     1       6.810  11.762  17.766  1.00  0.00     0.018 A 
HETATM   25  C8  UNL     1       6.811  11.106  16.541  1.00  0.00    -0.017 A 
HETATM   26  C7  UNL     1       7.990  10.748  15.667  1.00  0.00     0.061 C 
HETATM   27  C35 UNL     1       5.622  10.778  15.891  1.00  0.00     0.039 A 
HETATM   28  C6  UNL     1       8.440  12.021  14.896  1.00  0.00     0.050 C 
HETATM   29  C37 UNL     1       7.300   9.851  14.537  1.00  0.00     0.273 C 
HETATM   30  C41 UNL     1       9.133   9.972  16.359  1.00  0.00     0.111 C 
HETATM   31  C5  UNL     1       7.993  11.809  13.464  1.00  0.00     0.277 C 
HETATM   32  N1  UNL     1       7.915  10.357  13.285  1.00  0.00     0.125 N 
HETATM   33  C4  UNL     1       9.219   9.780  12.940  1.00  0.00     0.310 C 
HETATM   34  C3  UNL     1      10.270   9.727  14.041  1.00  0.00    -0.051 C 
HETATM   35  C2  UNL     1      11.528  10.201  13.921  1.00  0.00    -0.026 C 
HETATM   36  C40 UNL     1       9.860   9.040  15.351  1.00  0.00     0.033 C 
HETATM   37  C1  UNL     1      12.161  10.900  12.759  1.00  0.00     0.036 C 
HETATM   38  C39 UNL     1       8.951   7.841  15.067  1.00  0.00     0.046 C 
HETATM   39  C38 UNL     1       7.519   8.279  14.748  1.00  0.00     0.179 C 
HETATM   40  N4  UNL     1       5.825  10.025  14.740  1.00  0.00    -0.347 N 
HETATM   41  C36 UNL     1       4.926  10.126  13.612  1.00  0.00     0.152 C 
HETATM   42  C34 UNL     1       4.407  11.142  16.444  1.00  0.00     0.030 A 
HETATM   43  C33 UNL     1       4.387  11.813  17.671  1.00  0.00     0.010 A 
BRANCH  39  44
HETATM   44  O4  UNL     1       6.688   7.774  15.816  1.00  0.00    -0.391 OA
HETATM   45  H45 UNL     1       5.879   8.327  15.762  1.00  0.00     0.210 HD
ENDBRANCH  39  44
BRANCH  30  46
HETATM   46  C42 UNL     1      10.114  10.821  17.157  1.00  0.00     0.264 C 
HETATM   47  O5  UNL     1      10.581  11.897  16.810  1.00  0.00    -0.265 OA
BRANCH  46  48
HETATM   48  O6  UNL     1      10.366  10.238  18.366  1.00  0.00    -0.326 OA
HETATM   49  C43 UNL     1      11.584  10.669  18.978  1.00  0.00     0.213 C 
ENDBRANCH  46  48
ENDBRANCH  30  46
ENDBRANCH   1  23
BRANCH  21  50
HETATM   50  C30 UNL     1       7.754  15.741  23.153  1.00  0.00     0.186 C 
BRANCH  50  51
HETATM   51  O1  UNL     1       8.872  15.619  24.029  1.00  0.00    -0.399 OA
HETATM   52  H35 UNL     1       9.071  16.511  24.366  1.00  0.00     0.209 HD
ENDBRANCH  50  51
ENDBRANCH  21  50
BRANCH  21  53
HETATM   53  C31 UNL     1       8.622  13.550  22.724  1.00  0.00     0.272 C 
HETATM   54  O2  UNL     1       8.712  12.622  23.517  1.00  0.00    -0.264 OA
BRANCH  53  55
HETATM   55  O3  UNL     1       9.620  13.910  21.867  1.00  0.00    -0.326 OA
HETATM   56  C32 UNL     1      10.270  12.810  21.227  1.00  0.00     0.213 C 
ENDBRANCH  53  55
ENDBRANCH  21  53
TORSDOF 8
ENDMDL
MODEL 2
REMARK minimizedAffinity -8.14205933
REMARK CNNscore 0.217088982
REMARK CNNaffinity 6.70012236
REMARK  8 active torsions:
REMARK  status: ('A' for Active; 'I' for Inactive)
REMARK    1  A    between atoms: C10_11  and  C11_12 
REMARK    2  A    between atoms: C29_32  and  C30_33 
REMARK    3  A    between atoms: C29_32  and  C31_35 
REMARK    4  A    between atoms: C30_33  and  O1_34 
REMARK    5  A    between atoms: C31_35  and  O3_37 
REMARK    6  A    between atoms: C38_45  and  O4_46 
REMARK    7  A    between atoms: C41_49  and  C42_50 
REMARK    8  A    between atoms: C42_50  and  O6_52 
ROOT
HETATM    1  C11 UNL     1       2.521  11.521  17.269  1.00  0.00     0.070 C 
HETATM    2  C12 UNL     1       3.253  11.163  18.587  1.00  0.00     0.026 C 
HETATM    3  C13 UNL     1       3.220  12.165  19.786  1.00  0.00     0.039 C 
HETATM    4  C14 UNL     1       3.085  13.627  19.361  1.00  0.00    -0.051 C 
HETATM    5  C15 UNL     1       4.175  14.319  18.965  1.00  0.00    -0.026 C 
HETATM    6  C16 UNL     1       4.243  15.765  18.583  1.00  0.00     0.036 C 
HETATM    7  C17 UNL     1       1.698  14.234  19.479  1.00  0.00     0.306 C 
HETATM    8  N2  UNL     1       0.626  13.252  19.485  1.00  0.00     0.094 N 
HETATM    9  C18 UNL     1      -0.689  13.873  19.591  1.00  0.00     0.310 C 
HETATM   10  C19 UNL     1       0.765  12.055  20.353  1.00  0.00     0.248 C 
HETATM   11  C20 UNL     1       0.193  10.792  19.626  1.00  0.00     0.079 C 
HETATM   12  C21 UNL     1       0.082  10.815  18.126  1.00  0.00    -0.020 A 
HETATM   13  C22 UNL     1       1.066  11.089  17.183  1.00  0.00     0.025 A 
HETATM   14  N3  UNL     1       0.462  10.976  15.943  1.00  0.00    -0.358 N 
HETATM   15  C23 UNL     1      -0.855  10.616  16.050  1.00  0.00     0.043 A 
HETATM   16  C24 UNL     1      -1.807  10.379  15.050  1.00  0.00     0.030 A 
HETATM   17  C25 UNL     1      -3.099  10.037  15.456  1.00  0.00     0.002 A 
HETATM   18  C26 UNL     1      -3.416   9.927  16.806  1.00  0.00     0.001 A 
HETATM   19  C27 UNL     1      -2.445  10.156  17.789  1.00  0.00     0.014 A 
HETATM   20  C28 UNL     1      -1.132  10.512  17.407  1.00  0.00    -0.001 A 
HETATM   21  C29 UNL     1       2.202  11.845  20.920  1.00  0.00     0.107 C 
HETATM   22  H28 UNL     1       0.937  11.119  15.062  1.00  0.00     0.166 HD
ENDROOT
BRANCH   1  23
HETATM   23  C10 UNL     1       3.314  10.958  16.075  1.00  0.00    -0.048 A 
HETATM   24  C9  UNL     1       4.713  10.846  16.122  1.00  0.00     0.018 A 
HETATM   25  C8  UNL     1       5.380  10.252  15.057  1.00  0.00    -0.017 A 
HETATM   26  C7  UNL     1       6.869  10.142  14.823  1.00  0.00     0.061 C 
HETATM   27  C35 UNL     1       4.689   9.750  13.955  1.00  0.00     0.039 A 
HETATM   28  C6  UNL     1       7.387  11.506  14.286  1.00  0.00     0.050 C 
HETATM   29  C37 UNL     1       6.930   9.188  13.542  1.00  0.00     0.273 C 
HETATM   30  C41 UNL     1       7.692   9.550  15.988  1.00  0.00     0.111 C 
HETATM   31  C5  UNL     1       7.677  11.280  12.816  1.00  0.00     0.277 C 
HETATM   32  N1  UNL     1       7.944   9.846  12.682  1.00  0.00     0.125 N 
HETATM   33  C4  UNL     1       9.342   9.520  12.985  1.00  0.00     0.310 C 
HETATM   34  C3  UNL     1       9.776   9.605  14.443  1.00  0.00    -0.051 C 
HETATM   35  C2  UNL     1      10.848  10.295  14.883  1.00  0.00    -0.026 C 
HETATM   36  C40 UNL     1       8.946   8.802  15.455  1.00  0.00     0.033 C 
HETATM   37  C1  UNL     1      11.803  11.142  14.103  1.00  0.00     0.036 C 
HETATM   38  C39 UNL     1       8.487   7.476  14.842  1.00  0.00     0.046 C 
HETATM   39  C38 UNL     1       7.301   7.671  13.895  1.00  0.00     0.179 C 
HETATM   40  N4  UNL     1       5.517   9.093  13.052  1.00  0.00    -0.347 N 
HETATM   41  C36 UNL     1       5.220   9.083  11.636  1.00  0.00     0.152 C 
HETATM   42  C34 UNL     1       3.312   9.873  13.886  1.00  0.00     0.030 A 
HETATM   43  C33 UNL     1       2.625  10.477  14.943  1.00  0.00     0.010 A 
BRANCH  39  44
HETATM   44  O4  UNL     1       6.181   6.983  14.493  1.00  0.00    -0.391 OA
HETATM   45  H45 UNL     1       5.400   7.389  14.058  1.00  0.00     0.210 HD
ENDBRANCH  39  44
BRANCH  30  46
HETATM   46  C42 UNL     1       8.044  10.522  17.106  1.00  0.00     0.264 C 
HETATM   47  O5  UNL     1       8.768  11.503  17.005  1.00  0.00    -0.265 OA
BRANCH  46  48
HETATM   48  O6  UNL     1       7.383  10.181  18.252  1.00  0.00    -0.326 OA
HETATM   49  C43 UNL     1       7.007  11.297  19.061  1.00  0.00     0.213 C 
ENDBRANCH  46  48
ENDBRANCH  30  46
ENDBRANCH   1  23
BRANCH  21  50
HETATM   50  C30 UNL     1       2.506  12.755  22.159  1.00  0.00     0.186 C 
BRANCH  50  51
HETATM   51  O1  UNL     1       3.899  12.821  22.458  1.00  0.00    -0.399 OA
HETATM   52  H35 UNL     1       3.999  13.416  23.223  1.00  0.00     0.209 HD
ENDBRANCH  50  51
ENDBRANCH  21  50
BRANCH  21  53
HETATM   53  C31 UNL     1       2.477  10.452  21.502  1.00  0.00     0.272 C 
HETATM   54  O2  UNL     1       2.636   9.448  20.819  1.00  0.00    -0.264 OA
BRANCH  53  55
HETATM   55  O3  UNL     1       2.615  10.470  22.859  1.00  0.00    -0.326 OA
HETATM   56  C32 UNL     1       2.944   9.205  23.434  1.00  0.00     0.213 C 
ENDBRANCH  53  55
ENDBRANCH  21  53
TORSDOF 8
ENDMDL
MODEL 3
REMARK minimizedAffinity -7.465137
REMARK CNNscore 0.190801129
REMARK CNNaffinity 6.57815027
REMARK  8 active torsions:
REMARK  status: ('A' for Active; 'I' for Inactive)
REMARK    1  A    between atoms: C10_11  and  C11_12 
REMARK    2  A    between atoms: C29_32  and  C30_33 
REMARK    3  A    between atoms: C29_32  and  C31_35 
REMARK    4  A    between atoms: C30_33  and  O1_34 
REMARK    5  A    between atoms: C31_35  and  O3_37 
REMARK    6  A    between atoms: C38_45  and  O4_46 
REMARK    7  A    between atoms: C41_49  and  C42_50 
REMARK    8  A    between atoms: C42_50  and  O6_52 
ROOT
HETATM    1  C11 UNL     1     -15.748   4.907  28.099  1.00  0.00     0.070 C 
HETATM    2  C12 UNL     1     -15.685   4.955  29.646  1.00  0.00     0.026 C 
HETATM    3  C13 UNL     1     -16.455   3.884  30.484  1.00  0.00     0.039 C 
HETATM    4  C14 UNL     1     -17.701   3.338  29.788  1.00  0.00    -0.051 C 
HETATM    5  C15 UNL     1     -18.858   4.032  29.830  1.00  0.00    -0.026 C 
HETATM    6  C16 UNL     1     -20.185   3.623  29.269  1.00  0.00     0.036 C 
HETATM    7  C17 UNL     1     -17.558   1.977  29.128  1.00  0.00     0.306 C 
HETATM    8  N2  UNL     1     -16.185   1.621  28.809  1.00  0.00     0.094 N 
HETATM    9  C18 UNL     1     -16.091   0.314  28.170  1.00  0.00     0.310 C 
HETATM   10  C19 UNL     1     -15.139   1.830  29.842  1.00  0.00     0.248 C 
HETATM   11  C20 UNL     1     -13.817   2.335  29.176  1.00  0.00     0.079 C 
HETATM   12  C21 UNL     1     -13.897   2.989  27.823  1.00  0.00    -0.020 A 
HETATM   13  C22 UNL     1     -14.680   4.065  27.420  1.00  0.00     0.025 A 
HETATM   14  N3  UNL     1     -14.386   4.285  26.086  1.00  0.00    -0.358 N 
HETATM   15  C23 UNL     1     -13.432   3.416  25.626  1.00  0.00     0.043 A 
HETATM   16  C24 UNL     1     -12.845   3.314  24.358  1.00  0.00     0.030 A 
HETATM   17  C25 UNL     1     -11.895   2.308  24.165  1.00  0.00     0.002 A 
HETATM   18  C26 UNL     1     -11.545   1.449  25.203  1.00  0.00     0.001 A 
HETATM   19  C27 UNL     1     -12.136   1.579  26.466  1.00  0.00     0.014 A 
HETATM   20  C28 UNL     1     -13.105   2.582  26.687  1.00  0.00    -0.001 A 
HETATM   21  C29 UNL     1     -15.602   2.708  31.045  1.00  0.00     0.107 C 
HETATM   22  H28 UNL     1     -14.805   5.011  25.522  1.00  0.00     0.166 HD
ENDROOT
BRANCH   1  23
HETATM   23  C10 UNL     1     -15.727   6.343  27.541  1.00  0.00    -0.048 A 
HETATM   24  C9  UNL     1     -15.100   6.637  26.320  1.00  0.00     0.018 A 
HETATM   25  C8  UNL     1     -15.180   7.928  25.813  1.00  0.00    -0.017 A 
HETATM   26  C7  UNL     1     -14.484   8.508  24.603  1.00  0.00     0.061 C 
HETATM   27  C35 UNL     1     -15.884   8.930  26.479  1.00  0.00     0.039 A 
HETATM   28  C6  UNL     1     -13.014   8.834  24.988  1.00  0.00     0.050 C 
HETATM   29  C37 UNL     1     -15.169   9.948  24.489  1.00  0.00     0.273 C 
HETATM   30  C41 UNL     1     -14.648   7.717  23.286  1.00  0.00     0.111 C 
HETATM   31  C5  UNL     1     -12.946  10.344  25.090  1.00  0.00     0.277 C 
HETATM   32  N1  UNL     1     -14.019  10.847  24.228  1.00  0.00     0.125 N 
HETATM   33  C4  UNL     1     -13.594  10.945  22.828  1.00  0.00     0.310 C 
HETATM   34  C3  UNL     1     -13.405   9.639  22.065  1.00  0.00    -0.051 C 
HETATM   35  C2  UNL     1     -12.293   9.310  21.375  1.00  0.00    -0.026 C 
HETATM   36  C40 UNL     1     -14.594   8.669  22.059  1.00  0.00     0.033 C 
HETATM   37  C1  UNL     1     -11.018  10.078  21.228  1.00  0.00     0.036 C 
HETATM   38  C39 UNL     1     -15.917   9.440  21.993  1.00  0.00     0.046 C 
HETATM   39  C38 UNL     1     -16.295  10.030  23.354  1.00  0.00     0.179 C 
HETATM   40  N4  UNL     1     -15.947  10.117  25.760  1.00  0.00    -0.347 N 
HETATM   41  C36 UNL     1     -16.003  11.397  26.432  1.00  0.00     0.152 C 
HETATM   42  C34 UNL     1     -16.489   8.659  27.695  1.00  0.00     0.030 A 
HETATM   43  C33 UNL     1     -16.409   7.369  28.227  1.00  0.00     0.010 A 
BRANCH  39  44
HETATM   44  O4  UNL     1     -17.506   9.362  23.768  1.00  0.00    -0.391 OA
HETATM   45  H45 UNL     1     -17.534   9.511  24.738  1.00  0.00     0.210 HD
ENDBRANCH  39  44
BRANCH  30  46
HETATM   46  C42 UNL     1     -13.721   6.521  23.118  1.00  0.00     0.264 C 
HETATM   47  O5  UNL     1     -12.579   6.431  23.545  1.00  0.00    -0.265 OA
BRANCH  46  48
HETATM   48  O6  UNL     1     -14.368   5.513  22.461  1.00  0.00    -0.326 OA
HETATM   49  C43 UNL     1     -15.717   5.311  22.887  1.00  0.00     0.213 C 
ENDBRANCH  46  48
ENDBRANCH  30  46
ENDBRANCH   1  23
BRANCH  21  50
HETATM   50  C30 UNL     1     -16.449   1.908  32.093  1.00  0.00     0.186 C 
BRANCH  50  51
HETATM   51  O1  UNL     1     -15.659   1.425  33.177  1.00  0.00    -0.399 OA
HETATM   52  H35 UNL     1     -16.262   0.960  33.784  1.00  0.00     0.209 HD
ENDBRANCH  50  51
ENDBRANCH  21  50
BRANCH  21  53
HETATM   53  C31 UNL     1     -14.471   3.249  31.931  1.00  0.00     0.272 C 
HETATM   54  O2  UNL     1     -13.355   2.748  31.993  1.00  0.00    -0.264 OA
BRANCH  53  55
HETATM   55  O3  UNL     1     -14.816   4.403  32.572  1.00  0.00    -0.326 OA
HETATM   56  C32 UNL     1     -14.376   4.475  33.929  1.00  0.00     0.213 C 
ENDBRANCH  53  55
ENDBRANCH  21  53
TORSDOF 8
ENDMDL
MODEL 4
REMARK minimizedAffinity -7.20333481
REMARK CNNscore 0.187703356
REMARK CNNaffinity 5.85288572
REMARK  8 active torsions:
REMARK  status: ('A' for Active; 'I' for Inactive)
REMARK    1  A    between atoms: C10_11  and  C11_12 
REMARK    2  A    between atoms: C29_32  and  C30_33 
REMARK    3  A    between atoms: C29_32  and  C31_35 
REMARK    4  A    between atoms: C30_33  and  O1_34 
REMARK    5  A    between atoms: C31_35  and  O3_37 
REMARK    6  A    between atoms: C38_45  and  O4_46 
REMARK    7  A    between atoms: C41_49  and  C42_50 
REMARK    8  A    between atoms: C42_50  and  O6_52 
ROOT
HETATM    1  C11 UNL     1       5.909  13.205  19.746  1.00  0.00     0.070 C 
HETATM    2  C12 UNL     1       7.315  13.667  20.202  1.00  0.00     0.026 C 
HETATM    3  C13 UNL     1       7.452  14.888  21.167  1.00  0.00     0.039 C 
HETATM    4  C14 UNL     1       6.320  15.907  21.034  1.00  0.00    -0.051 C 
HETATM    5  C15 UNL     1       6.355  16.831  20.050  1.00  0.00    -0.026 C 
HETATM    6  C16 UNL     1       5.378  17.940  19.810  1.00  0.00     0.036 C 
HETATM    7  C17 UNL     1       5.232  15.843  22.092  1.00  0.00     0.306 C 
HETATM    8  N2  UNL     1       5.137  14.554  22.760  1.00  0.00     0.094 N 
HETATM    9  C18 UNL     1       4.078  14.530  23.761  1.00  0.00     0.310 C 
HETATM   10  C19 UNL     1       6.387  13.907  23.233  1.00  0.00     0.248 C 
HETATM   11  C20 UNL     1       6.311  12.360  23.006  1.00  0.00     0.079 C 
HETATM   12  C21 UNL     1       5.351  11.830  21.978  1.00  0.00    -0.020 A 
HETATM   13  C22 UNL     1       5.230  12.177  20.636  1.00  0.00     0.025 A 
HETATM   14  N3  UNL     1       4.203  11.404  20.123  1.00  0.00    -0.358 N 
HETATM   15  C23 UNL     1       3.681  10.560  21.068  1.00  0.00     0.043 A 
HETATM   16  C24 UNL     1       2.657   9.611  20.958  1.00  0.00     0.030 A 
HETATM   17  C25 UNL     1       2.315   8.893  22.106  1.00  0.00     0.002 A 
HETATM   18  C26 UNL     1       2.982   9.112  23.309  1.00  0.00     0.001 A 
HETATM   19  C27 UNL     1       4.012  10.057  23.392  1.00  0.00     0.014 A 
HETATM   20  C28 UNL     1       4.372  10.804  22.248  1.00  0.00    -0.001 A 
HETATM   21  C29 UNL     1       7.689  14.552  22.670  1.00  0.00     0.107 C 
HETATM   22  H28 UNL     1       3.889  11.438  19.163  1.00  0.00     0.166 HD
ENDROOT
BRANCH   1  23
HETATM   23  C10 UNL     1       5.985  12.686  18.298  1.00  0.00    -0.048 A 
HETATM   24  C9  UNL     1       5.692  13.524  17.211  1.00  0.00     0.018 A 
HETATM   25  C8  UNL     1       5.858  13.040  15.919  1.00  0.00    -0.017 A 
HETATM   26  C7  UNL     1       5.484  13.700  14.612  1.00  0.00     0.061 C 
HETATM   27  C35 UNL     1       6.328  11.749  15.681  1.00  0.00     0.039 A 
HETATM   28  C6  UNL     1       3.954  13.532  14.394  1.00  0.00     0.050 C 
HETATM   29  C37 UNL     1       6.126  12.698  13.543  1.00  0.00     0.273 C 
HETATM   30  C41 UNL     1       6.015  15.135  14.405  1.00  0.00     0.111 C 
HETATM   31  C5  UNL     1       3.811  12.495  13.299  1.00  0.00     0.277 C 
HETATM   32  N1  UNL     1       5.054  12.560  12.527  1.00  0.00     0.125 N 
HETATM   33  C4  UNL     1       5.008  13.611  11.506  1.00  0.00     0.310 C 
HETATM   34  C3  UNL     1       5.071  15.054  11.989  1.00  0.00    -0.051 C 
HETATM   35  C2  UNL     1       4.190  16.017  11.642  1.00  0.00    -0.026 C 
HETATM   36  C40 UNL     1       6.252  15.426  12.897  1.00  0.00     0.033 C 
HETATM   37  C1  UNL     1       2.973  15.907  10.779  1.00  0.00     0.036 C 
HETATM   38  C39 UNL     1       7.518  14.682  12.460  1.00  0.00     0.046 C 
HETATM   39  C38 UNL     1       7.507  13.223  12.927  1.00  0.00     0.179 C 
HETATM   40  N4  UNL     1       6.537  11.490  14.331  1.00  0.00    -0.347 N 
HETATM   41  C36 UNL     1       6.372  10.158  13.791  1.00  0.00     0.152 C 
HETATM   42  C34 UNL     1       6.602  10.905  16.743  1.00  0.00     0.030 A 
HETATM   43  C33 UNL     1       6.429  11.371  18.050  1.00  0.00     0.010 A 
BRANCH  39  44
HETATM   44  O4  UNL     1       8.589  13.087  13.873  1.00  0.00    -0.391 OA
HETATM   45  H45 UNL     1       8.356  12.277  14.377  1.00  0.00     0.210 HD
ENDBRANCH  39  44
BRANCH  30  46
HETATM   46  C42 UNL     1       5.205  16.238  15.074  1.00  0.00     0.264 C 
HETATM   47  O5  UNL     1       5.648  17.291  15.510  1.00  0.00    -0.265 OA
BRANCH  46  48
HETATM   48  O6  UNL     1       3.877  15.916  15.070  1.00  0.00    -0.326 OA
HETATM   49  C43 UNL     1       3.004  17.043  14.980  1.00  0.00     0.213 C 
ENDBRANCH  46  48
ENDBRANCH  30  46
ENDBRANCH   1  23
BRANCH  21  50
HETATM   50  C30 UNL     1       8.101  15.858  23.433  1.00  0.00     0.186 C 
BRANCH  50  51
HETATM   51  O1  UNL     1       9.501  16.117  23.353  1.00  0.00    -0.399 OA
HETATM   52  H35 UNL     1       9.665  16.948  23.834  1.00  0.00     0.209 HD
ENDBRANCH  50  51
ENDBRANCH  21  50
BRANCH  21  53
HETATM   53  C31 UNL     1       8.959  13.705  22.829  1.00  0.00     0.272 C 
HETATM   54  O2  UNL     1       9.153  12.937  23.763  1.00  0.00    -0.264 OA
BRANCH  53  55
HETATM   55  O3  UNL     1       9.810  13.834  21.770  1.00  0.00    -0.326 OA
HETATM   56  C32 UNL     1      10.275  12.594  21.236  1.00  0.00     0.213 C 
ENDBRANCH  53  55
ENDBRANCH  21  53
TORSDOF 8
ENDMDL
MODEL 5
REMARK minimizedAffinity -7.06644583
REMARK CNNscore 0.163295493
REMARK CNNaffinity 6.33495283
REMARK  8 active torsions:
REMARK  status: ('A' for Active; 'I' for Inactive)
REMARK    1  A    between atoms: C10_11  and  C11_12 
REMARK    2  A    between atoms: C29_32  and  C30_33 
REMARK    3  A    between atoms: C29_32  and  C31_35 
REMARK    4  A    between atoms: C30_33  and  O1_34 
REMARK    5  A    between atoms: C31_35  and  O3_37 
REMARK    6  A    between atoms: C38_45  and  O4_46 
REMARK    7  A    between atoms: C41_49  and  C42_50 
REMARK    8  A    between atoms: C42_50  and  O6_52 
ROOT
HETATM    1  C11 UNL     1     -10.155  12.469  21.944  1.00  0.00     0.070 C 
HETATM    2  C12 UNL     1     -10.240  11.523  23.168  1.00  0.00     0.026 C 
HETATM    3  C13 UNL     1     -11.592  11.375  23.938  1.00  0.00     0.039 C 
HETATM    4  C14 UNL     1     -12.476  12.620  23.873  1.00  0.00    -0.051 C 
HETATM    5  C15 UNL     1     -12.249  13.654  24.710  1.00  0.00    -0.026 C 
HETATM    6  C16 UNL     1     -13.048  14.914  24.835  1.00  0.00     0.036 C 
HETATM    7  C17 UNL     1     -13.624  12.576  22.879  1.00  0.00     0.306 C 
HETATM    8  N2  UNL     1     -13.434  11.616  21.804  1.00  0.00     0.094 N 
HETATM    9  C18 UNL     1     -14.551  11.609  20.868  1.00  0.00     0.310 C 
HETATM   10  C19 UNL     1     -12.966  10.248  22.148  1.00  0.00     0.248 C 
HETATM   11  C20 UNL     1     -11.959   9.735  21.066  1.00  0.00     0.079 C 
HETATM   12  C21 UNL     1     -11.248  10.745  20.208  1.00  0.00    -0.020 A 
HETATM   13  C22 UNL     1     -10.489  11.842  20.600  1.00  0.00     0.025 A 
HETATM   14  N3  UNL     1     -10.049  12.449  19.438  1.00  0.00    -0.358 N 
HETATM   15  C23 UNL     1     -10.470  11.776  18.321  1.00  0.00     0.043 A 
HETATM   16  C24 UNL     1     -10.230  12.041  16.967  1.00  0.00     0.030 A 
HETATM   17  C25 UNL     1     -10.807  11.183  16.028  1.00  0.00     0.002 A 
HETATM   18  C26 UNL     1     -11.581  10.099  16.434  1.00  0.00     0.001 A 
HETATM   19  C27 UNL     1     -11.796   9.846  17.795  1.00  0.00     0.014 A 
HETATM   20  C28 UNL     1     -11.232  10.703  18.765  1.00  0.00    -0.001 A 
HETATM   21  C29 UNL     1     -12.434  10.107  23.606  1.00  0.00     0.107 C 
HETATM   22  H28 UNL     1      -9.469  13.276  19.410  1.00  0.00     0.166 HD
ENDROOT
BRANCH   1  23
HETATM   23  C10 UNL     1      -8.759  13.118  21.896  1.00  0.00    -0.048 A 
HETATM   24  C9  UNL     1      -8.206  13.558  20.682  1.00  0.00     0.018 A 
HETATM   25  C8  UNL     1      -6.983  14.216  20.696  1.00  0.00    -0.017 A 
HETATM   26  C7  UNL     1      -6.137  14.655  19.522  1.00  0.00     0.061 C 
HETATM   27  C35 UNL     1      -6.304  14.466  21.888  1.00  0.00     0.039 A 
HETATM   28  C6  UNL     1      -5.377  13.417  18.971  1.00  0.00     0.050 C 
HETATM   29  C37 UNL     1      -4.992  15.507  20.243  1.00  0.00     0.273 C 
HETATM   30  C41 UNL     1      -6.859  15.503  18.452  1.00  0.00     0.111 C 
HETATM   31  C5  UNL     1      -3.935  13.603  19.396  1.00  0.00     0.277 C 
HETATM   32  N1  UNL     1      -3.756  15.047  19.566  1.00  0.00     0.125 N 
HETATM   33  C4  UNL     1      -3.443  15.711  18.296  1.00  0.00     0.310 C 
HETATM   34  C3  UNL     1      -4.569  15.830  17.277  1.00  0.00    -0.051 C 
HETATM   35  C2  UNL     1      -4.479  15.442  15.988  1.00  0.00    -0.026 C 
HETATM   36  C40 UNL     1      -5.870  16.484  17.763  1.00  0.00     0.033 C 
HETATM   37  C1  UNL     1      -3.332  14.790  15.282  1.00  0.00     0.036 C 
HETATM   38  C39 UNL     1      -5.566  17.621  18.744  1.00  0.00     0.046 C 
HETATM   39  C38 UNL     1      -5.212  17.089  20.135  1.00  0.00     0.179 C 
HETATM   40  N4  UNL     1      -5.160  15.235  21.708  1.00  0.00    -0.347 N 
HETATM   41  C36 UNL     1      -4.010  15.078  22.571  1.00  0.00     0.152 C 
HETATM   42  C34 UNL     1      -6.828  14.020  23.090  1.00  0.00     0.030 A 
HETATM   43  C33 UNL     1      -8.052  13.346  23.094  1.00  0.00     0.010 A 
BRANCH  39  44
HETATM   44  O4  UNL     1      -6.259  17.535  21.023  1.00  0.00    -0.391 OA
HETATM   45  H45 UNL     1      -6.185  16.929  21.792  1.00  0.00     0.210 HD
ENDBRANCH  39  44
BRANCH  30  46
HETATM   46  C42 UNL     1      -7.679  14.718  17.435  1.00  0.00     0.264 C 
HETATM   47  O5  UNL     1      -7.293  13.753  16.791  1.00  0.00    -0.265 OA
BRANCH  46  48
HETATM   48  O6  UNL     1      -8.953  15.209  17.379  1.00  0.00    -0.326 OA
HETATM   49  C43 UNL     1      -9.354  15.639  16.076  1.00  0.00     0.213 C 
ENDBRANCH  46  48
ENDBRANCH  30  46
ENDBRANCH   1  23
BRANCH  21  50
HETATM   50  C30 UNL     1     -13.582   9.959  24.662  1.00  0.00     0.186 C 
BRANCH  50  51
HETATM   51  O1  UNL     1     -13.096   9.972  26.002  1.00  0.00    -0.399 OA
HETATM   52  H35 UNL     1     -13.870   9.893  26.588  1.00  0.00     0.209 HD
ENDBRANCH  50  51
ENDBRANCH  21  50
BRANCH  21  53
HETATM   53  C31 UNL     1     -11.614   8.839  23.882  1.00  0.00     0.272 C 
HETATM   54  O2  UNL     1     -10.852   8.715  24.833  1.00  0.00    -0.264 OA
BRANCH  53  55
HETATM   55  O3  UNL     1     -11.896   7.833  23.004  1.00  0.00    -0.326 OA
HETATM   56  C32 UNL     1     -12.647   6.757  23.565  1.00  0.00     0.213 C 
ENDBRANCH  53  55
ENDBRANCH  21  53
TORSDOF 8
ENDMDL
MODEL 6
REMARK minimizedAffinity -6.95096684
REMARK CNNscore 0.157321066
REMARK CNNaffinity 5.65995073
REMARK  8 active torsions:
REMARK  status: ('A' for Active; 'I' for Inactive)
REMARK    1  A    between atoms: C10_11  and  C11_12 
REMARK    2  A    between atoms: C29_32  and  C30_33 
REMARK    3  A    between atoms: C29_32  and  C31_35 
REMARK    4  A    between atoms: C30_33  and  O1_34 
REMARK    5  A    between atoms: C31_35  and  O3_37 
REMARK    6  A    between atoms: C38_45  and  O4_46 
REMARK    7  A    between atoms: C41_49  and  C42_50 
REMARK    8  A    between atoms: C42_50  and  O6_52 
ROOT
HETATM    1  C11 UNL     1     -17.251   4.814  14.667  1.00  0.00     0.070 C 
HETATM    2  C12 UNL     1     -16.554   5.466  13.447  1.00  0.00     0.026 C 
HETATM    3  C13 UNL     1     -17.278   6.609  12.664  1.00  0.00     0.039 C 
HETATM    4  C14 UNL     1     -18.803   6.519  12.714  1.00  0.00    -0.051 C 
HETATM    5  C15 UNL     1     -19.458   5.690  11.874  1.00  0.00    -0.026 C 
HETATM    6  C16 UNL     1     -20.939   5.523  11.735  1.00  0.00     0.036 C 
HETATM    7  C17 UNL     1     -19.497   7.447  13.695  1.00  0.00     0.306 C 
HETATM    8  N2  UNL     1     -18.641   7.906  14.777  1.00  0.00     0.094 N 
HETATM    9  C18 UNL     1     -19.345   8.786  15.701  1.00  0.00     0.310 C 
HETATM   10  C19 UNL     1     -17.279   8.396  14.444  1.00  0.00     0.248 C 
HETATM   11  C20 UNL     1     -16.259   7.938  15.539  1.00  0.00     0.079 C 
HETATM   12  C21 UNL     1     -16.609   6.756  16.400  1.00  0.00    -0.020 A 
HETATM   13  C22 UNL     1     -16.985   5.475  16.011  1.00  0.00     0.025 A 
HETATM   14  N3  UNL     1     -17.195   4.758  17.175  1.00  0.00    -0.358 N 
HETATM   15  C23 UNL     1     -16.945   5.514  18.290  1.00  0.00     0.043 A 
HETATM   16  C24 UNL     1     -17.016   5.168  19.645  1.00  0.00     0.030 A 
HETATM   17  C25 UNL     1     -16.717   6.160  20.582  1.00  0.00     0.002 A 
HETATM   18  C26 UNL     1     -16.353   7.440  20.173  1.00  0.00     0.001 A 
HETATM   19  C27 UNL     1     -16.276   7.759  18.811  1.00  0.00     0.014 A 
HETATM   20  C28 UNL     1     -16.581   6.777  17.843  1.00  0.00    -0.001 A 
HETATM   21  C29 UNL     1     -16.821   8.062  12.992  1.00  0.00     0.107 C 
HETATM   22  H28 UNL     1     -17.477   3.787  17.204  1.00  0.00     0.166 HD
ENDROOT
BRANCH   1  23
HETATM   23  C10 UNL     1     -16.884   3.320  14.728  1.00  0.00    -0.048 A 
HETATM   24  C9  UNL     1     -17.592   2.368  13.977  1.00  0.00     0.018 A 
HETATM   25  C8  UNL     1     -17.171   1.044  13.995  1.00  0.00    -0.017 A 
HETATM   26  C7  UNL     1     -17.843  -0.164  13.384  1.00  0.00     0.061 C 
HETATM   27  C35 UNL     1     -16.052   0.645  14.724  1.00  0.00     0.039 A 
HETATM   28  C6  UNL     1     -19.009  -0.604  14.313  1.00  0.00     0.050 C 
HETATM   29  C37 UNL     1     -16.740  -1.300  13.605  1.00  0.00     0.273 C 
HETATM   30  C41 UNL     1     -18.215  -0.046  11.890  1.00  0.00     0.111 C 
HETATM   31  C5  UNL     1     -18.533  -1.873  14.990  1.00  0.00     0.277 C 
HETATM   32  N1  UNL     1     -17.538  -2.454  14.085  1.00  0.00     0.125 N 
HETATM   33  C4  UNL     1     -18.163  -3.273  13.040  1.00  0.00     0.310 C 
HETATM   34  C3  UNL     1     -18.930  -2.539  11.948  1.00  0.00    -0.051 C 
HETATM   35  C2  UNL     1     -20.198  -2.823  11.581  1.00  0.00    -0.026 C 
HETATM   36  C40 UNL     1     -18.172  -1.436  11.196  1.00  0.00     0.033 C 
HETATM   37  C1  UNL     1     -21.134  -3.841  12.151  1.00  0.00     0.036 C 
HETATM   38  C39 UNL     1     -16.704  -1.829  11.004  1.00  0.00     0.046 C 
HETATM   39  C38 UNL     1     -15.893  -1.631  12.288  1.00  0.00     0.179 C 
HETATM   40  N4  UNL     1     -15.724  -0.690  14.524  1.00  0.00    -0.347 N 
HETATM   41  C36 UNL     1     -15.103  -1.473  15.571  1.00  0.00     0.152 C 
HETATM   42  C34 UNL     1     -15.357   1.569  15.486  1.00  0.00     0.030 A 
HETATM   43  C33 UNL     1     -15.773   2.904  15.489  1.00  0.00     0.010 A 
BRANCH  39  44
HETATM   44  O4  UNL     1     -14.930  -0.593  12.008  1.00  0.00    -0.391 OA
HETATM   45  H45 UNL     1     -14.669  -0.273  12.899  1.00  0.00     0.210 HD
ENDBRANCH  39  44
BRANCH  30  46
HETATM   46  C42 UNL     1     -19.511   0.696  11.592  1.00  0.00     0.264 C 
HETATM   47  O5  UNL     1     -20.232   1.244  12.414  1.00  0.00    -0.265 OA
BRANCH  46  48
HETATM   48  O6  UNL     1     -19.740   0.722  10.245  1.00  0.00    -0.326 OA
HETATM   49  C43 UNL     1     -21.110   0.530   9.883  1.00  0.00     0.213 C 
ENDBRANCH  46  48
ENDBRANCH  30  46
ENDBRANCH   1  23
BRANCH  21  50
HETATM   50  C30 UNL     1     -17.413   9.044  11.925  1.00  0.00     0.186 C 
BRANCH  50  51
HETATM   51  O1  UNL     1     -16.803   8.891  10.645  1.00  0.00    -0.399 OA
HETATM   52  H35 UNL     1     -17.239   9.522  10.044  1.00  0.00     0.209 HD
ENDBRANCH  50  51
ENDBRANCH  21  50
BRANCH  21  53
HETATM   53  C31 UNL     1     -15.316   8.215  12.731  1.00  0.00     0.272 C 
HETATM   54  O2  UNL     1     -14.712   9.276  12.832  1.00  0.00    -0.264 OA
BRANCH  53  55
HETATM   55  O3  UNL     1     -14.708   7.024  12.461  1.00  0.00    -0.326 OA
HETATM   56  C32 UNL     1     -13.363   6.931  12.933  1.00  0.00     0.213 C 
ENDBRANCH  53  55
ENDBRANCH  21  53
TORSDOF 8
ENDMDL
MODEL 7
REMARK minimizedAffinity -7.914217
REMARK CNNscore 0.136160389
REMARK CNNaffinity 5.98864317
REMARK  8 active torsions:
REMARK  status: ('A' for Active; 'I' for Inactive)
REMARK    1  A    between atoms: C10_11  and  C11_12 
REMARK    2  A    between atoms: C29_32  and  C30_33 
REMARK    3  A    between atoms: C29_32  and  C31_35 
REMARK    4  A    between atoms: C30_33  and  O1_34 
REMARK    5  A    between atoms: C31_35  and  O3_37 
REMARK    6  A    between atoms: C38_45  and  O4_46 
REMARK    7  A    between atoms: C41_49  and  C42_50 
REMARK    8  A    between atoms: C42_50  and  O6_52 
ROOT
HETATM    1  C11 UNL     1     -12.971   9.288  17.370  1.00  0.00     0.070 C 
HETATM    2  C12 UNL     1     -12.785  10.314  16.224  1.00  0.00     0.026 C 
HETATM    3  C13 UNL     1     -12.024   9.893  14.926  1.00  0.00     0.039 C 
HETATM    4  C14 UNL     1     -10.975   8.805  15.153  1.00  0.00    -0.051 C 
HETATM    5  C15 UNL     1      -9.752   9.133  15.623  1.00  0.00    -0.026 C 
HETATM    6  C16 UNL     1      -8.587   8.219  15.840  1.00  0.00     0.036 C 
HETATM    7  C17 UNL     1     -11.377   7.394  14.763  1.00  0.00     0.306 C 
HETATM    8  N2  UNL     1     -12.815   7.186  14.714  1.00  0.00     0.094 N 
HETATM    9  C18 UNL     1     -13.161   5.819  14.344  1.00  0.00     0.310 C 
HETATM   10  C19 UNL     1     -13.655   8.196  14.020  1.00  0.00     0.248 C 
HETATM   11  C20 UNL     1     -14.997   8.406  14.797  1.00  0.00     0.079 C 
HETATM   12  C21 UNL     1     -15.054   8.026  16.251  1.00  0.00    -0.020 A 
HETATM   13  C22 UNL     1     -14.223   8.430  17.291  1.00  0.00     0.025 A 
HETATM   14  N3  UNL     1     -14.695   7.807  18.433  1.00  0.00    -0.358 N 
HETATM   15  C23 UNL     1     -15.804   7.045  18.175  1.00  0.00     0.043 A 
HETATM   16  C24 UNL     1     -16.590   6.279  19.045  1.00  0.00     0.030 A 
HETATM   17  C25 UNL     1     -17.669   5.582  18.497  1.00  0.00     0.002 A 
HETATM   18  C26 UNL     1     -17.951   5.661  17.136  1.00  0.00     0.001 A 
HETATM   19  C27 UNL     1     -17.159   6.444  16.287  1.00  0.00     0.014 A 
HETATM   20  C28 UNL     1     -16.056   7.153  16.814  1.00  0.00    -0.001 A 
HETATM   21  C29 UNL     1     -12.911   9.527  13.699  1.00  0.00     0.107 C 
HETATM   22  H28 UNL     1     -14.287   7.915  19.351  1.00  0.00     0.166 HD
ENDROOT
BRANCH   1  23
HETATM   23  C10 UNL     1     -12.911  10.017  18.725  1.00  0.00    -0.048 A 
HETATM   24  C9  UNL     1     -13.123   9.328  19.929  1.00  0.00     0.018 A 
HETATM   25  C8  UNL     1     -12.974  10.007  21.132  1.00  0.00    -0.017 A 
HETATM   26  C7  UNL     1     -13.276   9.519  22.531  1.00  0.00     0.061 C 
HETATM   27  C35 UNL     1     -12.600  11.350  21.169  1.00  0.00     0.039 A 
HETATM   28  C6  UNL     1     -14.810   9.604  22.763  1.00  0.00     0.050 C 
HETATM   29  C37 UNL     1     -12.696  10.711  23.426  1.00  0.00     0.273 C 
HETATM   30  C41 UNL     1     -12.633   8.173  22.929  1.00  0.00     0.111 C 
HETATM   31  C5  UNL     1     -15.015  10.777  23.700  1.00  0.00     0.277 C 
HETATM   32  N1  UNL     1     -13.758  10.917  24.439  1.00  0.00     0.125 N 
HETATM   33  C4  UNL     1     -13.708  10.026  25.603  1.00  0.00     0.310 C 
HETATM   34  C3  UNL     1     -13.543   8.536  25.332  1.00  0.00    -0.051 C 
HETATM   35  C2  UNL     1     -14.341   7.572  25.838  1.00  0.00    -0.026 C 
HETATM   36  C40 UNL     1     -12.351   8.124  24.456  1.00  0.00     0.033 C 
HETATM   37  C1  UNL     1     -15.550   7.717  26.708  1.00  0.00     0.036 C 
HETATM   38  C39 UNL     1     -11.139   9.015  24.746  1.00  0.00     0.046 C 
HETATM   39  C38 UNL     1     -11.269  10.384  24.075  1.00  0.00     0.179 C 
HETATM   40  N4  UNL     1     -12.391  11.818  22.461  1.00  0.00    -0.347 N 
HETATM   41  C36 UNL     1     -12.649  13.198  22.807  1.00  0.00     0.152 C 
HETATM   42  C34 UNL     1     -12.408  12.047  19.988  1.00  0.00     0.030 A 
HETATM   43  C33 UNL     1     -12.565  11.383  18.768  1.00  0.00     0.010 A 
BRANCH  39  44
HETATM   44  O4  UNL     1     -10.216  10.460  23.091  1.00  0.00    -0.391 OA
HETATM   45  H45 UNL     1     -10.518  11.168  22.481  1.00  0.00     0.210 HD
ENDBRANCH  39  44
BRANCH  30  46
HETATM   46  C42 UNL     1     -13.366   6.927  22.448  1.00  0.00     0.264 C 
HETATM   47  O5  UNL     1     -14.097   6.855  21.470  1.00  0.00    -0.265 OA
BRANCH  46  48
HETATM   48  O6  UNL     1     -13.048   5.859  23.238  1.00  0.00    -0.326 OA
HETATM   49  C43 UNL     1     -14.031   4.822  23.241  1.00  0.00     0.213 C 
ENDBRANCH  46  48
ENDBRANCH  30  46
ENDBRANCH   1  23
BRANCH  21  50
HETATM   50  C30 UNL     1     -12.010   9.428  12.421  1.00  0.00     0.186 C 
BRANCH  50  51
HETATM   51  O1  UNL     1     -12.570  10.116  11.304  1.00  0.00    -0.399 OA
HETATM   52  H35 UNL     1     -11.942  10.019  10.565  1.00  0.00     0.209 HD
ENDBRANCH  50  51
ENDBRANCH  21  50
BRANCH  21  53
HETATM   53  C31 UNL     1     -13.818  10.709  13.329  1.00  0.00     0.272 C 
HETATM   54  O2  UNL     1     -14.950  10.584  12.880  1.00  0.00    -0.264 OA
BRANCH  53  55
HETATM   55  O3  UNL     1     -13.259  11.914  13.641  1.00  0.00    -0.326 OA
HETATM   56  C32 UNL     1     -13.693  12.995  12.815  1.00  0.00     0.213 C 
ENDBRANCH  53  55
ENDBRANCH  21  53
TORSDOF 8
ENDMDL
MODEL 8
REMARK minimizedAffinity -7.20215368
REMARK CNNscore 0.116802201
REMARK CNNaffinity 5.91093254
REMARK  8 active torsions:
REMARK  status: ('A' for Active; 'I' for Inactive)
REMARK    1  A    between atoms: C10_11  and  C11_12 
REMARK    2  A    between atoms: C29_32  and  C30_33 
REMARK    3  A    between atoms: C29_32  and  C31_35 
REMARK    4  A    between atoms: C30_33  and  O1_34 
REMARK    5  A    between atoms: C31_35  and  O3_37 
REMARK    6  A    between atoms: C38_45  and  O4_46 
REMARK    7  A    between atoms: C41_49  and  C42_50 
REMARK    8  A    between atoms: C42_50  and  O6_52 
ROOT
HETATM    1  C11 UNL     1     -15.507   5.690  24.558  1.00  0.00     0.070 C 
HETATM    2  C12 UNL     1     -16.144   6.532  25.692  1.00  0.00     0.026 C 
HETATM    3  C13 UNL     1     -17.491   6.069  26.334  1.00  0.00     0.039 C 
HETATM    4  C14 UNL     1     -18.383   5.270  25.385  1.00  0.00    -0.051 C 
HETATM    5  C15 UNL     1     -19.166   5.912  24.492  1.00  0.00    -0.026 C 
HETATM    6  C16 UNL     1     -20.145   5.301  23.538  1.00  0.00     0.036 C 
HETATM    7  C17 UNL     1     -18.369   3.761  25.563  1.00  0.00     0.306 C 
HETATM    8  N2  UNL     1     -17.179   3.260  26.231  1.00  0.00     0.094 N 
HETATM    9  C18 UNL     1     -17.199   1.809  26.375  1.00  0.00     0.310 C 
HETATM   10  C19 UNL     1     -16.709   3.951  27.458  1.00  0.00     0.248 C 
HETATM   11  C20 UNL     1     -15.145   4.007  27.481  1.00  0.00     0.079 C 
HETATM   12  C21 UNL     1     -14.402   3.865  26.181  1.00  0.00    -0.020 A 
HETATM   13  C22 UNL     1     -14.554   4.594  25.006  1.00  0.00     0.025 A 
HETATM   14  N3  UNL     1     -13.635   4.083  24.107  1.00  0.00    -0.358 N 
HETATM   15  C23 UNL     1     -12.884   3.080  24.662  1.00  0.00     0.043 A 
HETATM   16  C24 UNL     1     -11.845   2.322  24.107  1.00  0.00     0.030 A 
HETATM   17  C25 UNL     1     -11.261   1.340  24.911  1.00  0.00     0.002 A 
HETATM   18  C26 UNL     1     -11.696   1.137  26.217  1.00  0.00     0.001 A 
HETATM   19  C27 UNL     1     -12.728   1.916  26.755  1.00  0.00     0.014 A 
HETATM   20  C28 UNL     1     -13.342   2.910  25.962  1.00  0.00    -0.001 A 
HETATM   21  C29 UNL     1     -17.382   5.335  27.704  1.00  0.00     0.107 C 
HETATM   22  H28 UNL     1     -13.512   4.420  23.162  1.00  0.00     0.166 HD
ENDROOT
BRANCH   1  23
HETATM   23  C10 UNL     1     -14.807   6.627  23.557  1.00  0.00    -0.048 A 
HETATM   24  C9  UNL     1     -14.497   7.953  23.899  1.00  0.00     0.018 A 
HETATM   25  C8  UNL     1     -13.788   8.736  22.997  1.00  0.00    -0.017 A 
HETATM   26  C7  UNL     1     -13.461  10.209  23.085  1.00  0.00     0.061 C 
HETATM   27  C35 UNL     1     -13.361   8.228  21.771  1.00  0.00     0.039 A 
HETATM   28  C6  UNL     1     -14.722  11.021  22.677  1.00  0.00     0.050 C 
HETATM   29  C37 UNL     1     -12.474  10.401  21.840  1.00  0.00     0.273 C 
HETATM   30  C41 UNL     1     -12.786  10.674  24.394  1.00  0.00     0.111 C 
HETATM   31  C5  UNL     1     -14.419  11.579  21.301  1.00  0.00     0.277 C 
HETATM   32  N1  UNL     1     -12.959  11.657  21.219  1.00  0.00     0.125 N 
HETATM   33  C4  UNL     1     -12.445  12.897  21.810  1.00  0.00     0.310 C 
HETATM   34  C3  UNL     1     -12.504  13.022  23.327  1.00  0.00    -0.051 C 
HETATM   35  C2  UNL     1     -13.045  14.066  23.990  1.00  0.00    -0.026 C 
HETATM   36  C40 UNL     1     -11.854  11.890  24.136  1.00  0.00     0.033 C 
HETATM   37  C1  UNL     1     -13.727  15.276  23.435  1.00  0.00     0.036 C 
HETATM   38  C39 UNL     1     -10.591  11.384  23.432  1.00  0.00     0.046 C 
HETATM   39  C38 UNL     1     -10.930  10.465  22.255  1.00  0.00     0.179 C 
HETATM   40  N4  UNL     1     -12.570   9.124  21.060  1.00  0.00    -0.347 N 
HETATM   41  C36 UNL     1     -12.566   9.134  19.614  1.00  0.00     0.152 C 
HETATM   42  C34 UNL     1     -13.677   6.929  21.411  1.00  0.00     0.030 A 
HETATM   43  C33 UNL     1     -14.401   6.130  22.302  1.00  0.00     0.010 A 
BRANCH  39  44
HETATM   44  O4  UNL     1     -10.424   9.157  22.598  1.00  0.00    -0.391 OA
HETATM   45  H45 UNL     1     -10.926   8.552  22.009  1.00  0.00     0.210 HD
ENDBRANCH  39  44
BRANCH  30  46
HETATM   46  C42 UNL     1     -13.727  10.919  25.567  1.00  0.00     0.264 C 
HETATM   47  O5  UNL     1     -14.751  10.296  25.809  1.00  0.00    -0.265 OA
BRANCH  46  48
HETATM   48  O6  UNL     1     -13.235  11.912  26.366  1.00  0.00    -0.326 OA
HETATM   49  C43 UNL     1     -14.239  12.646  27.069  1.00  0.00     0.213 C 
ENDBRANCH  46  48
ENDBRANCH  30  46
ENDBRANCH   1  23
BRANCH  21  50
HETATM   50  C30 UNL     1     -18.808   5.215  28.342  1.00  0.00     0.186 C 
BRANCH  50  51
HETATM   51  O1  UNL     1     -18.967   4.018  29.100  1.00  0.00    -0.399 OA
HETATM   52  H35 UNL     1     -19.868   4.033  29.472  1.00  0.00     0.209 HD
ENDBRANCH  50  51
ENDBRANCH  21  50
BRANCH  21  53
HETATM   53  C31 UNL     1     -16.675   6.232  28.730  1.00  0.00     0.272 C 
HETATM   54  O2  UNL     1     -16.029   5.803  29.678  1.00  0.00    -0.264 OA
BRANCH  53  55
HETATM   55  O3  UNL     1     -16.770   7.557  28.420  1.00  0.00    -0.326 OA
HETATM   56  C32 UNL     1     -17.152   8.391  29.514  1.00  0.00     0.213 C 
ENDBRANCH  53  55
ENDBRANCH  21  53
TORSDOF 8
ENDMDL
MODEL 9
REMARK minimizedAffinity -6.57574463
REMARK CNNscore 0.112113737
REMARK CNNaffinity 5.53740835
REMARK  8 active torsions:
REMARK  status: ('A' for Active; 'I' for Inactive)
REMARK    1  A    between atoms: C10_11  and  C11_12 
REMARK    2  A    between atoms: C29_32  and  C30_33 
REMARK    3  A    between atoms: C29_32  and  C31_35 
REMARK    4  A    between atoms: C30_33  and  O1_34 
REMARK    5  A    between atoms: C31_35  and  O3_37 
REMARK    6  A    between atoms: C38_45  and  O4_46 
REMARK    7  A    between atoms: C41_49  and  C42_50 
REMARK    8  A    between atoms: C42_50  and  O6_52 
ROOT
HETATM    1  C11 UNL     1       5.857  12.669  19.512  1.00  0.00     0.070 C 
HETATM    2  C12 UNL     1       5.472  11.564  20.527  1.00  0.00     0.026 C 
HETATM    3  C13 UNL     1       4.952  11.965  21.945  1.00  0.00     0.039 C 
HETATM    4  C14 UNL     1       5.496  13.304  22.443  1.00  0.00    -0.051 C 
HETATM    5  C15 UNL     1       6.722  13.368  23.004  1.00  0.00    -0.026 C 
HETATM    6  C16 UNL     1       7.384  14.568  23.605  1.00  0.00     0.036 C 
HETATM    7  C17 UNL     1       4.560  14.494  22.323  1.00  0.00     0.306 C 
HETATM    8  N2  UNL     1       3.517  14.323  21.324  1.00  0.00     0.094 N 
HETATM    9  C18 UNL     1       2.646  15.489  21.233  1.00  0.00     0.310 C 
HETATM   10  C19 UNL     1       2.766  13.043  21.296  1.00  0.00     0.248 C 
HETATM   11  C20 UNL     1       2.479  12.619  19.816  1.00  0.00     0.079 C 
HETATM   12  C21 UNL     1       3.347  13.184  18.725  1.00  0.00    -0.020 A 
HETATM   13  C22 UNL     1       4.733  13.162  18.614  1.00  0.00     0.025 A 
HETATM   14  N3  UNL     1       5.041  13.808  17.431  1.00  0.00    -0.358 N 
HETATM   15  C23 UNL     1       3.914  14.219  16.767  1.00  0.00     0.043 A 
HETATM   16  C24 UNL     1       3.785  14.883  15.541  1.00  0.00     0.030 A 
HETATM   17  C25 UNL     1       2.494  15.196  15.109  1.00  0.00     0.002 A 
HETATM   18  C26 UNL     1       1.383  14.848  15.872  1.00  0.00     0.001 A 
HETATM   19  C27 UNL     1       1.536  14.172  17.089  1.00  0.00     0.014 A 
HETATM   20  C28 UNL     1       2.831  13.851  17.554  1.00  0.00    -0.001 A 
HETATM   21  C29 UNL     1       3.409  11.909  22.151  1.00  0.00     0.107 C 
HETATM   22  H28 UNL     1       5.980  13.944  17.082  1.00  0.00     0.166 HD
ENDROOT
BRANCH   1  23
HETATM   23  C10 UNL     1       7.045  12.188  18.658  1.00  0.00    -0.048 A 
HETATM   24  C9  UNL     1       8.242  12.919  18.605  1.00  0.00     0.018 A 
HETATM   25  C8  UNL     1       9.318  12.404  17.892  1.00  0.00    -0.017 A 
HETATM   26  C7  UNL     1      10.644  13.062  17.583  1.00  0.00     0.061 C 
HETATM   27  C35 UNL     1       9.241  11.170  17.248  1.00  0.00     0.039 A 
HETATM   28  C6  UNL     1      10.440  14.055  16.405  1.00  0.00     0.050 C 
HETATM   29  C37 UNL     1      11.461  11.858  16.920  1.00  0.00     0.273 C 
HETATM   30  C41 UNL     1      11.407  13.641  18.794  1.00  0.00     0.111 C 
HETATM   31  C5  UNL     1      11.089  13.399  15.204  1.00  0.00     0.277 C 
HETATM   32  N1  UNL     1      12.107  12.497  15.748  1.00  0.00     0.125 N 
HETATM   33  C4  UNL     1      13.367  13.196  16.020  1.00  0.00     0.310 C 
HETATM   34  C3  UNL     1      13.389  14.156  17.202  1.00  0.00    -0.051 C 
HETATM   35  C2  UNL     1      13.809  15.438  17.139  1.00  0.00    -0.026 C 
HETATM   36  C40 UNL     1      12.942  13.590  18.557  1.00  0.00     0.033 C 
HETATM   37  C1  UNL     1      14.289  16.210  15.952  1.00  0.00     0.036 C 
HETATM   38  C39 UNL     1      13.402  12.137  18.710  1.00  0.00     0.046 C 
HETATM   39  C38 UNL     1      12.512  11.176  17.917  1.00  0.00     0.179 C 
HETATM   40  N4  UNL     1      10.451  10.774  16.689  1.00  0.00    -0.347 N 
HETATM   41  C36 UNL     1      10.492   9.962  15.493  1.00  0.00     0.152 C 
HETATM   42  C34 UNL     1       8.060  10.447  17.275  1.00  0.00     0.030 A 
HETATM   43  C33 UNL     1       6.963  10.956  17.977  1.00  0.00     0.010 A 
BRANCH  39  44
HETATM   44  O4  UNL     1      11.847  10.339  18.887  1.00  0.00    -0.391 OA
HETATM   45  H45 UNL     1      11.074   9.983  18.396  1.00  0.00     0.210 HD
ENDBRANCH  39  44
BRANCH  30  46
HETATM   46  C42 UNL     1      10.951  15.016  19.263  1.00  0.00     0.264 C 
HETATM   47  O5  UNL     1      10.881  16.024  18.573  1.00  0.00    -0.265 OA
BRANCH  46  48
HETATM   48  O6  UNL     1      10.564  14.964  20.572  1.00  0.00    -0.326 OA
HETATM   49  C43 UNL     1       9.803  16.095  21.001  1.00  0.00     0.213 C 
ENDBRANCH  46  48
ENDBRANCH  30  46
ENDBRANCH   1  23
BRANCH  21  50
HETATM   50  C30 UNL     1       3.086  12.041  23.678  1.00  0.00     0.186 C 
BRANCH  50  51
HETATM   51  O1  UNL     1       2.282  13.182  23.969  1.00  0.00    -0.399 OA
HETATM   52  H35 UNL     1       2.116  13.177  24.929  1.00  0.00     0.209 HD
ENDBRANCH  50  51
ENDBRANCH  21  50
BRANCH  21  53
HETATM   53  C31 UNL     1       2.886  10.495  21.860  1.00  0.00     0.272 C 
HETATM   54  O2  UNL     1       2.044  10.243  21.007  1.00  0.00    -0.264 OA
BRANCH  53  55
HETATM   55  O3  UNL     1       3.528   9.540  22.593  1.00  0.00    -0.326 OA
HETATM   56  C32 UNL     1       2.691   8.462  23.014  1.00  0.00     0.213 C 
ENDBRANCH  53  55
ENDBRANCH  21  53
TORSDOF 8
ENDMDL
