MODEL 1
REMARK minimizedAffinity -9.19239235
REMARK  6 active torsions:
REMARK  status: ('A' for Active; 'I' for Inactive)
REMARK    1  A    between atoms: C2_2  and  C30_31 
REMARK    2  A    between atoms: C3_3  and  C4_4 
REMARK    3  A    between atoms: C4_4  and  C5_5 
REMARK    4  A    between atoms: C5_5  and  C6_6 
REMARK    5  A    between atoms: C6_6  and  C8_8 
REMARK    6  A    between atoms: C30_31  and  O3_33 
ROOT
HETATM    1  C8  UNL     1      -2.831  49.710 -23.556  1.00  0.00    -0.002 C 
HETATM    2  C9  UNL     1      -3.979  50.649 -23.101  1.00  0.00     0.007 C 
HETATM    3  C10 UNL     1      -3.981  50.640 -21.571  1.00  0.00     0.015 C 
HETATM    4  C11 UNL     1      -3.476  49.230 -21.186  1.00  0.00    -0.013 C 
HETATM    5  C12 UNL     1      -4.660  48.250 -21.421  1.00  0.00     0.021 C 
HETATM    6  C13 UNL     1      -2.947  49.138 -19.732  1.00  0.00    -0.070 C 
HETATM    7  C14 UNL     1      -3.384  48.240 -18.828  1.00  0.00    -0.022 C 
HETATM    8  C15 UNL     1      -2.804  48.026 -17.466  1.00  0.00     0.034 C 
HETATM    9  C16 UNL     1      -1.430  48.699 -17.208  1.00  0.00     0.013 C 
HETATM   10  C17 UNL     1      -1.035  48.676 -15.683  1.00  0.00     0.018 C 
HETATM   11  C18 UNL     1       0.492  48.492 -15.522  1.00  0.00     0.023 C 
HETATM   12  C19 UNL     1      -1.683  47.519 -14.889  1.00  0.00     0.023 C 
HETATM   13  C20 UNL     1      -1.454  49.982 -14.994  1.00  0.00     0.135 C 
HETATM   14  O1  UNL     1      -0.967  50.326 -13.912  1.00  0.00    -0.297 OA
HETATM   15  C21 UNL     1      -2.582  50.786 -15.602  1.00  0.00     0.080 C 
HETATM   16  C22 UNL     1      -2.483  51.000 -17.112  1.00  0.00     0.017 C 
HETATM   17  C23 UNL     1      -1.419  50.127 -17.842  1.00  0.00    -0.031 C 
HETATM   18  C24 UNL     1      -0.058  50.851 -17.691  1.00  0.00     0.016 C 
HETATM   19  C25 UNL     1      -1.777  50.052 -19.384  1.00  0.00     0.024 C 
HETATM   20  C26 UNL     1      -0.626  49.625 -20.313  1.00  0.00     0.010 C 
HETATM   21  C27 UNL     1      -1.028  49.811 -21.780  1.00  0.00     0.011 C 
HETATM   22  C28 UNL     1      -2.310  49.012 -22.232  1.00  0.00    -0.029 C 
HETATM   23  C29 UNL     1      -1.876  47.544 -22.343  1.00  0.00     0.016 C 
ENDROOT
BRANCH   1  24
HETATM   24  C6  UNL     1      -3.101  48.994 -24.922  1.00  0.00    -0.014 C 
HETATM   25  C7  UNL     1      -4.546  48.509 -25.084  1.00  0.00     0.010 C 
BRANCH  24  26
HETATM   26  C5  UNL     1      -2.512  49.554 -26.243  1.00  0.00     0.008 C 
BRANCH  26  27
HETATM   27  C4  UNL     1      -1.129  50.207 -26.205  1.00  0.00     0.028 C 
BRANCH  27  28
HETATM   28  C3  UNL     1      -1.212  51.665 -26.577  1.00  0.00    -0.013 C 
HETATM   29  C2  UNL     1      -0.431  52.337 -27.446  1.00  0.00     0.008 C 
HETATM   30  C1  UNL     1       0.741  51.775 -28.192  1.00  0.00     0.055 C 
BRANCH  29  31
HETATM   31  C30 UNL     1      -0.766  53.770 -27.662  1.00  0.00     0.171 C 
HETATM   32  O2  UNL     1      -0.130  54.736 -27.277  1.00  0.00    -0.646 OA
BRANCH  31  33
HETATM   33  O3  UNL     1      -1.911  53.927 -28.351  1.00  0.00    -0.773 OA
HETATM   34  H46 UNL     1      -2.006  54.900 -28.409  1.00  0.00     0.167 HD
ENDBRANCH  31  33
ENDBRANCH  29  31
ENDBRANCH  27  28
ENDBRANCH  26  27
ENDBRANCH  24  26
ENDBRANCH   1  24
TORSDOF 6
ENDMDL
MODEL 2
REMARK minimizedAffinity -9.1727581
REMARK  6 active torsions:
REMARK  status: ('A' for Active; 'I' for Inactive)
REMARK    1  A    between atoms: C2_2  and  C30_31 
REMARK    2  A    between atoms: C3_3  and  C4_4 
REMARK    3  A    between atoms: C4_4  and  C5_5 
REMARK    4  A    between atoms: C5_5  and  C6_6 
REMARK    5  A    between atoms: C6_6  and  C8_8 
REMARK    6  A    between atoms: C30_31  and  O3_33 
ROOT
HETATM    1  C8  UNL     1      -1.381  52.219 -22.753  1.00  0.00    -0.002 C 
HETATM    2  C9  UNL     1      -2.235  52.715 -23.949  1.00  0.00     0.007 C 
HETATM    3  C10 UNL     1      -3.485  51.834 -23.999  1.00  0.00     0.015 C 
HETATM    4  C11 UNL     1      -3.021  50.464 -23.454  1.00  0.00    -0.013 C 
HETATM    5  C12 UNL     1      -2.215  49.778 -24.592  1.00  0.00     0.021 C 
HETATM    6  C13 UNL     1      -4.187  49.565 -22.967  1.00  0.00    -0.070 C 
HETATM    7  C14 UNL     1      -4.397  48.307 -23.398  1.00  0.00    -0.022 C 
HETATM    8  C15 UNL     1      -5.419  47.361 -22.852  1.00  0.00     0.034 C 
HETATM    9  C16 UNL     1      -6.079  47.784 -21.513  1.00  0.00     0.013 C 
HETATM   10  C17 UNL     1      -7.336  46.900 -21.165  1.00  0.00     0.018 C 
HETATM   11  C18 UNL     1      -7.435  46.677 -19.638  1.00  0.00     0.023 C 
HETATM   12  C19 UNL     1      -7.298  45.488 -21.793  1.00  0.00     0.023 C 
HETATM   13  C20 UNL     1      -8.626  47.573 -21.654  1.00  0.00     0.135 C 
HETATM   14  O1  UNL     1      -9.732  47.245 -21.214  1.00  0.00    -0.297 OA
HETATM   15  C21 UNL     1      -8.532  48.566 -22.791  1.00  0.00     0.080 C 
HETATM   16  C22 UNL     1      -7.419  49.605 -22.654  1.00  0.00     0.017 C 
HETATM   17  C23 UNL     1      -6.372  49.318 -21.536  1.00  0.00    -0.031 C 
HETATM   18  C24 UNL     1      -6.973  49.845 -20.209  1.00  0.00     0.016 C 
HETATM   19  C25 UNL     1      -5.048  50.132 -21.843  1.00  0.00     0.024 C 
HETATM   20  C26 UNL     1      -4.096  50.327 -20.649  1.00  0.00     0.010 C 
HETATM   21  C27 UNL     1      -2.979  51.312 -21.012  1.00  0.00     0.011 C 
HETATM   22  C28 UNL     1      -2.094  50.897 -22.248  1.00  0.00    -0.029 C 
HETATM   23  C29 UNL     1      -1.186  49.761 -21.757  1.00  0.00     0.016 C 
ENDROOT
BRANCH   1  24
HETATM   24  C6  UNL     1       0.161  52.407 -22.954  1.00  0.00    -0.014 C 
HETATM   25  C7  UNL     1       0.518  53.359 -24.102  1.00  0.00     0.010 C 
BRANCH  24  26
HETATM   26  C5  UNL     1       1.108  52.566 -21.736  1.00  0.00     0.008 C 
BRANCH  26  27
HETATM   27  C4  UNL     1       0.825  53.687 -20.734  1.00  0.00     0.028 C 
BRANCH  27  28
HETATM   28  C3  UNL     1       1.221  53.274 -19.340  1.00  0.00    -0.013 C 
HETATM   29  C2  UNL     1       0.485  52.582 -18.448  1.00  0.00     0.008 C 
HETATM   30  C1  UNL     1      -0.927  52.120 -18.642  1.00  0.00     0.055 C 
BRANCH  29  31
HETATM   31  C30 UNL     1       1.145  52.268 -17.152  1.00  0.00     0.171 C 
HETATM   32  O2  UNL     1       1.358  51.161 -16.690  1.00  0.00    -0.646 OA
BRANCH  31  33
HETATM   33  O3  UNL     1       1.502  53.377 -16.480  1.00  0.00    -0.773 OA
HETATM   34  H46 UNL     1       1.908  53.022 -15.662  1.00  0.00     0.167 HD
ENDBRANCH  31  33
ENDBRANCH  29  31
ENDBRANCH  27  28
ENDBRANCH  26  27
ENDBRANCH  24  26
ENDBRANCH   1  24
TORSDOF 6
ENDMDL
MODEL 3
REMARK minimizedAffinity -9.12110424
REMARK  6 active torsions:
REMARK  status: ('A' for Active; 'I' for Inactive)
REMARK    1  A    between atoms: C2_2  and  C30_31 
REMARK    2  A    between atoms: C3_3  and  C4_4 
REMARK    3  A    between atoms: C4_4  and  C5_5 
REMARK    4  A    between atoms: C5_5  and  C6_6 
REMARK    5  A    between atoms: C6_6  and  C8_8 
REMARK    6  A    between atoms: C30_31  and  O3_33 
ROOT
HETATM    1  C8  UNL     1      -1.550  50.967 -21.624  1.00  0.00    -0.002 C 
HETATM    2  C9  UNL     1      -2.324  51.516 -20.397  1.00  0.00     0.007 C 
HETATM    3  C10 UNL     1      -3.757  50.992 -20.505  1.00  0.00     0.015 C 
HETATM    4  C11 UNL     1      -4.018  50.871 -22.024  1.00  0.00    -0.013 C 
HETATM    5  C12 UNL     1      -4.264  52.313 -22.552  1.00  0.00     0.021 C 
HETATM    6  C13 UNL     1      -5.200  49.932 -22.375  1.00  0.00    -0.070 C 
HETATM    7  C14 UNL     1      -6.247  50.295 -23.141  1.00  0.00    -0.022 C 
HETATM    8  C15 UNL     1      -7.332  49.383 -23.618  1.00  0.00     0.034 C 
HETATM    9  C16 UNL     1      -7.059  47.865 -23.443  1.00  0.00     0.013 C 
HETATM   10  C17 UNL     1      -8.350  46.997 -23.691  1.00  0.00     0.018 C 
HETATM   11  C18 UNL     1      -7.980  45.656 -24.367  1.00  0.00     0.023 C 
HETATM   12  C19 UNL     1      -9.382  47.668 -24.626  1.00  0.00     0.023 C 
HETATM   13  C20 UNL     1      -9.070  46.704 -22.367  1.00  0.00     0.135 C 
HETATM   14  O1  UNL     1      -9.894  45.789 -22.269  1.00  0.00    -0.297 OA
HETATM   15  C21 UNL     1      -8.849  47.647 -21.205  1.00  0.00     0.080 C 
HETATM   16  C22 UNL     1      -7.390  48.013 -20.936  1.00  0.00     0.017 C 
HETATM   17  C23 UNL     1      -6.384  47.612 -22.057  1.00  0.00    -0.031 C 
HETATM   18  C24 UNL     1      -6.013  46.127 -21.821  1.00  0.00     0.016 C 
HETATM   19  C25 UNL     1      -5.069  48.486 -21.912  1.00  0.00     0.024 C 
HETATM   20  C26 UNL     1      -3.823  47.932 -22.626  1.00  0.00     0.010 C 
HETATM   21  C27 UNL     1      -2.579  48.733 -22.225  1.00  0.00     0.011 C 
HETATM   22  C28 UNL     1      -2.646  50.277 -22.538  1.00  0.00    -0.029 C 
HETATM   23  C29 UNL     1      -2.470  50.410 -24.056  1.00  0.00     0.016 C 
ENDROOT
BRANCH   1  24
HETATM   24  C6  UNL     1      -0.404  51.910 -22.124  1.00  0.00    -0.014 C 
HETATM   25  C7  UNL     1       0.783  51.998 -21.160  1.00  0.00     0.010 C 
BRANCH  24  26
HETATM   26  C5  UNL     1       0.039  51.904 -23.611  1.00  0.00     0.008 C 
BRANCH  26  27
HETATM   27  C4  UNL     1       0.594  53.198 -24.211  1.00  0.00     0.028 C 
BRANCH  27  28
HETATM   28  C3  UNL     1      -0.079  53.515 -25.521  1.00  0.00    -0.013 C 
HETATM   29  C2  UNL     1       0.148  52.944 -26.721  1.00  0.00     0.008 C 
HETATM   30  C1  UNL     1       1.176  51.894 -27.015  1.00  0.00     0.055 C 
BRANCH  29  31
HETATM   31  C30 UNL     1      -0.699  53.419 -27.848  1.00  0.00     0.171 C 
HETATM   32  O2  UNL     1      -1.842  53.833 -27.778  1.00  0.00    -0.646 OA
BRANCH  31  33
HETATM   33  O3  UNL     1      -0.064  53.339 -29.031  1.00  0.00    -0.773 OA
HETATM   34  H46 UNL     1      -0.732  53.671 -29.666  1.00  0.00     0.167 HD
ENDBRANCH  31  33
ENDBRANCH  29  31
ENDBRANCH  27  28
ENDBRANCH  26  27
ENDBRANCH  24  26
ENDBRANCH   1  24
TORSDOF 6
ENDMDL
MODEL 4
REMARK minimizedAffinity -8.90945244
REMARK  6 active torsions:
REMARK  status: ('A' for Active; 'I' for Inactive)
REMARK    1  A    between atoms: C2_2  and  C30_31 
REMARK    2  A    between atoms: C3_3  and  C4_4 
REMARK    3  A    between atoms: C4_4  and  C5_5 
REMARK    4  A    between atoms: C5_5  and  C6_6 
REMARK    5  A    between atoms: C6_6  and  C8_8 
REMARK    6  A    between atoms: C30_31  and  O3_33 
ROOT
HETATM    1  C8  UNL     1      -3.006  49.707 -20.323  1.00  0.00    -0.002 C 
HETATM    2  C9  UNL     1      -3.651  51.087 -20.619  1.00  0.00     0.007 C 
HETATM    3  C10 UNL     1      -4.661  50.872 -21.747  1.00  0.00     0.015 C 
HETATM    4  C11 UNL     1      -4.072  49.714 -22.587  1.00  0.00    -0.013 C 
HETATM    5  C12 UNL     1      -2.914  50.317 -23.430  1.00  0.00     0.021 C 
HETATM    6  C13 UNL     1      -5.118  49.009 -23.487  1.00  0.00    -0.070 C 
HETATM    7  C14 UNL     1      -4.976  48.841 -24.815  1.00  0.00    -0.022 C 
HETATM    8  C15 UNL     1      -5.890  48.046 -25.693  1.00  0.00     0.034 C 
HETATM    9  C16 UNL     1      -6.902  47.130 -24.956  1.00  0.00     0.013 C 
HETATM   10  C17 UNL     1      -8.007  46.564 -25.925  1.00  0.00     0.018 C 
HETATM   11  C18 UNL     1      -8.399  45.124 -25.517  1.00  0.00     0.023 C 
HETATM   12  C19 UNL     1      -7.554  46.473 -27.400  1.00  0.00     0.023 C 
HETATM   13  C20 UNL     1      -9.261  47.448 -25.895  1.00  0.00     0.135 C 
HETATM   14  O1  UNL     1     -10.352  47.036 -26.303  1.00  0.00    -0.297 OA
HETATM   15  C21 UNL     1      -9.111  48.894 -25.476  1.00  0.00     0.080 C 
HETATM   16  C22 UNL     1      -8.283  49.118 -24.210  1.00  0.00     0.017 C 
HETATM   17  C23 UNL     1      -7.477  47.881 -23.712  1.00  0.00    -0.031 C 
HETATM   18  C24 UNL     1      -8.450  47.016 -22.873  1.00  0.00     0.016 C 
HETATM   19  C25 UNL     1      -6.302  48.372 -22.768  1.00  0.00     0.024 C 
HETATM   20  C26 UNL     1      -5.699  47.297 -21.846  1.00  0.00     0.010 C 
HETATM   21  C27 UNL     1      -4.744  47.938 -20.833  1.00  0.00     0.011 C 
HETATM   22  C28 UNL     1      -3.541  48.740 -21.459  1.00  0.00    -0.029 C 
HETATM   23  C29 UNL     1      -2.562  47.687 -21.995  1.00  0.00     0.016 C 
ENDROOT
BRANCH   1  24
HETATM   24  C6  UNL     1      -1.526  49.795 -19.819  1.00  0.00    -0.014 C 
HETATM   25  C7  UNL     1      -1.269  49.008 -18.529  1.00  0.00     0.010 C 
BRANCH  24  26
HETATM   26  C5  UNL     1      -0.340  49.704 -20.815  1.00  0.00     0.008 C 
BRANCH  26  27
HETATM   27  C4  UNL     1      -0.242  50.749 -21.929  1.00  0.00     0.028 C 
BRANCH  27  28
HETATM   28  C3  UNL     1       0.474  51.984 -21.446  1.00  0.00    -0.013 C 
HETATM   29  C2  UNL     1       0.820  53.069 -22.167  1.00  0.00     0.008 C 
HETATM   30  C1  UNL     1       0.610  53.249 -23.640  1.00  0.00     0.055 C 
BRANCH  29  31
HETATM   31  C30 UNL     1       1.482  54.173 -21.422  1.00  0.00     0.171 C 
HETATM   32  O2  UNL     1       1.615  54.262 -20.214  1.00  0.00    -0.646 OA
BRANCH  31  33
HETATM   33  O3  UNL     1       1.944  55.135 -22.240  1.00  0.00    -0.773 OA
HETATM   34  H46 UNL     1       2.338  55.784 -21.622  1.00  0.00     0.167 HD
ENDBRANCH  31  33
ENDBRANCH  29  31
ENDBRANCH  27  28
ENDBRANCH  26  27
ENDBRANCH  24  26
ENDBRANCH   1  24
TORSDOF 6
ENDMDL
MODEL 5
REMARK minimizedAffinity -8.90313435
REMARK  6 active torsions:
REMARK  status: ('A' for Active; 'I' for Inactive)
REMARK    1  A    between atoms: C2_2  and  C30_31 
REMARK    2  A    between atoms: C3_3  and  C4_4 
REMARK    3  A    between atoms: C4_4  and  C5_5 
REMARK    4  A    between atoms: C5_5  and  C6_6 
REMARK    5  A    between atoms: C6_6  and  C8_8 
REMARK    6  A    between atoms: C30_31  and  O3_33 
ROOT
HETATM    1  C8  UNL     1      -2.102  51.422 -20.889  1.00  0.00    -0.002 C 
HETATM    2  C9  UNL     1      -3.416  51.463 -20.064  1.00  0.00     0.007 C 
HETATM    3  C10 UNL     1      -3.054  51.068 -18.631  1.00  0.00     0.015 C 
HETATM    4  C11 UNL     1      -1.863  50.093 -18.782  1.00  0.00    -0.013 C 
HETATM    5  C12 UNL     1      -2.453  48.733 -19.250  1.00  0.00     0.021 C 
HETATM    6  C13 UNL     1      -1.030  49.931 -17.485  1.00  0.00    -0.070 C 
HETATM    7  C14 UNL     1      -0.759  48.744 -16.909  1.00  0.00    -0.022 C 
HETATM    8  C15 UNL     1       0.155  48.532 -15.744  1.00  0.00     0.034 C 
HETATM    9  C16 UNL     1       1.058  49.737 -15.370  1.00  0.00     0.013 C 
HETATM   10  C17 UNL     1       1.762  49.542 -13.974  1.00  0.00     0.018 C 
HETATM   11  C18 UNL     1       3.181  50.158 -13.992  1.00  0.00     0.023 C 
HETATM   12  C19 UNL     1       1.952  48.061 -13.574  1.00  0.00     0.023 C 
HETATM   13  C20 UNL     1       0.946  50.207 -12.857  1.00  0.00     0.135 C 
HETATM   14  O1  UNL     1       1.448  50.470 -11.760  1.00  0.00    -0.297 OA
HETATM   15  C21 UNL     1      -0.536  50.418 -13.077  1.00  0.00     0.080 C 
HETATM   16  C22 UNL     1      -0.909  51.025 -14.429  1.00  0.00     0.017 C 
HETATM   17  C23 UNL     1       0.237  51.062 -15.484  1.00  0.00    -0.031 C 
HETATM   18  C24 UNL     1       1.079  52.329 -15.193  1.00  0.00     0.016 C 
HETATM   19  C25 UNL     1      -0.393  51.201 -16.932  1.00  0.00     0.024 C 
HETATM   20  C26 UNL     1       0.567  51.696 -18.029  1.00  0.00     0.010 C 
HETATM   21  C27 UNL     1      -0.207  52.006 -19.315  1.00  0.00     0.011 C 
HETATM   22  C28 UNL     1      -1.017  50.796 -19.918  1.00  0.00    -0.029 C 
HETATM   23  C29 UNL     1       0.024  49.862 -20.549  1.00  0.00     0.016 C 
ENDROOT
BRANCH   1  24
HETATM   24  C6  UNL     1      -2.311  51.043 -22.394  1.00  0.00    -0.014 C 
HETATM   25  C7  UNL     1      -3.570  51.660 -23.013  1.00  0.00     0.010 C 
BRANCH  24  26
HETATM   26  C5  UNL     1      -1.115  51.021 -23.381  1.00  0.00     0.008 C 
BRANCH  26  27
HETATM   27  C4  UNL     1      -0.102  52.167 -23.324  1.00  0.00     0.028 C 
BRANCH  27  28
HETATM   28  C3  UNL     1      -0.305  53.121 -24.474  1.00  0.00    -0.013 C 
HETATM   29  C2  UNL     1       0.249  53.058 -25.701  1.00  0.00     0.008 C 
HETATM   30  C1  UNL     1       1.244  52.038 -26.166  1.00  0.00     0.055 C 
BRANCH  29  31
HETATM   31  C30 UNL     1      -0.165  54.112 -26.666  1.00  0.00     0.171 C 
HETATM   32  O2  UNL     1      -0.795  53.953 -27.696  1.00  0.00    -0.646 OA
BRANCH  31  33
HETATM   33  O3  UNL     1       0.249  55.336 -26.291  1.00  0.00    -0.773 OA
HETATM   34  H46 UNL     1      -0.082  55.914 -27.009  1.00  0.00     0.167 HD
ENDBRANCH  31  33
ENDBRANCH  29  31
ENDBRANCH  27  28
ENDBRANCH  26  27
ENDBRANCH  24  26
ENDBRANCH   1  24
TORSDOF 6
ENDMDL
MODEL 6
REMARK minimizedAffinity -8.88206673
REMARK  6 active torsions:
REMARK  status: ('A' for Active; 'I' for Inactive)
REMARK    1  A    between atoms: C2_2  and  C30_31 
REMARK    2  A    between atoms: C3_3  and  C4_4 
REMARK    3  A    between atoms: C4_4  and  C5_5 
REMARK    4  A    between atoms: C5_5  and  C6_6 
REMARK    5  A    between atoms: C6_6  and  C8_8 
REMARK    6  A    between atoms: C30_31  and  O3_33 
ROOT
HETATM    1  C8  UNL     1      -3.055  49.495 -23.366  1.00  0.00    -0.002 C 
HETATM    2  C9  UNL     1      -3.407  48.396 -22.329  1.00  0.00     0.007 C 
HETATM    3  C10 UNL     1      -4.765  47.821 -22.734  1.00  0.00     0.015 C 
HETATM    4  C11 UNL     1      -5.508  49.001 -23.402  1.00  0.00    -0.013 C 
HETATM    5  C12 UNL     1      -5.990  49.934 -22.256  1.00  0.00     0.021 C 
HETATM    6  C13 UNL     1      -6.689  48.558 -24.303  1.00  0.00    -0.070 C 
HETATM    7  C14 UNL     1      -7.948  49.019 -24.174  1.00  0.00    -0.022 C 
HETATM    8  C15 UNL     1      -9.080  48.727 -25.106  1.00  0.00     0.034 C 
HETATM    9  C16 UNL     1      -8.686  48.077 -26.459  1.00  0.00     0.013 C 
HETATM   10  C17 UNL     1      -9.939  47.537 -27.246  1.00  0.00     0.018 C 
HETATM   11  C18 UNL     1      -9.744  47.724 -28.769  1.00  0.00     0.023 C 
HETATM   12  C19 UNL     1     -11.256  48.269 -26.900  1.00  0.00     0.023 C 
HETATM   13  C20 UNL     1     -10.164  46.047 -26.952  1.00  0.00     0.135 C 
HETATM   14  O1  UNL     1     -10.860  45.342 -27.689  1.00  0.00    -0.297 OA
HETATM   15  C21 UNL     1      -9.621  45.480 -25.660  1.00  0.00     0.080 C 
HETATM   16  C22 UNL     1      -8.175  45.863 -25.341  1.00  0.00     0.017 C 
HETATM   17  C23 UNL     1      -7.578  47.002 -26.220  1.00  0.00    -0.031 C 
HETATM   18  C24 UNL     1      -7.073  46.345 -27.529  1.00  0.00     0.016 C 
HETATM   19  C25 UNL     1      -6.337  47.641 -25.469  1.00  0.00     0.024 C 
HETATM   20  C26 UNL     1      -5.370  48.449 -26.354  1.00  0.00     0.010 C 
HETATM   21  C27 UNL     1      -4.107  48.816 -25.567  1.00  0.00     0.011 C 
HETATM   22  C28 UNL     1      -4.354  49.661 -24.259  1.00  0.00    -0.029 C 
HETATM   23  C29 UNL     1      -4.698  51.080 -24.730  1.00  0.00     0.016 C 
ENDROOT
BRANCH   1  24
HETATM   24  C6  UNL     1      -2.191  50.662 -22.783  1.00  0.00    -0.014 C 
HETATM   25  C7  UNL     1      -2.657  52.053 -23.228  1.00  0.00     0.010 C 
BRANCH  24  26
HETATM   26  C5  UNL     1      -1.718  50.641 -21.306  1.00  0.00     0.008 C 
BRANCH  26  27
HETATM   27  C4  UNL     1      -0.219  50.520 -21.022  1.00  0.00     0.028 C 
BRANCH  27  28
HETATM   28  C3  UNL     1       0.391  51.875 -20.773  1.00  0.00    -0.013 C 
HETATM   29  C2  UNL     1       0.858  52.748 -21.688  1.00  0.00     0.008 C 
HETATM   30  C1  UNL     1       0.918  52.522 -23.168  1.00  0.00     0.055 C 
BRANCH  29  31
HETATM   31  C30 UNL     1       1.368  54.043 -21.164  1.00  0.00     0.171 C 
HETATM   32  O2  UNL     1       1.774  54.987 -21.818  1.00  0.00    -0.646 OA
BRANCH  31  33
HETATM   33  O3  UNL     1       1.355  54.089 -19.820  1.00  0.00    -0.773 OA
HETATM   34  H46 UNL     1       1.717  54.978 -19.622  1.00  0.00     0.167 HD
ENDBRANCH  31  33
ENDBRANCH  29  31
ENDBRANCH  27  28
ENDBRANCH  26  27
ENDBRANCH  24  26
ENDBRANCH   1  24
TORSDOF 6
ENDMDL
MODEL 7
REMARK minimizedAffinity -8.83921719
REMARK  6 active torsions:
REMARK  status: ('A' for Active; 'I' for Inactive)
REMARK    1  A    between atoms: C2_2  and  C30_31 
REMARK    2  A    between atoms: C3_3  and  C4_4 
REMARK    3  A    between atoms: C4_4  and  C5_5 
REMARK    4  A    between atoms: C5_5  and  C6_6 
REMARK    5  A    between atoms: C6_6  and  C8_8 
REMARK    6  A    between atoms: C30_31  and  O3_33 
ROOT
HETATM    1  C8  UNL     1      -1.991  52.036 -21.902  1.00  0.00    -0.002 C 
HETATM    2  C9  UNL     1      -2.881  52.403 -23.119  1.00  0.00     0.007 C 
HETATM    3  C10 UNL     1      -4.023  51.385 -23.157  1.00  0.00     0.015 C 
HETATM    4  C11 UNL     1      -3.414  50.089 -22.573  1.00  0.00    -0.013 C 
HETATM    5  C12 UNL     1      -2.521  49.471 -23.685  1.00  0.00     0.021 C 
HETATM    6  C13 UNL     1      -4.476  49.077 -22.074  1.00  0.00    -0.070 C 
HETATM    7  C14 UNL     1      -4.537  47.792 -22.474  1.00  0.00    -0.022 C 
HETATM    8  C15 UNL     1      -5.453  46.750 -21.915  1.00  0.00     0.034 C 
HETATM    9  C16 UNL     1      -6.173  47.128 -20.594  1.00  0.00     0.013 C 
HETATM   10  C17 UNL     1      -7.325  46.116 -20.235  1.00  0.00     0.018 C 
HETATM   11  C18 UNL     1      -7.417  45.920 -18.703  1.00  0.00     0.023 C 
HETATM   12  C19 UNL     1      -7.120  44.703 -20.826  1.00  0.00     0.023 C 
HETATM   13  C20 UNL     1      -8.677  46.626 -20.753  1.00  0.00     0.135 C 
HETATM   14  O1  UNL     1      -9.745  46.186 -20.315  1.00  0.00    -0.297 OA
HETATM   15  C21 UNL     1      -8.682  47.595 -21.915  1.00  0.00     0.080 C 
HETATM   16  C22 UNL     1      -7.696  48.757 -21.793  1.00  0.00     0.017 C 
HETATM   17  C23 UNL     1      -6.638  48.618 -20.658  1.00  0.00    -0.031 C 
HETATM   18  C24 UNL     1      -7.311  49.106 -19.351  1.00  0.00     0.016 C 
HETATM   19  C25 UNL     1      -5.410  49.570 -20.974  1.00  0.00     0.024 C 
HETATM   20  C26 UNL     1      -4.501  49.900 -19.776  1.00  0.00     0.010 C 
HETATM   21  C27 UNL     1      -3.498  50.996 -20.153  1.00  0.00     0.011 C 
HETATM   22  C28 UNL     1      -2.556  50.654 -21.370  1.00  0.00    -0.029 C 
HETATM   23  C29 UNL     1      -1.533  49.641 -20.841  1.00  0.00     0.016 C 
ENDROOT
BRANCH   1  24
HETATM   24  C6  UNL     1      -0.479  52.393 -22.093  1.00  0.00    -0.014 C 
HETATM   25  C7  UNL     1       0.400  52.001 -20.900  1.00  0.00     0.010 C 
BRANCH  24  26
HETATM   26  C5  UNL     1       0.229  52.156 -23.453  1.00  0.00     0.008 C 
BRANCH  26  27
HETATM   27  C4  UNL     1       0.774  53.368 -24.212  1.00  0.00     0.028 C 
BRANCH  27  28
HETATM   28  C3  UNL     1       0.016  53.584 -25.496  1.00  0.00    -0.013 C 
HETATM   29  C2  UNL     1       0.129  52.887 -26.644  1.00  0.00     0.008 C 
HETATM   30  C1  UNL     1       1.091  51.768 -26.903  1.00  0.00     0.055 C 
BRANCH  29  31
HETATM   31  C30 UNL     1      -0.782  53.286 -27.750  1.00  0.00     0.171 C 
HETATM   32  O2  UNL     1      -1.976  53.512 -27.668  1.00  0.00    -0.646 OA
BRANCH  31  33
HETATM   33  O3  UNL     1      -0.143  53.373 -28.930  1.00  0.00    -0.773 OA
HETATM   34  H46 UNL     1      -0.854  53.632 -29.552  1.00  0.00     0.167 HD
ENDBRANCH  31  33
ENDBRANCH  29  31
ENDBRANCH  27  28
ENDBRANCH  26  27
ENDBRANCH  24  26
ENDBRANCH   1  24
TORSDOF 6
ENDMDL
MODEL 8
REMARK minimizedAffinity -8.83774757
REMARK  6 active torsions:
REMARK  status: ('A' for Active; 'I' for Inactive)
REMARK    1  A    between atoms: C2_2  and  C30_31 
REMARK    2  A    between atoms: C3_3  and  C4_4 
REMARK    3  A    between atoms: C4_4  and  C5_5 
REMARK    4  A    between atoms: C5_5  and  C6_6 
REMARK    5  A    between atoms: C6_6  and  C8_8 
REMARK    6  A    between atoms: C30_31  and  O3_33 
ROOT
HETATM    1  C8  UNL     1      -3.133  50.830 -21.722  1.00  0.00    -0.002 C 
HETATM    2  C9  UNL     1      -3.886  52.052 -22.311  1.00  0.00     0.007 C 
HETATM    3  C10 UNL     1      -4.965  51.500 -23.245  1.00  0.00     0.015 C 
HETATM    4  C11 UNL     1      -4.370  50.184 -23.799  1.00  0.00    -0.013 C 
HETATM    5  C12 UNL     1      -3.321  50.584 -24.875  1.00  0.00     0.021 C 
HETATM    6  C13 UNL     1      -5.435  49.220 -24.380  1.00  0.00    -0.070 C 
HETATM    7  C14 UNL     1      -5.386  48.707 -25.624  1.00  0.00    -0.022 C 
HETATM    8  C15 UNL     1      -6.312  47.668 -26.172  1.00  0.00     0.034 C 
HETATM    9  C16 UNL     1      -7.203  46.943 -25.129  1.00  0.00     0.013 C 
HETATM   10  C17 UNL     1      -8.340  46.092 -25.808  1.00  0.00     0.018 C 
HETATM   11  C18 UNL     1      -8.607  44.800 -24.999  1.00  0.00     0.023 C 
HETATM   12  C19 UNL     1      -7.999  45.625 -27.241  1.00  0.00     0.023 C 
HETATM   13  C20 UNL     1      -9.643  46.899 -25.898  1.00  0.00     0.135 C 
HETATM   14  O1  UNL     1     -10.733  46.348 -26.080  1.00  0.00    -0.297 OA
HETATM   15  C21 UNL     1      -9.554  48.409 -25.891  1.00  0.00     0.080 C 
HETATM   16  C22 UNL     1      -8.646  49.000 -24.812  1.00  0.00     0.017 C 
HETATM   17  C23 UNL     1      -7.727  47.977 -24.081  1.00  0.00    -0.031 C 
HETATM   18  C24 UNL     1      -8.574  47.330 -22.957  1.00  0.00     0.016 C 
HETATM   19  C25 UNL     1      -6.516  48.752 -23.412  1.00  0.00     0.024 C 
HETATM   20  C26 UNL     1      -5.775  47.991 -22.298  1.00  0.00     0.010 C 
HETATM   21  C27 UNL     1      -4.788  48.920 -21.583  1.00  0.00     0.011 C 
HETATM   22  C28 UNL     1      -3.691  49.572 -22.508  1.00  0.00    -0.029 C 
HETATM   23  C29 UNL     1      -2.691  48.455 -22.833  1.00  0.00     0.016 C 
ENDROOT
BRANCH   1  24
HETATM   24  C6  UNL     1      -1.627  51.112 -21.397  1.00  0.00    -0.014 C 
HETATM   25  C7  UNL     1      -0.797  49.841 -21.186  1.00  0.00     0.010 C 
BRANCH  24  26
HETATM   26  C5  UNL     1      -0.842  52.212 -22.158  1.00  0.00     0.008 C 
BRANCH  26  27
HETATM   27  C4  UNL     1      -0.092  51.822 -23.434  1.00  0.00     0.028 C 
BRANCH  27  28
HETATM   28  C3  UNL     1      -0.242  52.885 -24.492  1.00  0.00    -0.013 C 
HETATM   29  C2  UNL     1       0.231  52.861 -25.754  1.00  0.00     0.008 C 
HETATM   30  C1  UNL     1       1.069  51.776 -26.359  1.00  0.00     0.055 C 
BRANCH  29  31
HETATM   31  C30 UNL     1      -0.106  54.033 -26.606  1.00  0.00     0.171 C 
HETATM   32  O2  UNL     1      -0.653  54.011 -27.695  1.00  0.00    -0.646 OA
BRANCH  31  33
HETATM   33  O3  UNL     1       0.277  55.195 -26.048  1.00  0.00    -0.773 OA
HETATM   34  H46 UNL     1       0.003  55.863 -26.711  1.00  0.00     0.167 HD
ENDBRANCH  31  33
ENDBRANCH  29  31
ENDBRANCH  27  28
ENDBRANCH  26  27
ENDBRANCH  24  26
ENDBRANCH   1  24
TORSDOF 6
ENDMDL
MODEL 9
REMARK minimizedAffinity -8.81496716
REMARK  6 active torsions:
REMARK  status: ('A' for Active; 'I' for Inactive)
REMARK    1  A    between atoms: C2_2  and  C30_31 
REMARK    2  A    between atoms: C3_3  and  C4_4 
REMARK    3  A    between atoms: C4_4  and  C5_5 
REMARK    4  A    between atoms: C5_5  and  C6_6 
REMARK    5  A    between atoms: C6_6  and  C8_8 
REMARK    6  A    between atoms: C30_31  and  O3_33 
ROOT
HETATM    1  C8  UNL     1      -3.128  49.270 -23.034  1.00  0.00    -0.002 C 
HETATM    2  C9  UNL     1      -3.523  48.135 -22.053  1.00  0.00     0.007 C 
HETATM    3  C10 UNL     1      -4.880  47.600 -22.515  1.00  0.00     0.015 C 
HETATM    4  C11 UNL     1      -5.587  48.820 -23.152  1.00  0.00    -0.013 C 
HETATM    5  C12 UNL     1      -6.083  49.712 -21.980  1.00  0.00     0.021 C 
HETATM    6  C13 UNL     1      -6.751  48.434 -24.100  1.00  0.00    -0.070 C 
HETATM    7  C14 UNL     1      -8.005  48.910 -23.983  1.00  0.00    -0.022 C 
HETATM    8  C15 UNL     1      -9.117  48.675 -24.955  1.00  0.00     0.034 C 
HETATM    9  C16 UNL     1      -8.699  48.076 -26.324  1.00  0.00     0.013 C 
HETATM   10  C17 UNL     1      -9.939  47.590 -27.164  1.00  0.00     0.018 C 
HETATM   11  C18 UNL     1      -9.703  47.836 -28.672  1.00  0.00     0.023 C 
HETATM   12  C19 UNL     1     -11.253  48.329 -26.820  1.00  0.00     0.023 C 
HETATM   13  C20 UNL     1     -10.195  46.093 -26.938  1.00  0.00     0.135 C 
HETATM   14  O1  UNL     1     -10.883  45.430 -27.721  1.00  0.00    -0.297 OA
HETATM   15  C21 UNL     1      -9.694  45.464 -25.657  1.00  0.00     0.080 C 
HETATM   16  C22 UNL     1      -8.251  45.809 -25.287  1.00  0.00     0.017 C 
HETATM   17  C23 UNL     1      -7.614  46.974 -26.102  1.00  0.00    -0.031 C 
HETATM   18  C24 UNL     1      -7.085  46.363 -27.424  1.00  0.00     0.016 C 
HETATM   19  C25 UNL     1      -6.383  47.561 -25.295  1.00  0.00     0.024 C 
HETATM   20  C26 UNL     1      -5.381  48.388 -26.120  1.00  0.00     0.010 C 
HETATM   21  C27 UNL     1      -4.134  48.702 -25.287  1.00  0.00     0.011 C 
HETATM   22  C28 UNL     1      -4.401  49.495 -23.951  1.00  0.00    -0.029 C 
HETATM   23  C29 UNL     1      -4.711  50.938 -24.371  1.00  0.00     0.016 C 
ENDROOT
BRANCH   1  24
HETATM   24  C6  UNL     1      -2.261  50.399 -22.381  1.00  0.00    -0.014 C 
HETATM   25  C7  UNL     1      -1.046  49.870 -21.610  1.00  0.00     0.010 C 
BRANCH  24  26
HETATM   26  C5  UNL     1      -1.950  51.709 -23.151  1.00  0.00     0.008 C 
BRANCH  26  27
HETATM   27  C4  UNL     1      -0.530  51.924 -23.680  1.00  0.00     0.028 C 
BRANCH  27  28
HETATM   28  C3  UNL     1      -0.529  52.888 -24.839  1.00  0.00    -0.013 C 
HETATM   29  C2  UNL     1       0.226  52.831 -25.954  1.00  0.00     0.008 C 
HETATM   30  C1  UNL     1       1.280  51.808 -26.252  1.00  0.00     0.055 C 
BRANCH  29  31
HETATM   31  C30 UNL     1      -0.012  53.895 -26.965  1.00  0.00     0.171 C 
HETATM   32  O2  UNL     1      -0.388  53.742 -28.114  1.00  0.00    -0.646 OA
BRANCH  31  33
HETATM   33  O3  UNL     1       0.250  55.124 -26.483  1.00  0.00    -0.773 OA
HETATM   34  H46 UNL     1       0.060  55.709 -27.245  1.00  0.00     0.167 HD
ENDBRANCH  31  33
ENDBRANCH  29  31
ENDBRANCH  27  28
ENDBRANCH  26  27
ENDBRANCH  24  26
ENDBRANCH   1  24
TORSDOF 6
ENDMDL
