MODEL 1
REMARK minimizedAffinity -9.01530361
REMARK  9 active torsions:
REMARK  status: ('A' for Active; 'I' for Inactive)
REMARK    1  A    between atoms: C2_2  and  C3_3 
REMARK    2  A    between atoms: C2_2  and  C9_12 
REMARK    3  A    between atoms: C3_3  and  C4_4 
REMARK    4  A    between atoms: C4_4  and  C5_5 
REMARK    5  A    between atoms: C5_5  and  O1_6 
REMARK    6  A    between atoms: C5_5  and  C6_7 
REMARK    7  A    between atoms: C6_7  and  O2_9 
REMARK    8  A    between atoms: C6_7  and  C8_10 
REMARK    9  A    between atoms: C8_10  and  O3_11 
ROOT
HETATM    1  C9  UNL     1      -5.675   5.814  13.931  1.00  0.00    -0.002 C 
HETATM    2  C10 UNL     1      -5.363   7.257  13.481  1.00  0.00     0.007 C 
HETATM    3  C11 UNL     1      -6.506   8.155  13.941  1.00  0.00     0.015 C 
HETATM    4  C12 UNL     1      -7.443   7.294  14.815  1.00  0.00    -0.005 C 
HETATM    5  C13 UNL     1      -6.983   7.369  16.298  1.00  0.00     0.021 C 
HETATM    6  C14 UNL     1      -8.897   7.786  14.684  1.00  0.00    -0.000 C 
HETATM    7  C15 UNL     1      -9.870   7.125  14.008  1.00  0.00    -0.060 C 
HETATM    8  C16 UNL     1      -9.541   5.880  13.205  1.00  0.00     0.036 C 
HETATM    9  C17 UNL     1      -8.051   5.675  12.945  1.00  0.00     0.015 C 
HETATM   10  C18 UNL     1      -7.215   5.837  14.232  1.00  0.00    -0.028 C 
HETATM   11  C19 UNL     1      -7.621   4.747  15.252  1.00  0.00     0.016 C 
HETATM   12  C20 UNL     1     -11.346   7.602  13.961  1.00  0.00    -0.014 C 
HETATM   13  C21 UNL     1     -11.484   8.447  12.675  1.00  0.00     0.020 C 
HETATM   14  C22 UNL     1     -12.329   6.401  13.903  1.00  0.00     0.021 C 
HETATM   15  C23 UNL     1     -13.790   6.803  14.015  1.00  0.00     0.080 C 
HETATM   16  C24 UNL     1     -14.036   7.550  15.300  1.00  0.00     0.135 C 
HETATM   17  O4  UNL     1     -14.992   7.244  16.014  1.00  0.00    -0.297 OA
HETATM   18  C25 UNL     1     -13.127   8.750  15.608  1.00  0.00     0.018 C 
HETATM   19  C26 UNL     1     -13.262   9.064  17.121  1.00  0.00     0.023 C 
HETATM   20  C27 UNL     1     -13.676   9.966  14.847  1.00  0.00     0.023 C 
HETATM   21  C28 UNL     1     -11.636   8.375  15.292  1.00  0.00     0.020 C 
HETATM   22  C29 UNL     1     -10.670   9.553  15.427  1.00  0.00     0.090 C 
HETATM   23  C30 UNL     1      -9.228   9.134  15.273  1.00  0.00     0.157 C 
HETATM   24  O5  UNL     1      -8.338   9.926  15.581  1.00  0.00    -0.293 OA
ENDROOT
BRANCH   1  25
HETATM   25  C2  UNL     1      -5.093   4.761  12.931  1.00  0.00    -0.014 C 
HETATM   26  C1  UNL     1      -5.966   3.505  12.825  1.00  0.00     0.010 C 
BRANCH  25  27
HETATM   27  C3  UNL     1      -3.646   4.368  13.348  1.00  0.00     0.007 C 
BRANCH  27  28
HETATM   28  C4  UNL     1      -2.574   5.389  12.937  1.00  0.00     0.035 C 
BRANCH  28  29
HETATM   29  C5  UNL     1      -1.908   6.149  14.102  1.00  0.00     0.154 C 
BRANCH  29  30
HETATM   30  O1  UNL     1      -2.221   5.443  15.314  1.00  0.00    -0.392 OA
HETATM   31  H10 UNL     1      -1.848   5.979  16.048  1.00  0.00     0.210 HD
ENDBRANCH  29  30
BRANCH  29  32
HETATM   32  C6  UNL     1      -0.365   6.354  14.019  1.00  0.00     0.101 C 
HETATM   33  C7  UNL     1       0.101   6.828  12.644  1.00  0.00     0.051 C 
BRANCH  32  34
HETATM   34  O2  UNL     1       0.298   5.112  14.319  1.00  0.00    -0.385 OA
HETATM   35  H14 UNL     1      -0.333   4.605  14.870  1.00  0.00     0.210 HD
ENDBRANCH  32  34
BRANCH  32  36
HETATM   36  C8  UNL     1       0.101   7.368  15.089  1.00  0.00     0.204 C 
BRANCH  36  37
HETATM   37  O3  UNL     1       0.351   6.703  16.332  1.00  0.00    -0.398 OA
HETATM   38  H17 UNL     1       1.171   6.192  16.184  1.00  0.00     0.209 HD
ENDBRANCH  36  37
ENDBRANCH  32  36
ENDBRANCH  29  32
ENDBRANCH  28  29
ENDBRANCH  27  28
ENDBRANCH  25  27
ENDBRANCH   1  25
TORSDOF 9
ENDMDL
MODEL 2
REMARK minimizedAffinity -8.89091873
REMARK  9 active torsions:
REMARK  status: ('A' for Active; 'I' for Inactive)
REMARK    1  A    between atoms: C2_2  and  C3_3 
REMARK    2  A    between atoms: C2_2  and  C9_12 
REMARK    3  A    between atoms: C3_3  and  C4_4 
REMARK    4  A    between atoms: C4_4  and  C5_5 
REMARK    5  A    between atoms: C5_5  and  O1_6 
REMARK    6  A    between atoms: C5_5  and  C6_7 
REMARK    7  A    between atoms: C6_7  and  O2_9 
REMARK    8  A    between atoms: C6_7  and  C8_10 
REMARK    9  A    between atoms: C8_10  and  O3_11 
ROOT
HETATM    1  C9  UNL     1      -2.176   9.506  15.725  1.00  0.00    -0.002 C 
HETATM    2  C10 UNL     1      -1.903   8.075  16.238  1.00  0.00     0.007 C 
HETATM    3  C11 UNL     1      -0.732   7.503  15.447  1.00  0.00     0.015 C 
HETATM    4  C12 UNL     1      -0.180   8.638  14.560  1.00  0.00    -0.005 C 
HETATM    5  C13 UNL     1       0.918   9.418  15.337  1.00  0.00     0.021 C 
HETATM    6  C14 UNL     1       0.402   8.061  13.255  1.00  0.00    -0.000 C 
HETATM    7  C15 UNL     1      -0.184   8.179  12.037  1.00  0.00    -0.060 C 
HETATM    8  C16 UNL     1      -1.564   8.800  11.904  1.00  0.00     0.036 C 
HETATM    9  C17 UNL     1      -2.327   8.925  13.220  1.00  0.00     0.015 C 
HETATM   10  C18 UNL     1      -1.457   9.550  14.331  1.00  0.00    -0.028 C 
HETATM   11  C19 UNL     1      -1.063  10.991  13.930  1.00  0.00     0.016 C 
HETATM   12  C20 UNL     1       0.464   7.658  10.727  1.00  0.00    -0.014 C 
HETATM   13  C21 UNL     1      -0.106   6.241  10.500  1.00  0.00     0.020 C 
HETATM   14  C22 UNL     1       0.105   8.565   9.518  1.00  0.00     0.021 C 
HETATM   15  C23 UNL     1       0.840   8.195   8.241  1.00  0.00     0.080 C 
HETATM   16  C24 UNL     1       2.331   8.259   8.450  1.00  0.00     0.135 C 
HETATM   17  O4  UNL     1       3.041   8.842   7.630  1.00  0.00    -0.297 OA
HETATM   18  C25 UNL     1       2.913   7.485   9.643  1.00  0.00     0.018 C 
HETATM   19  C26 UNL     1       4.335   8.043   9.915  1.00  0.00     0.023 C 
HETATM   20  C27 UNL     1       3.080   6.019   9.221  1.00  0.00     0.023 C 
HETATM   21  C28 UNL     1       2.019   7.723  10.911  1.00  0.00     0.020 C 
HETATM   22  C29 UNL     1       2.432   6.877  12.116  1.00  0.00     0.090 C 
HETATM   23  C30 UNL     1       1.660   7.237  13.363  1.00  0.00     0.157 C 
HETATM   24  O5  UNL     1       2.042   6.803  14.449  1.00  0.00    -0.293 OA
ENDROOT
BRANCH   1  25
HETATM   25  C2  UNL     1      -3.693   9.874  15.831  1.00  0.00    -0.014 C 
HETATM   26  C1  UNL     1      -4.019  10.662  17.105  1.00  0.00     0.010 C 
BRANCH  25  27
HETATM   27  C3  UNL     1      -4.564   8.585  15.767  1.00  0.00     0.007 C 
BRANCH  27  28
HETATM   28  C4  UNL     1      -5.550   8.551  14.589  1.00  0.00     0.035 C 
BRANCH  28  29
HETATM   29  C5  UNL     1      -6.121   7.161  14.248  1.00  0.00     0.154 C 
BRANCH  29  30
HETATM   30  O1  UNL     1      -5.125   6.186  14.602  1.00  0.00    -0.392 OA
HETATM   31  H10 UNL     1      -5.479   5.316  14.313  1.00  0.00     0.210 HD
ENDBRANCH  29  30
BRANCH  29  32
HETATM   32  C6  UNL     1      -7.474   6.770  14.917  1.00  0.00     0.101 C 
HETATM   33  C7  UNL     1      -8.438   6.080  13.955  1.00  0.00     0.051 C 
BRANCH  32  34
HETATM   34  O2  UNL     1      -8.112   7.955  15.428  1.00  0.00    -0.385 OA
HETATM   35  H14 UNL     1      -7.388   8.595  15.586  1.00  0.00     0.210 HD
ENDBRANCH  32  34
BRANCH  32  36
HETATM   36  C8  UNL     1      -7.225   5.848  16.133  1.00  0.00     0.204 C 
BRANCH  36  37
HETATM   37  O3  UNL     1      -7.926   4.611  15.974  1.00  0.00    -0.398 OA
HETATM   38  H17 UNL     1      -7.441   4.134  15.271  1.00  0.00     0.209 HD
ENDBRANCH  36  37
ENDBRANCH  32  36
ENDBRANCH  29  32
ENDBRANCH  28  29
ENDBRANCH  27  28
ENDBRANCH  25  27
ENDBRANCH   1  25
TORSDOF 9
ENDMDL
MODEL 3
REMARK minimizedAffinity -8.83060646
REMARK  9 active torsions:
REMARK  status: ('A' for Active; 'I' for Inactive)
REMARK    1  A    between atoms: C2_2  and  C3_3 
REMARK    2  A    between atoms: C2_2  and  C9_12 
REMARK    3  A    between atoms: C3_3  and  C4_4 
REMARK    4  A    between atoms: C4_4  and  C5_5 
REMARK    5  A    between atoms: C5_5  and  O1_6 
REMARK    6  A    between atoms: C5_5  and  C6_7 
REMARK    7  A    between atoms: C6_7  and  O2_9 
REMARK    8  A    between atoms: C6_7  and  C8_10 
REMARK    9  A    between atoms: C8_10  and  O3_11 
ROOT
HETATM    1  C9  UNL     1      -9.318   6.426  14.328  1.00  0.00    -0.002 C 
HETATM    2  C10 UNL     1      -9.170   6.113  12.823  1.00  0.00     0.007 C 
HETATM    3  C11 UNL     1      -7.706   5.791  12.547  1.00  0.00     0.015 C 
HETATM    4  C12 UNL     1      -6.981   5.748  13.909  1.00  0.00    -0.005 C 
HETATM    5  C13 UNL     1      -7.037   4.304  14.481  1.00  0.00     0.021 C 
HETATM    6  C14 UNL     1      -5.516   6.199  13.749  1.00  0.00    -0.000 C 
HETATM    7  C15 UNL     1      -5.031   7.390  14.182  1.00  0.00    -0.060 C 
HETATM    8  C16 UNL     1      -5.965   8.439  14.758  1.00  0.00     0.036 C 
HETATM    9  C17 UNL     1      -7.444   8.187  14.475  1.00  0.00     0.015 C 
HETATM   10  C18 UNL     1      -7.852   6.734  14.794  1.00  0.00    -0.028 C 
HETATM   11  C19 UNL     1      -7.657   6.463  16.305  1.00  0.00     0.016 C 
HETATM   12  C20 UNL     1      -3.534   7.785  14.081  1.00  0.00    -0.014 C 
HETATM   13  C21 UNL     1      -3.387   8.578  12.763  1.00  0.00     0.020 C 
HETATM   14  C22 UNL     1      -3.101   8.676  15.277  1.00  0.00     0.021 C 
HETATM   15  C23 UNL     1      -1.609   8.962  15.314  1.00  0.00     0.080 C 
HETATM   16  C24 UNL     1      -0.825   7.676  15.378  1.00  0.00     0.135 C 
HETATM   17  O4  UNL     1       0.086   7.553  16.198  1.00  0.00    -0.297 OA
HETATM   18  C25 UNL     1      -1.136   6.603  14.323  1.00  0.00     0.018 C 
HETATM   19  C26 UNL     1      -0.562   5.258  14.839  1.00  0.00     0.023 C 
HETATM   20  C27 UNL     1      -0.365   6.959  13.044  1.00  0.00     0.023 C 
HETATM   21  C28 UNL     1      -2.691   6.466  14.155  1.00  0.00     0.020 C 
HETATM   22  C29 UNL     1      -3.100   5.526  13.021  1.00  0.00     0.090 C 
HETATM   23  C30 UNL     1      -4.591   5.290  12.981  1.00  0.00     0.157 C 
HETATM   24  O5  UNL     1      -5.035   4.386  12.273  1.00  0.00    -0.293 OA
ENDROOT
BRANCH   1  25
HETATM   25  C2  UNL     1     -10.453   7.470  14.588  1.00  0.00    -0.014 C 
HETATM   26  C1  UNL     1     -10.335   8.135  15.965  1.00  0.00     0.010 C 
BRANCH  25  27
HETATM   27  C3  UNL     1     -11.848   6.793  14.444  1.00  0.00     0.007 C 
BRANCH  27  28
HETATM   28  C4  UNL     1     -13.019   7.783  14.340  1.00  0.00     0.035 C 
BRANCH  28  29
HETATM   29  C5  UNL     1     -13.345   8.269  12.915  1.00  0.00     0.154 C 
BRANCH  29  30
HETATM   30  O1  UNL     1     -14.668   7.807  12.592  1.00  0.00    -0.392 OA
HETATM   31  H10 UNL     1     -14.829   8.066  11.658  1.00  0.00     0.210 HD
ENDBRANCH  29  30
BRANCH  29  32
HETATM   32  C6  UNL     1     -13.268   9.805  12.658  1.00  0.00     0.101 C 
HETATM   33  C7  UNL     1     -14.635  10.437  12.403  1.00  0.00     0.051 C 
BRANCH  32  34
HETATM   34  O2  UNL     1     -12.431  10.056  11.515  1.00  0.00    -0.385 OA
HETATM   35  H14 UNL     1     -11.831   9.284  11.455  1.00  0.00     0.210 HD
ENDBRANCH  32  34
BRANCH  32  36
HETATM   36  C8  UNL     1     -12.597  10.517  13.856  1.00  0.00     0.204 C 
BRANCH  36  37
HETATM   37  O3  UNL     1     -11.220  10.784  13.570  1.00  0.00    -0.398 OA
HETATM   38  H17 UNL     1     -11.235  11.501  12.906  1.00  0.00     0.209 HD
ENDBRANCH  36  37
ENDBRANCH  32  36
ENDBRANCH  29  32
ENDBRANCH  28  29
ENDBRANCH  27  28
ENDBRANCH  25  27
ENDBRANCH   1  25
TORSDOF 9
ENDMDL
MODEL 4
REMARK minimizedAffinity -8.70025253
REMARK  9 active torsions:
REMARK  status: ('A' for Active; 'I' for Inactive)
REMARK    1  A    between atoms: C2_2  and  C3_3 
REMARK    2  A    between atoms: C2_2  and  C9_12 
REMARK    3  A    between atoms: C3_3  and  C4_4 
REMARK    4  A    between atoms: C4_4  and  C5_5 
REMARK    5  A    between atoms: C5_5  and  O1_6 
REMARK    6  A    between atoms: C5_5  and  C6_7 
REMARK    7  A    between atoms: C6_7  and  O2_9 
REMARK    8  A    between atoms: C6_7  and  C8_10 
REMARK    9  A    between atoms: C8_10  and  O3_11 
ROOT
HETATM    1  C9  UNL     1      -2.912   7.389  13.997  1.00  0.00    -0.002 C 
HETATM    2  C10 UNL     1      -2.340   6.274  14.899  1.00  0.00     0.007 C 
HETATM    3  C11 UNL     1      -0.820   6.405  14.909  1.00  0.00     0.015 C 
HETATM    4  C12 UNL     1      -0.466   7.698  14.144  1.00  0.00    -0.005 C 
HETATM    5  C13 UNL     1      -0.429   8.894  15.137  1.00  0.00     0.021 C 
HETATM    6  C14 UNL     1       0.897   7.547  13.442  1.00  0.00    -0.000 C 
HETATM    7  C15 UNL     1       1.056   7.400  12.103  1.00  0.00    -0.060 C 
HETATM    8  C16 UNL     1      -0.152   7.242  11.197  1.00  0.00     0.036 C 
HETATM    9  C17 UNL     1      -1.450   6.912  11.930  1.00  0.00     0.015 C 
HETATM   10  C18 UNL     1      -1.682   7.846  13.137  1.00  0.00    -0.028 C 
HETATM   11  C19 UNL     1      -1.834   9.303  12.640  1.00  0.00     0.016 C 
HETATM   12  C20 UNL     1       2.445   7.332  11.414  1.00  0.00    -0.014 C 
HETATM   13  C21 UNL     1       2.788   5.831  11.288  1.00  0.00     0.020 C 
HETATM   14  C22 UNL     1       2.410   7.980  10.003  1.00  0.00     0.021 C 
HETATM   15  C23 UNL     1       3.776   8.084   9.347  1.00  0.00     0.080 C 
HETATM   16  C24 UNL     1       4.717   8.885  10.209  1.00  0.00     0.135 C 
HETATM   17  O4  UNL     1       5.399   9.779   9.706  1.00  0.00    -0.297 OA
HETATM   18  C25 UNL     1       4.863   8.466  11.680  1.00  0.00     0.018 C 
HETATM   19  C26 UNL     1       5.500   9.654  12.446  1.00  0.00     0.023 C 
HETATM   20  C27 UNL     1       5.863   7.303  11.744  1.00  0.00     0.023 C 
HETATM   21  C28 UNL     1       3.445   8.167  12.284  1.00  0.00     0.020 C 
HETATM   22  C29 UNL     1       3.495   7.600  13.703  1.00  0.00     0.090 C 
HETATM   23  C30 UNL     1       2.122   7.469  14.318  1.00  0.00     0.157 C 
HETATM   24  O5  UNL     1       2.025   7.245  15.524  1.00  0.00    -0.293 OA
ENDROOT
BRANCH   1  25
HETATM   25  C2  UNL     1      -4.231   6.934  13.289  1.00  0.00    -0.014 C 
HETATM   26  C1  UNL     1      -5.249   8.073  13.157  1.00  0.00     0.010 C 
BRANCH  25  27
HETATM   27  C3  UNL     1      -4.868   5.740  14.058  1.00  0.00     0.007 C 
BRANCH  27  28
HETATM   28  C4  UNL     1      -5.074   4.480  13.202  1.00  0.00     0.035 C 
BRANCH  28  29
HETATM   29  C5  UNL     1      -6.446   4.372  12.510  1.00  0.00     0.154 C 
BRANCH  29  30
HETATM   30  O1  UNL     1      -6.431   3.184  11.701  1.00  0.00    -0.392 OA
HETATM   31  H10 UNL     1      -7.286   3.171  11.217  1.00  0.00     0.210 HD
ENDBRANCH  29  30
BRANCH  29  32
HETATM   32  C6  UNL     1      -7.701   4.340  13.435  1.00  0.00     0.101 C 
HETATM   33  C7  UNL     1      -7.364   4.012  14.887  1.00  0.00     0.051 C 
BRANCH  32  34
HETATM   34  O2  UNL     1      -8.626   3.350  12.948  1.00  0.00    -0.385 OA
HETATM   35  H14 UNL     1      -8.432   3.257  11.993  1.00  0.00     0.210 HD
ENDBRANCH  32  34
BRANCH  32  36
HETATM   36  C8  UNL     1      -8.444   5.695  13.380  1.00  0.00     0.204 C 
BRANCH  36  37
HETATM   37  O3  UNL     1      -8.945   6.043  14.675  1.00  0.00    -0.398 OA
HETATM   38  H17 UNL     1      -8.153   6.280  15.197  1.00  0.00     0.209 HD
ENDBRANCH  36  37
ENDBRANCH  32  36
ENDBRANCH  29  32
ENDBRANCH  28  29
ENDBRANCH  27  28
ENDBRANCH  25  27
ENDBRANCH   1  25
TORSDOF 9
ENDMDL
MODEL 5
REMARK minimizedAffinity -8.66294956
REMARK  9 active torsions:
REMARK  status: ('A' for Active; 'I' for Inactive)
REMARK    1  A    between atoms: C2_2  and  C3_3 
REMARK    2  A    between atoms: C2_2  and  C9_12 
REMARK    3  A    between atoms: C3_3  and  C4_4 
REMARK    4  A    between atoms: C4_4  and  C5_5 
REMARK    5  A    between atoms: C5_5  and  O1_6 
REMARK    6  A    between atoms: C5_5  and  C6_7 
REMARK    7  A    between atoms: C6_7  and  O2_9 
REMARK    8  A    between atoms: C6_7  and  C8_10 
REMARK    9  A    between atoms: C8_10  and  O3_11 
ROOT
HETATM    1  C9  UNL     1      -2.738   7.355  13.605  1.00  0.00    -0.002 C 
HETATM    2  C10 UNL     1      -2.819   8.569  12.655  1.00  0.00     0.007 C 
HETATM    3  C11 UNL     1      -1.443   8.775  12.031  1.00  0.00     0.015 C 
HETATM    4  C12 UNL     1      -0.557   7.591  12.471  1.00  0.00    -0.005 C 
HETATM    5  C13 UNL     1      -0.688   6.434  11.442  1.00  0.00     0.021 C 
HETATM    6  C14 UNL     1       0.913   8.037  12.585  1.00  0.00    -0.000 C 
HETATM    7  C15 UNL     1       1.571   8.214  13.758  1.00  0.00    -0.060 C 
HETATM    8  C16 UNL     1       0.832   8.102  15.080  1.00  0.00     0.036 C 
HETATM    9  C17 UNL     1      -0.689   8.139  14.955  1.00  0.00     0.015 C 
HETATM   10  C18 UNL     1      -1.200   7.178  13.861  1.00  0.00    -0.028 C 
HETATM   11  C19 UNL     1      -0.841   5.723  14.243  1.00  0.00     0.016 C 
HETATM   12  C20 UNL     1       3.075   8.585  13.843  1.00  0.00    -0.014 C 
HETATM   13  C21 UNL     1       3.132  10.125  13.957  1.00  0.00     0.020 C 
HETATM   14  C22 UNL     1       3.748   7.944  15.087  1.00  0.00     0.021 C 
HETATM   15  C23 UNL     1       5.254   8.143  15.134  1.00  0.00     0.080 C 
HETATM   16  C24 UNL     1       5.902   7.569  13.901  1.00  0.00     0.135 C 
HETATM   17  O4  UNL     1       6.894   6.846  14.009  1.00  0.00    -0.297 OA
HETATM   18  C25 UNL     1       5.349   8.011  12.538  1.00  0.00     0.018 C 
HETATM   19  C26 UNL     1       5.843   6.993  11.478  1.00  0.00     0.023 C 
HETATM   20  C27 UNL     1       5.982   9.365  12.187  1.00  0.00     0.023 C 
HETATM   21  C28 UNL     1       3.780   7.992  12.576  1.00  0.00     0.020 C 
HETATM   22  C29 UNL     1       3.133   8.557  11.311  1.00  0.00     0.090 C 
HETATM   23  C30 UNL     1       1.633   8.383  11.306  1.00  0.00     0.157 C 
HETATM   24  O5  UNL     1       1.010   8.582  10.263  1.00  0.00    -0.293 OA
ENDROOT
BRANCH   1  25
HETATM   25  C2  UNL     1      -3.716   7.507  14.816  1.00  0.00    -0.014 C 
HETATM   26  C1  UNL     1      -3.028   8.087  16.058  1.00  0.00     0.010 C 
BRANCH  25  27
HETATM   27  C3  UNL     1      -4.362   6.133  15.160  1.00  0.00     0.007 C 
BRANCH  27  28
HETATM   28  C4  UNL     1      -5.820   5.990  14.694  1.00  0.00     0.035 C 
BRANCH  28  29
HETATM   29  C5  UNL     1      -6.020   5.178  13.399  1.00  0.00     0.154 C 
BRANCH  29  30
HETATM   30  O1  UNL     1      -4.865   4.338  13.232  1.00  0.00    -0.392 OA
HETATM   31  H10 UNL     1      -4.980   3.883  12.369  1.00  0.00     0.210 HD
ENDBRANCH  29  30
BRANCH  29  32
HETATM   32  C6  UNL     1      -7.304   4.298  13.310  1.00  0.00     0.101 C 
HETATM   33  C7  UNL     1      -8.428   4.960  12.517  1.00  0.00     0.051 C 
BRANCH  32  34
HETATM   34  O2  UNL     1      -7.786   4.024  14.639  1.00  0.00    -0.385 OA
HETATM   35  H14 UNL     1      -7.005   4.101  15.223  1.00  0.00     0.210 HD
ENDBRANCH  32  34
BRANCH  32  36
HETATM   36  C8  UNL     1      -6.973   2.928  12.674  1.00  0.00     0.204 C 
BRANCH  36  37
HETATM   37  O3  UNL     1      -8.127   2.081  12.684  1.00  0.00    -0.398 OA
HETATM   38  H17 UNL     1      -8.727   2.464  12.013  1.00  0.00     0.209 HD
ENDBRANCH  36  37
ENDBRANCH  32  36
ENDBRANCH  29  32
ENDBRANCH  28  29
ENDBRANCH  27  28
ENDBRANCH  25  27
ENDBRANCH   1  25
TORSDOF 9
ENDMDL
MODEL 6
REMARK minimizedAffinity -8.61864471
REMARK  9 active torsions:
REMARK  status: ('A' for Active; 'I' for Inactive)
REMARK    1  A    between atoms: C2_2  and  C3_3 
REMARK    2  A    between atoms: C2_2  and  C9_12 
REMARK    3  A    between atoms: C3_3  and  C4_4 
REMARK    4  A    between atoms: C4_4  and  C5_5 
REMARK    5  A    between atoms: C5_5  and  O1_6 
REMARK    6  A    between atoms: C5_5  and  C6_7 
REMARK    7  A    between atoms: C6_7  and  O2_9 
REMARK    8  A    between atoms: C6_7  and  C8_10 
REMARK    9  A    between atoms: C8_10  and  O3_11 
ROOT
HETATM    1  C9  UNL     1      -2.797   7.788  14.128  1.00  0.00    -0.002 C 
HETATM    2  C10 UNL     1      -2.284   6.621  15.000  1.00  0.00     0.007 C 
HETATM    3  C11 UNL     1      -0.760   6.666  15.004  1.00  0.00     0.015 C 
HETATM    4  C12 UNL     1      -0.337   7.955  14.268  1.00  0.00    -0.005 C 
HETATM    5  C13 UNL     1      -0.228   9.123  15.289  1.00  0.00     0.021 C 
HETATM    6  C14 UNL     1       1.012   7.746  13.555  1.00  0.00    -0.000 C 
HETATM    7  C15 UNL     1       1.156   7.623  12.212  1.00  0.00    -0.060 C 
HETATM    8  C16 UNL     1      -0.063   7.555  11.309  1.00  0.00     0.036 C 
HETATM    9  C17 UNL     1      -1.374   7.280  12.042  1.00  0.00     0.015 C 
HETATM   10  C18 UNL     1      -1.547   8.196  13.272  1.00  0.00    -0.028 C 
HETATM   11  C19 UNL     1      -1.620   9.671  12.811  1.00  0.00     0.016 C 
HETATM   12  C20 UNL     1       2.536   7.494  11.513  1.00  0.00    -0.014 C 
HETATM   13  C21 UNL     1       2.794   5.979  11.348  1.00  0.00     0.020 C 
HETATM   14  C22 UNL     1       2.530   8.176  10.118  1.00  0.00     0.021 C 
HETATM   15  C23 UNL     1       3.898   8.219   9.456  1.00  0.00     0.080 C 
HETATM   16  C24 UNL     1       4.886   8.946  10.331  1.00  0.00     0.135 C 
HETATM   17  O4  UNL     1       5.615   9.812   9.845  1.00  0.00    -0.297 OA
HETATM   18  C25 UNL     1       5.015   8.483  11.791  1.00  0.00     0.018 C 
HETATM   19  C26 UNL     1       5.722   9.615  12.581  1.00  0.00     0.023 C 
HETATM   20  C27 UNL     1       5.949   7.265  11.821  1.00  0.00     0.023 C 
HETATM   21  C28 UNL     1       3.586   8.250  12.396  1.00  0.00     0.020 C 
HETATM   22  C29 UNL     1       3.610   7.646  13.801  1.00  0.00     0.090 C 
HETATM   23  C30 UNL     1       2.235   7.578  14.421  1.00  0.00     0.157 C 
HETATM   24  O5  UNL     1       2.131   7.331  15.622  1.00  0.00    -0.293 OA
ENDROOT
BRANCH   1  25
HETATM   25  C2  UNL     1      -4.143   7.425  13.418  1.00  0.00    -0.014 C 
HETATM   26  C1  UNL     1      -5.308   8.305  13.885  1.00  0.00     0.010 C 
BRANCH  25  27
HETATM   27  C3  UNL     1      -4.484   5.924  13.650  1.00  0.00     0.007 C 
BRANCH  27  28
HETATM   28  C4  UNL     1      -3.765   4.961  12.692  1.00  0.00     0.035 C 
BRANCH  28  29
HETATM   29  C5  UNL     1      -4.479   3.616  12.453  1.00  0.00     0.154 C 
BRANCH  29  30
HETATM   30  O1  UNL     1      -5.885   3.888  12.330  1.00  0.00    -0.392 OA
HETATM   31  H10 UNL     1      -6.328   3.014  12.248  1.00  0.00     0.210 HD
ENDBRANCH  29  30
BRANCH  29  32
HETATM   32  C6  UNL     1      -4.015   2.781  11.222  1.00  0.00     0.101 C 
HETATM   33  C7  UNL     1      -2.917   3.469  10.413  1.00  0.00     0.051 C 
BRANCH  32  34
HETATM   34  O2  UNL     1      -5.139   2.546  10.354  1.00  0.00    -0.385 OA
HETATM   35  H14 UNL     1      -5.930   2.605  10.927  1.00  0.00     0.210 HD
ENDBRANCH  32  34
BRANCH  32  36
HETATM   36  C8  UNL     1      -3.514   1.389  11.674  1.00  0.00     0.204 C 
BRANCH  36  37
HETATM   37  O3  UNL     1      -2.312   1.041  10.979  1.00  0.00    -0.398 OA
HETATM   38  H17 UNL     1      -1.624   1.623  11.358  1.00  0.00     0.209 HD
ENDBRANCH  36  37
ENDBRANCH  32  36
ENDBRANCH  29  32
ENDBRANCH  28  29
ENDBRANCH  27  28
ENDBRANCH  25  27
ENDBRANCH   1  25
TORSDOF 9
ENDMDL
MODEL 7
REMARK minimizedAffinity -8.60280991
REMARK  9 active torsions:
REMARK  status: ('A' for Active; 'I' for Inactive)
REMARK    1  A    between atoms: C2_2  and  C3_3 
REMARK    2  A    between atoms: C2_2  and  C9_12 
REMARK    3  A    between atoms: C3_3  and  C4_4 
REMARK    4  A    between atoms: C4_4  and  C5_5 
REMARK    5  A    between atoms: C5_5  and  O1_6 
REMARK    6  A    between atoms: C5_5  and  C6_7 
REMARK    7  A    between atoms: C6_7  and  O2_9 
REMARK    8  A    between atoms: C6_7  and  C8_10 
REMARK    9  A    between atoms: C8_10  and  O3_11 
ROOT
HETATM    1  C9  UNL     1       0.943   7.539  13.740  1.00  0.00    -0.002 C 
HETATM    2  C10 UNL     1       0.691   9.055  13.604  1.00  0.00     0.007 C 
HETATM    3  C11 UNL     1      -0.692   9.359  14.172  1.00  0.00     0.015 C 
HETATM    4  C12 UNL     1      -1.224   8.055  14.805  1.00  0.00    -0.005 C 
HETATM    5  C13 UNL     1      -0.788   7.987  16.295  1.00  0.00     0.021 C 
HETATM    6  C14 UNL     1      -2.760   7.997  14.697  1.00  0.00    -0.000 C 
HETATM    7  C15 UNL     1      -3.437   7.181  13.851  1.00  0.00    -0.060 C 
HETATM    8  C16 UNL     1      -2.691   6.336  12.834  1.00  0.00     0.036 C 
HETATM    9  C17 UNL     1      -1.237   6.748  12.619  1.00  0.00     0.015 C 
HETATM   10  C18 UNL     1      -0.489   6.936  13.956  1.00  0.00    -0.028 C 
HETATM   11  C19 UNL     1      -0.440   5.588  14.714  1.00  0.00     0.016 C 
HETATM   12  C20 UNL     1      -4.985   7.084  13.821  1.00  0.00    -0.014 C 
HETATM   13  C21 UNL     1      -5.455   8.065  12.724  1.00  0.00     0.020 C 
HETATM   14  C22 UNL     1      -5.457   5.646  13.471  1.00  0.00     0.021 C 
HETATM   15  C23 UNL     1      -6.960   5.455  13.583  1.00  0.00     0.080 C 
HETATM   16  C24 UNL     1      -7.433   5.779  14.976  1.00  0.00     0.135 C 
HETATM   17  O4  UNL     1      -8.192   5.006  15.562  1.00  0.00    -0.297 OA
HETATM   18  C25 UNL     1      -7.024   7.137  15.566  1.00  0.00     0.018 C 
HETATM   19  C26 UNL     1      -7.228   7.063  17.102  1.00  0.00     0.023 C 
HETATM   20  C27 UNL     1      -8.000   8.197  15.035  1.00  0.00     0.023 C 
HETATM   21  C28 UNL     1      -5.508   7.407  15.262  1.00  0.00     0.020 C 
HETATM   22  C29 UNL     1      -5.041   8.801  15.681  1.00  0.00     0.090 C 
HETATM   23  C30 UNL     1      -3.549   8.980  15.524  1.00  0.00     0.157 C 
HETATM   24  O5  UNL     1      -3.007   9.960  16.032  1.00  0.00    -0.293 OA
ENDROOT
BRANCH   1  25
HETATM   25  C2  UNL     1       1.848   7.001  12.582  1.00  0.00    -0.014 C 
HETATM   26  C1  UNL     1       3.099   7.861  12.367  1.00  0.00     0.010 C 
BRANCH  25  27
HETATM   27  C3  UNL     1       1.030   6.914  11.259  1.00  0.00     0.007 C 
BRANCH  27  28
HETATM   28  C4  UNL     1       1.210   8.124  10.330  1.00  0.00     0.035 C 
BRANCH  28  29
HETATM   29  C5  UNL     1       0.864   7.873   8.849  1.00  0.00     0.154 C 
BRANCH  29  30
HETATM   30  O1  UNL     1       0.167   9.033   8.364  1.00  0.00    -0.392 OA
HETATM   31  H10 UNL     1      -0.104   8.825   7.443  1.00  0.00     0.210 HD
ENDBRANCH  29  30
BRANCH  29  32
HETATM   32  C6  UNL     1       2.054   7.560   7.891  1.00  0.00     0.101 C 
HETATM   33  C7  UNL     1       3.071   8.697   7.810  1.00  0.00     0.051 C 
BRANCH  32  34
HETATM   34  O2  UNL     1       1.547   7.310   6.567  1.00  0.00    -0.385 OA
HETATM   35  H14 UNL     1       0.624   7.008   6.693  1.00  0.00     0.210 HD
ENDBRANCH  32  34
BRANCH  32  36
HETATM   36  C8  UNL     1       2.775   6.266   8.334  1.00  0.00     0.204 C 
BRANCH  36  37
HETATM   37  O3  UNL     1       2.766   5.302   7.277  1.00  0.00    -0.398 OA
HETATM   38  H17 UNL     1       3.393   5.651   6.612  1.00  0.00     0.209 HD
ENDBRANCH  36  37
ENDBRANCH  32  36
ENDBRANCH  29  32
ENDBRANCH  28  29
ENDBRANCH  27  28
ENDBRANCH  25  27
ENDBRANCH   1  25
TORSDOF 9
ENDMDL
MODEL 8
REMARK minimizedAffinity -8.58520794
REMARK  9 active torsions:
REMARK  status: ('A' for Active; 'I' for Inactive)
REMARK    1  A    between atoms: C2_2  and  C3_3 
REMARK    2  A    between atoms: C2_2  and  C9_12 
REMARK    3  A    between atoms: C3_3  and  C4_4 
REMARK    4  A    between atoms: C4_4  and  C5_5 
REMARK    5  A    between atoms: C5_5  and  O1_6 
REMARK    6  A    between atoms: C5_5  and  C6_7 
REMARK    7  A    between atoms: C6_7  and  O2_9 
REMARK    8  A    between atoms: C6_7  and  C8_10 
REMARK    9  A    between atoms: C8_10  and  O3_11 
ROOT
HETATM    1  C9  UNL     1       0.568   7.113  12.773  1.00  0.00    -0.002 C 
HETATM    2  C10 UNL     1       0.815   5.697  13.337  1.00  0.00     0.007 C 
HETATM    3  C11 UNL     1      -0.512   4.946  13.332  1.00  0.00     0.015 C 
HETATM    4  C12 UNL     1      -1.543   5.843  12.615  1.00  0.00    -0.005 C 
HETATM    5  C13 UNL     1      -1.531   5.534  11.092  1.00  0.00     0.021 C 
HETATM    6  C14 UNL     1      -2.951   5.606  13.194  1.00  0.00    -0.000 C 
HETATM    7  C15 UNL     1      -3.607   6.483  13.995  1.00  0.00    -0.060 C 
HETATM    8  C16 UNL     1      -2.915   7.741  14.489  1.00  0.00     0.036 C 
HETATM    9  C17 UNL     1      -1.399   7.734  14.316  1.00  0.00     0.015 C 
HETATM   10  C18 UNL     1      -0.984   7.301  12.894  1.00  0.00    -0.028 C 
HETATM   11  C19 UNL     1      -1.524   8.323  11.865  1.00  0.00     0.016 C 
HETATM   12  C20 UNL     1      -5.058   6.254  14.498  1.00  0.00    -0.014 C 
HETATM   13  C21 UNL     1      -4.931   5.588  15.886  1.00  0.00     0.020 C 
HETATM   14  C22 UNL     1      -5.829   7.595  14.631  1.00  0.00     0.021 C 
HETATM   15  C23 UNL     1      -7.301   7.419  14.966  1.00  0.00     0.080 C 
HETATM   16  C24 UNL     1      -7.987   6.584  13.917  1.00  0.00     0.135 C 
HETATM   17  O4  UNL     1      -9.061   6.957  13.441  1.00  0.00    -0.297 OA
HETATM   18  C25 UNL     1      -7.356   5.229  13.565  1.00  0.00     0.018 C 
HETATM   19  C26 UNL     1      -7.947   4.775  12.205  1.00  0.00     0.023 C 
HETATM   20  C27 UNL     1      -7.813   4.206  14.615  1.00  0.00     0.023 C 
HETATM   21  C28 UNL     1      -5.802   5.395  13.419  1.00  0.00     0.020 C 
HETATM   22  C29 UNL     1      -5.064   4.071  13.214  1.00  0.00     0.090 C 
HETATM   23  C30 UNL     1      -3.596   4.271  12.921  1.00  0.00     0.157 C 
HETATM   24  O5  UNL     1      -2.932   3.319  12.512  1.00  0.00    -0.293 OA
ENDROOT
BRANCH   1  25
HETATM   25  C2  UNL     1       1.532   8.163  13.418  1.00  0.00    -0.014 C 
HETATM   26  C1  UNL     1       0.855   9.519  13.646  1.00  0.00     0.010 C 
BRANCH  25  27
HETATM   27  C3  UNL     1       2.798   8.345  12.530  1.00  0.00     0.007 C 
BRANCH  27  28
HETATM   28  C4  UNL     1       3.246   7.066  11.805  1.00  0.00     0.035 C 
BRANCH  28  29
HETATM   29  C5  UNL     1       3.373   7.188  10.274  1.00  0.00     0.154 C 
BRANCH  29  30
HETATM   30  O1  UNL     1       4.589   6.527   9.887  1.00  0.00    -0.392 OA
HETATM   31  H10 UNL     1       4.686   6.676   8.920  1.00  0.00     0.210 HD
ENDBRANCH  29  30
BRANCH  29  32
HETATM   32  C6  UNL     1       2.196   6.623   9.422  1.00  0.00     0.101 C 
HETATM   33  C7  UNL     1       1.030   7.601   9.293  1.00  0.00     0.051 C 
BRANCH  32  34
HETATM   34  O2  UNL     1       1.707   5.412  10.028  1.00  0.00    -0.385 OA
HETATM   35  H14 UNL     1       2.459   5.056  10.544  1.00  0.00     0.210 HD
ENDBRANCH  32  34
BRANCH  32  36
HETATM   36  C8  UNL     1       2.691   6.237   8.010  1.00  0.00     0.204 C 
BRANCH  36  37
HETATM   37  O3  UNL     1       3.336   4.959   8.039  1.00  0.00    -0.398 OA
HETATM   38  H17 UNL     1       2.612   4.314   8.170  1.00  0.00     0.209 HD
ENDBRANCH  36  37
ENDBRANCH  32  36
ENDBRANCH  29  32
ENDBRANCH  28  29
ENDBRANCH  27  28
ENDBRANCH  25  27
ENDBRANCH   1  25
TORSDOF 9
ENDMDL
MODEL 9
REMARK minimizedAffinity -8.55146885
REMARK  9 active torsions:
REMARK  status: ('A' for Active; 'I' for Inactive)
REMARK    1  A    between atoms: C2_2  and  C3_3 
REMARK    2  A    between atoms: C2_2  and  C9_12 
REMARK    3  A    between atoms: C3_3  and  C4_4 
REMARK    4  A    between atoms: C4_4  and  C5_5 
REMARK    5  A    between atoms: C5_5  and  O1_6 
REMARK    6  A    between atoms: C5_5  and  C6_7 
REMARK    7  A    between atoms: C6_7  and  O2_9 
REMARK    8  A    between atoms: C6_7  and  C8_10 
REMARK    9  A    between atoms: C8_10  and  O3_11 
ROOT
HETATM    1  C9  UNL     1       0.821   7.516  12.772  1.00  0.00    -0.002 C 
HETATM    2  C10 UNL     1       1.151   6.136  13.378  1.00  0.00     0.007 C 
HETATM    3  C11 UNL     1      -0.120   5.293  13.358  1.00  0.00     0.015 C 
HETATM    4  C12 UNL     1      -1.191   6.097  12.591  1.00  0.00    -0.005 C 
HETATM    5  C13 UNL     1      -1.114   5.752  11.078  1.00  0.00     0.021 C 
HETATM    6  C14 UNL     1      -2.595   5.775  13.139  1.00  0.00    -0.000 C 
HETATM    7  C15 UNL     1      -3.333   6.622  13.899  1.00  0.00    -0.060 C 
HETATM    8  C16 UNL     1      -2.745   7.937  14.378  1.00  0.00     0.036 C 
HETATM    9  C17 UNL     1      -1.228   8.033  14.245  1.00  0.00     0.015 C 
HETATM   10  C18 UNL     1      -0.744   7.597  12.846  1.00  0.00    -0.028 C 
HETATM   11  C19 UNL     1      -1.325   8.553  11.777  1.00  0.00     0.016 C 
HETATM   12  C20 UNL     1      -4.777   6.303  14.369  1.00  0.00    -0.014 C 
HETATM   13  C21 UNL     1      -4.643   5.682  15.777  1.00  0.00     0.020 C 
HETATM   14  C22 UNL     1      -5.644   7.589  14.447  1.00  0.00     0.021 C 
HETATM   15  C23 UNL     1      -7.109   7.318  14.748  1.00  0.00     0.080 C 
HETATM   16  C24 UNL     1      -7.705   6.411  13.703  1.00  0.00     0.135 C 
HETATM   17  O4  UNL     1      -8.788   6.695  13.190  1.00  0.00    -0.297 OA
HETATM   18  C25 UNL     1      -6.970   5.095  13.404  1.00  0.00     0.018 C 
HETATM   19  C26 UNL     1      -7.489   4.568  12.041  1.00  0.00     0.023 C 
HETATM   20  C27 UNL     1      -7.384   4.069  14.468  1.00  0.00     0.023 C 
HETATM   21  C28 UNL     1      -5.428   5.367  13.295  1.00  0.00     0.020 C 
HETATM   22  C29 UNL     1      -4.594   4.095  13.143  1.00  0.00     0.090 C 
HETATM   23  C30 UNL     1      -3.136   4.391  12.884  1.00  0.00     0.157 C 
HETATM   24  O5  UNL     1      -2.396   3.478  12.518  1.00  0.00    -0.293 OA
ENDROOT
BRANCH   1  25
HETATM   25  C2  UNL     1       1.690   8.648  13.414  1.00  0.00    -0.014 C 
HETATM   26  C1  UNL     1       2.398   9.512  12.364  1.00  0.00     0.010 C 
BRANCH  25  27
HETATM   27  C3  UNL     1       2.738   8.032  14.388  1.00  0.00     0.007 C 
BRANCH  27  28
HETATM   28  C4  UNL     1       4.192   8.164  13.911  1.00  0.00     0.035 C 
BRANCH  28  29
HETATM   29  C5  UNL     1       5.259   8.081  15.020  1.00  0.00     0.154 C 
BRANCH  29  30
HETATM   30  O1  UNL     1       5.022   6.869  15.758  1.00  0.00    -0.392 OA
HETATM   31  H10 UNL     1       5.666   6.870  16.500  1.00  0.00     0.210 HD
ENDBRANCH  29  30
BRANCH  29  32
HETATM   32  C6  UNL     1       6.751   8.116  14.569  1.00  0.00     0.101 C 
HETATM   33  C7  UNL     1       6.963   8.891  13.270  1.00  0.00     0.051 C 
BRANCH  32  34
HETATM   34  O2  UNL     1       7.222   6.769  14.376  1.00  0.00    -0.385 OA
HETATM   35  H14 UNL     1       6.654   6.209  14.943  1.00  0.00     0.210 HD
ENDBRANCH  32  34
BRANCH  32  36
HETATM   36  C8  UNL     1       7.634   8.733  15.678  1.00  0.00     0.204 C 
BRANCH  36  37
HETATM   37  O3  UNL     1       7.445   8.035  16.913  1.00  0.00    -0.398 OA
HETATM   38  H17 UNL     1       7.879   7.169  16.783  1.00  0.00     0.209 HD
ENDBRANCH  36  37
ENDBRANCH  32  36
ENDBRANCH  29  32
ENDBRANCH  28  29
ENDBRANCH  27  28
ENDBRANCH  25  27
ENDBRANCH   1  25
TORSDOF 9
ENDMDL
