MODEL 1
REMARK minimizedAffinity -9.54448414
REMARK  6 active torsions:
REMARK  status: ('A' for Active; 'I' for Inactive)
REMARK    1  A    between atoms: C2_2  and  C30_31 
REMARK    2  A    between atoms: C3_3  and  C4_4 
REMARK    3  A    between atoms: C4_4  and  C5_5 
REMARK    4  A    between atoms: C5_5  and  C6_6 
REMARK    5  A    between atoms: C6_6  and  C8_8 
REMARK    6  A    between atoms: C30_31  and  O3_33 
ROOT
HETATM    1  C8  UNL     1      -1.841  50.992 -25.276  1.00  0.00    -0.002 C 
HETATM    2  C9  UNL     1      -2.840  52.084 -25.729  1.00  0.00     0.007 C 
HETATM    3  C10 UNL     1      -4.223  51.682 -25.151  1.00  0.00     0.015 C 
HETATM    4  C11 UNL     1      -4.033  50.235 -24.636  1.00  0.00    -0.013 C 
HETATM    5  C12 UNL     1      -4.222  49.309 -25.881  1.00  0.00     0.021 C 
HETATM    6  C13 UNL     1      -4.909  49.665 -23.521  1.00  0.00    -0.070 C 
HETATM    7  C14 UNL     1      -5.920  50.340 -22.944  1.00  0.00    -0.022 C 
HETATM    8  C15 UNL     1      -6.670  49.863 -21.734  1.00  0.00     0.034 C 
HETATM    9  C16 UNL     1      -5.938  48.718 -20.994  1.00  0.00     0.013 C 
HETATM   10  C17 UNL     1      -6.647  48.191 -19.688  1.00  0.00     0.018 C 
HETATM   11  C18 UNL     1      -5.737  48.454 -18.465  1.00  0.00     0.023 C 
HETATM   12  C19 UNL     1      -7.995  48.889 -19.400  1.00  0.00     0.023 C 
HETATM   13  C20 UNL     1      -6.892  46.672 -19.717  1.00  0.00     0.135 C 
HETATM   14  O1  UNL     1      -7.905  46.161 -19.234  1.00  0.00    -0.297 OA
HETATM   15  C21 UNL     1      -5.808  45.768 -20.267  1.00  0.00     0.080 C 
HETATM   16  C22 UNL     1      -4.848  46.466 -21.216  1.00  0.00     0.017 C 
HETATM   17  C23 UNL     1      -5.494  47.618 -22.014  1.00  0.00    -0.031 C 
HETATM   18  C24 UNL     1      -6.700  47.060 -22.832  1.00  0.00     0.016 C 
HETATM   19  C25 UNL     1      -4.486  48.254 -23.060  1.00  0.00     0.024 C 
HETATM   20  C26 UNL     1      -2.991  48.253 -22.636  1.00  0.00     0.010 C 
HETATM   21  C27 UNL     1      -2.050  48.939 -23.657  1.00  0.00     0.011 C 
HETATM   22  C28 UNL     1      -2.561  50.335 -24.064  1.00  0.00    -0.029 C 
HETATM   23  C29 UNL     1      -2.473  51.241 -22.794  1.00  0.00     0.016 C 
ENDROOT
BRANCH   1  24
HETATM   24  C6  UNL     1      -0.352  51.413 -25.142  1.00  0.00    -0.014 C 
HETATM   25  C7  UNL     1       0.440  50.797 -26.316  1.00  0.00     0.010 C 
BRANCH  24  26
HETATM   26  C5  UNL     1      -0.070  52.932 -25.097  1.00  0.00     0.008 C 
BRANCH  26  27
HETATM   27  C4  UNL     1       0.685  53.372 -23.833  1.00  0.00     0.028 C 
BRANCH  27  28
HETATM   28  C3  UNL     1       0.392  52.518 -22.628  1.00  0.00    -0.013 C 
HETATM   29  C2  UNL     1       0.662  52.794 -21.336  1.00  0.00     0.008 C 
HETATM   30  C1  UNL     1       0.282  51.857 -20.225  1.00  0.00     0.055 C 
BRANCH  29  31
HETATM   31  C30 UNL     1       1.401  54.015 -20.948  1.00  0.00     0.171 C 
HETATM   32  O2  UNL     1       1.940  54.814 -21.690  1.00  0.00    -0.646 OA
BRANCH  31  33
HETATM   33  O3  UNL     1       1.431  54.175 -19.614  1.00  0.00    -0.773 OA
HETATM   34  H46 UNL     1       1.932  55.008 -19.498  1.00  0.00     0.167 HD
ENDBRANCH  31  33
ENDBRANCH  29  31
ENDBRANCH  27  28
ENDBRANCH  26  27
ENDBRANCH  24  26
ENDBRANCH   1  24
TORSDOF 6
ENDMDL
MODEL 2
REMARK minimizedAffinity -9.43176651
REMARK  6 active torsions:
REMARK  status: ('A' for Active; 'I' for Inactive)
REMARK    1  A    between atoms: C2_2  and  C30_31 
REMARK    2  A    between atoms: C3_3  and  C4_4 
REMARK    3  A    between atoms: C4_4  and  C5_5 
REMARK    4  A    between atoms: C5_5  and  C6_6 
REMARK    5  A    between atoms: C6_6  and  C8_8 
REMARK    6  A    between atoms: C30_31  and  O3_33 
ROOT
HETATM    1  C8  UNL     1      -1.076  51.164 -21.240  1.00  0.00    -0.002 C 
HETATM    2  C9  UNL     1      -0.069  50.036 -20.907  1.00  0.00     0.007 C 
HETATM    3  C10 UNL     1      -0.914  48.785 -20.550  1.00  0.00     0.015 C 
HETATM    4  C11 UNL     1      -2.362  49.309 -20.408  1.00  0.00    -0.013 C 
HETATM    5  C12 UNL     1      -2.474  49.869 -18.952  1.00  0.00     0.021 C 
HETATM    6  C13 UNL     1      -3.566  48.394 -20.625  1.00  0.00    -0.070 C 
HETATM    7  C14 UNL     1      -3.468  47.082 -20.905  1.00  0.00    -0.022 C 
HETATM    8  C15 UNL     1      -4.629  46.214 -21.295  1.00  0.00     0.034 C 
HETATM    9  C16 UNL     1      -5.875  47.036 -21.706  1.00  0.00     0.013 C 
HETATM   10  C17 UNL     1      -7.124  46.191 -22.167  1.00  0.00     0.018 C 
HETATM   11  C18 UNL     1      -7.445  46.511 -23.646  1.00  0.00     0.023 C 
HETATM   12  C19 UNL     1      -6.896  44.666 -22.079  1.00  0.00     0.023 C 
HETATM   13  C20 UNL     1      -8.397  46.532 -21.372  1.00  0.00     0.135 C 
HETATM   14  O1  UNL     1      -9.227  45.674 -21.062  1.00  0.00    -0.297 OA
HETATM   15  C21 UNL     1      -8.688  47.982 -21.047  1.00  0.00     0.080 C 
HETATM   16  C22 UNL     1      -7.457  48.873 -21.052  1.00  0.00     0.017 C 
HETATM   17  C23 UNL     1      -6.162  48.142 -20.638  1.00  0.00    -0.031 C 
HETATM   18  C24 UNL     1      -6.349  47.541 -19.210  1.00  0.00     0.016 C 
HETATM   19  C25 UNL     1      -4.923  49.128 -20.563  1.00  0.00     0.024 C 
HETATM   20  C26 UNL     1      -4.942  50.308 -21.574  1.00  0.00     0.010 C 
HETATM   21  C27 UNL     1      -3.684  51.209 -21.509  1.00  0.00     0.011 C 
HETATM   22  C28 UNL     1      -2.382  50.386 -21.566  1.00  0.00    -0.029 C 
HETATM   23  C29 UNL     1      -2.316  49.738 -22.987  1.00  0.00     0.016 C 
ENDROOT
BRANCH   1  24
HETATM   24  C6  UNL     1      -0.589  52.278 -22.206  1.00  0.00    -0.014 C 
HETATM   25  C7  UNL     1       0.909  52.541 -21.939  1.00  0.00     0.010 C 
BRANCH  24  26
HETATM   26  C5  UNL     1      -0.784  52.011 -23.715  1.00  0.00     0.008 C 
BRANCH  26  27
HETATM   27  C4  UNL     1       0.500  52.209 -24.538  1.00  0.00     0.028 C 
BRANCH  27  28
HETATM   28  C3  UNL     1       0.266  52.236 -26.025  1.00  0.00    -0.013 C 
HETATM   29  C2  UNL     1       1.118  51.867 -27.001  1.00  0.00     0.008 C 
HETATM   30  C1  UNL     1       0.737  51.918 -28.453  1.00  0.00     0.055 C 
BRANCH  29  31
HETATM   31  C30 UNL     1       2.502  51.442 -26.695  1.00  0.00     0.171 C 
HETATM   32  O2  UNL     1       2.849  50.576 -25.915  1.00  0.00    -0.646 OA
BRANCH  31  33
HETATM   33  O3  UNL     1       3.404  52.148 -27.397  1.00  0.00    -0.773 OA
HETATM   34  H46 UNL     1       4.260  51.767 -27.112  1.00  0.00     0.167 HD
ENDBRANCH  31  33
ENDBRANCH  29  31
ENDBRANCH  27  28
ENDBRANCH  26  27
ENDBRANCH  24  26
ENDBRANCH   1  24
TORSDOF 6
ENDMDL
MODEL 3
REMARK minimizedAffinity -9.42081928
REMARK  6 active torsions:
REMARK  status: ('A' for Active; 'I' for Inactive)
REMARK    1  A    between atoms: C2_2  and  C30_31 
REMARK    2  A    between atoms: C3_3  and  C4_4 
REMARK    3  A    between atoms: C4_4  and  C5_5 
REMARK    4  A    between atoms: C5_5  and  C6_6 
REMARK    5  A    between atoms: C6_6  and  C8_8 
REMARK    6  A    between atoms: C30_31  and  O3_33 
ROOT
HETATM    1  C8  UNL     1      -2.001  49.808 -18.136  1.00  0.00    -0.002 C 
HETATM    2  C9  UNL     1      -2.544  48.360 -18.068  1.00  0.00     0.007 C 
HETATM    3  C10 UNL     1      -3.159  48.056 -19.459  1.00  0.00     0.015 C 
HETATM    4  C11 UNL     1      -3.210  49.424 -20.180  1.00  0.00    -0.013 C 
HETATM    5  C12 UNL     1      -4.522  50.118 -19.689  1.00  0.00     0.021 C 
HETATM    6  C13 UNL     1      -3.200  49.523 -21.704  1.00  0.00    -0.070 C 
HETATM    7  C14 UNL     1      -3.192  48.456 -22.524  1.00  0.00    -0.022 C 
HETATM    8  C15 UNL     1      -3.002  48.536 -24.011  1.00  0.00     0.034 C 
HETATM    9  C16 UNL     1      -2.448  49.907 -24.467  1.00  0.00     0.013 C 
HETATM   10  C17 UNL     1      -2.185  50.052 -26.015  1.00  0.00     0.018 C 
HETATM   11  C18 UNL     1      -0.676  50.288 -26.262  1.00  0.00     0.023 C 
HETATM   12  C19 UNL     1      -2.580  48.796 -26.822  1.00  0.00     0.023 C 
HETATM   13  C20 UNL     1      -2.910  51.264 -26.628  1.00  0.00     0.135 C 
HETATM   14  O1  UNL     1      -3.399  51.231 -27.760  1.00  0.00    -0.297 OA
HETATM   15  C21 UNL     1      -2.937  52.566 -25.858  1.00  0.00     0.080 C 
HETATM   16  C22 UNL     1      -2.734  52.400 -24.360  1.00  0.00     0.017 C 
HETATM   17  C23 UNL     1      -3.271  51.063 -23.808  1.00  0.00    -0.031 C 
HETATM   18  C24 UNL     1      -4.794  50.952 -24.131  1.00  0.00     0.016 C 
HETATM   19  C25 UNL     1      -3.128  50.972 -22.232  1.00  0.00     0.024 C 
HETATM   20  C26 UNL     1      -1.898  51.704 -21.627  1.00  0.00     0.010 C 
HETATM   21  C27 UNL     1      -1.762  51.537 -20.094  1.00  0.00     0.011 C 
HETATM   22  C28 UNL     1      -1.856  50.060 -19.664  1.00  0.00    -0.029 C 
HETATM   23  C29 UNL     1      -0.598  49.336 -20.241  1.00  0.00     0.016 C 
ENDROOT
BRANCH   1  24
HETATM   24  C6  UNL     1      -0.821  50.162 -17.189  1.00  0.00    -0.014 C 
HETATM   25  C7  UNL     1      -0.249  48.851 -16.606  1.00  0.00     0.010 C 
BRANCH  24  26
HETATM   26  C5  UNL     1       0.337  50.975 -17.810  1.00  0.00     0.008 C 
BRANCH  26  27
HETATM   27  C4  UNL     1       0.711  52.220 -16.990  1.00  0.00     0.028 C 
BRANCH  27  28
HETATM   28  C3  UNL     1       2.191  52.495 -16.953  1.00  0.00    -0.013 C 
HETATM   29  C2  UNL     1       3.061  52.199 -15.967  1.00  0.00     0.008 C 
HETATM   30  C1  UNL     1       4.527  52.506 -16.079  1.00  0.00     0.055 C 
BRANCH  29  31
HETATM   31  C30 UNL     1       2.605  51.603 -14.692  1.00  0.00     0.171 C 
HETATM   32  O2  UNL     1       2.108  50.505 -14.531  1.00  0.00    -0.646 OA
BRANCH  31  33
HETATM   33  O3  UNL     1       2.797  52.438 -13.657  1.00  0.00    -0.773 OA
HETATM   34  H46 UNL     1       2.468  51.926 -12.890  1.00  0.00     0.167 HD
ENDBRANCH  31  33
ENDBRANCH  29  31
ENDBRANCH  27  28
ENDBRANCH  26  27
ENDBRANCH  24  26
ENDBRANCH   1  24
TORSDOF 6
ENDMDL
MODEL 4
REMARK minimizedAffinity -9.38751125
REMARK  6 active torsions:
REMARK  status: ('A' for Active; 'I' for Inactive)
REMARK    1  A    between atoms: C2_2  and  C30_31 
REMARK    2  A    between atoms: C3_3  and  C4_4 
REMARK    3  A    between atoms: C4_4  and  C5_5 
REMARK    4  A    between atoms: C5_5  and  C6_6 
REMARK    5  A    between atoms: C6_6  and  C8_8 
REMARK    6  A    between atoms: C30_31  and  O3_33 
ROOT
HETATM    1  C8  UNL     1      -3.412  50.251 -25.158  1.00  0.00    -0.002 C 
HETATM    2  C9  UNL     1      -3.821  51.740 -25.045  1.00  0.00     0.007 C 
HETATM    3  C10 UNL     1      -4.125  51.998 -23.546  1.00  0.00     0.015 C 
HETATM    4  C11 UNL     1      -4.164  50.594 -22.899  1.00  0.00    -0.013 C 
HETATM    5  C12 UNL     1      -5.605  50.044 -23.154  1.00  0.00     0.021 C 
HETATM    6  C13 UNL     1      -3.869  50.392 -21.413  1.00  0.00    -0.070 C 
HETATM    7  C14 UNL     1      -3.604  51.398 -20.559  1.00  0.00    -0.022 C 
HETATM    8  C15 UNL     1      -3.139  51.203 -19.145  1.00  0.00     0.034 C 
HETATM    9  C16 UNL     1      -2.638  49.764 -18.877  1.00  0.00     0.013 C 
HETATM   10  C17 UNL     1      -2.096  49.494 -17.421  1.00  0.00     0.018 C 
HETATM   11  C18 UNL     1      -0.596  49.120 -17.489  1.00  0.00     0.023 C 
HETATM   12  C19 UNL     1      -2.209  50.721 -16.490  1.00  0.00     0.023 C 
HETATM   13  C20 UNL     1      -2.799  48.307 -16.737  1.00  0.00     0.135 C 
HETATM   14  O1  UNL     1      -3.055  48.303 -15.530  1.00  0.00    -0.297 OA
HETATM   15  C21 UNL     1      -3.094  47.065 -17.551  1.00  0.00     0.080 C 
HETATM   16  C22 UNL     1      -3.170  47.315 -19.049  1.00  0.00     0.017 C 
HETATM   17  C23 UNL     1      -3.677  48.725 -19.416  1.00  0.00    -0.031 C 
HETATM   18  C24 UNL     1      -5.092  48.938 -18.794  1.00  0.00     0.016 C 
HETATM   19  C25 UNL     1      -3.832  48.910 -20.983  1.00  0.00     0.024 C 
HETATM   20  C26 UNL     1      -2.815  48.122 -21.855  1.00  0.00     0.010 C 
HETATM   21  C27 UNL     1      -2.962  48.380 -23.375  1.00  0.00     0.011 C 
HETATM   22  C28 UNL     1      -3.000  49.886 -23.703  1.00  0.00    -0.029 C 
HETATM   23  C29 UNL     1      -1.591  50.464 -23.351  1.00  0.00     0.016 C 
ENDROOT
BRANCH   1  24
HETATM   24  C6  UNL     1      -2.475  49.867 -26.336  1.00  0.00    -0.014 C 
HETATM   25  C7  UNL     1      -3.022  48.585 -27.001  1.00  0.00     0.010 C 
BRANCH  24  26
HETATM   26  C5  UNL     1      -2.268  50.942 -27.426  1.00  0.00     0.008 C 
BRANCH  26  27
HETATM   27  C4  UNL     1      -0.801  51.375 -27.580  1.00  0.00     0.028 C 
BRANCH  27  28
HETATM   28  C3  UNL     1      -0.136  51.728 -26.276  1.00  0.00    -0.013 C 
HETATM   29  C2  UNL     1       0.143  52.957 -25.798  1.00  0.00     0.008 C 
HETATM   30  C1  UNL     1       0.787  53.163 -24.457  1.00  0.00     0.055 C 
BRANCH  29  31
HETATM   31  C30 UNL     1      -0.118  54.172 -26.600  1.00  0.00     0.171 C 
HETATM   32  O2  UNL     1      -0.617  54.228 -27.708  1.00  0.00    -0.646 OA
BRANCH  31  33
HETATM   33  O3  UNL     1       0.274  55.285 -25.958  1.00  0.00    -0.773 OA
HETATM   34  H46 UNL     1       0.038  56.001 -26.583  1.00  0.00     0.167 HD
ENDBRANCH  31  33
ENDBRANCH  29  31
ENDBRANCH  27  28
ENDBRANCH  26  27
ENDBRANCH  24  26
ENDBRANCH   1  24
TORSDOF 6
ENDMDL
MODEL 5
REMARK minimizedAffinity -9.35858154
REMARK  6 active torsions:
REMARK  status: ('A' for Active; 'I' for Inactive)
REMARK    1  A    between atoms: C2_2  and  C30_31 
REMARK    2  A    between atoms: C3_3  and  C4_4 
REMARK    3  A    between atoms: C4_4  and  C5_5 
REMARK    4  A    between atoms: C5_5  and  C6_6 
REMARK    5  A    between atoms: C6_6  and  C8_8 
REMARK    6  A    between atoms: C30_31  and  O3_33 
ROOT
HETATM    1  C8  UNL     1      -2.214  50.127 -18.829  1.00  0.00    -0.002 C 
HETATM    2  C9  UNL     1      -3.095  48.932 -19.268  1.00  0.00     0.007 C 
HETATM    3  C10 UNL     1      -3.267  49.056 -20.805  1.00  0.00     0.015 C 
HETATM    4  C11 UNL     1      -2.729  50.464 -21.154  1.00  0.00    -0.013 C 
HETATM    5  C12 UNL     1      -3.910  51.452 -20.886  1.00  0.00     0.021 C 
HETATM    6  C13 UNL     1      -2.187  50.787 -22.546  1.00  0.00    -0.070 C 
HETATM    7  C14 UNL     1      -2.176  49.911 -23.567  1.00  0.00    -0.022 C 
HETATM    8  C15 UNL     1      -1.488  50.154 -24.879  1.00  0.00     0.034 C 
HETATM    9  C16 UNL     1      -0.487  51.333 -24.817  1.00  0.00     0.013 C 
HETATM   10  C17 UNL     1       0.304  51.624 -26.149  1.00  0.00     0.018 C 
HETATM   11  C18 UNL     1       1.816  51.406 -25.909  1.00  0.00     0.023 C 
HETATM   12  C19 UNL     1      -0.102  50.697 -27.315  1.00  0.00     0.023 C 
HETATM   13  C20 UNL     1       0.154  53.082 -26.622  1.00  0.00     0.135 C 
HETATM   14  O1  UNL     1       0.079  53.380 -27.816  1.00  0.00    -0.297 OA
HETATM   15  C21 UNL     1       0.202  54.191 -25.593  1.00  0.00     0.080 C 
HETATM   16  C22 UNL     1      -0.155  53.741 -24.185  1.00  0.00     0.017 C 
HETATM   17  C23 UNL     1      -1.164  52.575 -24.146  1.00  0.00    -0.031 C 
HETATM   18  C24 UNL     1      -2.468  53.001 -24.889  1.00  0.00     0.016 C 
HETATM   19  C25 UNL     1      -1.581  52.202 -22.663  1.00  0.00     0.024 C 
HETATM   20  C26 UNL     1      -0.481  52.406 -21.584  1.00  0.00     0.010 C 
HETATM   21  C27 UNL     1      -0.909  51.971 -20.162  1.00  0.00     0.011 C 
HETATM   22  C28 UNL     1      -1.511  50.552 -20.149  1.00  0.00    -0.029 C 
HETATM   23  C29 UNL     1      -0.357  49.565 -20.520  1.00  0.00     0.016 C 
ENDROOT
BRANCH   1  24
HETATM   24  C6  UNL     1      -1.368  49.940 -17.539  1.00  0.00    -0.014 C 
HETATM   25  C7  UNL     1      -1.409  48.450 -17.136  1.00  0.00     0.010 C 
BRANCH  24  26
HETATM   26  C5  UNL     1       0.107  50.393 -17.615  1.00  0.00     0.008 C 
BRANCH  26  27
HETATM   27  C4  UNL     1       0.566  51.175 -16.373  1.00  0.00     0.028 C 
BRANCH  27  28
HETATM   28  C3  UNL     1       1.834  51.957 -16.588  1.00  0.00    -0.013 C 
HETATM   29  C2  UNL     1       2.868  52.103 -15.736  1.00  0.00     0.008 C 
HETATM   30  C1  UNL     1       4.093  52.893 -16.098  1.00  0.00     0.055 C 
BRANCH  29  31
HETATM   31  C30 UNL     1       2.826  51.536 -14.370  1.00  0.00     0.171 C 
HETATM   32  O2  UNL     1       3.266  50.462 -14.007  1.00  0.00    -0.646 OA
BRANCH  31  33
HETATM   33  O3  UNL     1       2.213  52.363 -13.508  1.00  0.00    -0.773 OA
HETATM   34  H46 UNL     1       2.262  51.880 -12.658  1.00  0.00     0.167 HD
ENDBRANCH  31  33
ENDBRANCH  29  31
ENDBRANCH  27  28
ENDBRANCH  26  27
ENDBRANCH  24  26
ENDBRANCH   1  24
TORSDOF 6
ENDMDL
MODEL 6
REMARK minimizedAffinity -9.3181839
REMARK  6 active torsions:
REMARK  status: ('A' for Active; 'I' for Inactive)
REMARK    1  A    between atoms: C2_2  and  C30_31 
REMARK    2  A    between atoms: C3_3  and  C4_4 
REMARK    3  A    between atoms: C4_4  and  C5_5 
REMARK    4  A    between atoms: C5_5  and  C6_6 
REMARK    5  A    between atoms: C6_6  and  C8_8 
REMARK    6  A    between atoms: C30_31  and  O3_33 
ROOT
HETATM    1  C8  UNL     1      -2.047  51.464 -23.016  1.00  0.00    -0.002 C 
HETATM    2  C9  UNL     1      -2.969  52.609 -23.502  1.00  0.00     0.007 C 
HETATM    3  C10 UNL     1      -4.401  52.016 -23.579  1.00  0.00     0.015 C 
HETATM    4  C11 UNL     1      -4.210  50.490 -23.417  1.00  0.00    -0.013 C 
HETATM    5  C12 UNL     1      -3.850  49.950 -24.839  1.00  0.00     0.021 C 
HETATM    6  C13 UNL     1      -5.326  49.600 -22.874  1.00  0.00    -0.070 C 
HETATM    7  C14 UNL     1      -6.550  50.052 -22.545  1.00  0.00    -0.022 C 
HETATM    8  C15 UNL     1      -7.594  49.229 -21.847  1.00  0.00     0.034 C 
HETATM    9  C16 UNL     1      -7.011  47.944 -21.211  1.00  0.00     0.013 C 
HETATM   10  C17 UNL     1      -8.042  47.046 -20.425  1.00  0.00     0.018 C 
HETATM   11  C18 UNL     1      -7.635  46.979 -18.934  1.00  0.00     0.023 C 
HETATM   12  C19 UNL     1      -9.486  47.592 -20.471  1.00  0.00     0.023 C 
HETATM   13  C20 UNL     1      -8.064  45.591 -20.926  1.00  0.00     0.135 C 
HETATM   14  O1  UNL     1      -9.105  44.933 -20.984  1.00  0.00    -0.297 OA
HETATM   15  C21 UNL     1      -6.752  44.914 -21.263  1.00  0.00     0.080 C 
HETATM   16  C22 UNL     1      -5.628  45.882 -21.595  1.00  0.00     0.017 C 
HETATM   17  C23 UNL     1      -6.113  47.193 -22.250  1.00  0.00    -0.031 C 
HETATM   18  C24 UNL     1      -6.893  46.852 -23.558  1.00  0.00     0.016 C 
HETATM   19  C25 UNL     1      -4.904  48.129 -22.667  1.00  0.00     0.024 C 
HETATM   20  C26 UNL     1      -3.650  48.054 -21.752  1.00  0.00     0.010 C 
HETATM   21  C27 UNL     1      -2.519  49.031 -22.158  1.00  0.00     0.011 C 
HETATM   22  C28 UNL     1      -3.040  50.468 -22.352  1.00  0.00    -0.029 C 
HETATM   23  C29 UNL     1      -3.500  50.978 -20.948  1.00  0.00     0.016 C 
ENDROOT
BRANCH   1  24
HETATM   24  C6  UNL     1      -0.756  51.876 -22.257  1.00  0.00    -0.014 C 
HETATM   25  C7  UNL     1      -0.376  50.740 -21.281  1.00  0.00     0.010 C 
BRANCH  24  26
HETATM   26  C5  UNL     1       0.475  52.212 -23.129  1.00  0.00     0.008 C 
BRANCH  26  27
HETATM   27  C4  UNL     1       0.111  52.916 -24.446  1.00  0.00     0.028 C 
BRANCH  27  28
HETATM   28  C3  UNL     1       0.593  52.187 -25.672  1.00  0.00    -0.013 C 
HETATM   29  C2  UNL     1       0.528  52.597 -26.955  1.00  0.00     0.008 C 
HETATM   30  C1  UNL     1       1.081  51.774 -28.083  1.00  0.00     0.055 C 
BRANCH  29  31
HETATM   31  C30 UNL     1      -0.147  53.860 -27.325  1.00  0.00     0.171 C 
HETATM   32  O2  UNL     1       0.095  54.974 -26.901  1.00  0.00    -0.646 OA
BRANCH  31  33
HETATM   33  O3  UNL     1      -1.119  53.657 -28.230  1.00  0.00    -0.773 OA
HETATM   34  H46 UNL     1      -1.469  54.557 -28.391  1.00  0.00     0.167 HD
ENDBRANCH  31  33
ENDBRANCH  29  31
ENDBRANCH  27  28
ENDBRANCH  26  27
ENDBRANCH  24  26
ENDBRANCH   1  24
TORSDOF 6
ENDMDL
MODEL 7
REMARK minimizedAffinity -9.17246532
REMARK  6 active torsions:
REMARK  status: ('A' for Active; 'I' for Inactive)
REMARK    1  A    between atoms: C2_2  and  C30_31 
REMARK    2  A    between atoms: C3_3  and  C4_4 
REMARK    3  A    between atoms: C4_4  and  C5_5 
REMARK    4  A    between atoms: C5_5  and  C6_6 
REMARK    5  A    between atoms: C6_6  and  C8_8 
REMARK    6  A    between atoms: C30_31  and  O3_33 
ROOT
HETATM    1  C8  UNL     1      -1.157  51.185 -21.157  1.00  0.00    -0.002 C 
HETATM    2  C9  UNL     1      -0.137  50.065 -20.835  1.00  0.00     0.007 C 
HETATM    3  C10 UNL     1      -0.968  48.805 -20.477  1.00  0.00     0.015 C 
HETATM    4  C11 UNL     1      -2.420  49.316 -20.321  1.00  0.00    -0.013 C 
HETATM    5  C12 UNL     1      -2.526  49.869 -18.863  1.00  0.00     0.021 C 
HETATM    6  C13 UNL     1      -3.617  48.391 -20.533  1.00  0.00    -0.070 C 
HETATM    7  C14 UNL     1      -3.509  47.080 -20.819  1.00  0.00    -0.022 C 
HETATM    8  C15 UNL     1      -4.665  46.203 -21.203  1.00  0.00     0.034 C 
HETATM    9  C16 UNL     1      -5.921  47.015 -21.602  1.00  0.00     0.013 C 
HETATM   10  C17 UNL     1      -7.166  46.160 -22.057  1.00  0.00     0.018 C 
HETATM   11  C18 UNL     1      -7.502  46.483 -23.532  1.00  0.00     0.023 C 
HETATM   12  C19 UNL     1      -6.924  44.637 -21.976  1.00  0.00     0.023 C 
HETATM   13  C20 UNL     1      -8.436  46.487 -21.250  1.00  0.00     0.135 C 
HETATM   14  O1  UNL     1      -9.256  45.620 -20.938  1.00  0.00    -0.297 OA
HETATM   15  C21 UNL     1      -8.738  47.932 -20.918  1.00  0.00     0.080 C 
HETATM   16  C22 UNL     1      -7.515  48.835 -20.929  1.00  0.00     0.017 C 
HETATM   17  C23 UNL     1      -6.211  48.115 -20.528  1.00  0.00    -0.031 C 
HETATM   18  C24 UNL     1      -6.381  47.507 -19.101  1.00  0.00     0.016 C 
HETATM   19  C25 UNL     1      -4.980  49.112 -20.458  1.00  0.00     0.024 C 
HETATM   20  C26 UNL     1      -5.018  50.295 -21.464  1.00  0.00     0.010 C 
HETATM   21  C27 UNL     1      -3.768  51.207 -21.406  1.00  0.00     0.011 C 
HETATM   22  C28 UNL     1      -2.458  50.397 -21.476  1.00  0.00    -0.029 C 
HETATM   23  C29 UNL     1      -2.397  49.754 -22.899  1.00  0.00     0.016 C 
ENDROOT
BRANCH   1  24
HETATM   24  C6  UNL     1      -0.687  52.307 -22.123  1.00  0.00    -0.014 C 
HETATM   25  C7  UNL     1       0.602  52.939 -21.553  1.00  0.00     0.010 C 
BRANCH  24  26
HETATM   26  C5  UNL     1      -0.428  51.888 -23.587  1.00  0.00     0.008 C 
BRANCH  26  27
HETATM   27  C4  UNL     1       0.630  52.755 -24.289  1.00  0.00     0.028 C 
BRANCH  27  28
HETATM   28  C3  UNL     1       1.100  52.188 -25.602  1.00  0.00    -0.013 C 
HETATM   29  C2  UNL     1       0.724  52.558 -26.842  1.00  0.00     0.008 C 
HETATM   30  C1  UNL     1       1.303  51.922 -28.073  1.00  0.00     0.055 C 
BRANCH  29  31
HETATM   31  C30 UNL     1      -0.326  53.578 -27.056  1.00  0.00     0.171 C 
HETATM   32  O2  UNL     1      -1.491  53.382 -27.345  1.00  0.00    -0.646 OA
BRANCH  31  33
HETATM   33  O3  UNL     1       0.151  54.824 -26.896  1.00  0.00    -0.773 OA
HETATM   34  H46 UNL     1      -0.634  55.387 -27.052  1.00  0.00     0.167 HD
ENDBRANCH  31  33
ENDBRANCH  29  31
ENDBRANCH  27  28
ENDBRANCH  26  27
ENDBRANCH  24  26
ENDBRANCH   1  24
TORSDOF 6
ENDMDL
MODEL 8
REMARK minimizedAffinity -8.88117695
REMARK  6 active torsions:
REMARK  status: ('A' for Active; 'I' for Inactive)
REMARK    1  A    between atoms: C2_2  and  C30_31 
REMARK    2  A    between atoms: C3_3  and  C4_4 
REMARK    3  A    between atoms: C4_4  and  C5_5 
REMARK    4  A    between atoms: C5_5  and  C6_6 
REMARK    5  A    between atoms: C6_6  and  C8_8 
REMARK    6  A    between atoms: C30_31  and  O3_33 
ROOT
HETATM    1  C8  UNL     1      -1.084  50.004 -18.196  1.00  0.00    -0.002 C 
HETATM    2  C9  UNL     1      -2.222  48.954 -18.207  1.00  0.00     0.007 C 
HETATM    3  C10 UNL     1      -2.908  49.067 -19.594  1.00  0.00     0.015 C 
HETATM    4  C11 UNL     1      -2.337  50.362 -20.217  1.00  0.00    -0.013 C 
HETATM    5  C12 UNL     1      -3.194  51.532 -19.635  1.00  0.00     0.021 C 
HETATM    6  C13 UNL     1      -2.283  50.563 -21.731  1.00  0.00    -0.070 C 
HETATM    7  C14 UNL     1      -2.758  49.672 -22.621  1.00  0.00    -0.022 C 
HETATM    8  C15 UNL     1      -2.552  49.771 -24.105  1.00  0.00     0.034 C 
HETATM    9  C16 UNL     1      -1.440  50.777 -24.485  1.00  0.00     0.013 C 
HETATM   10  C17 UNL     1      -1.140  50.907 -26.028  1.00  0.00     0.018 C 
HETATM   11  C18 UNL     1       0.313  50.457 -26.310  1.00  0.00     0.023 C 
HETATM   12  C19 UNL     1      -2.059  50.028 -26.905  1.00  0.00     0.023 C 
HETATM   13  C20 UNL     1      -1.241  52.358 -26.532  1.00  0.00     0.135 C 
HETATM   14  O1  UNL     1      -1.692  52.636 -27.646  1.00  0.00    -0.297 OA
HETATM   15  C21 UNL     1      -0.676  53.470 -25.674  1.00  0.00     0.080 C 
HETATM   16  C22 UNL     1      -0.570  53.116 -24.199  1.00  0.00     0.017 C 
HETATM   17  C23 UNL     1      -1.653  52.126 -23.721  1.00  0.00    -0.031 C 
HETATM   18  C24 UNL     1      -3.062  52.737 -23.997  1.00  0.00     0.016 C 
HETATM   19  C25 UNL     1      -1.566  51.860 -22.161  1.00  0.00     0.024 C 
HETATM   20  C26 UNL     1      -0.137  51.912 -21.550  1.00  0.00     0.010 C 
HETATM   21  C27 UNL     1      -0.091  51.584 -20.038  1.00  0.00     0.011 C 
HETATM   22  C28 UNL     1      -0.841  50.280 -19.706  1.00  0.00    -0.029 C 
HETATM   23  C29 UNL     1      -0.044  49.114 -20.375  1.00  0.00     0.016 C 
ENDROOT
BRANCH   1  24
HETATM   24  C6  UNL     1       0.129  49.715 -17.268  1.00  0.00    -0.014 C 
HETATM   25  C7  UNL     1       0.734  51.062 -16.817  1.00  0.00     0.010 C 
BRANCH  24  26
HETATM   26  C5  UNL     1      -0.154  48.855 -16.016  1.00  0.00     0.008 C 
BRANCH  26  27
HETATM   27  C4  UNL     1       1.092  48.617 -15.148  1.00  0.00     0.028 C 
BRANCH  27  28
HETATM   28  C3  UNL     1       1.259  49.627 -14.044  1.00  0.00    -0.013 C 
HETATM   29  C2  UNL     1       2.369  49.888 -13.325  1.00  0.00     0.008 C 
HETATM   30  C1  UNL     1       2.400  50.953 -12.266  1.00  0.00     0.055 C 
BRANCH  29  31
HETATM   31  C30 UNL     1       3.605  49.095 -13.503  1.00  0.00     0.171 C 
HETATM   32  O2  UNL     1       4.661  49.476 -13.972  1.00  0.00    -0.646 OA
BRANCH  31  33
HETATM   33  O3  UNL     1       3.449  47.830 -13.078  1.00  0.00    -0.773 OA
HETATM   34  H46 UNL     1       4.327  47.428 -13.241  1.00  0.00     0.167 HD
ENDBRANCH  31  33
ENDBRANCH  29  31
ENDBRANCH  27  28
ENDBRANCH  26  27
ENDBRANCH  24  26
ENDBRANCH   1  24
TORSDOF 6
ENDMDL
MODEL 9
REMARK minimizedAffinity -8.84574127
REMARK  6 active torsions:
REMARK  status: ('A' for Active; 'I' for Inactive)
REMARK    1  A    between atoms: C2_2  and  C30_31 
REMARK    2  A    between atoms: C3_3  and  C4_4 
REMARK    3  A    between atoms: C4_4  and  C5_5 
REMARK    4  A    between atoms: C5_5  and  C6_6 
REMARK    5  A    between atoms: C6_6  and  C8_8 
REMARK    6  A    between atoms: C30_31  and  O3_33 
ROOT
HETATM    1  C8  UNL     1      -1.090  50.391 -18.386  1.00  0.00    -0.002 C 
HETATM    2  C9  UNL     1      -1.835  49.061 -18.118  1.00  0.00     0.007 C 
HETATM    3  C10 UNL     1      -2.650  48.749 -19.401  1.00  0.00     0.015 C 
HETATM    4  C11 UNL     1      -2.577  50.044 -20.244  1.00  0.00    -0.013 C 
HETATM    5  C12 UNL     1      -3.701  50.979 -19.690  1.00  0.00     0.021 C 
HETATM    6  C13 UNL     1      -2.733  50.016 -21.764  1.00  0.00    -0.070 C 
HETATM    7  C14 UNL     1      -2.985  48.898 -22.470  1.00  0.00    -0.022 C 
HETATM    8  C15 UNL     1      -2.963  48.825 -23.969  1.00  0.00     0.034 C 
HETATM    9  C16 UNL     1      -2.265  50.047 -24.614  1.00  0.00     0.013 C 
HETATM   10  C17 UNL     1      -2.169  50.021 -26.187  1.00  0.00     0.018 C 
HETATM   11  C18 UNL     1      -0.681  49.987 -26.613  1.00  0.00     0.023 C 
HETATM   12  C19 UNL     1      -2.843  48.784 -26.821  1.00  0.00     0.023 C 
HETATM   13  C20 UNL     1      -2.769  51.280 -26.839  1.00  0.00     0.135 C 
HETATM   14  O1  UNL     1      -3.387  51.236 -27.905  1.00  0.00    -0.297 OA
HETATM   15  C21 UNL     1      -2.504  52.628 -26.203  1.00  0.00     0.080 C 
HETATM   16  C22 UNL     1      -2.153  52.553 -24.725  1.00  0.00     0.017 C 
HETATM   17  C23 UNL     1      -2.819  51.371 -23.991  1.00  0.00    -0.031 C 
HETATM   18  C24 UNL     1      -4.368  51.483 -24.140  1.00  0.00     0.016 C 
HETATM   19  C25 UNL     1      -2.505  51.386 -22.437  1.00  0.00     0.024 C 
HETATM   20  C26 UNL     1      -1.115  51.955 -22.039  1.00  0.00     0.010 C 
HETATM   21  C27 UNL     1      -0.824  51.893 -20.519  1.00  0.00     0.011 C 
HETATM   22  C28 UNL     1      -1.091  50.491 -19.937  1.00  0.00    -0.029 C 
HETATM   23  C29 UNL     1      -0.034  49.528 -20.569  1.00  0.00     0.016 C 
ENDROOT
BRANCH   1  24
HETATM   24  C6  UNL     1       0.234  50.624 -17.607  1.00  0.00    -0.014 C 
HETATM   25  C7  UNL     1       0.549  52.136 -17.613  1.00  0.00     0.010 C 
BRANCH  24  26
HETATM   26  C5  UNL     1       0.270  50.116 -16.148  1.00  0.00     0.008 C 
BRANCH  26  27
HETATM   27  C4  UNL     1      -0.558  50.982 -15.184  1.00  0.00     0.028 C 
BRANCH  27  28
HETATM   28  C3  UNL     1      -1.453  50.184 -14.274  1.00  0.00    -0.013 C 
HETATM   29  C2  UNL     1      -2.499  50.627 -13.548  1.00  0.00     0.008 C 
HETATM   30  C1  UNL     1      -3.330  49.706 -12.702  1.00  0.00     0.055 C 
BRANCH  29  31
HETATM   31  C30 UNL     1      -2.850  52.064 -13.503  1.00  0.00     0.171 C 
HETATM   32  O2  UNL     1      -3.718  52.628 -14.141  1.00  0.00    -0.646 OA
BRANCH  31  33
HETATM   33  O3  UNL     1      -2.071  52.738 -12.640  1.00  0.00    -0.773 OA
HETATM   34  H46 UNL     1      -2.410  53.655 -12.700  1.00  0.00     0.167 HD
ENDBRANCH  31  33
ENDBRANCH  29  31
ENDBRANCH  27  28
ENDBRANCH  26  27
ENDBRANCH  24  26
ENDBRANCH   1  24
TORSDOF 6
ENDMDL
