MODEL 1
REMARK minimizedAffinity -7.24160147
REMARK CNNscore 0.780030787
REMARK CNNaffinity 6.92718315
REMARK  5 active torsions:
REMARK  status: ('A' for Active; 'I' for Inactive)
REMARK    1  A    between atoms: C4_4  and  C5_5 
REMARK    2  A    between atoms: C5_5  and  C6_6 
REMARK    3  A    between atoms: C6_6  and  C7_7 
REMARK    4  A    between atoms: C7_7  and  C9_9 
REMARK    5  A    between atoms: C24_24  and  O1_25 
ROOT
HETATM    1  C9  UNL     1       4.941  55.997  -8.382  1.00  0.00    -0.002 C 
HETATM    2  C10 UNL     1       5.789  55.094  -9.305  1.00  0.00     0.007 C 
HETATM    3  C11 UNL     1       4.803  54.350 -10.239  1.00  0.00     0.015 C 
HETATM    4  C12 UNL     1       3.431  55.009  -9.993  1.00  0.00    -0.013 C 
HETATM    5  C13 UNL     1       3.351  56.253 -10.937  1.00  0.00     0.021 C 
HETATM    6  C14 UNL     1       2.151  54.229 -10.277  1.00  0.00    -0.068 C 
HETATM    7  C15 UNL     1       1.016  54.521  -9.586  1.00  0.00    -0.068 C 
HETATM    8  C16 UNL     1       1.007  55.544  -8.443  1.00  0.00     0.036 C 
HETATM    9  C17 UNL     1       2.349  56.213  -8.073  1.00  0.00     0.015 C 
HETATM   10  C18 UNL     1       3.537  55.327  -8.456  1.00  0.00    -0.029 C 
HETATM   11  C19 UNL     1       3.506  54.057  -7.550  1.00  0.00     0.016 C 
HETATM   12  C20 UNL     1      -0.313  53.788  -9.876  1.00  0.00    -0.017 C 
HETATM   13  C21 UNL     1      -0.413  52.628  -8.854  1.00  0.00     0.020 C 
HETATM   14  C22 UNL     1      -1.557  54.710  -9.723  1.00  0.00     0.016 C 
HETATM   15  C23 UNL     1      -2.868  54.034 -10.132  1.00  0.00     0.033 C 
HETATM   16  C24 UNL     1      -2.810  53.460 -11.543  1.00  0.00     0.118 C 
HETATM   17  C25 UNL     1      -1.591  52.562 -11.757  1.00  0.00     0.037 C 
HETATM   18  C26 UNL     1      -0.299  53.283 -11.356  1.00  0.00     0.001 C 
HETATM   19  C27 UNL     1       0.929  52.420 -11.637  1.00  0.00     0.010 C 
HETATM   20  C28 UNL     1       2.214  53.210 -11.395  1.00  0.00     0.036 C 
ENDROOT
BRANCH   1  21
HETATM   21  C7  UNL     1       5.508  56.355  -6.978  1.00  0.00    -0.014 C 
HETATM   22  C8  UNL     1       5.320  57.857  -6.711  1.00  0.00     0.010 C 
BRANCH  21  23
HETATM   23  C6  UNL     1       6.928  55.859  -6.601  1.00  0.00     0.008 C 
BRANCH  23  24
HETATM   24  C5  UNL     1       7.746  56.628  -5.540  1.00  0.00     0.028 C 
BRANCH  24  25
HETATM   25  C4  UNL     1       9.139  56.112  -5.317  1.00  0.00    -0.025 C 
HETATM   26  C2  UNL     1      10.262  56.800  -5.034  1.00  0.00    -0.091 C 
HETATM   27  C1  UNL     1      10.361  58.295  -4.890  1.00  0.00     0.042 C 
HETATM   28  C3  UNL     1      11.569  56.077  -4.838  1.00  0.00     0.042 C 
ENDBRANCH  24  25
ENDBRANCH  23  24
ENDBRANCH  21  23
ENDBRANCH   1  21
BRANCH  16  29
HETATM   29  O1  UNL     1      -4.000  52.720 -11.806  1.00  0.00    -0.396 OA
HETATM   30  H39 UNL     1      -4.020  51.961 -11.197  1.00  0.00     0.210 HD
ENDBRANCH  16  29
TORSDOF 5
ENDMDL
MODEL 2
REMARK minimizedAffinity -6.99997473
REMARK CNNscore 0.694669068
REMARK CNNaffinity 6.70360041
REMARK  5 active torsions:
REMARK  status: ('A' for Active; 'I' for Inactive)
REMARK    1  A    between atoms: C4_4  and  C5_5 
REMARK    2  A    between atoms: C5_5  and  C6_6 
REMARK    3  A    between atoms: C6_6  and  C7_7 
REMARK    4  A    between atoms: C7_7  and  C9_9 
REMARK    5  A    between atoms: C24_24  and  O1_25 
ROOT
HETATM    1  C9  UNL     1       4.376  54.695  -8.414  1.00  0.00    -0.002 C 
HETATM    2  C10 UNL     1       4.025  56.199  -8.381  1.00  0.00     0.007 C 
HETATM    3  C11 UNL     1       2.501  56.313  -8.623  1.00  0.00     0.015 C 
HETATM    4  C12 UNL     1       1.968  54.867  -8.559  1.00  0.00    -0.013 C 
HETATM    5  C13 UNL     1       1.683  54.556  -7.054  1.00  0.00     0.021 C 
HETATM    6  C14 UNL     1       0.672  54.502  -9.277  1.00  0.00    -0.068 C 
HETATM    7  C15 UNL     1       0.478  53.227  -9.710  1.00  0.00    -0.068 C 
HETATM    8  C16 UNL     1       1.573  52.159  -9.595  1.00  0.00     0.036 C 
HETATM    9  C17 UNL     1       2.931  52.590  -9.000  1.00  0.00     0.015 C 
HETATM   10  C18 UNL     1       3.175  54.088  -9.199  1.00  0.00    -0.029 C 
HETATM   11  C19 UNL     1       3.352  54.352 -10.726  1.00  0.00     0.016 C 
HETATM   12  C20 UNL     1      -0.839  52.804 -10.399  1.00  0.00    -0.017 C 
HETATM   13  C21 UNL     1      -0.595  52.907 -11.925  1.00  0.00     0.020 C 
HETATM   14  C22 UNL     1      -1.264  51.349 -10.049  1.00  0.00     0.016 C 
HETATM   15  C23 UNL     1      -2.630  50.961 -10.620  1.00  0.00     0.033 C 
HETATM   16  C24 UNL     1      -3.728  51.939 -10.217  1.00  0.00     0.118 C 
HETATM   17  C25 UNL     1      -3.353  53.391 -10.518  1.00  0.00     0.037 C 
HETATM   18  C26 UNL     1      -1.990  53.744  -9.912  1.00  0.00     0.001 C 
HETATM   19  C27 UNL     1      -1.643  55.213 -10.145  1.00  0.00     0.010 C 
HETATM   20  C28 UNL     1      -0.369  55.596  -9.392  1.00  0.00     0.036 C 
ENDROOT
BRANCH   1  21
HETATM   21  C7  UNL     1       5.813  54.282  -8.843  1.00  0.00    -0.014 C 
HETATM   22  C8  UNL     1       6.083  52.829  -8.421  1.00  0.00     0.010 C 
BRANCH  21  23
HETATM   23  C6  UNL     1       6.994  55.228  -8.497  1.00  0.00     0.008 C 
BRANCH  23  24
HETATM   24  C5  UNL     1       7.440  55.381  -7.026  1.00  0.00     0.028 C 
BRANCH  24  25
HETATM   25  C4  UNL     1       6.877  56.578  -6.314  1.00  0.00    -0.025 C 
HETATM   26  C2  UNL     1       7.497  57.440  -5.484  1.00  0.00    -0.091 C 
HETATM   27  C1  UNL     1       8.942  57.370  -5.069  1.00  0.00     0.042 C 
HETATM   28  C3  UNL     1       6.739  58.592  -4.878  1.00  0.00     0.042 C 
ENDBRANCH  24  25
ENDBRANCH  23  24
ENDBRANCH  21  23
ENDBRANCH   1  21
BRANCH  16  29
HETATM   29  O1  UNL     1      -4.935  51.607 -10.897  1.00  0.00    -0.396 OA
HETATM   30  H39 UNL     1      -4.786  51.734 -11.850  1.00  0.00     0.210 HD
ENDBRANCH  16  29
TORSDOF 5
ENDMDL
MODEL 3
REMARK minimizedAffinity -7.51614761
REMARK CNNscore 0.568166077
REMARK CNNaffinity 6.69229364
REMARK  5 active torsions:
REMARK  status: ('A' for Active; 'I' for Inactive)
REMARK    1  A    between atoms: C4_4  and  C5_5 
REMARK    2  A    between atoms: C5_5  and  C6_6 
REMARK    3  A    between atoms: C6_6  and  C7_7 
REMARK    4  A    between atoms: C7_7  and  C9_9 
REMARK    5  A    between atoms: C24_24  and  O1_25 
ROOT
HETATM    1  C9  UNL     1       2.619  53.291 -10.947  1.00  0.00    -0.002 C 
HETATM    2  C10 UNL     1       1.419  54.263 -10.909  1.00  0.00     0.007 C 
HETATM    3  C11 UNL     1       1.824  55.445  -9.995  1.00  0.00     0.015 C 
HETATM    4  C12 UNL     1       3.327  55.246  -9.712  1.00  0.00    -0.013 C 
HETATM    5  C13 UNL     1       4.102  55.921 -10.890  1.00  0.00     0.021 C 
HETATM    6  C14 UNL     1       3.949  55.843  -8.453  1.00  0.00    -0.068 C 
HETATM    7  C15 UNL     1       5.045  55.256  -7.899  1.00  0.00    -0.068 C 
HETATM    8  C16 UNL     1       5.616  53.939  -8.441  1.00  0.00     0.036 C 
HETATM    9  C17 UNL     1       4.880  53.275  -9.625  1.00  0.00     0.015 C 
HETATM   10  C18 UNL     1       3.403  53.677  -9.658  1.00  0.00    -0.029 C 
HETATM   11  C19 UNL     1       2.705  53.058  -8.407  1.00  0.00     0.016 C 
HETATM   12  C20 UNL     1       5.733  55.855  -6.652  1.00  0.00    -0.017 C 
HETATM   13  C21 UNL     1       5.153  55.110  -5.424  1.00  0.00     0.020 C 
HETATM   14  C22 UNL     1       7.279  55.676  -6.672  1.00  0.00     0.016 C 
HETATM   15  C23 UNL     1       7.985  56.376  -5.509  1.00  0.00     0.033 C 
HETATM   16  C24 UNL     1       7.629  57.856  -5.418  1.00  0.00     0.118 C 
HETATM   17  C25 UNL     1       6.118  58.091  -5.418  1.00  0.00     0.037 C 
HETATM   18  C26 UNL     1       5.452  57.393  -6.609  1.00  0.00     0.001 C 
HETATM   19  C27 UNL     1       3.954  57.685  -6.657  1.00  0.00     0.010 C 
HETATM   20  C28 UNL     1       3.334  57.127  -7.938  1.00  0.00     0.036 C 
ENDROOT
BRANCH   1  21
HETATM   21  C7  UNL     1       2.338  51.784 -11.209  1.00  0.00    -0.014 C 
HETATM   22  C8  UNL     1       3.652  50.990 -11.125  1.00  0.00     0.010 C 
BRANCH  21  23
HETATM   23  C6  UNL     1       1.485  51.389 -12.444  1.00  0.00     0.008 C 
BRANCH  23  24
HETATM   24  C5  UNL     1       2.129  50.566 -13.582  1.00  0.00     0.028 C 
BRANCH  24  25
HETATM   25  C4  UNL     1       3.138  51.310 -14.408  1.00  0.00    -0.025 C 
HETATM   26  C2  UNL     1       2.953  52.010 -15.544  1.00  0.00    -0.091 C 
HETATM   27  C1  UNL     1       1.641  52.188 -16.260  1.00  0.00     0.042 C 
HETATM   28  C3  UNL     1       4.115  52.695 -16.215  1.00  0.00     0.042 C 
ENDBRANCH  24  25
ENDBRANCH  23  24
ENDBRANCH  21  23
ENDBRANCH   1  21
BRANCH  16  29
HETATM   29  O1  UNL     1       8.198  58.412  -4.236  1.00  0.00    -0.396 OA
HETATM   30  H39 UNL     1       7.782  57.978  -3.471  1.00  0.00     0.210 HD
ENDBRANCH  16  29
TORSDOF 5
ENDMDL
MODEL 4
REMARK minimizedAffinity -7.13889265
REMARK CNNscore 0.560260773
REMARK CNNaffinity 6.68710566
REMARK  5 active torsions:
REMARK  status: ('A' for Active; 'I' for Inactive)
REMARK    1  A    between atoms: C4_4  and  C5_5 
REMARK    2  A    between atoms: C5_5  and  C6_6 
REMARK    3  A    between atoms: C6_6  and  C7_7 
REMARK    4  A    between atoms: C7_7  and  C9_9 
REMARK    5  A    between atoms: C24_24  and  O1_25 
ROOT
HETATM    1  C9  UNL     1       4.855  56.317  -8.343  1.00  0.00    -0.002 C 
HETATM    2  C10 UNL     1       5.774  55.362  -9.136  1.00  0.00     0.007 C 
HETATM    3  C11 UNL     1       4.858  54.500 -10.039  1.00  0.00     0.015 C 
HETATM    4  C12 UNL     1       3.456  55.132  -9.920  1.00  0.00    -0.013 C 
HETATM    5  C13 UNL     1       3.385  56.278 -10.980  1.00  0.00     0.021 C 
HETATM    6  C14 UNL     1       2.215  54.285 -10.187  1.00  0.00    -0.068 C 
HETATM    7  C15 UNL     1       1.040  54.601  -9.579  1.00  0.00    -0.068 C 
HETATM    8  C16 UNL     1       0.945  55.726  -8.540  1.00  0.00     0.036 C 
HETATM    9  C17 UNL     1       2.246  56.472  -8.174  1.00  0.00     0.015 C 
HETATM   10  C18 UNL     1       3.477  55.595  -8.417  1.00  0.00    -0.029 C 
HETATM   11  C19 UNL     1       3.441  54.415  -7.397  1.00  0.00     0.016 C 
HETATM   12  C20 UNL     1      -0.250  53.799  -9.859  1.00  0.00    -0.017 C 
HETATM   13  C21 UNL     1      -0.365  52.737  -8.738  1.00  0.00     0.020 C 
HETATM   14  C22 UNL     1      -1.528  54.688  -9.851  1.00  0.00     0.016 C 
HETATM   15  C23 UNL     1      -2.796  53.931 -10.254  1.00  0.00     0.033 C 
HETATM   16  C24 UNL     1      -2.653  53.230 -11.600  1.00  0.00     0.118 C 
HETATM   17  C25 UNL     1      -1.398  52.359 -11.672  1.00  0.00     0.037 C 
HETATM   18  C26 UNL     1      -0.150  53.159 -11.283  1.00  0.00     0.001 C 
HETATM   19  C27 UNL     1       1.116  52.316 -11.424  1.00  0.00     0.010 C 
HETATM   20  C28 UNL     1       2.364  53.169 -11.200  1.00  0.00     0.036 C 
ENDROOT
BRANCH   1  21
HETATM   21  C7  UNL     1       5.342  56.824  -6.955  1.00  0.00    -0.014 C 
HETATM   22  C8  UNL     1       6.697  56.181  -6.615  1.00  0.00     0.010 C 
BRANCH  21  23
HETATM   23  C6  UNL     1       4.352  56.787  -5.760  1.00  0.00     0.008 C 
BRANCH  23  24
HETATM   24  C5  UNL     1       3.708  58.101  -5.266  1.00  0.00     0.028 C 
BRANCH  24  25
HETATM   25  C4  UNL     1       2.311  57.960  -4.733  1.00  0.00    -0.025 C 
HETATM   26  C2  UNL     1       1.758  58.526  -3.642  1.00  0.00    -0.091 C 
HETATM   27  C1  UNL     1       2.462  59.447  -2.682  1.00  0.00     0.042 C 
HETATM   28  C3  UNL     1       0.319  58.253  -3.289  1.00  0.00     0.042 C 
ENDBRANCH  24  25
ENDBRANCH  23  24
ENDBRANCH  21  23
ENDBRANCH   1  21
BRANCH  16  29
HETATM   29  O1  UNL     1      -3.805  52.429 -11.846  1.00  0.00    -0.396 OA
HETATM   30  H39 UNL     1      -3.833  51.730 -11.170  1.00  0.00     0.210 HD
ENDBRANCH  16  29
TORSDOF 5
ENDMDL
MODEL 5
REMARK minimizedAffinity -9.76055527
REMARK CNNscore 0.370031983
REMARK CNNaffinity 6.79286432
REMARK  5 active torsions:
REMARK  status: ('A' for Active; 'I' for Inactive)
REMARK    1  A    between atoms: C4_4  and  C5_5 
REMARK    2  A    between atoms: C5_5  and  C6_6 
REMARK    3  A    between atoms: C6_6  and  C7_7 
REMARK    4  A    between atoms: C7_7  and  C9_9 
REMARK    5  A    between atoms: C24_24  and  O1_25 
ROOT
HETATM    1  C9  UNL     1      -1.035  50.012 -19.384  1.00  0.00    -0.002 C 
HETATM    2  C10 UNL     1      -2.134  49.158 -18.713  1.00  0.00     0.007 C 
HETATM    3  C11 UNL     1      -2.997  48.557 -19.850  1.00  0.00     0.015 C 
HETATM    4  C12 UNL     1      -2.241  48.888 -21.154  1.00  0.00    -0.013 C 
HETATM    5  C13 UNL     1      -1.197  47.746 -21.373  1.00  0.00     0.021 C 
HETATM    6  C14 UNL     1      -3.002  48.969 -22.473  1.00  0.00    -0.068 C 
HETATM    7  C15 UNL     1      -2.534  49.764 -23.473  1.00  0.00    -0.068 C 
HETATM    8  C16 UNL     1      -1.314  50.673 -23.278  1.00  0.00     0.036 C 
HETATM    9  C17 UNL     1      -0.648  50.686 -21.885  1.00  0.00     0.015 C 
HETATM   10  C18 UNL     1      -1.644  50.296 -20.789  1.00  0.00    -0.029 C 
HETATM   11  C19 UNL     1      -2.716  51.424 -20.685  1.00  0.00     0.016 C 
HETATM   12  C20 UNL     1      -3.248  49.839 -24.841  1.00  0.00    -0.017 C 
HETATM   13  C21 UNL     1      -4.188  51.069 -24.785  1.00  0.00     0.020 C 
HETATM   14  C22 UNL     1      -2.258  50.008 -26.030  1.00  0.00     0.016 C 
HETATM   15  C23 UNL     1      -2.940  49.954 -27.400  1.00  0.00     0.033 C 
HETATM   16  C24 UNL     1      -3.773  48.690 -27.586  1.00  0.00     0.118 C 
HETATM   17  C25 UNL     1      -4.749  48.462 -26.431  1.00  0.00     0.037 C 
HETATM   18  C26 UNL     1      -4.024  48.502 -25.081  1.00  0.00     0.001 C 
HETATM   19  C27 UNL     1      -4.979  48.201 -23.928  1.00  0.00     0.010 C 
HETATM   20  C28 UNL     1      -4.217  48.075 -22.610  1.00  0.00     0.036 C 
ENDROOT
BRANCH   1  21
HETATM   21  C7  UNL     1      -0.445  51.210 -18.586  1.00  0.00    -0.014 C 
HETATM   22  C8  UNL     1       0.358  52.117 -19.534  1.00  0.00     0.010 C 
BRANCH  21  23
HETATM   23  C6  UNL     1       0.309  50.923 -17.261  1.00  0.00     0.008 C 
BRANCH  23  24
HETATM   24  C5  UNL     1       0.836  52.103 -16.415  1.00  0.00     0.028 C 
BRANCH  24  25
HETATM   25  C4  UNL     1       2.298  52.402 -16.586  1.00  0.00    -0.025 C 
HETATM   26  C2  UNL     1       3.333  52.047 -15.800  1.00  0.00    -0.091 C 
HETATM   27  C1  UNL     1       3.234  51.255 -14.525  1.00  0.00     0.042 C 
HETATM   28  C3  UNL     1       4.739  52.448 -16.165  1.00  0.00     0.042 C 
ENDBRANCH  24  25
ENDBRANCH  23  24
ENDBRANCH  21  23
ENDBRANCH   1  21
BRANCH  16  29
HETATM   29  O1  UNL     1      -4.494  48.771 -28.812  1.00  0.00    -0.396 OA
HETATM   30  H39 UNL     1      -5.123  49.510 -28.741  1.00  0.00     0.210 HD
ENDBRANCH  16  29
TORSDOF 5
ENDMDL
MODEL 6
REMARK minimizedAffinity -7.1755476
REMARK CNNscore 0.336589575
REMARK CNNaffinity 5.58140993
REMARK  5 active torsions:
REMARK  status: ('A' for Active; 'I' for Inactive)
REMARK    1  A    between atoms: C4_4  and  C5_5 
REMARK    2  A    between atoms: C5_5  and  C6_6 
REMARK    3  A    between atoms: C6_6  and  C7_7 
REMARK    4  A    between atoms: C7_7  and  C9_9 
REMARK    5  A    between atoms: C24_24  and  O1_25 
ROOT
HETATM    1  C9  UNL     1      -9.580  46.711 -28.337  1.00  0.00    -0.002 C 
HETATM    2  C10 UNL     1      -9.996  46.027 -29.658  1.00  0.00     0.007 C 
HETATM    3  C11 UNL     1     -11.523  45.785 -29.580  1.00  0.00     0.015 C 
HETATM    4  C12 UNL     1     -11.993  46.539 -28.319  1.00  0.00    -0.013 C 
HETATM    5  C13 UNL     1     -12.272  48.015 -28.754  1.00  0.00     0.021 C 
HETATM    6  C14 UNL     1     -13.267  46.103 -27.603  1.00  0.00    -0.068 C 
HETATM    7  C15 UNL     1     -13.403  46.335 -26.269  1.00  0.00    -0.068 C 
HETATM    8  C16 UNL     1     -12.263  46.928 -25.432  1.00  0.00     0.036 C 
HETATM    9  C17 UNL     1     -10.929  47.224 -26.150  1.00  0.00     0.015 C 
HETATM   10  C18 UNL     1     -10.749  46.330 -27.380  1.00  0.00    -0.029 C 
HETATM   11  C19 UNL     1     -10.575  44.860 -26.889  1.00  0.00     0.016 C 
HETATM   12  C20 UNL     1     -14.696  45.952 -25.515  1.00  0.00    -0.017 C 
HETATM   13  C21 UNL     1     -14.448  44.558 -24.887  1.00  0.00     0.020 C 
HETATM   14  C22 UNL     1     -15.059  46.961 -24.387  1.00  0.00     0.016 C 
HETATM   15  C23 UNL     1     -16.404  46.667 -23.718  1.00  0.00     0.033 C 
HETATM   16  C24 UNL     1     -17.546  46.571 -24.724  1.00  0.00     0.118 C 
HETATM   17  C25 UNL     1     -17.232  45.607 -25.869  1.00  0.00     0.037 C 
HETATM   18  C26 UNL     1     -15.890  45.949 -26.526  1.00  0.00     0.001 C 
HETATM   19  C27 UNL     1     -15.606  45.038 -27.718  1.00  0.00     0.010 C 
HETATM   20  C28 UNL     1     -14.354  45.497 -28.465  1.00  0.00     0.036 C 
ENDROOT
BRANCH   1  21
HETATM   21  C7  UNL     1      -8.124  46.509 -27.829  1.00  0.00    -0.014 C 
HETATM   22  C8  UNL     1      -7.525  45.244 -28.465  1.00  0.00     0.010 C 
BRANCH  21  23
HETATM   23  C6  UNL     1      -7.849  46.592 -26.304  1.00  0.00     0.008 C 
BRANCH  23  24
HETATM   24  C5  UNL     1      -6.911  47.693 -25.760  1.00  0.00     0.028 C 
BRANCH  24  25
HETATM   25  C4  UNL     1      -5.691  47.957 -26.596  1.00  0.00    -0.025 C 
HETATM   26  C2  UNL     1      -4.456  48.322 -26.202  1.00  0.00    -0.091 C 
HETATM   27  C1  UNL     1      -4.027  48.567 -24.780  1.00  0.00     0.042 C 
HETATM   28  C3  UNL     1      -3.362  48.528 -27.217  1.00  0.00     0.042 C 
ENDBRANCH  24  25
ENDBRANCH  23  24
ENDBRANCH  21  23
ENDBRANCH   1  21
BRANCH  16  29
HETATM   29  O1  UNL     1     -18.734  46.151 -24.059  1.00  0.00    -0.396 OA
HETATM   30  H39 UNL     1     -18.584  45.251 -23.720  1.00  0.00     0.210 HD
ENDBRANCH  16  29
TORSDOF 5
ENDMDL
MODEL 7
REMARK minimizedAffinity -9.49517155
REMARK CNNscore 0.311940879
REMARK CNNaffinity 6.56070471
REMARK  5 active torsions:
REMARK  status: ('A' for Active; 'I' for Inactive)
REMARK    1  A    between atoms: C4_4  and  C5_5 
REMARK    2  A    between atoms: C5_5  and  C6_6 
REMARK    3  A    between atoms: C6_6  and  C7_7 
REMARK    4  A    between atoms: C7_7  and  C9_9 
REMARK    5  A    between atoms: C24_24  and  O1_25 
ROOT
HETATM    1  C9  UNL     1      -1.636  49.260 -19.354  1.00  0.00    -0.002 C 
HETATM    2  C10 UNL     1      -2.883  48.548 -18.784  1.00  0.00     0.007 C 
HETATM    3  C11 UNL     1      -3.748  48.116 -19.993  1.00  0.00     0.015 C 
HETATM    4  C12 UNL     1      -2.874  48.380 -21.236  1.00  0.00    -0.013 C 
HETATM    5  C13 UNL     1      -1.988  47.109 -21.444  1.00  0.00     0.021 C 
HETATM    6  C14 UNL     1      -3.533  48.614 -22.592  1.00  0.00    -0.068 C 
HETATM    7  C15 UNL     1      -2.896  49.368 -23.529  1.00  0.00    -0.068 C 
HETATM    8  C16 UNL     1      -1.575  50.087 -23.227  1.00  0.00     0.036 C 
HETATM    9  C17 UNL     1      -1.003  49.957 -21.798  1.00  0.00     0.015 C 
HETATM   10  C18 UNL     1      -2.109  49.675 -20.779  1.00  0.00    -0.029 C 
HETATM   11  C19 UNL     1      -3.018  50.940 -20.688  1.00  0.00     0.016 C 
HETATM   12  C20 UNL     1      -3.506  49.590 -24.931  1.00  0.00    -0.017 C 
HETATM   13  C21 UNL     1      -4.266  50.938 -24.876  1.00  0.00     0.020 C 
HETATM   14  C22 UNL     1      -2.431  49.657 -26.054  1.00  0.00     0.016 C 
HETATM   15  C23 UNL     1      -3.027  49.747 -27.461  1.00  0.00     0.033 C 
HETATM   16  C24 UNL     1      -4.015  48.622 -27.747  1.00  0.00     0.118 C 
HETATM   17  C25 UNL     1      -5.083  48.496 -26.661  1.00  0.00     0.037 C 
HETATM   18  C26 UNL     1      -4.445  48.386 -25.271  1.00  0.00     0.001 C 
HETATM   19  C27 UNL     1      -5.504  48.184 -24.189  1.00  0.00     0.010 C 
HETATM   20  C28 UNL     1      -4.849  47.906 -22.836  1.00  0.00     0.036 C 
ENDROOT
BRANCH   1  21
HETATM   21  C7  UNL     1      -0.934  50.334 -18.475  1.00  0.00    -0.014 C 
HETATM   22  C8  UNL     1      -1.955  50.964 -17.513  1.00  0.00     0.010 C 
BRANCH  21  23
HETATM   23  C6  UNL     1      -0.039  51.395 -19.168  1.00  0.00     0.008 C 
BRANCH  23  24
HETATM   24  C5  UNL     1      -0.351  52.896 -18.976  1.00  0.00     0.028 C 
BRANCH  24  25
HETATM   25  C4  UNL     1       0.375  53.819 -19.913  1.00  0.00    -0.025 C 
HETATM   26  C2  UNL     1       1.046  53.523 -21.043  1.00  0.00    -0.091 C 
HETATM   27  C1  UNL     1       1.226  52.145 -21.620  1.00  0.00     0.042 C 
HETATM   28  C3  UNL     1       1.702  54.615 -21.847  1.00  0.00     0.042 C 
ENDBRANCH  24  25
ENDBRANCH  23  24
ENDBRANCH  21  23
ENDBRANCH   1  21
BRANCH  16  29
HETATM   29  O1  UNL     1      -4.640  48.846 -29.008  1.00  0.00    -0.396 OA
HETATM   30  H39 UNL     1      -5.162  49.665 -28.942  1.00  0.00     0.210 HD
ENDBRANCH  16  29
TORSDOF 5
ENDMDL
MODEL 8
REMARK minimizedAffinity -7.55539036
REMARK CNNscore 0.308964729
REMARK CNNaffinity 6.28524971
REMARK  5 active torsions:
REMARK  status: ('A' for Active; 'I' for Inactive)
REMARK    1  A    between atoms: C4_4  and  C5_5 
REMARK    2  A    between atoms: C5_5  and  C6_6 
REMARK    3  A    between atoms: C6_6  and  C7_7 
REMARK    4  A    between atoms: C7_7  and  C9_9 
REMARK    5  A    between atoms: C24_24  and  O1_25 
ROOT
HETATM    1  C9  UNL     1      -3.439  48.417 -23.214  1.00  0.00    -0.002 C 
HETATM    2  C10 UNL     1      -2.340  48.214 -22.147  1.00  0.00     0.007 C 
HETATM    3  C11 UNL     1      -3.059  47.889 -20.815  1.00  0.00     0.015 C 
HETATM    4  C12 UNL     1      -4.541  47.684 -21.190  1.00  0.00    -0.013 C 
HETATM    5  C13 UNL     1      -4.697  46.187 -21.614  1.00  0.00     0.021 C 
HETATM    6  C14 UNL     1      -5.627  47.901 -20.141  1.00  0.00    -0.068 C 
HETATM    7  C15 UNL     1      -6.876  48.275 -20.531  1.00  0.00    -0.068 C 
HETATM    8  C16 UNL     1      -7.203  48.594 -21.996  1.00  0.00     0.036 C 
HETATM    9  C17 UNL     1      -6.049  48.512 -23.019  1.00  0.00     0.015 C 
HETATM   10  C18 UNL     1      -4.692  48.738 -22.347  1.00  0.00    -0.029 C 
HETATM   11  C19 UNL     1      -4.635  50.218 -21.858  1.00  0.00     0.016 C 
HETATM   12  C20 UNL     1      -8.017  48.459 -19.506  1.00  0.00    -0.017 C 
HETATM   13  C21 UNL     1      -8.060  49.967 -19.155  1.00  0.00     0.020 C 
HETATM   14  C22 UNL     1      -9.404  48.026 -20.062  1.00  0.00     0.016 C 
HETATM   15  C23 UNL     1     -10.521  48.080 -19.017  1.00  0.00     0.033 C 
HETATM   16  C24 UNL     1     -10.185  47.280 -17.763  1.00  0.00     0.118 C 
HETATM   17  C25 UNL     1      -8.818  47.650 -17.186  1.00  0.00     0.037 C 
HETATM   18  C26 UNL     1      -7.726  47.562 -18.258  1.00  0.00     0.001 C 
HETATM   19  C27 UNL     1      -6.347  47.857 -17.671  1.00  0.00     0.010 C 
HETATM   20  C28 UNL     1      -5.251  47.600 -18.705  1.00  0.00     0.036 C 
ENDROOT
BRANCH   1  21
HETATM   21  C7  UNL     1      -3.129  49.346 -24.423  1.00  0.00    -0.014 C 
HETATM   22  C8  UNL     1      -3.109  48.519 -25.719  1.00  0.00     0.010 C 
BRANCH  21  23
HETATM   23  C6  UNL     1      -1.926  50.321 -24.323  1.00  0.00     0.008 C 
BRANCH  23  24
HETATM   24  C5  UNL     1      -1.406  51.020 -25.599  1.00  0.00     0.028 C 
BRANCH  24  25
HETATM   25  C4  UNL     1       0.090  51.097 -25.714  1.00  0.00    -0.025 C 
HETATM   26  C2  UNL     1       0.841  51.450 -26.775  1.00  0.00    -0.091 C 
HETATM   27  C1  UNL     1       0.316  51.844 -28.128  1.00  0.00     0.042 C 
HETATM   28  C3  UNL     1       2.344  51.468 -26.671  1.00  0.00     0.042 C 
ENDBRANCH  24  25
ENDBRANCH  23  24
ENDBRANCH  21  23
ENDBRANCH   1  21
BRANCH  16  29
HETATM   29  O1  UNL     1     -11.192  47.491 -16.778  1.00  0.00    -0.396 OA
HETATM   30  H39 UNL     1     -11.169  48.430 -16.523  1.00  0.00     0.210 HD
ENDBRANCH  16  29
TORSDOF 5
ENDMDL
MODEL 9
REMARK minimizedAffinity -7.13098192
REMARK CNNscore 0.292597026
REMARK CNNaffinity 5.83982897
REMARK  5 active torsions:
REMARK  status: ('A' for Active; 'I' for Inactive)
REMARK    1  A    between atoms: C4_4  and  C5_5 
REMARK    2  A    between atoms: C5_5  and  C6_6 
REMARK    3  A    between atoms: C6_6  and  C7_7 
REMARK    4  A    between atoms: C7_7  and  C9_9 
REMARK    5  A    between atoms: C24_24  and  O1_25 
ROOT
HETATM    1  C9  UNL     1      -8.544  46.916 -25.441  1.00  0.00    -0.002 C 
HETATM    2  C10 UNL     1      -9.105  48.350 -25.555  1.00  0.00     0.007 C 
HETATM    3  C11 UNL     1      -9.436  48.588 -27.049  1.00  0.00     0.015 C 
HETATM    4  C12 UNL     1      -9.276  47.212 -27.727  1.00  0.00    -0.013 C 
HETATM    5  C13 UNL     1     -10.641  46.468 -27.566  1.00  0.00     0.021 C 
HETATM    6  C14 UNL     1      -8.969  47.131 -29.219  1.00  0.00    -0.068 C 
HETATM    7  C15 UNL     1      -8.294  46.056 -29.710  1.00  0.00    -0.068 C 
HETATM    8  C16 UNL     1      -7.733  44.965 -28.790  1.00  0.00     0.036 C 
HETATM    9  C17 UNL     1      -7.927  45.144 -27.269  1.00  0.00     0.015 C 
HETATM   10  C18 UNL     1      -8.077  46.622 -26.897  1.00  0.00    -0.029 C 
HETATM   11  C19 UNL     1      -6.716  47.332 -27.172  1.00  0.00     0.016 C 
HETATM   12  C20 UNL     1      -8.005  45.912 -31.221  1.00  0.00    -0.017 C 
HETATM   13  C21 UNL     1      -6.577  46.467 -31.454  1.00  0.00     0.020 C 
HETATM   14  C22 UNL     1      -8.063  44.436 -31.709  1.00  0.00     0.016 C 
HETATM   15  C23 UNL     1      -7.906  44.291 -33.225  1.00  0.00     0.033 C 
HETATM   16  C24 UNL     1      -8.910  45.139 -33.998  1.00  0.00     0.118 C 
HETATM   17  C25 UNL     1      -8.910  46.598 -33.541  1.00  0.00     0.037 C 
HETATM   18  C26 UNL     1      -9.092  46.701 -32.023  1.00  0.00     0.001 C 
HETATM   19  C27 UNL     1      -9.169  48.157 -31.569  1.00  0.00     0.010 C 
HETATM   20  C28 UNL     1      -9.519  48.245 -30.084  1.00  0.00     0.036 C 
ENDROOT
BRANCH   1  21
HETATM   21  C7  UNL     1      -7.557  46.602 -24.279  1.00  0.00    -0.014 C 
HETATM   22  C8  UNL     1      -7.870  45.214 -23.695  1.00  0.00     0.010 C 
BRANCH  21  23
HETATM   23  C6  UNL     1      -7.338  47.673 -23.179  1.00  0.00     0.008 C 
BRANCH  23  24
HETATM   24  C5  UNL     1      -5.986  48.417 -23.099  1.00  0.00     0.028 C 
BRANCH  24  25
HETATM   25  C4  UNL     1      -5.199  48.438 -24.379  1.00  0.00    -0.025 C 
HETATM   26  C2  UNL     1      -3.865  48.507 -24.552  1.00  0.00    -0.091 C 
HETATM   27  C1  UNL     1      -2.842  48.596 -23.451  1.00  0.00     0.042 C 
HETATM   28  C3  UNL     1      -3.276  48.507 -25.939  1.00  0.00     0.042 C 
ENDBRANCH  24  25
ENDBRANCH  23  24
ENDBRANCH  21  23
ENDBRANCH   1  21
BRANCH  16  29
HETATM   29  O1  UNL     1      -8.616  45.074 -35.391  1.00  0.00    -0.396 OA
HETATM   30  H39 UNL     1      -7.742  45.480 -35.531  1.00  0.00     0.210 HD
ENDBRANCH  16  29
TORSDOF 5
ENDMDL
