MODEL 1
REMARK minimizedAffinity -6.18784809
REMARK CNNscore 0.312624693
REMARK CNNaffinity 6.94967413
REMARK  10 active torsions:
REMARK  status: ('A' for Active; 'I' for Inactive)
REMARK    1  A    between atoms: C16_18  and  C17_19 
REMARK    2  A    between atoms: C26_30  and  C27_31 
REMARK    3  A    between atoms: C27_31  and  O1_33 
REMARK    4  A    between atoms: C30_35  and  C31_36 
REMARK    5  A    between atoms: C31_36  and  O3_38 
REMARK    6  A    between atoms: C37_44  and  O4_45 
REMARK    7  A    between atoms: C40_48  and  C41_49 
REMARK    8  A    between atoms: C40_48  and  C42_51 
REMARK    9  A    between atoms: C41_49  and  O5_50 
REMARK   10  A    between atoms: C42_51  and  O7_53 
ROOT
HETATM    1  C17 UNL     1     -14.968   7.122  23.231  1.00  0.00     0.013 A 
HETATM    2  C18 UNL     1     -14.711   5.981  24.044  1.00  0.00     0.053 A 
HETATM    3  N3  UNL     1     -14.937   5.796  25.387  1.00  0.00    -0.357 N 
HETATM    4  C19 UNL     1     -14.627   4.519  25.799  1.00  0.00     0.038 A 
HETATM    5  C20 UNL     1     -14.074   3.880  24.700  1.00  0.00    -0.020 A 
HETATM    6  C21 UNL     1     -13.467   2.515  24.636  1.00  0.00     0.072 C 
HETATM    7  C22 UNL     1     -14.165   1.434  25.463  1.00  0.00     0.277 C 
HETATM    8  N4  UNL     1     -14.276   1.613  26.911  1.00  0.00     0.096 N 
HETATM    9  C23 UNL     1     -13.001   1.855  27.608  1.00  0.00     0.277 C 
HETATM   10  C24 UNL     1     -13.207   2.873  28.742  1.00  0.00     0.016 C 
HETATM   11  C25 UNL     1     -14.336   2.375  29.657  1.00  0.00     0.015 C 
HETATM   12  C26 UNL     1     -15.637   2.196  28.841  1.00  0.00     0.049 C 
HETATM   13  C29 UNL     1     -15.335   2.567  27.340  1.00  0.00     0.253 C 
HETATM   14  C30 UNL     1     -14.887   4.071  27.250  1.00  0.00     0.122 C 
HETATM   15  C33 UNL     1     -13.610   4.230  28.123  1.00  0.00     0.035 C 
HETATM   16  C34 UNL     1     -14.141   4.797  23.593  1.00  0.00    -0.000 A 
HETATM   17  C35 UNL     1     -13.760   4.712  22.243  1.00  0.00     0.017 A 
HETATM   18  C36 UNL     1     -14.004   5.790  21.395  1.00  0.00     0.038 A 
HETATM   19  C37 UNL     1     -14.602   6.953  21.879  1.00  0.00     0.075 A 
HETATM   20  H19 UNL     1     -15.305   6.519  25.989  1.00  0.00     0.166 HD
ENDROOT
BRANCH   1  21
HETATM   21  C16 UNL     1     -15.588   8.384  23.848  1.00  0.00     0.075 C 
HETATM   22  C9  UNL     1     -16.503   9.255  23.022  1.00  0.00     0.025 A 
HETATM   23  C8  UNL     1     -16.816  10.613  23.034  1.00  0.00    -0.020 A 
HETATM   24  N2  UNL     1     -17.311   8.665  22.074  1.00  0.00    -0.358 N 
HETATM   25  C7  UNL     1     -16.284  11.716  23.912  1.00  0.00     0.079 C 
HETATM   26  C15 UNL     1     -17.876  10.801  22.066  1.00  0.00    -0.001 A 
HETATM   27  C6  UNL     1     -14.811  12.223  23.771  1.00  0.00     0.248 C 
HETATM   28  N1  UNL     1     -14.183  12.248  22.434  1.00  0.00     0.094 N 
HETATM   29  C40 UNL     1     -13.788  11.588  24.772  1.00  0.00     0.107 C 
HETATM   30  C4  UNL     1     -13.827  10.930  21.909  1.00  0.00     0.306 C 
HETATM   31  C5  UNL     1     -14.907  13.036  21.443  1.00  0.00     0.310 C 
HETATM   32  C3  UNL     1     -13.095  10.036  22.905  1.00  0.00    -0.051 C 
HETATM   33  C2  UNL     1     -12.053   9.289  22.483  1.00  0.00    -0.026 C 
HETATM   34  C39 UNL     1     -13.537  10.105  24.361  1.00  0.00     0.039 C 
HETATM   35  C1  UNL     1     -11.222   8.329  23.275  1.00  0.00     0.036 C 
HETATM   36  C38 UNL     1     -14.650   9.123  24.820  1.00  0.00     0.026 C 
HETATM   37  C10 UNL     1     -18.153   9.568  21.489  1.00  0.00     0.043 A 
HETATM   38  C14 UNL     1     -18.632  11.914  21.636  1.00  0.00     0.014 A 
HETATM   39  C11 UNL     1     -19.131   9.383  20.503  1.00  0.00     0.030 A 
HETATM   40  C12 UNL     1     -19.857  10.504  20.095  1.00  0.00     0.002 A 
HETATM   41  C13 UNL     1     -19.613  11.754  20.652  1.00  0.00     0.001 A 
HETATM   42  H13 UNL     1     -17.265   7.686  21.826  1.00  0.00     0.166 HD
BRANCH  29  43
HETATM   43  C41 UNL     1     -12.454  12.414  24.754  1.00  0.00     0.186 C 
BRANCH  43  44
HETATM   44  O5  UNL     1     -11.290  11.628  25.030  1.00  0.00    -0.399 OA
HETATM   45  H49 UNL     1     -11.380  11.244  25.924  1.00  0.00     0.209 HD
ENDBRANCH  43  44
ENDBRANCH  29  43
BRANCH  29  46
HETATM   46  C42 UNL     1     -14.285  11.792  26.208  1.00  0.00     0.272 C 
HETATM   47  O6  UNL     1     -15.338  11.344  26.650  1.00  0.00    -0.264 OA
BRANCH  46  48
HETATM   48  O7  UNL     1     -13.449  12.598  26.925  1.00  0.00    -0.326 OA
HETATM   49  C43 UNL     1     -14.099  13.501  27.820  1.00  0.00     0.213 C 
ENDBRANCH  46  48
ENDBRANCH  29  46
ENDBRANCH   1  21
BRANCH  19  50
HETATM   50  O4  UNL     1     -14.854   7.950  20.979  1.00  0.00    -0.360 OA
HETATM   51  H43 UNL     1     -14.302   7.822  20.190  1.00  0.00     0.217 HD
ENDBRANCH  19  50
BRANCH  14  52
HETATM   52  C31 UNL     1     -16.071   4.935  27.781  1.00  0.00     0.275 C 
HETATM   53  O2  UNL     1     -17.243   4.791  27.465  1.00  0.00    -0.264 OA
BRANCH  52  54
HETATM   54  O3  UNL     1     -15.623   5.972  28.556  1.00  0.00    -0.326 OA
HETATM   55  C32 UNL     1     -16.412   7.158  28.467  1.00  0.00     0.213 C 
ENDBRANCH  52  54
ENDBRANCH  14  52
BRANCH  12  56
HETATM   56  C27 UNL     1     -16.279   0.794  28.991  1.00  0.00     0.120 C 
HETATM   57  C28 UNL     1     -16.881   0.572  30.373  1.00  0.00     0.040 C 
BRANCH  56  58
HETATM   58  O1  UNL     1     -15.331  -0.241  28.764  1.00  0.00    -0.396 OA
HETATM   59  H34 UNL     1     -14.874  -0.004  27.927  1.00  0.00     0.210 HD
ENDBRANCH  56  58
ENDBRANCH  12  56
TORSDOF 10
ENDMDL
MODEL 2
REMARK minimizedAffinity -6.22194386
REMARK CNNscore 0.297014356
REMARK CNNaffinity 6.58614492
REMARK  10 active torsions:
REMARK  status: ('A' for Active; 'I' for Inactive)
REMARK    1  A    between atoms: C16_18  and  C17_19 
REMARK    2  A    between atoms: C26_30  and  C27_31 
REMARK    3  A    between atoms: C27_31  and  O1_33 
REMARK    4  A    between atoms: C30_35  and  C31_36 
REMARK    5  A    between atoms: C31_36  and  O3_38 
REMARK    6  A    between atoms: C37_44  and  O4_45 
REMARK    7  A    between atoms: C40_48  and  C41_49 
REMARK    8  A    between atoms: C40_48  and  C42_51 
REMARK    9  A    between atoms: C41_49  and  O5_50 
REMARK   10  A    between atoms: C42_51  and  O7_53 
ROOT
HETATM    1  C17 UNL     1     -14.431  14.112  -0.732  1.00  0.00     0.013 A 
HETATM    2  C18 UNL     1     -13.587  14.426   0.372  1.00  0.00     0.053 A 
HETATM    3  N3  UNL     1     -12.279  14.847   0.380  1.00  0.00    -0.357 N 
HETATM    4  C19 UNL     1     -11.827  15.128   1.650  1.00  0.00     0.038 A 
HETATM    5  C20 UNL     1     -12.850  14.770   2.514  1.00  0.00    -0.020 A 
HETATM    6  C21 UNL     1     -12.836  14.767   4.009  1.00  0.00     0.072 C 
HETATM    7  C22 UNL     1     -12.090  15.926   4.673  1.00  0.00     0.277 C 
HETATM    8  N4  UNL     1     -10.666  16.105   4.389  1.00  0.00     0.096 N 
HETATM    9  C23 UNL     1      -9.827  14.922   4.645  1.00  0.00     0.277 C 
HETATM   10  C24 UNL     1      -8.730  14.814   3.573  1.00  0.00     0.016 C 
HETATM   11  C25 UNL     1      -7.950  16.137   3.526  1.00  0.00     0.015 C 
HETATM   12  C26 UNL     1      -8.912  17.306   3.208  1.00  0.00     0.049 C 
HETATM   13  C29 UNL     1     -10.369  16.724   3.069  1.00  0.00     0.253 C 
HETATM   14  C30 UNL     1     -10.414  15.697   1.879  1.00  0.00     0.122 C 
HETATM   15  C33 UNL     1      -9.399  14.565   2.203  1.00  0.00     0.035 C 
HETATM   16  C34 UNL     1     -13.963  14.343   1.707  1.00  0.00    -0.000 A 
HETATM   17  C35 UNL     1     -15.258  13.891   2.008  1.00  0.00     0.017 A 
HETATM   18  C36 UNL     1     -16.135  13.585   0.970  1.00  0.00     0.038 A 
HETATM   19  C37 UNL     1     -15.730  13.707  -0.360  1.00  0.00     0.075 A 
HETATM   20  H19 UNL     1     -11.728  14.950  -0.460  1.00  0.00     0.166 HD
ENDROOT
BRANCH   1  21
HETATM   21  C16 UNL     1     -13.897  14.227  -2.167  1.00  0.00     0.075 C 
HETATM   22  C9  UNL     1     -14.817  14.666  -3.280  1.00  0.00     0.025 A 
HETATM   23  C8  UNL     1     -14.862  14.420  -4.651  1.00  0.00    -0.020 A 
HETATM   24  N2  UNL     1     -15.816  15.574  -3.001  1.00  0.00    -0.358 N 
HETATM   25  C7  UNL     1     -13.967  13.560  -5.504  1.00  0.00     0.079 C 
HETATM   26  C15 UNL     1     -15.920  15.251  -5.185  1.00  0.00    -0.001 A 
HETATM   27  C6  UNL     1     -13.994  11.999  -5.389  1.00  0.00     0.248 C 
HETATM   28  N1  UNL     1     -15.274  11.322  -5.095  1.00  0.00     0.094 N 
HETATM   29  C40 UNL     1     -12.896  11.380  -4.460  1.00  0.00     0.107 C 
HETATM   30  C4  UNL     1     -15.737  11.477  -3.716  1.00  0.00     0.306 C 
HETATM   31  C5  UNL     1     -16.340  11.608  -6.048  1.00  0.00     0.310 C 
HETATM   32  C3  UNL     1     -14.663  11.227  -2.662  1.00  0.00    -0.051 C 
HETATM   33  C2  UNL     1     -14.978  10.535  -1.547  1.00  0.00    -0.026 C 
HETATM   34  C39 UNL     1     -13.251  11.705  -2.977  1.00  0.00     0.039 C 
HETATM   35  C1  UNL     1     -14.098  10.205  -0.382  1.00  0.00     0.036 C 
HETATM   36  C38 UNL     1     -12.866  13.142  -2.533  1.00  0.00     0.026 C 
HETATM   37  C10 UNL     1     -16.490  15.951  -4.129  1.00  0.00     0.043 A 
HETATM   38  C14 UNL     1     -16.437  15.477  -6.480  1.00  0.00     0.014 A 
HETATM   39  C11 UNL     1     -17.551  16.852  -4.287  1.00  0.00     0.030 A 
HETATM   40  C12 UNL     1     -18.044  17.049  -5.578  1.00  0.00     0.002 A 
HETATM   41  C13 UNL     1     -17.496  16.372  -6.663  1.00  0.00     0.001 A 
HETATM   42  H13 UNL     1     -16.037  15.899  -2.071  1.00  0.00     0.166 HD
BRANCH  29  43
HETATM   43  C41 UNL     1     -12.820   9.831  -4.698  1.00  0.00     0.186 C 
BRANCH  43  44
HETATM   44  O5  UNL     1     -12.419   9.093  -3.539  1.00  0.00    -0.399 OA
HETATM   45  H49 UNL     1     -11.525   9.389  -3.277  1.00  0.00     0.209 HD
ENDBRANCH  43  44
ENDBRANCH  29  43
BRANCH  29  46
HETATM   46  C42 UNL     1     -11.513  11.855  -4.918  1.00  0.00     0.272 C 
HETATM   47  O6  UNL     1     -10.686  12.393  -4.190  1.00  0.00    -0.264 OA
BRANCH  46  48
HETATM   48  O7  UNL     1     -11.333  11.674  -6.259  1.00  0.00    -0.326 OA
HETATM   49  C43 UNL     1     -10.181  12.318  -6.807  1.00  0.00     0.213 C 
ENDBRANCH  46  48
ENDBRANCH  29  46
ENDBRANCH   1  21
BRANCH  19  50
HETATM   50  O4  UNL     1     -16.658  13.437  -1.325  1.00  0.00    -0.360 OA
HETATM   51  H43 UNL     1     -17.377  12.905  -0.945  1.00  0.00     0.217 HD
ENDBRANCH  19  50
BRANCH  14  52
HETATM   52  C31 UNL     1     -10.029  16.476   0.586  1.00  0.00     0.275 C 
HETATM   53  O2  UNL     1      -9.013  16.293  -0.070  1.00  0.00    -0.264 OA
BRANCH  52  54
HETATM   54  O3  UNL     1     -10.910  17.495   0.336  1.00  0.00    -0.326 OA
HETATM   55  C32 UNL     1     -10.320  18.656  -0.248  1.00  0.00     0.213 C 
ENDBRANCH  52  54
ENDBRANCH  14  52
BRANCH  12  56
HETATM   56  C27 UNL     1      -8.830  18.473   4.222  1.00  0.00     0.120 C 
HETATM   57  C28 UNL     1      -8.182  18.060   5.538  1.00  0.00     0.040 C 
BRANCH  56  58
HETATM   58  O1  UNL     1     -10.120  18.994   4.523  1.00  0.00    -0.396 OA
HETATM   59  H34 UNL     1     -10.558  19.135   3.656  1.00  0.00     0.210 HD
ENDBRANCH  56  58
ENDBRANCH  12  56
TORSDOF 10
ENDMDL
MODEL 3
REMARK minimizedAffinity -8.56565285
REMARK CNNscore 0.262861133
REMARK CNNaffinity 6.51284218
REMARK  10 active torsions:
REMARK  status: ('A' for Active; 'I' for Inactive)
REMARK    1  A    between atoms: C16_18  and  C17_19 
REMARK    2  A    between atoms: C26_30  and  C27_31 
REMARK    3  A    between atoms: C27_31  and  O1_33 
REMARK    4  A    between atoms: C30_35  and  C31_36 
REMARK    5  A    between atoms: C31_36  and  O3_38 
REMARK    6  A    between atoms: C37_44  and  O4_45 
REMARK    7  A    between atoms: C40_48  and  C41_49 
REMARK    8  A    between atoms: C40_48  and  C42_51 
REMARK    9  A    between atoms: C41_49  and  O5_50 
REMARK   10  A    between atoms: C42_51  and  O7_53 
ROOT
HETATM    1  C17 UNL     1      -2.398  10.830  16.092  1.00  0.00     0.013 A 
HETATM    2  C18 UNL     1      -1.957  12.179  16.208  1.00  0.00     0.053 A 
HETATM    3  N3  UNL     1      -1.759  13.121  15.227  1.00  0.00    -0.357 N 
HETATM    4  C19 UNL     1      -1.402  14.347  15.742  1.00  0.00     0.038 A 
HETATM    5  C20 UNL     1      -1.254  14.165  17.109  1.00  0.00    -0.020 A 
HETATM    6  C21 UNL     1      -0.769  15.151  18.123  1.00  0.00     0.072 C 
HETATM    7  C22 UNL     1      -1.226  16.597  17.922  1.00  0.00     0.277 C 
HETATM    8  N4  UNL     1      -0.868  17.286  16.682  1.00  0.00     0.096 N 
HETATM    9  C23 UNL     1       0.572  17.300  16.372  1.00  0.00     0.277 C 
HETATM   10  C24 UNL     1       0.784  17.145  14.857  1.00  0.00     0.016 C 
HETATM   11  C25 UNL     1      -0.025  18.228  14.128  1.00  0.00     0.015 C 
HETATM   12  C26 UNL     1      -1.524  18.099  14.486  1.00  0.00     0.049 C 
HETATM   13  C29 UNL     1      -1.688  16.905  15.501  1.00  0.00     0.253 C 
HETATM   14  C30 UNL     1      -1.215  15.568  14.823  1.00  0.00     0.122 C 
HETATM   15  C33 UNL     1       0.277  15.750  14.426  1.00  0.00     0.035 C 
HETATM   16  C34 UNL     1      -1.618  12.804  17.402  1.00  0.00    -0.000 A 
HETATM   17  C35 UNL     1      -1.685  12.055  18.588  1.00  0.00     0.017 A 
HETATM   18  C36 UNL     1      -2.127  10.735  18.541  1.00  0.00     0.038 A 
HETATM   19  C37 UNL     1      -2.484  10.149  17.325  1.00  0.00     0.075 A 
HETATM   20  H19 UNL     1      -1.882  12.927  14.243  1.00  0.00     0.166 HD
ENDROOT
BRANCH   1  21
HETATM   21  C16 UNL     1      -2.727  10.242  14.712  1.00  0.00     0.075 C 
HETATM   22  C9  UNL     1      -3.818   9.208  14.575  1.00  0.00     0.025 A 
HETATM   23  C8  UNL     1      -4.048   8.157  13.689  1.00  0.00    -0.020 A 
HETATM   24  N2  UNL     1      -4.914   9.278  15.408  1.00  0.00    -0.358 N 
HETATM   25  C7  UNL     1      -3.212   7.672  12.533  1.00  0.00     0.079 C 
HETATM   26  C15 UNL     1      -5.353   7.621  14.014  1.00  0.00    -0.001 A 
HETATM   27  C6  UNL     1      -1.840   6.957  12.771  1.00  0.00     0.248 C 
HETATM   28  N1  UNL     1      -1.675   6.092  13.956  1.00  0.00     0.094 N 
HETATM   29  C40 UNL     1      -0.580   7.881  12.669  1.00  0.00     0.107 C 
HETATM   30  C4  UNL     1      -1.568   6.816  15.223  1.00  0.00     0.306 C 
HETATM   31  C5  UNL     1      -2.642   5.004  14.048  1.00  0.00     0.310 C 
HETATM   32  C3  UNL     1      -0.597   7.992  15.192  1.00  0.00    -0.051 C 
HETATM   33  C2  UNL     1       0.219   8.206  16.246  1.00  0.00    -0.026 C 
HETATM   34  C39 UNL     1      -0.543   8.820  13.914  1.00  0.00     0.039 C 
HETATM   35  C1  UNL     1       1.216   9.306  16.437  1.00  0.00     0.036 C 
HETATM   36  C38 UNL     1      -1.493  10.044  13.813  1.00  0.00     0.026 C 
HETATM   37  C10 UNL     1      -5.858   8.342  15.088  1.00  0.00     0.043 A 
HETATM   38  C14 UNL     1      -6.154   6.587  13.480  1.00  0.00     0.014 A 
HETATM   39  C11 UNL     1      -7.108   8.088  15.667  1.00  0.00     0.030 A 
HETATM   40  C12 UNL     1      -7.873   7.056  15.120  1.00  0.00     0.002 A 
HETATM   41  C13 UNL     1      -7.406   6.314  14.041  1.00  0.00     0.001 A 
HETATM   42  H13 UNL     1      -4.996   9.929  16.177  1.00  0.00     0.166 HD
BRANCH  29  43
HETATM   43  C41 UNL     1       0.714   6.997  12.588  1.00  0.00     0.186 C 
BRANCH  43  44
HETATM   44  O5  UNL     1       1.008   6.300  13.803  1.00  0.00    -0.399 OA
HETATM   45  H49 UNL     1       1.152   6.958  14.511  1.00  0.00     0.209 HD
ENDBRANCH  43  44
ENDBRANCH  29  43
BRANCH  29  46
HETATM   46  C42 UNL     1      -0.579   8.596  11.313  1.00  0.00     0.272 C 
HETATM   47  O6  UNL     1      -1.519   9.248  10.870  1.00  0.00    -0.264 OA
BRANCH  46  48
HETATM   48  O7  UNL     1       0.570   8.361  10.616  1.00  0.00    -0.326 OA
HETATM   49  C43 UNL     1       0.427   8.360   9.195  1.00  0.00     0.213 C 
ENDBRANCH  46  48
ENDBRANCH  29  46
ENDBRANCH   1  21
BRANCH  19  50
HETATM   50  O4  UNL     1      -2.954   8.867  17.361  1.00  0.00    -0.360 OA
HETATM   51  H43 UNL     1      -2.684   8.446  18.194  1.00  0.00     0.217 HD
ENDBRANCH  19  50
BRANCH  14  52
HETATM   52  C31 UNL     1      -2.127  15.337  13.579  1.00  0.00     0.275 C 
HETATM   53  O2  UNL     1      -1.765  14.832  12.526  1.00  0.00    -0.264 OA
BRANCH  52  54
HETATM   54  O3  UNL     1      -3.366  15.891  13.760  1.00  0.00    -0.326 OA
HETATM   55  C32 UNL     1      -4.391  14.952  14.086  1.00  0.00     0.213 C 
ENDBRANCH  52  54
ENDBRANCH  14  52
BRANCH  12  56
HETATM   56  C27 UNL     1      -2.157  19.414  15.003  1.00  0.00     0.120 C 
HETATM   57  C28 UNL     1      -3.637  19.260  15.332  1.00  0.00     0.040 C 
BRANCH  56  58
HETATM   58  O1  UNL     1      -2.034  20.462  14.050  1.00  0.00    -0.396 OA
HETATM   59  H34 UNL     1      -1.095  20.456  13.766  1.00  0.00     0.210 HD
ENDBRANCH  56  58
ENDBRANCH  12  56
TORSDOF 10
ENDMDL
MODEL 4
REMARK minimizedAffinity -10.2137814
REMARK CNNscore 0.23666358
REMARK CNNaffinity 8.19802952
REMARK  10 active torsions:
REMARK  status: ('A' for Active; 'I' for Inactive)
REMARK    1  A    between atoms: C16_18  and  C17_19 
REMARK    2  A    between atoms: C26_30  and  C27_31 
REMARK    3  A    between atoms: C27_31  and  O1_33 
REMARK    4  A    between atoms: C30_35  and  C31_36 
REMARK    5  A    between atoms: C31_36  and  O3_38 
REMARK    6  A    between atoms: C37_44  and  O4_45 
REMARK    7  A    between atoms: C40_48  and  C41_49 
REMARK    8  A    between atoms: C40_48  and  C42_51 
REMARK    9  A    between atoms: C41_49  and  O5_50 
REMARK   10  A    between atoms: C42_51  and  O7_53 
ROOT
HETATM    1  C17 UNL     1      -1.202   6.187  11.823  1.00  0.00     0.013 A 
HETATM    2  C18 UNL     1      -2.490   5.807  12.299  1.00  0.00     0.053 A 
HETATM    3  N3  UNL     1      -3.423   6.549  12.982  1.00  0.00    -0.357 N 
HETATM    4  C19 UNL     1      -4.590   5.850  13.201  1.00  0.00     0.038 A 
HETATM    5  C20 UNL     1      -4.364   4.563  12.737  1.00  0.00    -0.020 A 
HETATM    6  C21 UNL     1      -5.267   3.376  12.836  1.00  0.00     0.072 C 
HETATM    7  C22 UNL     1      -6.760   3.652  12.646  1.00  0.00     0.277 C 
HETATM    8  N4  UNL     1      -7.429   4.579  13.560  1.00  0.00     0.096 N 
HETATM    9  C23 UNL     1      -7.285   4.254  14.990  1.00  0.00     0.277 C 
HETATM   10  C24 UNL     1      -7.138   5.547  15.809  1.00  0.00     0.016 C 
HETATM   11  C25 UNL     1      -8.322   6.474  15.493  1.00  0.00     0.015 C 
HETATM   12  C26 UNL     1      -8.356   6.788  13.979  1.00  0.00     0.049 C 
HETATM   13  C29 UNL     1      -7.169   6.018  13.287  1.00  0.00     0.253 C 
HETATM   14  C30 UNL     1      -5.801   6.523  13.874  1.00  0.00     0.122 C 
HETATM   15  C33 UNL     1      -5.819   6.243  15.403  1.00  0.00     0.035 C 
HETATM   16  C34 UNL     1      -3.048   4.542  12.156  1.00  0.00    -0.000 A 
HETATM   17  C35 UNL     1      -2.287   3.546  11.521  1.00  0.00     0.017 A 
HETATM   18  C36 UNL     1      -1.027   3.863  11.019  1.00  0.00     0.038 A 
HETATM   19  C37 UNL     1      -0.511   5.152  11.158  1.00  0.00     0.075 A 
HETATM   20  H19 UNL     1      -3.265   7.504  13.270  1.00  0.00     0.166 HD
ENDROOT
BRANCH   1  21
HETATM   21  C16 UNL     1      -0.685   7.614  12.057  1.00  0.00     0.075 C 
HETATM   22  C9  UNL     1       0.788   7.911  11.923  1.00  0.00     0.025 A 
HETATM   23  C8  UNL     1       1.642   8.850  12.501  1.00  0.00    -0.020 A 
HETATM   24  N2  UNL     1       1.529   7.214  10.994  1.00  0.00    -0.358 N 
HETATM   25  C7  UNL     1       1.349   9.912  13.529  1.00  0.00     0.079 C 
HETATM   26  C15 UNL     1       2.924   8.700  11.848  1.00  0.00    -0.001 A 
HETATM   27  C6  UNL     1       1.024   9.535  15.013  1.00  0.00     0.248 C 
HETATM   28  N1  UNL     1       1.691   8.365  15.620  1.00  0.00     0.094 N 
HETATM   29  C40 UNL     1      -0.500   9.457  15.363  1.00  0.00     0.107 C 
HETATM   30  C4  UNL     1       1.203   7.073  15.137  1.00  0.00     0.306 C 
HETATM   31  C5  UNL     1       3.148   8.422  15.599  1.00  0.00     0.310 C 
HETATM   32  C3  UNL     1      -0.317   6.952  15.100  1.00  0.00    -0.051 C 
HETATM   33  C2  UNL     1      -0.900   5.802  15.500  1.00  0.00    -0.026 C 
HETATM   34  C39 UNL     1      -1.106   8.188  14.689  1.00  0.00     0.039 C 
HETATM   35  C1  UNL     1      -2.357   5.460  15.516  1.00  0.00     0.036 C 
HETATM   36  C38 UNL     1      -1.426   8.365  13.179  1.00  0.00     0.026 C 
HETATM   37  C10 UNL     1       2.815   7.672  10.919  1.00  0.00     0.043 A 
HETATM   38  C14 UNL     1       4.170   9.358  11.958  1.00  0.00     0.014 A 
HETATM   39  C11 UNL     1       3.875   7.256  10.104  1.00  0.00     0.030 A 
HETATM   40  C12 UNL     1       5.095   7.921  10.242  1.00  0.00     0.002 A 
HETATM   41  C13 UNL     1       5.244   8.959  11.156  1.00  0.00     0.001 A 
HETATM   42  H13 UNL     1       1.169   6.441  10.452  1.00  0.00     0.166 HD
BRANCH  29  43
HETATM   43  C41 UNL     1      -0.679   9.410  16.921  1.00  0.00     0.186 C 
BRANCH  43  44
HETATM   44  O5  UNL     1      -2.034   9.210  17.336  1.00  0.00    -0.399 OA
HETATM   45  H49 UNL     1      -2.573   9.955  17.006  1.00  0.00     0.209 HD
ENDBRANCH  43  44
ENDBRANCH  29  43
BRANCH  29  46
HETATM   46  C42 UNL     1      -1.177  10.780  14.991  1.00  0.00     0.272 C 
HETATM   47  O6  UNL     1      -1.653  11.033  13.889  1.00  0.00    -0.264 OA
BRANCH  46  48
HETATM   48  O7  UNL     1      -1.125  11.682  16.014  1.00  0.00    -0.326 OA
HETATM   49  C43 UNL     1      -2.277  12.516  16.145  1.00  0.00     0.213 C 
ENDBRANCH  46  48
ENDBRANCH  29  46
ENDBRANCH   1  21
BRANCH  19  50
HETATM   50  O4  UNL     1       0.709   5.403  10.599  1.00  0.00    -0.360 OA
HETATM   51  H43 UNL     1       1.176   4.564  10.448  1.00  0.00     0.217 HD
ENDBRANCH  19  50
BRANCH  14  52
HETATM   52  C31 UNL     1      -5.701   8.046  13.559  1.00  0.00     0.275 C 
HETATM   53  O2  UNL     1      -5.398   8.521  12.474  1.00  0.00    -0.264 OA
BRANCH  52  54
HETATM   54  O3  UNL     1      -5.868   8.801  14.690  1.00  0.00    -0.326 OA
HETATM   55  C32 UNL     1      -4.706   9.528  15.091  1.00  0.00     0.213 C 
ENDBRANCH  52  54
ENDBRANCH  14  52
BRANCH  12  56
HETATM   56  C27 UNL     1      -9.724   6.497  13.313  1.00  0.00     0.120 C 
HETATM   57  C28 UNL     1      -9.644   6.494  11.791  1.00  0.00     0.040 C 
BRANCH  56  58
HETATM   58  O1  UNL     1     -10.703   7.457  13.691  1.00  0.00    -0.396 OA
HETATM   59  H34 UNL     1     -10.645   7.526  14.668  1.00  0.00     0.210 HD
ENDBRANCH  56  58
ENDBRANCH  12  56
TORSDOF 10
ENDMDL
MODEL 5
REMARK minimizedAffinity -6.83950615
REMARK CNNscore 0.142912656
REMARK CNNaffinity 5.76850843
REMARK  10 active torsions:
REMARK  status: ('A' for Active; 'I' for Inactive)
REMARK    1  A    between atoms: C16_18  and  C17_19 
REMARK    2  A    between atoms: C26_30  and  C27_31 
REMARK    3  A    between atoms: C27_31  and  O1_33 
REMARK    4  A    between atoms: C30_35  and  C31_36 
REMARK    5  A    between atoms: C31_36  and  O3_38 
REMARK    6  A    between atoms: C37_44  and  O4_45 
REMARK    7  A    between atoms: C40_48  and  C41_49 
REMARK    8  A    between atoms: C40_48  and  C42_51 
REMARK    9  A    between atoms: C41_49  and  O5_50 
REMARK   10  A    between atoms: C42_51  and  O7_53 
ROOT
HETATM    1  C17 UNL     1     -15.002   6.552  21.120  1.00  0.00     0.013 A 
HETATM    2  C18 UNL     1     -14.712   7.340  19.970  1.00  0.00     0.053 A 
HETATM    3  N3  UNL     1     -13.775   8.332  19.803  1.00  0.00    -0.357 N 
HETATM    4  C19 UNL     1     -13.742   8.810  18.512  1.00  0.00     0.038 A 
HETATM    5  C20 UNL     1     -14.776   8.179  17.838  1.00  0.00    -0.020 A 
HETATM    6  C21 UNL     1     -15.248   8.419  16.440  1.00  0.00     0.072 C 
HETATM    7  C22 UNL     1     -14.157   8.696  15.403  1.00  0.00     0.277 C 
HETATM    8  N4  UNL     1     -13.276   9.849  15.595  1.00  0.00     0.096 N 
HETATM    9  C23 UNL     1     -13.968  11.138  15.766  1.00  0.00     0.277 C 
HETATM   10  C24 UNL     1     -13.223  12.001  16.798  1.00  0.00     0.016 C 
HETATM   11  C25 UNL     1     -11.753  12.130  16.369  1.00  0.00     0.015 C 
HETATM   12  C26 UNL     1     -11.109  10.728  16.262  1.00  0.00     0.049 C 
HETATM   13  C29 UNL     1     -12.206   9.652  16.609  1.00  0.00     0.253 C 
HETATM   14  C30 UNL     1     -12.705   9.865  18.085  1.00  0.00     0.122 C 
HETATM   15  C33 UNL     1     -13.296  11.300  18.174  1.00  0.00     0.035 C 
HETATM   16  C34 UNL     1     -15.376   7.243  18.753  1.00  0.00    -0.000 A 
HETATM   17  C35 UNL     1     -16.431   6.323  18.641  1.00  0.00     0.017 A 
HETATM   18  C36 UNL     1     -16.750   5.512  19.727  1.00  0.00     0.038 A 
HETATM   19  C37 UNL     1     -16.043   5.620  20.925  1.00  0.00     0.075 A 
HETATM   20  H19 UNL     1     -13.173   8.653  20.548  1.00  0.00     0.166 HD
ENDROOT
BRANCH   1  21
HETATM   21  C16 UNL     1     -14.209   6.763  22.418  1.00  0.00     0.075 C 
HETATM   22  C9  UNL     1     -14.202   5.688  23.478  1.00  0.00     0.025 A 
HETATM   23  C8  UNL     1     -14.058   5.699  24.864  1.00  0.00    -0.020 A 
HETATM   24  N2  UNL     1     -14.262   4.367  23.090  1.00  0.00    -0.358 N 
HETATM   25  C7  UNL     1     -13.884   6.863  25.805  1.00  0.00     0.079 C 
HETATM   26  C15 UNL     1     -14.004   4.315  25.284  1.00  0.00    -0.001 A 
HETATM   27  C6  UNL     1     -15.056   7.861  26.082  1.00  0.00     0.248 C 
HETATM   28  N1  UNL     1     -16.444   7.355  26.101  1.00  0.00     0.094 N 
HETATM   29  C40 UNL     1     -15.032   9.171  25.225  1.00  0.00     0.107 C 
HETATM   30  C4  UNL     1     -16.982   7.019  24.783  1.00  0.00     0.306 C 
HETATM   31  C5  UNL     1     -16.682   6.282  27.060  1.00  0.00     0.310 C 
HETATM   32  C3  UNL     1     -16.740   8.082  23.717  1.00  0.00    -0.051 C 
HETATM   33  C2  UNL     1     -17.726   8.384  22.846  1.00  0.00    -0.026 C 
HETATM   34  C39 UNL     1     -15.406   8.817  23.753  1.00  0.00     0.039 C 
HETATM   35  C1  UNL     1     -17.694   9.362  21.714  1.00  0.00     0.036 C 
HETATM   36  C38 UNL     1     -14.234   8.215  22.930  1.00  0.00     0.026 C 
HETATM   37  C10 UNL     1     -14.136   3.518  24.154  1.00  0.00     0.043 A 
HETATM   38  C14 UNL     1     -13.843   3.668  26.530  1.00  0.00     0.014 A 
HETATM   39  C11 UNL     1     -14.128   2.118  24.194  1.00  0.00     0.030 A 
HETATM   40  C12 UNL     1     -13.975   1.509  25.442  1.00  0.00     0.002 A 
HETATM   41  C13 UNL     1     -13.834   2.271  26.596  1.00  0.00     0.001 A 
HETATM   42  H13 UNL     1     -14.406   4.067  22.136  1.00  0.00     0.166 HD
BRANCH  29  43
HETATM   43  C41 UNL     1     -16.040  10.212  25.829  1.00  0.00     0.186 C 
BRANCH  43  44
HETATM   44  O5  UNL     1     -15.937  10.350  27.250  1.00  0.00    -0.399 OA
HETATM   45  H49 UNL     1     -16.133   9.486  27.661  1.00  0.00     0.209 HD
ENDBRANCH  43  44
ENDBRANCH  29  43
BRANCH  29  46
HETATM   46  C42 UNL     1     -13.682   9.875  25.404  1.00  0.00     0.272 C 
HETATM   47  O6  UNL     1     -13.472  10.783  26.200  1.00  0.00    -0.264 OA
BRANCH  46  48
HETATM   48  O7  UNL     1     -12.751   9.419  24.517  1.00  0.00    -0.326 OA
HETATM   49  C43 UNL     1     -11.411   9.384  25.011  1.00  0.00     0.213 C 
ENDBRANCH  46  48
ENDBRANCH  29  46
ENDBRANCH   1  21
BRANCH  19  50
HETATM   50  O4  UNL     1     -16.378   4.759  21.931  1.00  0.00    -0.360 OA
HETATM   51  H43 UNL     1     -17.266   4.400  21.769  1.00  0.00     0.217 HD
ENDBRANCH  19  50
BRANCH  14  52
HETATM   52  C31 UNL     1     -11.469   9.683  19.018  1.00  0.00     0.275 C 
HETATM   53  O2  UNL     1     -10.734   8.705  19.027  1.00  0.00    -0.264 OA
BRANCH  52  54
HETATM   54  O3  UNL     1     -11.376  10.702  19.927  1.00  0.00    -0.326 OA
HETATM   55  C32 UNL     1     -11.101  10.278  21.263  1.00  0.00     0.213 C 
ENDBRANCH  52  54
ENDBRANCH  14  52
BRANCH  12  56
HETATM   56  C27 UNL     1     -10.422  10.460  14.901  1.00  0.00     0.120 C 
HETATM   57  C28 UNL     1     -10.129   8.982  14.674  1.00  0.00     0.040 C 
BRANCH  56  58
HETATM   58  O1  UNL     1      -9.190  11.164  14.791  1.00  0.00    -0.396 OA
HETATM   59  H34 UNL     1      -9.386  12.087  15.062  1.00  0.00     0.210 HD
ENDBRANCH  56  58
ENDBRANCH  12  56
TORSDOF 10
ENDMDL
MODEL 6
REMARK minimizedAffinity -6.14217997
REMARK CNNscore 0.114755295
REMARK CNNaffinity 5.26441288
REMARK  10 active torsions:
REMARK  status: ('A' for Active; 'I' for Inactive)
REMARK    1  A    between atoms: C16_18  and  C17_19 
REMARK    2  A    between atoms: C26_30  and  C27_31 
REMARK    3  A    between atoms: C27_31  and  O1_33 
REMARK    4  A    between atoms: C30_35  and  C31_36 
REMARK    5  A    between atoms: C31_36  and  O3_38 
REMARK    6  A    between atoms: C37_44  and  O4_45 
REMARK    7  A    between atoms: C40_48  and  C41_49 
REMARK    8  A    between atoms: C40_48  and  C42_51 
REMARK    9  A    between atoms: C41_49  and  O5_50 
REMARK   10  A    between atoms: C42_51  and  O7_53 
ROOT
HETATM    1  C17 UNL     1     -12.801  11.202  23.550  1.00  0.00     0.013 A 
HETATM    2  C18 UNL     1     -13.571  10.131  24.087  1.00  0.00     0.053 A 
HETATM    3  N3  UNL     1     -13.785   8.871  23.583  1.00  0.00    -0.357 N 
HETATM    4  C19 UNL     1     -14.529   8.085  24.435  1.00  0.00     0.038 A 
HETATM    5  C20 UNL     1     -14.908   8.905  25.487  1.00  0.00    -0.020 A 
HETATM    6  C21 UNL     1     -15.818   8.579  26.628  1.00  0.00     0.072 C 
HETATM    7  C22 UNL     1     -15.695   7.166  27.199  1.00  0.00     0.277 C 
HETATM    8  N4  UNL     1     -15.945   6.024  26.319  1.00  0.00     0.096 N 
HETATM    9  C23 UNL     1     -17.249   6.041  25.633  1.00  0.00     0.277 C 
HETATM   10  C24 UNL     1     -17.098   5.490  24.205  1.00  0.00     0.016 C 
HETATM   11  C25 UNL     1     -16.445   4.101  24.275  1.00  0.00     0.015 C 
HETATM   12  C26 UNL     1     -15.067   4.200  24.971  1.00  0.00     0.049 C 
HETATM   13  C29 UNL     1     -14.831   5.700  25.388  1.00  0.00     0.253 C 
HETATM   14  C30 UNL     1     -14.812   6.608  24.104  1.00  0.00     0.122 C 
HETATM   15  C33 UNL     1     -16.188   6.444  23.400  1.00  0.00     0.035 C 
HETATM   16  C34 UNL     1     -14.292  10.188  25.273  1.00  0.00    -0.000 A 
HETATM   17  C35 UNL     1     -14.292  11.392  25.996  1.00  0.00     0.017 A 
HETATM   18  C36 UNL     1     -13.541  12.470  25.531  1.00  0.00     0.038 A 
HETATM   19  C37 UNL     1     -12.809  12.367  24.348  1.00  0.00     0.075 A 
HETATM   20  H19 UNL     1     -13.417   8.562  22.694  1.00  0.00     0.166 HD
ENDROOT
BRANCH   1  21
HETATM   21  C16 UNL     1     -12.059  11.026  22.217  1.00  0.00     0.075 C 
HETATM   22  C9  UNL     1     -10.777  11.780  21.964  1.00  0.00     0.025 A 
HETATM   23  C8  UNL     1     -10.144  12.255  20.816  1.00  0.00    -0.020 A 
HETATM   24  N2  UNL     1      -9.931  12.035  23.022  1.00  0.00    -0.358 N 
HETATM   25  C7  UNL     1     -10.585  12.186  19.377  1.00  0.00     0.079 C 
HETATM   26  C15 UNL     1      -8.863  12.779  21.237  1.00  0.00    -0.001 A 
HETATM   27  C6  UNL     1     -11.798  13.029  18.860  1.00  0.00     0.248 C 
HETATM   28  N1  UNL     1     -12.041  14.368  19.436  1.00  0.00     0.094 N 
HETATM   29  C40 UNL     1     -13.166  12.269  18.814  1.00  0.00     0.107 C 
HETATM   30  C4  UNL     1     -12.573  14.352  20.798  1.00  0.00     0.306 C 
HETATM   31  C5  UNL     1     -10.916  15.288  19.316  1.00  0.00     0.310 C 
HETATM   32  C3  UNL     1     -13.733  13.385  21.006  1.00  0.00    -0.051 C 
HETATM   33  C2  UNL     1     -14.789  13.767  21.756  1.00  0.00    -0.026 C 
HETATM   34  C39 UNL     1     -13.671  12.051  20.272  1.00  0.00     0.039 C 
HETATM   35  C1  UNL     1     -16.008  12.975  22.112  1.00  0.00     0.036 C 
HETATM   36  C38 UNL     1     -12.995  10.861  21.006  1.00  0.00     0.026 C 
HETATM   37  C10 UNL     1      -8.769  12.627  22.615  1.00  0.00     0.043 A 
HETATM   38  C14 UNL     1      -7.768  13.363  20.562  1.00  0.00     0.014 A 
HETATM   39  C11 UNL     1      -7.653  13.032  23.359  1.00  0.00     0.030 A 
HETATM   40  C12 UNL     1      -6.590  13.612  22.664  1.00  0.00     0.002 A 
HETATM   41  C13 UNL     1      -6.643  13.777  21.284  1.00  0.00     0.001 A 
HETATM   42  H13 UNL     1     -10.158  11.831  23.986  1.00  0.00     0.166 HD
BRANCH  29  43
HETATM   43  C41 UNL     1     -14.200  13.101  17.975  1.00  0.00     0.186 C 
BRANCH  43  44
HETATM   44  O5  UNL     1     -13.781  13.343  16.628  1.00  0.00    -0.399 OA
HETATM   45  H49 UNL     1     -12.949  13.854  16.649  1.00  0.00     0.209 HD
ENDBRANCH  43  44
ENDBRANCH  29  43
BRANCH  29  46
HETATM   46  C42 UNL     1     -13.013  10.993  17.979  1.00  0.00     0.272 C 
HETATM   47  O6  UNL     1     -13.590   9.936  18.211  1.00  0.00    -0.264 OA
BRANCH  46  48
HETATM   48  O7  UNL     1     -12.096  11.147  16.980  1.00  0.00    -0.326 OA
HETATM   49  C43 UNL     1     -11.818   9.965  16.226  1.00  0.00     0.213 C 
ENDBRANCH  46  48
ENDBRANCH  29  46
ENDBRANCH   1  21
BRANCH  19  50
HETATM   50  O4  UNL     1     -12.059  13.446  23.978  1.00  0.00    -0.360 OA
HETATM   51  H43 UNL     1     -12.384  14.239  24.435  1.00  0.00     0.217 HD
ENDBRANCH  19  50
BRANCH  14  52
HETATM   52  C31 UNL     1     -13.634   6.114  23.211  1.00  0.00     0.275 C 
HETATM   53  O2  UNL     1     -12.448   6.244  23.476  1.00  0.00    -0.264 OA
BRANCH  52  54
HETATM   54  O3  UNL     1     -14.087   5.625  22.014  1.00  0.00    -0.326 OA
HETATM   55  C32 UNL     1     -13.830   6.473  20.894  1.00  0.00     0.213 C 
ENDBRANCH  52  54
ENDBRANCH  14  52
BRANCH  12  56
HETATM   56  C27 UNL     1     -14.895   3.217  26.155  1.00  0.00     0.120 C 
HETATM   57  C28 UNL     1     -13.434   2.882  26.429  1.00  0.00     0.040 C 
BRANCH  56  58
HETATM   58  O1  UNL     1     -15.580   1.992  25.920  1.00  0.00    -0.396 OA
HETATM   59  H34 UNL     1     -16.483   2.245  25.627  1.00  0.00     0.210 HD
ENDBRANCH  56  58
ENDBRANCH  12  56
TORSDOF 10
ENDMDL
MODEL 7
REMARK minimizedAffinity -6.26596546
REMARK CNNscore 0.107251704
REMARK CNNaffinity 5.63640594
REMARK  10 active torsions:
REMARK  status: ('A' for Active; 'I' for Inactive)
REMARK    1  A    between atoms: C16_18  and  C17_19 
REMARK    2  A    between atoms: C26_30  and  C27_31 
REMARK    3  A    between atoms: C27_31  and  O1_33 
REMARK    4  A    between atoms: C30_35  and  C31_36 
REMARK    5  A    between atoms: C31_36  and  O3_38 
REMARK    6  A    between atoms: C37_44  and  O4_45 
REMARK    7  A    between atoms: C40_48  and  C41_49 
REMARK    8  A    between atoms: C40_48  and  C42_51 
REMARK    9  A    between atoms: C41_49  and  O5_50 
REMARK   10  A    between atoms: C42_51  and  O7_53 
ROOT
HETATM    1  C17 UNL     1     -14.365   6.842  22.636  1.00  0.00     0.013 A 
HETATM    2  C18 UNL     1     -13.964   8.188  22.400  1.00  0.00     0.053 A 
HETATM    3  N3  UNL     1     -13.745   9.205  23.299  1.00  0.00    -0.357 N 
HETATM    4  C19 UNL     1     -13.287  10.352  22.690  1.00  0.00     0.038 A 
HETATM    5  C20 UNL     1     -13.315  10.106  21.326  1.00  0.00    -0.020 A 
HETATM    6  C21 UNL     1     -13.024  11.058  20.211  1.00  0.00     0.072 C 
HETATM    7  C22 UNL     1     -11.878  12.041  20.452  1.00  0.00     0.277 C 
HETATM    8  N4  UNL     1     -11.967  12.967  21.583  1.00  0.00     0.096 N 
HETATM    9  C23 UNL     1     -13.185  13.794  21.615  1.00  0.00     0.277 C 
HETATM   10  C24 UNL     1     -13.660  13.973  23.066  1.00  0.00     0.016 C 
HETATM   11  C25 UNL     1     -12.500  14.533  23.903  1.00  0.00     0.015 C 
HETATM   12  C26 UNL     1     -11.291  13.572  23.839  1.00  0.00     0.049 C 
HETATM   13  C29 UNL     1     -11.671  12.359  22.908  1.00  0.00     0.253 C 
HETATM   14  C30 UNL     1     -12.895  11.587  23.523  1.00  0.00     0.122 C 
HETATM   15  C33 UNL     1     -14.076  12.593  23.625  1.00  0.00     0.035 C 
HETATM   16  C34 UNL     1     -13.727   8.738  21.147  1.00  0.00    -0.000 A 
HETATM   17  C35 UNL     1     -13.918   7.927  20.016  1.00  0.00     0.017 A 
HETATM   18  C36 UNL     1     -14.292   6.596  20.184  1.00  0.00     0.038 A 
HETATM   19  C37 UNL     1     -14.495   6.071  21.461  1.00  0.00     0.075 A 
HETATM   20  H19 UNL     1     -13.890   9.103  24.294  1.00  0.00     0.166 HD
ENDROOT
BRANCH   1  21
HETATM   21  C16 UNL     1     -14.614   6.352  24.070  1.00  0.00     0.075 C 
HETATM   22  C9  UNL     1     -14.176   4.967  24.479  1.00  0.00     0.025 A 
HETATM   23  C8  UNL     1     -14.633   4.047  25.422  1.00  0.00    -0.020 A 
HETATM   24  N2  UNL     1     -13.036   4.434  23.917  1.00  0.00    -0.358 N 
HETATM   25  C7  UNL     1     -15.802   4.140  26.368  1.00  0.00     0.079 C 
HETATM   26  C15 UNL     1     -13.691   2.949  25.417  1.00  0.00    -0.001 A 
HETATM   27  C6  UNL     1     -17.275   4.088  25.843  1.00  0.00     0.248 C 
HETATM   28  N1  UNL     1     -17.593   3.243  24.674  1.00  0.00     0.094 N 
HETATM   29  C40 UNL     1     -17.956   5.482  25.630  1.00  0.00     0.107 C 
HETATM   30  C4  UNL     1     -17.109   3.770  23.398  1.00  0.00     0.306 C 
HETATM   31  C5  UNL     1     -17.243   1.836  24.834  1.00  0.00     0.310 C 
HETATM   32  C3  UNL     1     -17.410   5.248  23.176  1.00  0.00    -0.051 C 
HETATM   33  C2  UNL     1     -17.816   5.666  21.959  1.00  0.00    -0.026 C 
HETATM   34  C39 UNL     1     -17.316   6.169  24.386  1.00  0.00     0.039 C 
HETATM   35  C1  UNL     1     -18.132   7.060  21.516  1.00  0.00     0.036 C 
HETATM   36  C38 UNL     1     -15.945   6.843  24.669  1.00  0.00     0.026 C 
HETATM   37  C10 UNL     1     -12.715   3.224  24.468  1.00  0.00     0.043 A 
HETATM   38  C14 UNL     1     -13.578   1.744  26.147  1.00  0.00     0.014 A 
HETATM   39  C11 UNL     1     -11.641   2.367  24.197  1.00  0.00     0.030 A 
HETATM   40  C12 UNL     1     -11.561   1.182  24.931  1.00  0.00     0.002 A 
HETATM   41  C13 UNL     1     -12.514   0.872  25.894  1.00  0.00     0.001 A 
HETATM   42  H13 UNL     1     -12.518   4.874  23.170  1.00  0.00     0.166 HD
BRANCH  29  43
HETATM   43  C41 UNL     1     -19.501   5.287  25.437  1.00  0.00     0.186 C 
BRANCH  43  44
HETATM   44  O5  UNL     1     -20.178   6.472  25.008  1.00  0.00    -0.399 OA
HETATM   45  H49 UNL     1     -20.057   7.163  25.689  1.00  0.00     0.209 HD
ENDBRANCH  43  44
ENDBRANCH  29  43
BRANCH  29  46
HETATM   46  C42 UNL     1     -17.883   6.289  26.931  1.00  0.00     0.272 C 
HETATM   47  O6  UNL     1     -18.827   6.463  27.695  1.00  0.00    -0.264 OA
BRANCH  46  48
HETATM   48  O7  UNL     1     -16.656   6.860  27.107  1.00  0.00    -0.326 OA
HETATM   49  C43 UNL     1     -16.435   7.434  28.396  1.00  0.00     0.213 C 
ENDBRANCH  46  48
ENDBRANCH  29  46
ENDBRANCH   1  21
BRANCH  19  50
HETATM   50  O4  UNL     1     -14.813   4.746  21.552  1.00  0.00    -0.360 OA
HETATM   51  H43 UNL     1     -15.149   4.434  20.696  1.00  0.00     0.217 HD
ENDBRANCH  19  50
BRANCH  14  52
HETATM   52  C31 UNL     1     -12.450  11.063  24.922  1.00  0.00     0.275 C 
HETATM   53  O2  UNL     1     -13.061  11.243  25.966  1.00  0.00    -0.264 OA
BRANCH  52  54
HETATM   54  O3  UNL     1     -11.213  10.480  24.865  1.00  0.00    -0.326 OA
HETATM   55  C32 UNL     1     -11.185   9.112  25.274  1.00  0.00     0.213 C 
ENDBRANCH  52  54
ENDBRANCH  14  52
BRANCH  12  56
HETATM   56  C27 UNL     1      -9.970  14.259  23.412  1.00  0.00     0.120 C 
HETATM   57  C28 UNL     1      -8.782  13.305  23.427  1.00  0.00     0.040 C 
BRANCH  56  58
HETATM   58  O1  UNL     1      -9.653  15.354  24.264  1.00  0.00    -0.396 OA
HETATM   59  H34 UNL     1     -10.476  15.885  24.333  1.00  0.00     0.210 HD
ENDBRANCH  56  58
ENDBRANCH  12  56
TORSDOF 10
ENDMDL
MODEL 8
REMARK minimizedAffinity -6.03242302
REMARK CNNscore 0.105194397
REMARK CNNaffinity 4.4800601
REMARK  10 active torsions:
REMARK  status: ('A' for Active; 'I' for Inactive)
REMARK    1  A    between atoms: C16_18  and  C17_19 
REMARK    2  A    between atoms: C26_30  and  C27_31 
REMARK    3  A    between atoms: C27_31  and  O1_33 
REMARK    4  A    between atoms: C30_35  and  C31_36 
REMARK    5  A    between atoms: C31_36  and  O3_38 
REMARK    6  A    between atoms: C37_44  and  O4_45 
REMARK    7  A    between atoms: C40_48  and  C41_49 
REMARK    8  A    between atoms: C40_48  and  C42_51 
REMARK    9  A    between atoms: C41_49  and  O5_50 
REMARK   10  A    between atoms: C42_51  and  O7_53 
ROOT
HETATM    1  C17 UNL     1       4.671  13.696  17.004  1.00  0.00     0.013 A 
HETATM    2  C18 UNL     1       3.270  13.567  16.784  1.00  0.00     0.053 A 
HETATM    3  N3  UNL     1       2.506  12.432  16.659  1.00  0.00    -0.357 N 
HETATM    4  C19 UNL     1       1.164  12.714  16.532  1.00  0.00     0.038 A 
HETATM    5  C20 UNL     1       1.064  14.095  16.461  1.00  0.00    -0.020 A 
HETATM    6  C21 UNL     1      -0.159  14.919  16.210  1.00  0.00     0.072 C 
HETATM    7  C22 UNL     1      -1.448  14.422  16.865  1.00  0.00     0.277 C 
HETATM    8  N4  UNL     1      -1.945  13.088  16.524  1.00  0.00     0.096 N 
HETATM    9  C23 UNL     1      -2.137  12.846  15.084  1.00  0.00     0.277 C 
HETATM   10  C24 UNL     1      -1.742  11.401  14.737  1.00  0.00     0.016 C 
HETATM   11  C25 UNL     1      -2.525  10.440  15.644  1.00  0.00     0.015 C 
HETATM   12  C26 UNL     1      -2.220  10.749  17.128  1.00  0.00     0.049 C 
HETATM   13  C29 UNL     1      -1.224  11.968  17.185  1.00  0.00     0.253 C 
HETATM   14  C30 UNL     1       0.120  11.584  16.465  1.00  0.00     0.122 C 
HETATM   15  C33 UNL     1      -0.227  11.228  14.992  1.00  0.00     0.035 C 
HETATM   16  C34 UNL     1       2.388  14.631  16.635  1.00  0.00    -0.000 A 
HETATM   17  C35 UNL     1       2.905  15.936  16.677  1.00  0.00     0.017 A 
HETATM   18  C36 UNL     1       4.266  16.126  16.908  1.00  0.00     0.038 A 
HETATM   19  C37 UNL     1       5.116  15.033  17.078  1.00  0.00     0.075 A 
HETATM   20  H19 UNL     1       2.896  11.500  16.677  1.00  0.00     0.166 HD
ENDROOT
BRANCH   1  21
HETATM   21  C16 UNL     1       5.549  12.443  17.136  1.00  0.00     0.075 C 
HETATM   22  C9  UNL     1       6.763  12.466  18.032  1.00  0.00     0.025 A 
HETATM   23  C8  UNL     1       7.983  11.790  18.026  1.00  0.00    -0.020 A 
HETATM   24  N2  UNL     1       6.731  13.226  19.182  1.00  0.00    -0.358 N 
HETATM   25  C7  UNL     1       8.519  10.782  17.042  1.00  0.00     0.079 C 
HETATM   26  C15 UNL     1       8.666  12.161  19.246  1.00  0.00    -0.001 A 
HETATM   27  C6  UNL     1       8.931  11.206  15.593  1.00  0.00     0.248 C 
HETATM   28  N1  UNL     1       9.523  12.542  15.374  1.00  0.00     0.094 N 
HETATM   29  C40 UNL     1       7.837  10.978  14.496  1.00  0.00     0.107 C 
HETATM   30  C4  UNL     1       8.571  13.648  15.476  1.00  0.00     0.306 C 
HETATM   31  C5  UNL     1      10.726  12.803  16.157  1.00  0.00     0.310 C 
HETATM   32  C3  UNL     1       7.272  13.429  14.709  1.00  0.00    -0.051 C 
HETATM   33  C2  UNL     1       6.731  14.453  14.015  1.00  0.00    -0.026 C 
HETATM   34  C39 UNL     1       6.695  12.019  14.699  1.00  0.00     0.039 C 
HETATM   35  C1  UNL     1       5.460  14.468  13.226  1.00  0.00     0.036 C 
HETATM   36  C38 UNL     1       5.693  11.647  15.826  1.00  0.00     0.026 C 
HETATM   37  C10 UNL     1       7.858  13.056  19.936  1.00  0.00     0.043 A 
HETATM   38  C14 UNL     1       9.903  11.805  19.830  1.00  0.00     0.014 A 
HETATM   39  C11 UNL     1       8.214  13.623  21.166  1.00  0.00     0.030 A 
HETATM   40  C12 UNL     1       9.445  13.256  21.714  1.00  0.00     0.002 A 
HETATM   41  C13 UNL     1      10.281  12.359  21.058  1.00  0.00     0.001 A 
HETATM   42  H13 UNL     1       5.975  13.851  19.422  1.00  0.00     0.166 HD
BRANCH  29  43
HETATM   43  C41 UNL     1       8.485  11.118  13.073  1.00  0.00     0.186 C 
BRANCH  43  44
HETATM   44  O5  UNL     1       9.521  10.164  12.819  1.00  0.00    -0.399 OA
HETATM   45  H49 UNL     1      10.233  10.298  13.474  1.00  0.00     0.209 HD
ENDBRANCH  43  44
ENDBRANCH  29  43
BRANCH  29  46
HETATM   46  C42 UNL     1       7.394   9.510  14.515  1.00  0.00     0.272 C 
HETATM   47  O6  UNL     1       6.301   9.109  14.130  1.00  0.00    -0.264 OA
BRANCH  46  48
HETATM   48  O7  UNL     1       8.337   8.703  15.082  1.00  0.00    -0.326 OA
HETATM   49  C43 UNL     1       8.409   7.384  14.538  1.00  0.00     0.213 C 
ENDBRANCH  46  48
ENDBRANCH  29  46
ENDBRANCH   1  21
BRANCH  19  50
HETATM   50  O4  UNL     1       6.429  15.296  17.349  1.00  0.00    -0.360 OA
HETATM   51  H43 UNL     1       6.640  16.206  17.082  1.00  0.00     0.217 HD
ENDBRANCH  19  50
BRANCH  14  52
HETATM   52  C31 UNL     1       0.723  10.370  17.235  1.00  0.00     0.275 C 
HETATM   53  O2  UNL     1       1.101  10.393  18.397  1.00  0.00    -0.264 OA
BRANCH  52  54
HETATM   54  O3  UNL     1       0.902   9.294  16.407  1.00  0.00    -0.326 OA
HETATM   55  C32 UNL     1       2.247   8.818  16.340  1.00  0.00     0.213 C 
ENDBRANCH  52  54
ENDBRANCH  14  52
BRANCH  12  56
HETATM   56  C27 UNL     1      -3.486  10.972  17.991  1.00  0.00     0.120 C 
HETATM   57  C28 UNL     1      -3.364  12.186  18.905  1.00  0.00     0.040 C 
BRANCH  56  58
HETATM   58  O1  UNL     1      -3.765   9.843  18.811  1.00  0.00    -0.396 OA
HETATM   59  H34 UNL     1      -3.715   9.064  18.216  1.00  0.00     0.210 HD
ENDBRANCH  56  58
ENDBRANCH  12  56
TORSDOF 10
ENDMDL
MODEL 9
REMARK minimizedAffinity -6.54228449
REMARK CNNscore 0.0962938443
REMARK CNNaffinity 4.87076187
REMARK  10 active torsions:
REMARK  status: ('A' for Active; 'I' for Inactive)
REMARK    1  A    between atoms: C16_18  and  C17_19 
REMARK    2  A    between atoms: C26_30  and  C27_31 
REMARK    3  A    between atoms: C27_31  and  O1_33 
REMARK    4  A    between atoms: C30_35  and  C31_36 
REMARK    5  A    between atoms: C31_36  and  O3_38 
REMARK    6  A    between atoms: C37_44  and  O4_45 
REMARK    7  A    between atoms: C40_48  and  C41_49 
REMARK    8  A    between atoms: C40_48  and  C42_51 
REMARK    9  A    between atoms: C41_49  and  O5_50 
REMARK   10  A    between atoms: C42_51  and  O7_53 
ROOT
HETATM    1  C17 UNL     1       3.082  12.424  14.899  1.00  0.00     0.013 A 
HETATM    2  C18 UNL     1       4.499  12.469  14.770  1.00  0.00     0.053 A 
HETATM    3  N3  UNL     1       5.460  11.738  15.426  1.00  0.00    -0.357 N 
HETATM    4  C19 UNL     1       6.730  12.011  14.969  1.00  0.00     0.038 A 
HETATM    5  C20 UNL     1       6.598  13.043  14.053  1.00  0.00    -0.020 A 
HETATM    6  C21 UNL     1       7.683  13.791  13.345  1.00  0.00     0.072 C 
HETATM    7  C22 UNL     1       8.885  12.960  12.895  1.00  0.00     0.277 C 
HETATM    8  N4  UNL     1       9.666  12.242  13.904  1.00  0.00     0.096 N 
HETATM    9  C23 UNL     1      10.176  13.078  15.006  1.00  0.00     0.277 C 
HETATM   10  C24 UNL     1      10.115  12.296  16.329  1.00  0.00     0.016 C 
HETATM   11  C25 UNL     1      10.861  10.965  16.154  1.00  0.00     0.015 C 
HETATM   12  C26 UNL     1      10.222  10.148  15.007  1.00  0.00     0.049 C 
HETATM   13  C29 UNL     1       9.037  10.989  14.401  1.00  0.00     0.253 C 
HETATM   14  C30 UNL     1       7.948  11.239  15.508  1.00  0.00     0.122 C 
HETATM   15  C33 UNL     1       8.634  12.013  16.669  1.00  0.00     0.035 C 
HETATM   16  C34 UNL     1       5.192  13.320  13.918  1.00  0.00    -0.000 A 
HETATM   17  C35 UNL     1       4.457  14.227  13.138  1.00  0.00     0.017 A 
HETATM   18  C36 UNL     1       3.065  14.218  13.208  1.00  0.00     0.038 A 
HETATM   19  C37 UNL     1       2.403  13.331  14.057  1.00  0.00     0.075 A 
HETATM   20  H19 UNL     1       5.244  11.066  16.149  1.00  0.00     0.166 HD
ENDROOT
BRANCH   1  21
HETATM   21  C16 UNL     1       2.428  11.450  15.890  1.00  0.00     0.075 C 
HETATM   22  C9  UNL     1       1.061  10.883  15.597  1.00  0.00     0.025 A 
HETATM   23  C8  UNL     1       0.010  10.432  16.395  1.00  0.00    -0.020 A 
HETATM   24  N2  UNL     1       0.703  10.642  14.288  1.00  0.00    -0.358 N 
HETATM   25  C7  UNL     1      -0.111  10.395  17.897  1.00  0.00     0.079 C 
HETATM   26  C15 UNL     1      -0.982   9.880  15.498  1.00  0.00    -0.001 A 
HETATM   27  C6  UNL     1      -0.258  11.712  18.730  1.00  0.00     0.248 C 
HETATM   28  N1  UNL     1      -1.010  12.846  18.156  1.00  0.00     0.094 N 
HETATM   29  C40 UNL     1       1.074  12.271  19.332  1.00  0.00     0.107 C 
HETATM   30  C4  UNL     1      -0.313  13.551  17.081  1.00  0.00     0.306 C 
HETATM   31  C5  UNL     1      -2.383  12.531  17.780  1.00  0.00     0.310 C 
HETATM   32  C3  UNL     1       1.143  13.885  17.391  1.00  0.00    -0.051 C 
HETATM   33  C2  UNL     1       1.637  15.090  17.036  1.00  0.00    -0.026 C 
HETATM   34  C39 UNL     1       1.943  12.853  18.177  1.00  0.00     0.039 C 
HETATM   35  C1  UNL     1       3.030  15.608  17.213  1.00  0.00     0.036 C 
HETATM   36  C38 UNL     1       2.720  11.780  17.365  1.00  0.00     0.026 C 
HETATM   37  C10 UNL     1      -0.516  10.031  14.198  1.00  0.00     0.043 A 
HETATM   38  C14 UNL     1      -2.236   9.254  15.679  1.00  0.00     0.014 A 
HETATM   39  C11 UNL     1      -1.230   9.604  13.070  1.00  0.00     0.030 A 
HETATM   40  C12 UNL     1      -2.468   8.995  13.283  1.00  0.00     0.002 A 
HETATM   41  C13 UNL     1      -2.967   8.821  14.569  1.00  0.00     0.001 A 
HETATM   42  H13 UNL     1       1.267  10.908  13.493  1.00  0.00     0.166 HD
BRANCH  29  43
HETATM   43  C41 UNL     1       0.745  13.371  20.403  1.00  0.00     0.186 C 
BRANCH  43  44
HETATM   44  O5  UNL     1       1.643  13.373  21.517  1.00  0.00    -0.399 OA
HETATM   45  H49 UNL     1       1.583  12.507  21.965  1.00  0.00     0.209 HD
ENDBRANCH  43  44
ENDBRANCH  29  43
BRANCH  29  46
HETATM   46  C42 UNL     1       1.751  11.183  20.173  1.00  0.00     0.272 C 
HETATM   47  O6  UNL     1       1.155  10.283  20.755  1.00  0.00    -0.264 OA
BRANCH  46  48
HETATM   48  O7  UNL     1       3.099  11.375  20.262  1.00  0.00    -0.326 OA
HETATM   49  C43 UNL     1       3.787  10.451  21.106  1.00  0.00     0.213 C 
ENDBRANCH  46  48
ENDBRANCH  29  46
ENDBRANCH   1  21
BRANCH  19  50
HETATM   50  O4  UNL     1       1.037  13.345  14.037  1.00  0.00    -0.360 OA
HETATM   51  H43 UNL     1       0.727  14.184  13.657  1.00  0.00     0.217 HD
ENDBRANCH  19  50
BRANCH  14  52
HETATM   52  C31 UNL     1       7.429   9.841  15.964  1.00  0.00     0.275 C 
HETATM   53  O2  UNL     1       7.603   9.354  17.072  1.00  0.00    -0.264 OA
BRANCH  52  54
HETATM   54  O3  UNL     1       6.857   9.159  14.923  1.00  0.00    -0.326 OA
HETATM   55  C32 UNL     1       7.275   7.798  14.810  1.00  0.00     0.213 C 
ENDBRANCH  52  54
ENDBRANCH  14  52
BRANCH  12  56
HETATM   56  C27 UNL     1      11.236   9.685  13.932  1.00  0.00     0.120 C 
HETATM   57  C28 UNL     1      12.604  10.336  14.099  1.00  0.00     0.040 C 
BRANCH  56  58
HETATM   58  O1  UNL     1      10.776   9.983  12.619  1.00  0.00    -0.396 OA
HETATM   59  H34 UNL     1       9.850   9.660  12.582  1.00  0.00     0.210 HD
ENDBRANCH  56  58
ENDBRANCH  12  56
TORSDOF 10
ENDMDL
