MODEL 1
REMARK minimizedAffinity -6.49098253
REMARK CNNscore 0.79080385
REMARK CNNaffinity 6.74229431
REMARK  9 active torsions:
REMARK  status: ('A' for Active; 'I' for Inactive)
REMARK    1  A    between atoms: C2_2  and  C3_3 
REMARK    2  A    between atoms: C3_3  and  C5_5 
REMARK    3  A    between atoms: C5_5  and  C6_6 
REMARK    4  A    between atoms: C6_6  and  O2_8 
REMARK    5  A    between atoms: O2_8  and  C7_9 
REMARK    6  A    between atoms: C7_9  and  C8_10 
REMARK    7  A    between atoms: C20_22  and  O3_23 
REMARK    8  A    between atoms: C20_22  and  C21_24 
REMARK    9  A    between atoms: C21_24  and  O4_25 
ROOT
HETATM    1  C8  UNL     1       2.256  52.803 -10.407  1.00  0.00    -0.018 C 
HETATM    2  C9  UNL     1       1.571  51.842  -9.392  1.00  0.00     0.018 C 
HETATM    3  C10 UNL     1       1.126  53.549 -11.160  1.00  0.00     0.012 C 
HETATM    4  C11 UNL     1       0.409  54.638 -10.368  1.00  0.00     0.002 C 
HETATM    5  C12 UNL     1       1.226  55.278  -9.249  1.00  0.00     0.010 C 
HETATM    6  C13 UNL     1       2.754  55.272  -9.473  1.00  0.00    -0.032 C 
HETATM    7  C14 UNL     1       3.063  56.034 -10.800  1.00  0.00     0.016 C 
HETATM    8  C15 UNL     1       3.216  53.777  -9.594  1.00  0.00     0.005 C 
HETATM    9  C16 UNL     1       4.722  53.718  -9.968  1.00  0.00     0.007 C 
HETATM   10  C17 UNL     1       5.592  54.728  -9.198  1.00  0.00     0.006 C 
HETATM   11  C18 UNL     1       4.886  55.201  -7.932  1.00  0.00    -0.002 C 
HETATM   12  C19 UNL     1       5.811  55.976  -6.982  1.00  0.00     0.045 C 
HETATM   13  C20 UNL     1       5.047  56.405  -5.711  1.00  0.00     0.083 C 
HETATM   14  C22 UNL     1       3.653  56.989  -6.070  1.00  0.00     0.023 C 
HETATM   15  C23 UNL     1       3.760  58.151  -7.066  1.00  0.00     0.008 C 
HETATM   16  C24 UNL     1       3.751  57.495  -8.454  1.00  0.00     0.011 C 
HETATM   17  C25 UNL     1       3.533  55.963  -8.242  1.00  0.00    -0.029 C 
HETATM   18  C26 UNL     1       2.791  56.000  -6.879  1.00  0.00     0.018 C 
ENDROOT
BRANCH   1  19
HETATM   19  C7  UNL     1       3.023  51.913 -11.429  1.00  0.00     0.188 C 
BRANCH  19  20
HETATM   20  O2  UNL     1       2.699  52.302 -12.775  1.00  0.00    -0.321 OA
BRANCH  20  21
HETATM   21  C6  UNL     1       2.180  51.308 -13.544  1.00  0.00     0.259 C 
HETATM   22  O1  UNL     1       2.414  50.114 -13.404  1.00  0.00    -0.265 OA
BRANCH  21  23
HETATM   23  C5  UNL     1       1.307  51.870 -14.639  1.00  0.00     0.115 C 
BRANCH  23  24
HETATM   24  C3  UNL     1       1.826  51.585 -16.058  1.00  0.00    -0.010 C 
HETATM   25  C4  UNL     1       0.643  51.402 -17.013  1.00  0.00     0.010 C 
BRANCH  24  26
HETATM   26  C2  UNL     1       2.819  52.644 -16.584  1.00  0.00     0.000 C 
HETATM   27  C1  UNL     1       4.265  52.460 -16.145  1.00  0.00     0.005 C 
ENDBRANCH  24  26
ENDBRANCH  23  24
ENDBRANCH  21  23
ENDBRANCH  20  21
ENDBRANCH  19  20
ENDBRANCH   1  19
BRANCH  13  28
HETATM   28  O3  UNL     1       5.810  57.408  -5.013  1.00  0.00    -0.387 OA
HETATM   29  H34 UNL     1       6.111  58.072  -5.656  1.00  0.00     0.210 HD
ENDBRANCH  13  28
BRANCH  13  30
HETATM   30  C21 UNL     1       4.941  55.228  -4.709  1.00  0.00     0.202 C 
BRANCH  30  31
HETATM   31  O4  UNL     1       6.109  55.177  -3.889  1.00  0.00    -0.398 OA
HETATM   32  H37 UNL     1       6.850  55.299  -4.516  1.00  0.00     0.209 HD
ENDBRANCH  30  31
ENDBRANCH  13  30
TORSDOF 9
ENDMDL
MODEL 2
REMARK minimizedAffinity -6.23701477
REMARK CNNscore 0.700982273
REMARK CNNaffinity 6.203125
REMARK  9 active torsions:
REMARK  status: ('A' for Active; 'I' for Inactive)
REMARK    1  A    between atoms: C2_2  and  C3_3 
REMARK    2  A    between atoms: C3_3  and  C5_5 
REMARK    3  A    between atoms: C5_5  and  C6_6 
REMARK    4  A    between atoms: C6_6  and  O2_8 
REMARK    5  A    between atoms: O2_8  and  C7_9 
REMARK    6  A    between atoms: C7_9  and  C8_10 
REMARK    7  A    between atoms: C20_22  and  O3_23 
REMARK    8  A    between atoms: C20_22  and  C21_24 
REMARK    9  A    between atoms: C21_24  and  O4_25 
ROOT
HETATM    1  C8  UNL     1       2.519  54.091 -10.340  1.00  0.00    -0.018 C 
HETATM    2  C9  UNL     1       1.145  54.564 -10.900  1.00  0.00     0.018 C 
HETATM    3  C10 UNL     1       3.616  54.748 -11.215  1.00  0.00     0.012 C 
HETATM    4  C11 UNL     1       3.849  56.237 -10.977  1.00  0.00     0.002 C 
HETATM    5  C12 UNL     1       3.483  56.742  -9.584  1.00  0.00     0.010 C 
HETATM    6  C13 UNL     1       3.586  55.687  -8.461  1.00  0.00    -0.032 C 
HETATM    7  C14 UNL     1       5.052  55.152  -8.416  1.00  0.00     0.016 C 
HETATM    8  C15 UNL     1       2.599  54.516  -8.809  1.00  0.00     0.005 C 
HETATM    9  C16 UNL     1       2.772  53.359  -7.789  1.00  0.00     0.007 C 
HETATM   10  C17 UNL     1       2.912  53.834  -6.331  1.00  0.00     0.006 C 
HETATM   11  C18 UNL     1       2.375  55.252  -6.166  1.00  0.00    -0.002 C 
HETATM   12  C19 UNL     1       2.220  55.668  -4.696  1.00  0.00     0.045 C 
HETATM   13  C20 UNL     1       1.650  57.099  -4.594  1.00  0.00     0.083 C 
HETATM   14  C22 UNL     1       2.364  58.053  -5.591  1.00  0.00     0.023 C 
HETATM   15  C23 UNL     1       3.885  58.052  -5.394  1.00  0.00     0.008 C 
HETATM   16  C24 UNL     1       4.403  56.895  -6.260  1.00  0.00     0.011 C 
HETATM   17  C25 UNL     1       3.178  56.308  -7.030  1.00  0.00    -0.029 C 
HETATM   18  C26 UNL     1       2.266  57.563  -7.048  1.00  0.00     0.018 C 
ENDROOT
BRANCH   1  19
HETATM   19  C7  UNL     1       2.586  52.549 -10.543  1.00  0.00     0.188 C 
BRANCH  19  20
HETATM   20  O2  UNL     1       3.212  52.236 -11.799  1.00  0.00    -0.321 OA
BRANCH  20  21
HETATM   21  C6  UNL     1       2.551  51.313 -12.548  1.00  0.00     0.259 C 
HETATM   22  O1  UNL     1       1.518  50.746 -12.217  1.00  0.00    -0.265 OA
BRANCH  21  23
HETATM   23  C5  UNL     1       3.288  51.035 -13.836  1.00  0.00     0.115 C 
BRANCH  23  24
HETATM   24  C3  UNL     1       2.955  52.019 -14.970  1.00  0.00    -0.010 C 
HETATM   25  C4  UNL     1       4.183  52.209 -15.866  1.00  0.00     0.010 C 
BRANCH  24  26
HETATM   26  C2  UNL     1       1.710  51.624 -15.793  1.00  0.00     0.000 C 
HETATM   27  C1  UNL     1       1.510  52.398 -17.088  1.00  0.00     0.005 C 
ENDBRANCH  24  26
ENDBRANCH  23  24
ENDBRANCH  21  23
ENDBRANCH  20  21
ENDBRANCH  19  20
ENDBRANCH   1  19
BRANCH  13  28
HETATM   28  O3  UNL     1       1.841  57.593  -3.254  1.00  0.00    -0.387 OA
HETATM   29  H34 UNL     1       2.754  57.404  -2.981  1.00  0.00     0.210 HD
ENDBRANCH  13  28
BRANCH  13  30
HETATM   30  C21 UNL     1       0.114  57.096  -4.795  1.00  0.00     0.202 C 
BRANCH  30  31
HETATM   31  O4  UNL     1      -0.202  56.730  -6.139  1.00  0.00    -0.398 OA
HETATM   32  H37 UNL     1       0.422  57.250  -6.685  1.00  0.00     0.209 HD
ENDBRANCH  30  31
ENDBRANCH  13  30
TORSDOF 9
ENDMDL
MODEL 3
REMARK minimizedAffinity -7.09988499
REMARK CNNscore 0.665026248
REMARK CNNaffinity 5.86497116
REMARK  9 active torsions:
REMARK  status: ('A' for Active; 'I' for Inactive)
REMARK    1  A    between atoms: C2_2  and  C3_3 
REMARK    2  A    between atoms: C3_3  and  C5_5 
REMARK    3  A    between atoms: C5_5  and  C6_6 
REMARK    4  A    between atoms: C6_6  and  O2_8 
REMARK    5  A    between atoms: O2_8  and  C7_9 
REMARK    6  A    between atoms: C7_9  and  C8_10 
REMARK    7  A    between atoms: C20_22  and  O3_23 
REMARK    8  A    between atoms: C20_22  and  C21_24 
REMARK    9  A    between atoms: C21_24  and  O4_25 
ROOT
HETATM    1  C8  UNL     1       6.734  66.741 -36.433  1.00  0.00    -0.018 C 
HETATM    2  C9  UNL     1       6.844  65.256 -36.888  1.00  0.00     0.018 C 
HETATM    3  C10 UNL     1       7.874  67.517 -37.139  1.00  0.00     0.012 C 
HETATM    4  C11 UNL     1       7.669  67.789 -38.626  1.00  0.00     0.002 C 
HETATM    5  C12 UNL     1       6.215  67.849 -39.085  1.00  0.00     0.010 C 
HETATM    6  C13 UNL     1       5.208  68.298 -38.003  1.00  0.00    -0.032 C 
HETATM    7  C14 UNL     1       5.620  69.718 -37.502  1.00  0.00     0.016 C 
HETATM    8  C15 UNL     1       5.284  67.269 -36.819  1.00  0.00     0.005 C 
HETATM    9  C16 UNL     1       4.400  67.755 -35.640  1.00  0.00     0.007 C 
HETATM   10  C17 UNL     1       3.036  68.318 -36.078  1.00  0.00     0.006 C 
HETATM   11  C18 UNL     1       2.671  67.834 -37.478  1.00  0.00    -0.002 C 
HETATM   12  C19 UNL     1       1.210  68.119 -37.851  1.00  0.00     0.045 C 
HETATM   13  C20 UNL     1       0.896  67.586 -39.265  1.00  0.00     0.083 C 
HETATM   14  C22 UNL     1       2.029  67.955 -40.262  1.00  0.00     0.023 C 
HETATM   15  C23 UNL     1       2.294  69.466 -40.291  1.00  0.00     0.008 C 
HETATM   16  C24 UNL     1       3.312  69.717 -39.170  1.00  0.00     0.011 C 
HETATM   17  C25 UNL     1       3.701  68.327 -38.575  1.00  0.00    -0.029 C 
HETATM   18  C26 UNL     1       3.405  67.433 -39.809  1.00  0.00     0.018 C 
ENDROOT
BRANCH   1  19
HETATM   19  C7  UNL     1       6.998  66.767 -34.899  1.00  0.00     0.188 C 
BRANCH  19  20
HETATM   20  O2  UNL     1       6.750  65.472 -34.326  1.00  0.00    -0.321 OA
BRANCH  20  21
HETATM   21  C6  UNL     1       5.946  65.480 -33.230  1.00  0.00     0.259 C 
HETATM   22  O1  UNL     1       6.228  65.990 -32.154  1.00  0.00    -0.265 OA
BRANCH  21  23
HETATM   23  C5  UNL     1       4.665  64.726 -33.493  1.00  0.00     0.115 C 
BRANCH  23  24
HETATM   24  C3  UNL     1       4.632  63.318 -32.875  1.00  0.00    -0.010 C 
HETATM   25  C4  UNL     1       3.507  63.234 -31.840  1.00  0.00     0.010 C 
BRANCH  24  26
HETATM   26  C2  UNL     1       4.528  62.183 -33.916  1.00  0.00     0.000 C 
HETATM   27  C1  UNL     1       5.569  62.215 -35.026  1.00  0.00     0.005 C 
ENDBRANCH  24  26
ENDBRANCH  23  24
ENDBRANCH  21  23
ENDBRANCH  20  21
ENDBRANCH  19  20
ENDBRANCH   1  19
BRANCH  13  28
HETATM   28  O3  UNL     1      -0.341  68.161 -39.727  1.00  0.00    -0.387 OA
HETATM   29  H34 UNL     1      -0.324  69.116 -39.553  1.00  0.00     0.210 HD
ENDBRANCH  13  28
BRANCH  13  30
HETATM   30  C21 UNL     1       0.630  66.060 -39.231  1.00  0.00     0.202 C 
BRANCH  30  31
HETATM   31  O4  UNL     1      -0.427  65.729 -40.133  1.00  0.00    -0.398 OA
HETATM   32  H37 UNL     1      -1.111  66.410 -39.965  1.00  0.00     0.209 HD
ENDBRANCH  30  31
ENDBRANCH  13  30
TORSDOF 9
ENDMDL
MODEL 4
REMARK minimizedAffinity -7.60548735
REMARK CNNscore 0.572792292
REMARK CNNaffinity 6.74897194
REMARK  9 active torsions:
REMARK  status: ('A' for Active; 'I' for Inactive)
REMARK    1  A    between atoms: C2_2  and  C3_3 
REMARK    2  A    between atoms: C3_3  and  C5_5 
REMARK    3  A    between atoms: C5_5  and  C6_6 
REMARK    4  A    between atoms: C6_6  and  O2_8 
REMARK    5  A    between atoms: O2_8  and  C7_9 
REMARK    6  A    between atoms: C7_9  and  C8_10 
REMARK    7  A    between atoms: C20_22  and  O3_23 
REMARK    8  A    between atoms: C20_22  and  C21_24 
REMARK    9  A    between atoms: C21_24  and  O4_25 
ROOT
HETATM    1  C8  UNL     1      -1.782  51.375 -22.958  1.00  0.00    -0.018 C 
HETATM    2  C9  UNL     1      -2.940  52.411 -23.064  1.00  0.00     0.018 C 
HETATM    3  C10 UNL     1      -0.524  52.147 -22.489  1.00  0.00     0.012 C 
HETATM    4  C11 UNL     1      -0.507  52.557 -21.019  1.00  0.00     0.002 C 
HETATM    5  C12 UNL     1      -1.342  51.682 -20.087  1.00  0.00     0.010 C 
HETATM    6  C13 UNL     1      -1.514  50.218 -20.549  1.00  0.00    -0.032 C 
HETATM    7  C14 UNL     1      -0.099  49.573 -20.686  1.00  0.00     0.016 C 
HETATM    8  C15 UNL     1      -2.233  50.235 -21.945  1.00  0.00     0.005 C 
HETATM    9  C16 UNL     1      -2.297  48.796 -22.523  1.00  0.00     0.007 C 
HETATM   10  C17 UNL     1      -2.672  47.726 -21.482  1.00  0.00     0.006 C 
HETATM   11  C18 UNL     1      -3.354  48.357 -20.272  1.00  0.00    -0.002 C 
HETATM   12  C19 UNL     1      -4.006  47.324 -19.343  1.00  0.00     0.045 C 
HETATM   13  C20 UNL     1      -4.699  48.024 -18.155  1.00  0.00     0.083 C 
HETATM   14  C22 UNL     1      -3.789  49.130 -17.554  1.00  0.00     0.023 C 
HETATM   15  C23 UNL     1      -2.417  48.581 -17.144  1.00  0.00     0.008 C 
HETATM   16  C24 UNL     1      -1.552  48.672 -18.408  1.00  0.00     0.011 C 
HETATM   17  C25 UNL     1      -2.410  49.374 -19.508  1.00  0.00    -0.029 C 
HETATM   18  C26 UNL     1      -3.373  50.183 -18.599  1.00  0.00     0.018 C 
ENDROOT
BRANCH   1  19
HETATM   19  C7  UNL     1      -1.521  50.837 -24.395  1.00  0.00     0.188 C 
BRANCH  19  20
HETATM   20  O2  UNL     1      -2.562  51.269 -25.289  1.00  0.00    -0.321 OA
BRANCH  20  21
HETATM   21  C6  UNL     1      -2.132  52.006 -26.347  1.00  0.00     0.259 C 
HETATM   22  O1  UNL     1      -2.731  52.957 -26.833  1.00  0.00    -0.265 OA
BRANCH  21  23
HETATM   23  C5  UNL     1      -0.831  51.466 -26.890  1.00  0.00     0.115 C 
BRANCH  23  24
HETATM   24  C3  UNL     1       0.199  52.555 -27.237  1.00  0.00    -0.010 C 
HETATM   25  C4  UNL     1       0.142  53.672 -26.191  1.00  0.00     0.010 C 
BRANCH  24  26
HETATM   26  C2  UNL     1       1.636  52.019 -27.415  1.00  0.00     0.000 C 
HETATM   27  C1  UNL     1       2.082  50.990 -26.386  1.00  0.00     0.005 C 
ENDBRANCH  24  26
ENDBRANCH  23  24
ENDBRANCH  21  23
ENDBRANCH  20  21
ENDBRANCH  19  20
ENDBRANCH   1  19
BRANCH  13  28
HETATM   28  O3  UNL     1      -4.991  47.051 -17.133  1.00  0.00    -0.387 OA
HETATM   29  H34 UNL     1      -4.201  46.504 -16.991  1.00  0.00     0.210 HD
ENDBRANCH  13  28
BRANCH  13  30
HETATM   30  C21 UNL     1      -6.084  48.578 -18.573  1.00  0.00     0.202 C 
BRANCH  30  31
HETATM   31  O4  UNL     1      -7.014  48.432 -17.498  1.00  0.00    -0.398 OA
HETATM   32  H37 UNL     1      -6.863  47.522 -17.170  1.00  0.00     0.209 HD
ENDBRANCH  30  31
ENDBRANCH  13  30
TORSDOF 9
ENDMDL
MODEL 5
REMARK minimizedAffinity -6.76143789
REMARK CNNscore 0.56858772
REMARK CNNaffinity 6.50215578
REMARK  9 active torsions:
REMARK  status: ('A' for Active; 'I' for Inactive)
REMARK    1  A    between atoms: C2_2  and  C3_3 
REMARK    2  A    between atoms: C3_3  and  C5_5 
REMARK    3  A    between atoms: C5_5  and  C6_6 
REMARK    4  A    between atoms: C6_6  and  O2_8 
REMARK    5  A    between atoms: O2_8  and  C7_9 
REMARK    6  A    between atoms: C7_9  and  C8_10 
REMARK    7  A    between atoms: C20_22  and  O3_23 
REMARK    8  A    between atoms: C20_22  and  C21_24 
REMARK    9  A    between atoms: C21_24  and  O4_25 
ROOT
HETATM    1  C8  UNL     1      -4.239  49.531 -24.214  1.00  0.00    -0.018 C 
HETATM    2  C9  UNL     1      -4.999  48.397 -24.963  1.00  0.00     0.018 C 
HETATM    3  C10 UNL     1      -5.209  50.734 -24.107  1.00  0.00     0.012 C 
HETATM    4  C11 UNL     1      -6.331  50.591 -23.083  1.00  0.00     0.002 C 
HETATM    5  C12 UNL     1      -6.035  49.654 -21.915  1.00  0.00     0.010 C 
HETATM    6  C13 UNL     1      -4.541  49.527 -21.545  1.00  0.00    -0.032 C 
HETATM    7  C14 UNL     1      -3.998  50.945 -21.183  1.00  0.00     0.016 C 
HETATM    8  C15 UNL     1      -3.781  48.966 -22.799  1.00  0.00     0.005 C 
HETATM    9  C16 UNL     1      -2.252  48.958 -22.530  1.00  0.00     0.007 C 
HETATM   10  C17 UNL     1      -1.873  48.466 -21.122  1.00  0.00     0.006 C 
HETATM   11  C18 UNL     1      -3.009  47.658 -20.502  1.00  0.00    -0.002 C 
HETATM   12  C19 UNL     1      -2.587  46.902 -19.234  1.00  0.00     0.045 C 
HETATM   13  C20 UNL     1      -3.769  46.087 -18.670  1.00  0.00     0.083 C 
HETATM   14  C22 UNL     1      -5.074  46.931 -18.662  1.00  0.00     0.023 C 
HETATM   15  C23 UNL     1      -4.898  48.247 -17.894  1.00  0.00     0.008 C 
HETATM   16  C24 UNL     1      -4.356  49.246 -18.926  1.00  0.00     0.011 C 
HETATM   17  C25 UNL     1      -4.325  48.517 -20.307  1.00  0.00    -0.029 C 
HETATM   18  C26 UNL     1      -5.438  47.464 -20.061  1.00  0.00     0.018 C 
ENDROOT
BRANCH   1  19
HETATM   19  C7  UNL     1      -3.039  49.945 -25.115  1.00  0.00     0.188 C 
BRANCH  19  20
HETATM   20  O2  UNL     1      -3.506  50.643 -26.282  1.00  0.00    -0.321 OA
BRANCH  20  21
HETATM   21  C6  UNL     1      -2.709  51.667 -26.689  1.00  0.00     0.259 C 
HETATM   22  O1  UNL     1      -2.786  52.821 -26.289  1.00  0.00    -0.265 OA
BRANCH  21  23
HETATM   23  C5  UNL     1      -1.737  51.207 -27.748  1.00  0.00     0.115 C 
BRANCH  23  24
HETATM   24  C3  UNL     1      -0.260  51.422 -27.373  1.00  0.00    -0.010 C 
HETATM   25  C4  UNL     1       0.166  52.845 -27.746  1.00  0.00     0.010 C 
BRANCH  24  26
HETATM   26  C2  UNL     1       0.061  51.104 -25.897  1.00  0.00     0.000 C 
HETATM   27  C1  UNL     1       0.782  52.204 -25.133  1.00  0.00     0.005 C 
ENDBRANCH  24  26
ENDBRANCH  23  24
ENDBRANCH  21  23
ENDBRANCH  20  21
ENDBRANCH  19  20
ENDBRANCH   1  19
BRANCH  13  28
HETATM   28  O3  UNL     1      -3.467  45.680 -17.322  1.00  0.00    -0.387 OA
HETATM   29  H34 UNL     1      -3.120  46.446 -16.836  1.00  0.00     0.210 HD
ENDBRANCH  13  28
BRANCH  13  30
HETATM   30  C21 UNL     1      -3.945  44.759 -19.449  1.00  0.00     0.202 C 
BRANCH  30  31
HETATM   31  O4  UNL     1      -5.096  44.061 -18.972  1.00  0.00    -0.398 OA
HETATM   32  H37 UNL     1      -5.029  44.121 -17.997  1.00  0.00     0.209 HD
ENDBRANCH  30  31
ENDBRANCH  13  30
TORSDOF 9
ENDMDL
MODEL 6
REMARK minimizedAffinity -8.24144936
REMARK CNNscore 0.53219223
REMARK CNNaffinity 6.71384811
REMARK  9 active torsions:
REMARK  status: ('A' for Active; 'I' for Inactive)
REMARK    1  A    between atoms: C2_2  and  C3_3 
REMARK    2  A    between atoms: C3_3  and  C5_5 
REMARK    3  A    between atoms: C5_5  and  C6_6 
REMARK    4  A    between atoms: C6_6  and  O2_8 
REMARK    5  A    between atoms: O2_8  and  C7_9 
REMARK    6  A    between atoms: C7_9  and  C8_10 
REMARK    7  A    between atoms: C20_22  and  O3_23 
REMARK    8  A    between atoms: C20_22  and  C21_24 
REMARK    9  A    between atoms: C21_24  and  O4_25 
ROOT
HETATM    1  C8  UNL     1      -1.796  51.103 -23.298  1.00  0.00    -0.018 C 
HETATM    2  C9  UNL     1      -2.413  52.520 -23.106  1.00  0.00     0.018 C 
HETATM    3  C10 UNL     1      -1.007  50.774 -22.007  1.00  0.00     0.012 C 
HETATM    4  C11 UNL     1      -1.851  50.416 -20.787  1.00  0.00     0.002 C 
HETATM    5  C12 UNL     1      -3.227  49.830 -21.093  1.00  0.00     0.010 C 
HETATM    6  C13 UNL     1      -3.328  49.073 -22.435  1.00  0.00    -0.032 C 
HETATM    7  C14 UNL     1      -2.292  47.904 -22.424  1.00  0.00     0.016 C 
HETATM    8  C15 UNL     1      -2.982  50.084 -23.586  1.00  0.00     0.005 C 
HETATM    9  C16 UNL     1      -2.924  49.337 -24.945  1.00  0.00     0.007 C 
HETATM   10  C17 UNL     1      -4.058  48.315 -25.140  1.00  0.00     0.006 C 
HETATM   11  C18 UNL     1      -5.223  48.607 -24.200  1.00  0.00    -0.002 C 
HETATM   12  C19 UNL     1      -6.489  47.811 -24.546  1.00  0.00     0.045 C 
HETATM   13  C20 UNL     1      -7.637  48.168 -23.579  1.00  0.00     0.083 C 
HETATM   14  C22 UNL     1      -7.133  48.209 -22.109  1.00  0.00     0.023 C 
HETATM   15  C23 UNL     1      -6.458  46.893 -21.700  1.00  0.00     0.008 C 
HETATM   16  C24 UNL     1      -4.990  47.045 -22.121  1.00  0.00     0.011 C 
HETATM   17  C25 UNL     1      -4.814  48.495 -22.675  1.00  0.00    -0.029 C 
HETATM   18  C26 UNL     1      -5.969  49.198 -21.914  1.00  0.00     0.018 C 
ENDROOT
BRANCH   1  19
HETATM   19  C7  UNL     1      -0.787  51.205 -24.479  1.00  0.00     0.188 C 
BRANCH  19  20
HETATM   20  O2  UNL     1      -0.991  52.426 -25.210  1.00  0.00    -0.321 OA
BRANCH  20  21
HETATM   21  C6  UNL     1      -1.424  52.257 -26.488  1.00  0.00     0.259 C 
HETATM   22  O1  UNL     1      -2.426  52.773 -26.966  1.00  0.00    -0.265 OA
BRANCH  21  23
HETATM   23  C5  UNL     1      -0.531  51.300 -27.240  1.00  0.00     0.115 C 
BRANCH  23  24
HETATM   24  C3  UNL     1       0.411  51.986 -28.244  1.00  0.00    -0.010 C 
HETATM   25  C4  UNL     1       0.065  53.474 -28.344  1.00  0.00     0.010 C 
BRANCH  24  26
HETATM   26  C2  UNL     1       1.909  51.773 -27.939  1.00  0.00     0.000 C 
HETATM   27  C1  UNL     1       2.234  51.365 -26.509  1.00  0.00     0.005 C 
ENDBRANCH  24  26
ENDBRANCH  23  24
ENDBRANCH  21  23
ENDBRANCH  20  21
ENDBRANCH  19  20
ENDBRANCH   1  19
BRANCH  13  28
HETATM   28  O3  UNL     1      -8.679  47.179 -23.689  1.00  0.00    -0.387 OA
HETATM   29  H34 UNL     1      -8.273  46.297 -23.668  1.00  0.00     0.210 HD
ENDBRANCH  13  28
BRANCH  13  30
HETATM   30  C21 UNL     1      -8.315  49.497 -23.994  1.00  0.00     0.202 C 
BRANCH  30  31
HETATM   31  O4  UNL     1      -8.622  49.474 -25.389  1.00  0.00    -0.398 OA
HETATM   32  H37 UNL     1      -7.814  49.115 -25.809  1.00  0.00     0.209 HD
ENDBRANCH  30  31
ENDBRANCH  13  30
TORSDOF 9
ENDMDL
MODEL 7
REMARK minimizedAffinity -6.5064373
REMARK CNNscore 0.524350166
REMARK CNNaffinity 6.32255411
REMARK  9 active torsions:
REMARK  status: ('A' for Active; 'I' for Inactive)
REMARK    1  A    between atoms: C2_2  and  C3_3 
REMARK    2  A    between atoms: C3_3  and  C5_5 
REMARK    3  A    between atoms: C5_5  and  C6_6 
REMARK    4  A    between atoms: C6_6  and  O2_8 
REMARK    5  A    between atoms: O2_8  and  C7_9 
REMARK    6  A    between atoms: C7_9  and  C8_10 
REMARK    7  A    between atoms: C20_22  and  O3_23 
REMARK    8  A    between atoms: C20_22  and  C21_24 
REMARK    9  A    between atoms: C21_24  and  O4_25 
ROOT
HETATM    1  C8  UNL     1      -3.917  49.336 -24.117  1.00  0.00    -0.018 C 
HETATM    2  C9  UNL     1      -4.491  48.725 -25.429  1.00  0.00     0.018 C 
HETATM    3  C10 UNL     1      -4.653  50.678 -23.881  1.00  0.00     0.012 C 
HETATM    4  C11 UNL     1      -6.093  50.567 -23.388  1.00  0.00     0.002 C 
HETATM    5  C12 UNL     1      -6.423  49.291 -22.619  1.00  0.00     0.010 C 
HETATM    6  C13 UNL     1      -5.230  48.651 -21.876  1.00  0.00    -0.032 C 
HETATM    7  C14 UNL     1      -4.657  49.695 -20.866  1.00  0.00     0.016 C 
HETATM    8  C15 UNL     1      -4.139  48.285 -22.944  1.00  0.00     0.005 C 
HETATM    9  C16 UNL     1      -2.856  47.774 -22.235  1.00  0.00     0.007 C 
HETATM   10  C17 UNL     1      -3.135  46.812 -21.066  1.00  0.00     0.006 C 
HETATM   11  C18 UNL     1      -4.533  46.212 -21.176  1.00  0.00    -0.002 C 
HETATM   12  C19 UNL     1      -4.760  45.037 -20.214  1.00  0.00     0.045 C 
HETATM   13  C20 UNL     1      -6.179  44.458 -20.389  1.00  0.00     0.083 C 
HETATM   14  C22 UNL     1      -7.236  45.593 -20.478  1.00  0.00     0.023 C 
HETATM   15  C23 UNL     1      -7.171  46.529 -19.264  1.00  0.00     0.008 C 
HETATM   16  C24 UNL     1      -6.123  47.590 -19.629  1.00  0.00     0.011 C 
HETATM   17  C25 UNL     1      -5.671  47.310 -21.098  1.00  0.00    -0.029 C 
HETATM   18  C26 UNL     1      -6.941  46.585 -21.619  1.00  0.00     0.018 C 
ENDROOT
BRANCH   1  19
HETATM   19  C7  UNL     1      -2.413  49.640 -24.379  1.00  0.00     0.188 C 
BRANCH  19  20
HETATM   20  O2  UNL     1      -2.120  51.017 -24.085  1.00  0.00    -0.321 OA
BRANCH  20  21
HETATM   21  C6  UNL     1      -0.798  51.332 -24.098  1.00  0.00     0.259 C 
HETATM   22  O1  UNL     1      -0.175  51.796 -23.151  1.00  0.00    -0.265 OA
BRANCH  21  23
HETATM   23  C5  UNL     1      -0.196  51.084 -25.459  1.00  0.00     0.115 C 
BRANCH  23  24
HETATM   24  C3  UNL     1       0.879  52.108 -25.862  1.00  0.00    -0.010 C 
HETATM   25  C4  UNL     1       2.140  51.377 -26.330  1.00  0.00     0.010 C 
BRANCH  24  26
HETATM   26  C2  UNL     1       0.399  53.135 -26.910  1.00  0.00     0.000 C 
HETATM   27  C1  UNL     1       0.276  52.609 -28.333  1.00  0.00     0.005 C 
ENDBRANCH  24  26
ENDBRANCH  23  24
ENDBRANCH  21  23
ENDBRANCH  20  21
ENDBRANCH  19  20
ENDBRANCH   1  19
BRANCH  13  28
HETATM   28  O3  UNL     1      -6.492  43.613 -19.265  1.00  0.00    -0.387 OA
HETATM   29  H34 UNL     1      -6.247  44.079 -18.449  1.00  0.00     0.210 HD
ENDBRANCH  13  28
BRANCH  13  30
HETATM   30  C21 UNL     1      -6.241  43.514 -21.616  1.00  0.00     0.202 C 
BRANCH  30  31
HETATM   31  O4  UNL     1      -7.435  42.731 -21.571  1.00  0.00    -0.398 OA
HETATM   32  H37 UNL     1      -7.491  42.429 -20.641  1.00  0.00     0.209 HD
ENDBRANCH  30  31
ENDBRANCH  13  30
TORSDOF 9
ENDMDL
MODEL 8
REMARK minimizedAffinity -7.94944
REMARK CNNscore 0.512565494
REMARK CNNaffinity 6.68539
REMARK  9 active torsions:
REMARK  status: ('A' for Active; 'I' for Inactive)
REMARK    1  A    between atoms: C2_2  and  C3_3 
REMARK    2  A    between atoms: C3_3  and  C5_5 
REMARK    3  A    between atoms: C5_5  and  C6_6 
REMARK    4  A    between atoms: C6_6  and  O2_8 
REMARK    5  A    between atoms: O2_8  and  C7_9 
REMARK    6  A    between atoms: C7_9  and  C8_10 
REMARK    7  A    between atoms: C20_22  and  O3_23 
REMARK    8  A    between atoms: C20_22  and  C21_24 
REMARK    9  A    between atoms: C21_24  and  O4_25 
ROOT
HETATM    1  C8  UNL     1      -1.294  50.743 -22.016  1.00  0.00    -0.018 C 
HETATM    2  C9  UNL     1      -1.874  52.102 -21.527  1.00  0.00     0.018 C 
HETATM    3  C10 UNL     1      -0.544  50.111 -20.818  1.00  0.00     0.012 C 
HETATM    4  C11 UNL     1      -1.425  49.523 -19.720  1.00  0.00     0.002 C 
HETATM    5  C12 UNL     1      -2.810  49.065 -20.168  1.00  0.00     0.010 C 
HETATM    6  C13 UNL     1      -2.903  48.624 -21.645  1.00  0.00    -0.032 C 
HETATM    7  C14 UNL     1      -1.903  47.448 -21.876  1.00  0.00     0.016 C 
HETATM    8  C15 UNL     1      -2.503  49.851 -22.540  1.00  0.00     0.005 C 
HETATM    9  C16 UNL     1      -2.437  49.419 -24.029  1.00  0.00     0.007 C 
HETATM   10  C17 UNL     1      -3.596  48.503 -24.461  1.00  0.00     0.006 C 
HETATM   11  C18 UNL     1      -4.773  48.621 -23.498  1.00  0.00    -0.002 C 
HETATM   12  C19 UNL     1      -6.053  47.962 -24.029  1.00  0.00     0.045 C 
HETATM   13  C20 UNL     1      -7.211  48.137 -23.024  1.00  0.00     0.083 C 
HETATM   14  C22 UNL     1      -6.739  47.837 -21.574  1.00  0.00     0.023 C 
HETATM   15  C23 UNL     1      -6.112  46.442 -21.455  1.00  0.00     0.008 C 
HETATM   16  C24 UNL     1      -4.631  46.634 -21.809  1.00  0.00     0.011 C 
HETATM   17  C25 UNL     1      -4.400  48.163 -22.029  1.00  0.00    -0.029 C 
HETATM   18  C26 UNL     1      -5.550  48.720 -21.148  1.00  0.00     0.018 C 
ENDROOT
BRANCH   1  19
HETATM   19  C7  UNL     1      -0.257  51.067 -23.131  1.00  0.00     0.188 C 
BRANCH  19  20
HETATM   20  O2  UNL     1       0.021  52.477 -23.162  1.00  0.00    -0.321 OA
BRANCH  20  21
HETATM   21  C6  UNL     1       0.596  52.918 -24.313  1.00  0.00     0.259 C 
HETATM   22  O1  UNL     1       1.003  54.056 -24.506  1.00  0.00    -0.265 OA
BRANCH  21  23
HETATM   23  C5  UNL     1       0.626  51.826 -25.355  1.00  0.00     0.115 C 
BRANCH  23  24
HETATM   24  C3  UNL     1       1.320  52.235 -26.665  1.00  0.00    -0.010 C 
HETATM   25  C4  UNL     1       2.600  51.413 -26.849  1.00  0.00     0.010 C 
BRANCH  24  26
HETATM   26  C2  UNL     1       0.408  52.147 -27.908  1.00  0.00     0.000 C 
HETATM   27  C1  UNL     1      -0.279  53.445 -28.308  1.00  0.00     0.005 C 
ENDBRANCH  24  26
ENDBRANCH  23  24
ENDBRANCH  21  23
ENDBRANCH  20  21
ENDBRANCH  19  20
ENDBRANCH   1  19
BRANCH  13  28
HETATM   28  O3  UNL     1      -8.279  47.231 -23.365  1.00  0.00    -0.387 OA
HETATM   29  H34 UNL     1      -7.899  46.353 -23.533  1.00  0.00     0.210 HD
ENDBRANCH  13  28
BRANCH  13  30
HETATM   30  C21 UNL     1      -7.840  49.547 -23.147  1.00  0.00     0.202 C 
BRANCH  30  31
HETATM   31  O4  UNL     1      -8.299  49.762 -24.483  1.00  0.00    -0.398 OA
HETATM   32  H37 UNL     1      -7.567  49.437 -25.045  1.00  0.00     0.209 HD
ENDBRANCH  30  31
ENDBRANCH  13  30
TORSDOF 9
ENDMDL
MODEL 9
REMARK minimizedAffinity -6.16376734
REMARK CNNscore 0.512451231
REMARK CNNaffinity 6.11311483
REMARK  9 active torsions:
REMARK  status: ('A' for Active; 'I' for Inactive)
REMARK    1  A    between atoms: C2_2  and  C3_3 
REMARK    2  A    between atoms: C3_3  and  C5_5 
REMARK    3  A    between atoms: C5_5  and  C6_6 
REMARK    4  A    between atoms: C6_6  and  O2_8 
REMARK    5  A    between atoms: O2_8  and  C7_9 
REMARK    6  A    between atoms: C7_9  and  C8_10 
REMARK    7  A    between atoms: C20_22  and  O3_23 
REMARK    8  A    between atoms: C20_22  and  C21_24 
REMARK    9  A    between atoms: C21_24  and  O4_25 
ROOT
HETATM    1  C8  UNL     1       1.780  54.129  -9.492  1.00  0.00    -0.018 C 
HETATM    2  C9  UNL     1       1.343  52.917  -8.617  1.00  0.00     0.018 C 
HETATM    3  C10 UNL     1       0.731  55.247  -9.274  1.00  0.00     0.012 C 
HETATM    4  C11 UNL     1       0.810  55.978  -7.937  1.00  0.00     0.002 C 
HETATM    5  C12 UNL     1       2.186  55.990  -7.279  1.00  0.00     0.010 C 
HETATM    6  C13 UNL     1       3.377  55.900  -8.257  1.00  0.00    -0.032 C 
HETATM    7  C14 UNL     1       3.299  57.107  -9.244  1.00  0.00     0.016 C 
HETATM    8  C15 UNL     1       3.248  54.551  -9.050  1.00  0.00     0.005 C 
HETATM    9  C16 UNL     1       4.339  54.480 -10.153  1.00  0.00     0.007 C 
HETATM   10  C17 UNL     1       5.723  54.964  -9.687  1.00  0.00     0.006 C 
HETATM   11  C18 UNL     1       5.826  54.941  -8.166  1.00  0.00    -0.002 C 
HETATM   12  C19 UNL     1       7.262  55.131  -7.657  1.00  0.00     0.045 C 
HETATM   13  C20 UNL     1       7.305  55.073  -6.116  1.00  0.00     0.083 C 
HETATM   14  C22 UNL     1       6.153  55.912  -5.496  1.00  0.00     0.023 C 
HETATM   15  C23 UNL     1       6.173  57.364  -5.992  1.00  0.00     0.008 C 
HETATM   16  C24 UNL     1       5.357  57.357  -7.292  1.00  0.00     0.011 C 
HETATM   17  C25 UNL     1       4.786  55.914  -7.474  1.00  0.00    -0.029 C 
HETATM   18  C26 UNL     1       4.765  55.462  -5.989  1.00  0.00     0.018 C 
ENDROOT
BRANCH   1  19
HETATM   19  C7  UNL     1       1.705  53.666 -10.976  1.00  0.00     0.188 C 
BRANCH  19  20
HETATM   20  O2  UNL     1       0.372  53.836 -11.488  1.00  0.00    -0.321 OA
BRANCH  20  21
HETATM   21  C6  UNL     1      -0.058  52.832 -12.298  1.00  0.00     0.259 C 
HETATM   22  O1  UNL     1       0.388  52.586 -13.411  1.00  0.00    -0.265 OA
BRANCH  21  23
HETATM   23  C5  UNL     1      -1.203  52.080 -11.665  1.00  0.00     0.115 C 
BRANCH  23  24
HETATM   24  C3  UNL     1      -2.585  52.467 -12.219  1.00  0.00    -0.010 C 
HETATM   25  C4  UNL     1      -2.970  51.517 -13.357  1.00  0.00     0.010 C 
BRANCH  24  26
HETATM   26  C2  UNL     1      -3.690  52.539 -11.144  1.00  0.00     0.000 C 
HETATM   27  C1  UNL     1      -3.863  53.894 -10.473  1.00  0.00     0.005 C 
ENDBRANCH  24  26
ENDBRANCH  23  24
ENDBRANCH  21  23
ENDBRANCH  20  21
ENDBRANCH  19  20
ENDBRANCH   1  19
BRANCH  13  28
HETATM   28  O3  UNL     1       8.565  55.595  -5.653  1.00  0.00    -0.387 OA
HETATM   29  H34 UNL     1       8.748  56.426  -6.121  1.00  0.00     0.210 HD
ENDBRANCH  13  28
BRANCH  13  30
HETATM   30  C21 UNL     1       7.283  53.606  -5.619  1.00  0.00     0.202 C 
BRANCH  30  31
HETATM   31  O4  UNL     1       7.242  53.574  -4.191  1.00  0.00    -0.398 OA
HETATM   32  H37 UNL     1       7.907  54.238  -3.915  1.00  0.00     0.209 HD
ENDBRANCH  30  31
ENDBRANCH  13  30
TORSDOF 9
ENDMDL
