MODEL 1
REMARK minimizedAffinity -9.1997757
REMARK  5 active torsions:
REMARK  status: ('A' for Active; 'I' for Inactive)
REMARK    1  A    between atoms: C2_2  and  C3_3 
REMARK    2  A    between atoms: C8_8  and  C9_9 
REMARK    3  A    between atoms: C9_9  and  C11_11 
REMARK    4  A    between atoms: C11_11  and  C12_12 
REMARK    5  A    between atoms: C12_12  and  C13_13 
ROOT
HETATM    1  C3  UNL     1      -2.479  51.231 -22.128  1.00  0.00    -0.032 C 
HETATM    2  C4  UNL     1      -1.611  52.012 -21.064  1.00  0.00     0.011 C 
HETATM    3  C5  UNL     1      -0.793  51.153 -20.075  1.00  0.00     0.011 C 
HETATM    4  C6  UNL     1      -1.691  50.127 -19.372  1.00  0.00    -0.032 C 
HETATM    5  C7  UNL     1      -2.770  50.918 -18.566  1.00  0.00     0.016 C 
HETATM    6  C8  UNL     1      -1.003  49.095 -18.433  1.00  0.00    -0.002 C 
HETATM    7  C17 UNL     1      -2.060  47.959 -18.345  1.00  0.00     0.006 C 
HETATM    8  C18 UNL     1      -3.021  48.150 -19.555  1.00  0.00     0.011 C 
HETATM    9  C19 UNL     1      -2.290  49.158 -20.474  1.00  0.00    -0.032 C 
HETATM   10  C20 UNL     1      -1.233  48.291 -21.236  1.00  0.00     0.016 C 
HETATM   11  C21 UNL     1      -3.184  49.984 -21.461  1.00  0.00     0.003 C 
HETATM   12  C22 UNL     1      -3.975  49.163 -22.478  1.00  0.00     0.006 C 
HETATM   13  C23 UNL     1      -3.340  48.873 -23.828  1.00  0.00     0.006 C 
HETATM   14  C24 UNL     1      -2.121  49.692 -24.305  1.00  0.00     0.005 C 
HETATM   15  C25 UNL     1      -1.555  50.776 -23.328  1.00  0.00    -0.000 C 
HETATM   16  C26 UNL     1      -0.837  51.915 -24.091  1.00  0.00     0.013 C 
HETATM   17  C27 UNL     1      -0.011  51.370 -25.244  1.00  0.00     0.079 C 
HETATM   18  C28 UNL     1      -0.911  50.771 -26.292  1.00  0.00     0.135 C 
HETATM   19  O1  UNL     1      -0.590  50.829 -27.480  1.00  0.00    -0.297 OA
HETATM   20  C29 UNL     1      -2.210  50.091 -25.830  1.00  0.00     0.017 C 
HETATM   21  C30 UNL     1      -2.378  48.820 -26.699  1.00  0.00     0.023 C 
HETATM   22  C31 UNL     1      -3.362  51.054 -26.156  1.00  0.00     0.023 C 
ENDROOT
BRANCH   6  23
HETATM   23  C9  UNL     1      -0.272  49.521 -17.128  1.00  0.00    -0.014 C 
HETATM   24  C10 UNL     1      -0.619  48.528 -16.002  1.00  0.00     0.010 C 
BRANCH  23  25
HETATM   25  C11 UNL     1      -0.301  50.976 -16.604  1.00  0.00     0.008 C 
BRANCH  25  26
HETATM   26  C12 UNL     1       0.666  51.458 -15.517  1.00  0.00     0.028 C 
BRANCH  26  27
HETATM   27  C13 UNL     1       1.927  52.105 -16.013  1.00  0.00    -0.025 C 
HETATM   28  C14 UNL     1       3.174  51.934 -15.535  1.00  0.00    -0.091 C 
HETATM   29  C15 UNL     1       3.534  51.067 -14.360  1.00  0.00     0.042 C 
HETATM   30  C16 UNL     1       4.343  52.644 -16.165  1.00  0.00     0.042 C 
ENDBRANCH  26  27
ENDBRANCH  25  26
ENDBRANCH  23  25
ENDBRANCH   6  23
BRANCH   1  31
HETATM   31  C2  UNL     1      -3.555  52.230 -22.697  1.00  0.00     0.006 C 
HETATM   32  C1  UNL     1      -4.031  52.029 -24.136  1.00  0.00     0.006 C 
ENDBRANCH   1  31
TORSDOF 5
ENDMDL
MODEL 2
REMARK minimizedAffinity -9.01138878
REMARK  5 active torsions:
REMARK  status: ('A' for Active; 'I' for Inactive)
REMARK    1  A    between atoms: C2_2  and  C3_3 
REMARK    2  A    between atoms: C8_8  and  C9_9 
REMARK    3  A    between atoms: C9_9  and  C11_11 
REMARK    4  A    between atoms: C11_11  and  C12_12 
REMARK    5  A    between atoms: C12_12  and  C13_13 
ROOT
HETATM    1  C3  UNL     1      -3.230  48.742 -21.154  1.00  0.00    -0.032 C 
HETATM    2  C4  UNL     1      -2.645  49.411 -19.848  1.00  0.00     0.011 C 
HETATM    3  C5  UNL     1      -2.174  50.876 -19.971  1.00  0.00     0.011 C 
HETATM    4  C6  UNL     1      -1.184  51.034 -21.133  1.00  0.00    -0.032 C 
HETATM    5  C7  UNL     1       0.057  50.140 -20.819  1.00  0.00     0.016 C 
HETATM    6  C8  UNL     1      -0.706  52.473 -21.478  1.00  0.00    -0.002 C 
HETATM    7  C17 UNL     1      -0.196  52.321 -22.938  1.00  0.00     0.006 C 
HETATM    8  C18 UNL     1      -0.826  51.011 -23.496  1.00  0.00     0.011 C 
HETATM    9  C19 UNL     1      -1.933  50.651 -22.476  1.00  0.00    -0.032 C 
HETATM   10  C20 UNL     1      -3.129  51.585 -22.856  1.00  0.00     0.016 C 
HETATM   11  C21 UNL     1      -2.369  49.146 -22.416  1.00  0.00     0.003 C 
HETATM   12  C22 UNL     1      -2.948  48.576 -23.710  1.00  0.00     0.006 C 
HETATM   13  C23 UNL     1      -4.450  48.652 -23.927  1.00  0.00     0.006 C 
HETATM   14  C24 UNL     1      -5.395  48.935 -22.739  1.00  0.00     0.005 C 
HETATM   15  C25 UNL     1      -4.737  49.183 -21.340  1.00  0.00    -0.000 C 
HETATM   16  C26 UNL     1      -5.694  48.807 -20.183  1.00  0.00     0.013 C 
HETATM   17  C27 UNL     1      -7.118  49.241 -20.484  1.00  0.00     0.079 C 
HETATM   18  C28 UNL     1      -7.666  48.460 -21.648  1.00  0.00     0.135 C 
HETATM   19  O1  UNL     1      -8.867  48.185 -21.690  1.00  0.00    -0.297 OA
HETATM   20  C29 UNL     1      -6.693  48.038 -22.761  1.00  0.00     0.017 C 
HETATM   21  C30 UNL     1      -7.444  48.230 -24.103  1.00  0.00     0.023 C 
HETATM   22  C31 UNL     1      -6.418  46.538 -22.573  1.00  0.00     0.023 C 
ENDROOT
BRANCH   6  23
HETATM   23  C9  UNL     1       0.139  53.325 -20.489  1.00  0.00    -0.014 C 
HETATM   24  C10 UNL     1       1.554  53.523 -21.068  1.00  0.00     0.010 C 
BRANCH  23  25
HETATM   25  C11 UNL     1       0.205  53.009 -18.976  1.00  0.00     0.008 C 
BRANCH  25  26
HETATM   26  C12 UNL     1       1.535  52.723 -18.272  1.00  0.00     0.028 C 
BRANCH  26  27
HETATM   27  C13 UNL     1       1.426  52.157 -16.886  1.00  0.00    -0.025 C 
HETATM   28  C14 UNL     1       2.412  52.023 -15.978  1.00  0.00    -0.091 C 
HETATM   29  C15 UNL     1       3.851  52.392 -16.211  1.00  0.00     0.042 C 
HETATM   30  C16 UNL     1       2.128  51.453 -14.613  1.00  0.00     0.042 C 
ENDBRANCH  26  27
ENDBRANCH  25  26
ENDBRANCH  23  25
ENDBRANCH   6  23
BRANCH   1  31
HETATM   31  C2  UNL     1      -3.204  47.182 -20.949  1.00  0.00     0.006 C 
HETATM   32  C1  UNL     1      -2.992  46.647 -19.532  1.00  0.00     0.006 C 
ENDBRANCH   1  31
TORSDOF 5
ENDMDL
MODEL 3
REMARK minimizedAffinity -8.7124033
REMARK  5 active torsions:
REMARK  status: ('A' for Active; 'I' for Inactive)
REMARK    1  A    between atoms: C2_2  and  C3_3 
REMARK    2  A    between atoms: C8_8  and  C9_9 
REMARK    3  A    between atoms: C9_9  and  C11_11 
REMARK    4  A    between atoms: C11_11  and  C12_12 
REMARK    5  A    between atoms: C12_12  and  C13_13 
ROOT
HETATM    1  C3  UNL     1      -5.479  49.283 -20.744  1.00  0.00    -0.032 C 
HETATM    2  C4  UNL     1      -4.920  50.759 -20.691  1.00  0.00     0.011 C 
HETATM    3  C5  UNL     1      -3.534  50.998 -21.327  1.00  0.00     0.011 C 
HETATM    4  C6  UNL     1      -2.496  50.021 -20.756  1.00  0.00    -0.032 C 
HETATM    5  C7  UNL     1      -2.391  50.291 -19.221  1.00  0.00     0.016 C 
HETATM    6  C8  UNL     1      -1.072  50.041 -21.380  1.00  0.00    -0.002 C 
HETATM    7  C17 UNL     1      -0.504  48.653 -20.973  1.00  0.00     0.006 C 
HETATM    8  C18 UNL     1      -1.725  47.765 -20.593  1.00  0.00     0.011 C 
HETATM    9  C19 UNL     1      -2.951  48.548 -21.123  1.00  0.00    -0.032 C 
HETATM   10  C20 UNL     1      -2.983  48.228 -22.655  1.00  0.00     0.016 C 
HETATM   11  C21 UNL     1      -4.328  48.244 -20.438  1.00  0.00     0.003 C 
HETATM   12  C22 UNL     1      -4.815  46.800 -20.552  1.00  0.00     0.006 C 
HETATM   13  C23 UNL     1      -5.700  46.424 -21.730  1.00  0.00     0.006 C 
HETATM   14  C24 UNL     1      -6.398  47.523 -22.560  1.00  0.00     0.005 C 
HETATM   15  C25 UNL     1      -6.113  49.012 -22.167  1.00  0.00    -0.000 C 
HETATM   16  C26 UNL     1      -7.283  49.943 -22.567  1.00  0.00     0.013 C 
HETATM   17  C27 UNL     1      -7.841  49.569 -23.930  1.00  0.00     0.079 C 
HETATM   18  C28 UNL     1      -8.489  48.212 -23.874  1.00  0.00     0.135 C 
HETATM   19  O1  UNL     1      -9.468  47.970 -24.583  1.00  0.00    -0.297 OA
HETATM   20  C29 UNL     1      -7.890  47.161 -22.925  1.00  0.00     0.017 C 
HETATM   21  C30 UNL     1      -7.935  45.807 -23.678  1.00  0.00     0.023 C 
HETATM   22  C31 UNL     1      -8.825  47.067 -21.709  1.00  0.00     0.023 C 
ENDROOT
BRANCH   6  23
HETATM   23  C9  UNL     1      -0.137  51.278 -21.271  1.00  0.00    -0.014 C 
HETATM   24  C10 UNL     1      -0.120  51.778 -19.814  1.00  0.00     0.010 C 
BRANCH  23  25
HETATM   25  C11 UNL     1      -0.224  52.467 -22.257  1.00  0.00     0.008 C 
BRANCH  25  26
HETATM   26  C12 UNL     1      -0.483  52.255 -23.752  1.00  0.00     0.028 C 
BRANCH  26  27
HETATM   27  C13 UNL     1       0.741  52.210 -24.621  1.00  0.00    -0.025 C 
HETATM   28  C14 UNL     1       0.886  51.565 -25.795  1.00  0.00    -0.091 C 
HETATM   29  C15 UNL     1      -0.172  50.719 -26.448  1.00  0.00     0.042 C 
HETATM   30  C16 UNL     1       2.181  51.641 -26.559  1.00  0.00     0.042 C 
ENDBRANCH  26  27
ENDBRANCH  25  26
ENDBRANCH  23  25
ENDBRANCH   6  23
BRANCH   1  31
HETATM   31  C2  UNL     1      -6.625  49.163 -19.671  1.00  0.00     0.006 C 
HETATM   32  C1  UNL     1      -6.272  48.574 -18.306  1.00  0.00     0.006 C 
ENDBRANCH   1  31
TORSDOF 5
ENDMDL
MODEL 4
REMARK minimizedAffinity -8.68868637
REMARK  5 active torsions:
REMARK  status: ('A' for Active; 'I' for Inactive)
REMARK    1  A    between atoms: C2_2  and  C3_3 
REMARK    2  A    between atoms: C8_8  and  C9_9 
REMARK    3  A    between atoms: C9_9  and  C11_11 
REMARK    4  A    between atoms: C11_11  and  C12_12 
REMARK    5  A    between atoms: C12_12  and  C13_13 
ROOT
HETATM    1  C3  UNL     1      -2.857  51.043 -22.204  1.00  0.00    -0.032 C 
HETATM    2  C4  UNL     1      -2.700  51.372 -20.668  1.00  0.00     0.011 C 
HETATM    3  C5  UNL     1      -2.225  50.218 -19.757  1.00  0.00     0.011 C 
HETATM    4  C6  UNL     1      -3.108  48.977 -19.944  1.00  0.00    -0.032 C 
HETATM    5  C7  UNL     1      -4.562  49.368 -19.530  1.00  0.00     0.016 C 
HETATM    6  C8  UNL     1      -2.692  47.680 -19.194  1.00  0.00    -0.002 C 
HETATM    7  C17 UNL     1      -3.431  46.572 -19.995  1.00  0.00     0.006 C 
HETATM    8  C18 UNL     1      -3.804  47.193 -21.373  1.00  0.00     0.011 C 
HETATM    9  C19 UNL     1      -2.972  48.496 -21.448  1.00  0.00    -0.032 C 
HETATM   10  C20 UNL     1      -1.540  48.019 -21.862  1.00  0.00     0.016 C 
HETATM   11  C21 UNL     1      -3.509  49.617 -22.402  1.00  0.00     0.003 C 
HETATM   12  C22 UNL     1      -3.609  49.234 -23.878  1.00  0.00     0.006 C 
HETATM   13  C23 UNL     1      -2.417  49.506 -24.780  1.00  0.00     0.006 C 
HETATM   14  C24 UNL     1      -1.304  50.476 -24.327  1.00  0.00     0.005 C 
HETATM   15  C25 UNL     1      -1.439  51.111 -22.902  1.00  0.00    -0.000 C 
HETATM   16  C26 UNL     1      -0.712  52.474 -22.813  1.00  0.00     0.013 C 
HETATM   17  C27 UNL     1       0.616  52.439 -23.548  1.00  0.00     0.079 C 
HETATM   18  C28 UNL     1       0.389  52.270 -25.027  1.00  0.00     0.135 C 
HETATM   19  O1  UNL     1       1.166  52.792 -25.829  1.00  0.00    -0.297 OA
HETATM   20  C29 UNL     1      -0.815  51.431 -25.484  1.00  0.00     0.017 C 
HETATM   21  C30 UNL     1      -0.337  50.592 -26.696  1.00  0.00     0.023 C 
HETATM   22  C31 UNL     1      -1.889  52.417 -25.974  1.00  0.00     0.023 C 
ENDROOT
BRANCH   6  23
HETATM   23  C9  UNL     1      -2.686  47.586 -17.642  1.00  0.00    -0.014 C 
HETATM   24  C10 UNL     1      -4.103  47.232 -17.148  1.00  0.00     0.010 C 
BRANCH  23  25
HETATM   25  C11 UNL     1      -2.054  48.681 -16.751  1.00  0.00     0.008 C 
BRANCH  25  26
HETATM   26  C12 UNL     1      -0.535  48.854 -16.646  1.00  0.00     0.028 C 
BRANCH  26  27
HETATM   27  C13 UNL     1       0.000  50.176 -17.116  1.00  0.00    -0.025 C 
HETATM   28  C14 UNL     1       0.845  50.995 -16.460  1.00  0.00    -0.091 C 
HETATM   29  C15 UNL     1       1.390  50.743 -15.082  1.00  0.00     0.042 C 
HETATM   30  C16 UNL     1       1.307  52.284 -17.086  1.00  0.00     0.042 C 
ENDBRANCH  26  27
ENDBRANCH  25  26
ENDBRANCH  23  25
ENDBRANCH   6  23
BRANCH   1  31
HETATM   31  C2  UNL     1      -3.766  52.156 -22.845  1.00  0.00     0.006 C 
HETATM   32  C1  UNL     1      -5.231  51.817 -23.121  1.00  0.00     0.006 C 
ENDBRANCH   1  31
TORSDOF 5
ENDMDL
MODEL 5
REMARK minimizedAffinity -8.4756918
REMARK  5 active torsions:
REMARK  status: ('A' for Active; 'I' for Inactive)
REMARK    1  A    between atoms: C2_2  and  C3_3 
REMARK    2  A    between atoms: C8_8  and  C9_9 
REMARK    3  A    between atoms: C9_9  and  C11_11 
REMARK    4  A    between atoms: C11_11  and  C12_12 
REMARK    5  A    between atoms: C12_12  and  C13_13 
ROOT
HETATM    1  C3  UNL     1      -4.852  48.193 -21.485  1.00  0.00    -0.032 C 
HETATM    2  C4  UNL     1      -3.316  47.833 -21.560  1.00  0.00     0.011 C 
HETATM    3  C5  UNL     1      -2.322  49.006 -21.411  1.00  0.00     0.011 C 
HETATM    4  C6  UNL     1      -2.650  50.128 -22.405  1.00  0.00    -0.032 C 
HETATM    5  C7  UNL     1      -2.509  49.539 -23.844  1.00  0.00     0.016 C 
HETATM    6  C8  UNL     1      -1.823  51.441 -22.304  1.00  0.00    -0.002 C 
HETATM    7  C17 UNL     1      -2.731  52.472 -23.031  1.00  0.00     0.006 C 
HETATM    8  C18 UNL     1      -4.161  51.857 -23.068  1.00  0.00     0.011 C 
HETATM    9  C19 UNL     1      -4.100  50.676 -22.070  1.00  0.00    -0.032 C 
HETATM   10  C20 UNL     1      -4.244  51.348 -20.665  1.00  0.00     0.016 C 
HETATM   11  C21 UNL     1      -5.148  49.528 -22.276  1.00  0.00     0.003 C 
HETATM   12  C22 UNL     1      -6.613  49.947 -22.164  1.00  0.00     0.006 C 
HETATM   13  C23 UNL     1      -7.289  49.863 -20.805  1.00  0.00     0.006 C 
HETATM   14  C24 UNL     1      -6.654  49.029 -19.671  1.00  0.00     0.005 C 
HETATM   15  C25 UNL     1      -5.284  48.333 -19.970  1.00  0.00    -0.000 C 
HETATM   16  C26 UNL     1      -5.081  47.072 -19.095  1.00  0.00     0.013 C 
HETATM   17  C27 UNL     1      -5.565  47.305 -17.674  1.00  0.00     0.079 C 
HETATM   18  C28 UNL     1      -7.058  47.495 -17.657  1.00  0.00     0.135 C 
HETATM   19  O1  UNL     1      -7.714  47.106 -16.688  1.00  0.00    -0.297 OA
HETATM   20  C29 UNL     1      -7.715  48.186 -18.862  1.00  0.00     0.017 C 
HETATM   21  C30 UNL     1      -8.811  49.122 -18.294  1.00  0.00     0.023 C 
HETATM   22  C31 UNL     1      -8.402  47.088 -19.691  1.00  0.00     0.023 C 
ENDROOT
BRANCH   6  23
HETATM   23  C9  UNL     1      -0.294  51.480 -22.586  1.00  0.00    -0.014 C 
HETATM   24  C10 UNL     1       0.472  51.435 -21.250  1.00  0.00     0.010 C 
BRANCH  23  25
HETATM   25  C11 UNL     1       0.341  52.513 -23.547  1.00  0.00     0.008 C 
BRANCH  25  26
HETATM   26  C12 UNL     1       0.644  52.171 -25.009  1.00  0.00     0.028 C 
BRANCH  26  27
HETATM   27  C13 UNL     1       0.032  53.087 -26.029  1.00  0.00    -0.025 C 
HETATM   28  C14 UNL     1       0.041  52.939 -27.368  1.00  0.00    -0.091 C 
HETATM   29  C15 UNL     1       0.716  51.817 -28.106  1.00  0.00     0.042 C 
HETATM   30  C16 UNL     1      -0.645  53.944 -28.257  1.00  0.00     0.042 C 
ENDBRANCH  26  27
ENDBRANCH  25  26
ENDBRANCH  23  25
ENDBRANCH   6  23
BRANCH   1  31
HETATM   31  C2  UNL     1      -5.658  46.995 -22.110  1.00  0.00     0.006 C 
HETATM   32  C1  UNL     1      -6.327  47.209 -23.468  1.00  0.00     0.006 C 
ENDBRANCH   1  31
TORSDOF 5
ENDMDL
MODEL 6
REMARK minimizedAffinity -8.29360485
REMARK  5 active torsions:
REMARK  status: ('A' for Active; 'I' for Inactive)
REMARK    1  A    between atoms: C2_2  and  C3_3 
REMARK    2  A    between atoms: C8_8  and  C9_9 
REMARK    3  A    between atoms: C9_9  and  C11_11 
REMARK    4  A    between atoms: C11_11  and  C12_12 
REMARK    5  A    between atoms: C12_12  and  C13_13 
ROOT
HETATM    1  C3  UNL     1      -6.384  48.868 -22.027  1.00  0.00    -0.032 C 
HETATM    2  C4  UNL     1      -6.575  50.170 -22.900  1.00  0.00     0.011 C 
HETATM    3  C5  UNL     1      -5.369  50.611 -23.759  1.00  0.00     0.011 C 
HETATM    4  C6  UNL     1      -4.104  50.734 -22.899  1.00  0.00    -0.032 C 
HETATM    5  C7  UNL     1      -4.371  51.830 -21.820  1.00  0.00     0.016 C 
HETATM    6  C8  UNL     1      -2.767  51.048 -23.630  1.00  0.00    -0.002 C 
HETATM    7  C17 UNL     1      -1.700  50.580 -22.602  1.00  0.00     0.006 C 
HETATM    8  C18 UNL     1      -2.425  49.623 -21.611  1.00  0.00     0.011 C 
HETATM    9  C19 UNL     1      -3.774  49.304 -22.299  1.00  0.00    -0.032 C 
HETATM   10  C20 UNL     1      -3.419  48.208 -23.359  1.00  0.00     0.016 C 
HETATM   11  C21 UNL     1      -4.949  48.850 -21.366  1.00  0.00     0.003 C 
HETATM   12  C22 UNL     1      -4.701  47.568 -20.572  1.00  0.00     0.006 C 
HETATM   13  C23 UNL     1      -5.123  46.243 -21.184  1.00  0.00     0.006 C 
HETATM   14  C24 UNL     1      -6.107  46.214 -22.374  1.00  0.00     0.005 C 
HETATM   15  C25 UNL     1      -6.596  47.591 -22.936  1.00  0.00    -0.000 C 
HETATM   16  C26 UNL     1      -7.984  47.472 -23.612  1.00  0.00     0.013 C 
HETATM   17  C27 UNL     1      -8.092  46.194 -24.424  1.00  0.00     0.079 C 
HETATM   18  C28 UNL     1      -8.051  44.993 -23.517  1.00  0.00     0.135 C 
HETATM   19  O1  UNL     1      -8.689  43.981 -23.811  1.00  0.00    -0.297 OA
HETATM   20  C29 UNL     1      -7.193  45.077 -22.244  1.00  0.00     0.017 C 
HETATM   21  C30 UNL     1      -6.500  43.700 -22.086  1.00  0.00     0.023 C 
HETATM   22  C31 UNL     1      -8.159  45.268 -21.063  1.00  0.00     0.023 C 
ENDROOT
BRANCH   6  23
HETATM   23  C9  UNL     1      -2.528  52.389 -24.379  1.00  0.00    -0.014 C 
HETATM   24  C10 UNL     1      -3.144  52.302 -25.789  1.00  0.00     0.010 C 
BRANCH  23  25
HETATM   25  C11 UNL     1      -1.140  53.070 -24.429  1.00  0.00     0.008 C 
BRANCH  25  26
HETATM   26  C12 UNL     1       0.135  52.328 -24.012  1.00  0.00     0.028 C 
BRANCH  26  27
HETATM   27  C13 UNL     1       1.229  52.294 -25.040  1.00  0.00    -0.025 C 
HETATM   28  C14 UNL     1       1.251  51.587 -26.186  1.00  0.00    -0.091 C 
HETATM   29  C15 UNL     1       0.166  50.650 -26.639  1.00  0.00     0.042 C 
HETATM   30  C16 UNL     1       2.424  51.683 -27.126  1.00  0.00     0.042 C 
ENDBRANCH  26  27
ENDBRANCH  25  26
ENDBRANCH  23  25
ENDBRANCH   6  23
BRANCH   1  31
HETATM   31  C2  UNL     1      -7.500  48.864 -20.918  1.00  0.00     0.006 C 
HETATM   32  C1  UNL     1      -7.256  49.684 -19.651  1.00  0.00     0.006 C 
ENDBRANCH   1  31
TORSDOF 5
ENDMDL
MODEL 7
REMARK minimizedAffinity -8.24162102
REMARK  5 active torsions:
REMARK  status: ('A' for Active; 'I' for Inactive)
REMARK    1  A    between atoms: C2_2  and  C3_3 
REMARK    2  A    between atoms: C8_8  and  C9_9 
REMARK    3  A    between atoms: C9_9  and  C11_11 
REMARK    4  A    between atoms: C11_11  and  C12_12 
REMARK    5  A    between atoms: C12_12  and  C13_13 
ROOT
HETATM    1  C3  UNL     1      -4.240  49.162 -20.912  1.00  0.00    -0.032 C 
HETATM    2  C4  UNL     1      -4.401  49.342 -22.473  1.00  0.00     0.011 C 
HETATM    3  C5  UNL     1      -3.111  49.627 -23.274  1.00  0.00     0.011 C 
HETATM    4  C6  UNL     1      -2.354  50.823 -22.681  1.00  0.00    -0.032 C 
HETATM    5  C7  UNL     1      -3.288  52.070 -22.785  1.00  0.00     0.016 C 
HETATM    6  C8  UNL     1      -0.966  51.168 -23.291  1.00  0.00    -0.002 C 
HETATM    7  C17 UNL     1      -0.300  52.009 -22.166  1.00  0.00     0.006 C 
HETATM    8  C18 UNL     1      -1.085  51.703 -20.857  1.00  0.00     0.011 C 
HETATM    9  C19 UNL     1      -1.933  50.454 -21.198  1.00  0.00    -0.032 C 
HETATM   10  C20 UNL     1      -0.929  49.259 -21.074  1.00  0.00     0.016 C 
HETATM   11  C21 UNL     1      -3.221  50.223 -20.335  1.00  0.00     0.003 C 
HETATM   12  C22 UNL     1      -2.984  50.031 -18.837  1.00  0.00     0.006 C 
HETATM   13  C23 UNL     1      -2.785  48.620 -18.309  1.00  0.00     0.006 C 
HETATM   14  C24 UNL     1      -3.188  47.403 -19.170  1.00  0.00     0.005 C 
HETATM   15  C25 UNL     1      -3.753  47.690 -20.601  1.00  0.00    -0.000 C 
HETATM   16  C26 UNL     1      -4.690  46.557 -21.084  1.00  0.00     0.013 C 
HETATM   17  C27 UNL     1      -4.147  45.192 -20.698  1.00  0.00     0.079 C 
HETATM   18  C28 UNL     1      -4.158  45.030 -19.202  1.00  0.00     0.135 C 
HETATM   19  O1  UNL     1      -4.352  43.918 -18.708  1.00  0.00    -0.297 OA
HETATM   20  C29 UNL     1      -3.913  46.276 -18.336  1.00  0.00     0.017 C 
HETATM   21  C30 UNL     1      -3.011  45.828 -17.159  1.00  0.00     0.023 C 
HETATM   22  C31 UNL     1      -5.275  46.702 -17.764  1.00  0.00     0.023 C 
ENDROOT
BRANCH   6  23
HETATM   23  C9  UNL     1      -0.803  51.647 -24.761  1.00  0.00    -0.014 C 
HETATM   24  C10 UNL     1      -0.004  52.965 -24.783  1.00  0.00     0.010 C 
BRANCH  23  25
HETATM   25  C11 UNL     1      -1.996  51.713 -25.744  1.00  0.00     0.008 C 
BRANCH  25  26
HETATM   26  C12 UNL     1      -1.863  51.261 -27.201  1.00  0.00     0.028 C 
BRANCH  26  27
HETATM   27  C13 UNL     1      -3.024  50.481 -27.747  1.00  0.00    -0.025 C 
HETATM   28  C14 UNL     1      -3.402  49.233 -27.407  1.00  0.00    -0.091 C 
HETATM   29  C15 UNL     1      -2.685  48.357 -26.418  1.00  0.00     0.042 C 
HETATM   30  C16 UNL     1      -4.614  48.599 -28.036  1.00  0.00     0.042 C 
ENDBRANCH  26  27
ENDBRANCH  25  26
ENDBRANCH  23  25
ENDBRANCH   6  23
BRANCH   1  31
HETATM   31  C2  UNL     1      -5.659  49.351 -20.257  1.00  0.00     0.006 C 
HETATM   32  C1  UNL     1      -6.794  49.869 -21.140  1.00  0.00     0.006 C 
ENDBRANCH   1  31
TORSDOF 5
ENDMDL
MODEL 8
REMARK minimizedAffinity -8.14815998
REMARK  5 active torsions:
REMARK  status: ('A' for Active; 'I' for Inactive)
REMARK    1  A    between atoms: C2_2  and  C3_3 
REMARK    2  A    between atoms: C8_8  and  C9_9 
REMARK    3  A    between atoms: C9_9  and  C11_11 
REMARK    4  A    between atoms: C11_11  and  C12_12 
REMARK    5  A    between atoms: C12_12  and  C13_13 
ROOT
HETATM    1  C3  UNL     1      -3.793  50.480 -21.266  1.00  0.00    -0.032 C 
HETATM    2  C4  UNL     1      -3.634  51.752 -20.343  1.00  0.00     0.011 C 
HETATM    3  C5  UNL     1      -2.284  51.911 -19.610  1.00  0.00     0.011 C 
HETATM    4  C6  UNL     1      -1.939  50.641 -18.821  1.00  0.00    -0.032 C 
HETATM    5  C7  UNL     1      -3.061  50.430 -17.755  1.00  0.00     0.016 C 
HETATM    6  C8  UNL     1      -0.550  50.583 -18.124  1.00  0.00    -0.002 C 
HETATM    7  C17 UNL     1      -0.339  49.058 -17.912  1.00  0.00     0.006 C 
HETATM    8  C18 UNL     1      -1.317  48.334 -18.883  1.00  0.00     0.011 C 
HETATM    9  C19 UNL     1      -1.794  49.444 -19.851  1.00  0.00    -0.032 C 
HETATM   10  C20 UNL     1      -0.621  49.594 -20.877  1.00  0.00     0.016 C 
HETATM   11  C21 UNL     1      -3.167  49.208 -20.569  1.00  0.00     0.003 C 
HETATM   12  C22 UNL     1      -3.237  47.972 -21.464  1.00  0.00     0.006 C 
HETATM   13  C23 UNL     1      -2.877  48.120 -22.934  1.00  0.00     0.006 C 
HETATM   14  C24 UNL     1      -2.821  49.519 -23.584  1.00  0.00     0.005 C 
HETATM   15  C25 UNL     1      -3.097  50.753 -22.660  1.00  0.00    -0.000 C 
HETATM   16  C26 UNL     1      -3.651  51.955 -23.462  1.00  0.00     0.013 C 
HETATM   17  C27 UNL     1      -2.941  52.100 -24.797  1.00  0.00     0.079 C 
HETATM   18  C28 UNL     1      -3.253  50.924 -25.684  1.00  0.00     0.135 C 
HETATM   19  O1  UNL     1      -3.322  51.080 -26.905  1.00  0.00    -0.297 OA
HETATM   20  C29 UNL     1      -3.467  49.553 -25.022  1.00  0.00     0.017 C 
HETATM   21  C30 UNL     1      -2.779  48.508 -25.936  1.00  0.00     0.023 C 
HETATM   22  C31 UNL     1      -4.980  49.281 -25.033  1.00  0.00     0.023 C 
ENDROOT
BRANCH   6  23
HETATM   23  C9  UNL     1      -0.164  51.546 -16.966  1.00  0.00    -0.014 C 
HETATM   24  C10 UNL     1       1.051  52.394 -17.391  1.00  0.00     0.010 C 
BRANCH  23  25
HETATM   25  C11 UNL     1      -0.009  51.060 -15.506  1.00  0.00     0.008 C 
BRANCH  25  26
HETATM   26  C12 UNL     1       0.981  51.720 -14.540  1.00  0.00     0.028 C 
BRANCH  26  27
HETATM   27  C13 UNL     1       2.092  50.838 -14.048  1.00  0.00    -0.025 C 
HETATM   28  C14 UNL     1       3.394  50.900 -14.387  1.00  0.00    -0.091 C 
HETATM   29  C15 UNL     1       3.980  51.868 -15.376  1.00  0.00     0.042 C 
HETATM   30  C16 UNL     1       4.392  49.949 -13.781  1.00  0.00     0.042 C 
ENDBRANCH  26  27
ENDBRANCH  25  26
ENDBRANCH  23  25
ENDBRANCH   6  23
BRANCH   1  31
HETATM   31  C2  UNL     1      -5.330  50.263 -21.526  1.00  0.00     0.006 C 
HETATM   32  C1  UNL     1      -6.216  49.904 -20.334  1.00  0.00     0.006 C 
ENDBRANCH   1  31
TORSDOF 5
ENDMDL
MODEL 9
REMARK minimizedAffinity -8.1230793
REMARK  5 active torsions:
REMARK  status: ('A' for Active; 'I' for Inactive)
REMARK    1  A    between atoms: C2_2  and  C3_3 
REMARK    2  A    between atoms: C8_8  and  C9_9 
REMARK    3  A    between atoms: C9_9  and  C11_11 
REMARK    4  A    between atoms: C11_11  and  C12_12 
REMARK    5  A    between atoms: C12_12  and  C13_13 
ROOT
HETATM    1  C3  UNL     1      -4.231  49.025 -20.404  1.00  0.00    -0.032 C 
HETATM    2  C4  UNL     1      -4.341  49.134 -21.976  1.00  0.00     0.011 C 
HETATM    3  C5  UNL     1      -3.035  49.434 -22.743  1.00  0.00     0.011 C 
HETATM    4  C6  UNL     1      -2.344  50.682 -22.176  1.00  0.00    -0.032 C 
HETATM    5  C7  UNL     1      -3.319  51.887 -22.366  1.00  0.00     0.016 C 
HETATM    6  C8  UNL     1      -0.948  51.054 -22.752  1.00  0.00    -0.002 C 
HETATM    7  C17 UNL     1      -0.355  51.966 -21.642  1.00  0.00     0.006 C 
HETATM    8  C18 UNL     1      -1.175  51.685 -20.349  1.00  0.00     0.011 C 
HETATM    9  C19 UNL     1      -1.963  50.391 -20.665  1.00  0.00    -0.032 C 
HETATM   10  C20 UNL     1      -0.922  49.242 -20.455  1.00  0.00     0.016 C 
HETATM   11  C21 UNL     1      -3.273  50.147 -19.838  1.00  0.00     0.003 C 
HETATM   12  C22 UNL     1      -3.084  50.027 -18.326  1.00  0.00     0.006 C 
HETATM   13  C23 UNL     1      -2.852  48.648 -17.731  1.00  0.00     0.006 C 
HETATM   14  C24 UNL     1      -3.179  47.382 -18.552  1.00  0.00     0.005 C 
HETATM   15  C25 UNL     1      -3.701  47.587 -20.014  1.00  0.00    -0.000 C 
HETATM   16  C26 UNL     1      -4.579  46.400 -20.480  1.00  0.00     0.013 C 
HETATM   17  C27 UNL     1      -4.000  45.074 -20.017  1.00  0.00     0.079 C 
HETATM   18  C28 UNL     1      -4.059  44.974 -18.516  1.00  0.00     0.135 C 
HETATM   19  O1  UNL     1      -4.231  43.877 -17.982  1.00  0.00    -0.297 OA
HETATM   20  C29 UNL     1      -3.892  46.264 -17.697  1.00  0.00     0.017 C 
HETATM   21  C30 UNL     1      -3.017  45.899 -16.471  1.00  0.00     0.023 C 
HETATM   22  C31 UNL     1      -5.288  46.660 -17.191  1.00  0.00     0.023 C 
ENDROOT
BRANCH   6  23
HETATM   23  C9  UNL     1      -0.750  51.477 -24.235  1.00  0.00    -0.014 C 
HETATM   24  C10 UNL     1      -0.542  53.002 -24.306  1.00  0.00     0.010 C 
BRANCH  23  25
HETATM   25  C11 UNL     1      -1.695  50.999 -25.362  1.00  0.00     0.008 C 
BRANCH  25  26
HETATM   26  C12 UNL     1      -1.182  50.725 -26.779  1.00  0.00     0.028 C 
BRANCH  26  27
HETATM   27  C13 UNL     1       0.306  50.814 -26.958  1.00  0.00    -0.025 C 
HETATM   28  C14 UNL     1       0.997  51.786 -27.585  1.00  0.00    -0.091 C 
HETATM   29  C15 UNL     1       0.381  52.973 -28.270  1.00  0.00     0.042 C 
HETATM   30  C16 UNL     1       2.500  51.736 -27.656  1.00  0.00     0.042 C 
ENDBRANCH  26  27
ENDBRANCH  25  26
ENDBRANCH  23  25
ENDBRANCH   6  23
BRANCH   1  31
HETATM   31  C2  UNL     1      -5.678  49.187 -19.808  1.00  0.00     0.006 C 
HETATM   32  C1  UNL     1      -6.798  49.629 -20.750  1.00  0.00     0.006 C 
ENDBRANCH   1  31
TORSDOF 5
ENDMDL
