MODEL 1
REMARK minimizedAffinity -7.83711815
REMARK CNNscore 0.378016531
REMARK CNNaffinity 7.03237104
REMARK  11 active torsions:
REMARK  status: ('A' for Active; 'I' for Inactive)
REMARK    1  A    between atoms: C2_2  and  O2_4 
REMARK    2  A    between atoms: O2_4  and  C3_5 
REMARK    3  A    between atoms: C4_6  and  O3_7 
REMARK    4  A    between atoms: O3_7  and  C5_8 
REMARK    5  A    between atoms: C15_18  and  C16_19 
REMARK    6  A    between atoms: C20_23  and  C21_24 
REMARK    7  A    between atoms: C21_24  and  O4_27 
REMARK    8  A    between atoms: C24_29  and  O6_30 
REMARK    9  A    between atoms: C30_36  and  O7_37 
REMARK   10  A    between atoms: C36_44  and  O9_45 
REMARK   11  A    between atoms: C37_46  and  O10_47 
ROOT
HETATM    1  C5  UNL     1      -3.443  14.202  16.706  1.00  0.00     0.133 C 
HETATM    2  C6  UNL     1      -4.588  13.442  16.014  1.00  0.00     0.034 C 
HETATM    3  C7  UNL     1      -4.367  11.929  15.905  1.00  0.00     0.013 C 
HETATM    4  C8  UNL     1      -2.894  11.576  15.974  1.00  0.00    -0.025 A 
HETATM    5  C9  UNL     1      -2.119  11.800  14.708  1.00  0.00     0.021 A 
HETATM    6  C10 UNL     1      -2.303  10.364  15.196  1.00  0.00    -0.027 A 
HETATM    7  C11 UNL     1      -3.269   9.523  14.347  1.00  0.00     0.011 C 
HETATM    8  C12 UNL     1      -2.869   8.110  13.919  1.00  0.00     0.011 C 
HETATM    9  C13 UNL     1      -1.361   7.894  13.853  1.00  0.00    -0.028 C 
HETATM   10  C14 UNL     1      -0.791   8.797  12.730  1.00  0.00     0.016 C 
HETATM   11  C15 UNL     1      -0.861   6.401  13.680  1.00  0.00     0.057 C 
HETATM   12  C24 UNL     1       0.555   6.459  14.350  1.00  0.00     0.126 C 
HETATM   13  C25 UNL     1       0.626   7.749  15.173  1.00  0.00     0.042 C 
HETATM   14  C26 UNL     1      -0.828   8.229  15.300  1.00  0.00    -0.029 C 
HETATM   15  C27 UNL     1      -1.513   7.406  16.440  1.00  0.00     0.016 C 
HETATM   16  C28 UNL     1      -0.950   9.749  15.624  1.00  0.00     0.006 C 
HETATM   17  C29 UNL     1      -0.615  10.081  17.092  1.00  0.00     0.038 C 
HETATM   18  C30 UNL     1      -0.815  11.548  17.475  1.00  0.00     0.124 C 
HETATM   19  C31 UNL     1      -2.307  11.932  17.358  1.00  0.00     0.034 C 
HETATM   20  C32 UNL     1      -2.733  13.390  17.837  1.00  0.00    -0.015 C 
HETATM   21  C33 UNL     1      -1.562  14.236  18.377  1.00  0.00     0.018 C 
HETATM   22  C34 UNL     1      -3.728  13.254  19.023  1.00  0.00     0.018 C 
ENDROOT
BRANCH   1  23
HETATM   23  O3  UNL     1      -2.480  14.562  15.697  1.00  0.00    -0.352 OA
BRANCH  23  24
HETATM   24  C4  UNL     1      -2.534  15.941  15.320  1.00  0.00     0.292 C 
HETATM   25  C3  UNL     1      -3.255  16.051  13.958  1.00  0.00     0.218 C 
HETATM   26  C37 UNL     1      -3.603  17.517  13.683  1.00  0.00     0.183 C 
HETATM   27  C36 UNL     1      -4.372  18.151  14.862  1.00  0.00     0.173 C 
HETATM   28  C35 UNL     1      -4.427  17.212  16.071  1.00  0.00     0.205 C 
HETATM   29  O8  UNL     1      -3.127  16.711  16.369  1.00  0.00    -0.356 OA
BRANCH  25  30
HETATM   30  O2  UNL     1      -2.353  15.595  12.918  1.00  0.00    -0.309 OA
BRANCH  30  31
HETATM   31  C2  UNL     1      -1.142  16.207  12.846  1.00  0.00     0.255 C 
HETATM   32  C1  UNL     1      -0.054  15.221  13.137  1.00  0.00     0.126 C 
HETATM   33  O1  UNL     1      -0.941  17.383  12.573  1.00  0.00    -0.266 OA
ENDBRANCH  30  31
ENDBRANCH  25  30
BRANCH  26  34
HETATM   34  O10 UNL     1      -4.414  17.604  12.497  1.00  0.00    -0.390 OA
HETATM   35  H60 UNL     1      -4.474  18.544  12.273  1.00  0.00     0.210 HD
ENDBRANCH  26  34
BRANCH  27  36
HETATM   36  O9  UNL     1      -3.700  19.383  15.192  1.00  0.00    -0.391 OA
HETATM   37  H58 UNL     1      -3.874  19.575  16.138  1.00  0.00     0.210 HD
ENDBRANCH  27  36
ENDBRANCH  23  24
ENDBRANCH   1  23
BRANCH  18  38
HETATM   38  O7  UNL     1      -0.360  11.674  18.826  1.00  0.00    -0.395 OA
HETATM   39  H47 UNL     1      -0.874  11.065  19.381  1.00  0.00     0.210 HD
ENDBRANCH  18  38
BRANCH  11  40
HETATM   40  C16 UNL     1      -0.940   5.622  12.333  1.00  0.00     0.065 C 
HETATM   41  C17 UNL     1      -0.228   6.420  11.204  1.00  0.00     0.046 C 
HETATM   42  C18 UNL     1      -0.289   4.237  12.409  1.00  0.00     0.041 C 
HETATM   43  C19 UNL     1      -0.963   3.463  11.298  1.00  0.00     0.038 C 
HETATM   44  C20 UNL     1      -2.298   4.183  11.077  1.00  0.00     0.156 C 
HETATM   45  O5  UNL     1      -2.290   5.351  11.933  1.00  0.00    -0.372 OA
BRANCH  44  46
HETATM   46  C21 UNL     1      -3.576   3.322  11.304  1.00  0.00     0.076 C 
HETATM   47  C22 UNL     1      -4.478   3.929  12.384  1.00  0.00     0.048 C 
HETATM   48  C23 UNL     1      -3.186   1.889  11.705  1.00  0.00     0.048 C 
BRANCH  46  49
HETATM   49  O4  UNL     1      -4.375   3.198  10.115  1.00  0.00    -0.388 OA
HETATM   50  H35 UNL     1      -4.328   4.032   9.622  1.00  0.00     0.210 HD
ENDBRANCH  46  49
ENDBRANCH  44  46
ENDBRANCH  11  40
BRANCH  12  51
HETATM   51  O6  UNL     1       1.650   6.436  13.449  1.00  0.00    -0.395 OA
HETATM   52  H37 UNL     1       1.377   6.868  12.617  1.00  0.00     0.210 HD
ENDBRANCH  12  51
TORSDOF 11
ENDMDL
MODEL 2
REMARK minimizedAffinity -7.76009607
REMARK CNNscore 0.36107862
REMARK CNNaffinity 6.54128313
REMARK  11 active torsions:
REMARK  status: ('A' for Active; 'I' for Inactive)
REMARK    1  A    between atoms: C2_2  and  O2_4 
REMARK    2  A    between atoms: O2_4  and  C3_5 
REMARK    3  A    between atoms: C4_6  and  O3_7 
REMARK    4  A    between atoms: O3_7  and  C5_8 
REMARK    5  A    between atoms: C15_18  and  C16_19 
REMARK    6  A    between atoms: C20_23  and  C21_24 
REMARK    7  A    between atoms: C21_24  and  O4_27 
REMARK    8  A    between atoms: C24_29  and  O6_30 
REMARK    9  A    between atoms: C30_36  and  O7_37 
REMARK   10  A    between atoms: C36_44  and  O9_45 
REMARK   11  A    between atoms: C37_46  and  O10_47 
ROOT
HETATM    1  C5  UNL     1     -19.005   3.490  14.652  1.00  0.00     0.133 C 
HETATM    2  C6  UNL     1     -18.440   3.780  16.054  1.00  0.00     0.034 C 
HETATM    3  C7  UNL     1     -17.699   5.117  16.171  1.00  0.00     0.013 C 
HETATM    4  C8  UNL     1     -17.195   5.593  14.823  1.00  0.00    -0.025 A 
HETATM    5  C9  UNL     1     -15.946   4.922  14.329  1.00  0.00     0.021 A 
HETATM    6  C10 UNL     1     -15.876   6.407  14.680  1.00  0.00    -0.027 A 
HETATM    7  C11 UNL     1     -15.090   6.721  15.963  1.00  0.00     0.011 C 
HETATM    8  C12 UNL     1     -14.057   7.848  15.964  1.00  0.00     0.011 C 
HETATM    9  C13 UNL     1     -13.476   8.147  14.585  1.00  0.00    -0.028 C 
HETATM   10  C14 UNL     1     -12.673   6.906  14.118  1.00  0.00     0.016 C 
HETATM   11  C15 UNL     1     -12.606   9.462  14.448  1.00  0.00     0.057 C 
HETATM   12  C24 UNL     1     -12.802   9.818  12.933  1.00  0.00     0.126 C 
HETATM   13  C25 UNL     1     -13.998   9.011  12.419  1.00  0.00     0.042 C 
HETATM   14  C26 UNL     1     -14.717   8.505  13.679  1.00  0.00    -0.029 C 
HETATM   15  C27 UNL     1     -15.599   9.671  14.235  1.00  0.00     0.016 C 
HETATM   16  C28 UNL     1     -15.621   7.262  13.417  1.00  0.00     0.006 C 
HETATM   17  C29 UNL     1     -16.936   7.614  12.696  1.00  0.00     0.038 C 
HETATM   18  C30 UNL     1     -17.894   6.437  12.504  1.00  0.00     0.124 C 
HETATM   19  C31 UNL     1     -18.373   5.911  13.876  1.00  0.00     0.034 C 
HETATM   20  C32 UNL     1     -19.477   4.762  13.880  1.00  0.00    -0.015 C 
HETATM   21  C33 UNL     1     -19.934   4.332  12.472  1.00  0.00     0.018 C 
HETATM   22  C34 UNL     1     -20.754   5.301  14.584  1.00  0.00     0.018 C 
ENDROOT
BRANCH   1  23
HETATM   23  O3  UNL     1     -17.979   2.821  13.894  1.00  0.00    -0.352 OA
BRANCH  23  24
HETATM   24  C4  UNL     1     -18.278   1.451  13.607  1.00  0.00     0.292 C 
HETATM   25  C3  UNL     1     -17.535   0.561  14.628  1.00  0.00     0.218 C 
HETATM   26  C37 UNL     1     -18.078  -0.869  14.545  1.00  0.00     0.183 C 
HETATM   27  C36 UNL     1     -19.616  -0.904  14.673  1.00  0.00     0.173 C 
HETATM   28  C35 UNL     1     -20.215   0.506  14.665  1.00  0.00     0.205 C 
HETATM   29  O8  UNL     1     -19.694   1.258  13.572  1.00  0.00    -0.356 OA
BRANCH  25  30
HETATM   30  O2  UNL     1     -16.127   0.534  14.280  1.00  0.00    -0.309 OA
BRANCH  30  31
HETATM   31  C2  UNL     1     -15.276   1.178  15.120  1.00  0.00     0.255 C 
HETATM   32  C1  UNL     1     -15.333   0.554  16.479  1.00  0.00     0.126 C 
HETATM   33  O1  UNL     1     -14.550   2.121  14.833  1.00  0.00    -0.266 OA
ENDBRANCH  30  31
ENDBRANCH  25  30
BRANCH  26  34
HETATM   34  O10 UNL     1     -17.503  -1.663  15.600  1.00  0.00    -0.390 OA
HETATM   35  H60 UNL     1     -17.744  -2.581  15.416  1.00  0.00     0.210 HD
ENDBRANCH  26  34
BRANCH  27  36
HETATM   36  O9  UNL     1     -20.114  -1.686  13.570  1.00  0.00    -0.391 OA
HETATM   37  H58 UNL     1     -21.028  -1.387  13.379  1.00  0.00     0.210 HD
ENDBRANCH  27  36
ENDBRANCH  23  24
ENDBRANCH   1  23
BRANCH  18  38
HETATM   38  O7  UNL     1     -18.994   6.937  11.737  1.00  0.00    -0.395 OA
HETATM   39  H47 UNL     1     -19.395   7.676  12.221  1.00  0.00     0.210 HD
ENDBRANCH  18  38
BRANCH  11  40
HETATM   40  C16 UNL     1     -11.149   9.587  14.987  1.00  0.00     0.065 C 
HETATM   41  C17 UNL     1     -10.642  11.050  14.843  1.00  0.00     0.046 C 
HETATM   42  C18 UNL     1     -11.027   9.193  16.463  1.00  0.00     0.041 C 
HETATM   43  C19 UNL     1      -9.571   8.811  16.612  1.00  0.00     0.038 C 
HETATM   44  C20 UNL     1      -9.122   8.429  15.197  1.00  0.00     0.156 C 
HETATM   45  O5  UNL     1     -10.237   8.708  14.315  1.00  0.00    -0.372 OA
BRANCH  44  46
HETATM   46  C21 UNL     1      -8.612   6.968  15.019  1.00  0.00     0.076 C 
HETATM   47  C22 UNL     1      -7.084   6.892  15.106  1.00  0.00     0.048 C 
HETATM   48  C23 UNL     1      -9.080   6.404  13.666  1.00  0.00     0.048 C 
BRANCH  46  49
HETATM   49  O4  UNL     1      -9.131   6.077  16.021  1.00  0.00    -0.388 OA
HETATM   50  H35 UNL     1      -9.200   6.561  16.859  1.00  0.00     0.210 HD
ENDBRANCH  46  49
ENDBRANCH  44  46
ENDBRANCH  11  40
BRANCH  12  51
HETATM   51  O6  UNL     1     -11.685   9.554  12.101  1.00  0.00    -0.395 OA
HETATM   52  H37 UNL     1     -11.201   8.787  12.466  1.00  0.00     0.210 HD
ENDBRANCH  12  51
TORSDOF 11
ENDMDL
MODEL 3
REMARK minimizedAffinity -7.8131361
REMARK CNNscore 0.343141735
REMARK CNNaffinity 6.49732971
REMARK  11 active torsions:
REMARK  status: ('A' for Active; 'I' for Inactive)
REMARK    1  A    between atoms: C2_2  and  O2_4 
REMARK    2  A    between atoms: O2_4  and  C3_5 
REMARK    3  A    between atoms: C4_6  and  O3_7 
REMARK    4  A    between atoms: O3_7  and  C5_8 
REMARK    5  A    between atoms: C15_18  and  C16_19 
REMARK    6  A    between atoms: C20_23  and  C21_24 
REMARK    7  A    between atoms: C21_24  and  O4_27 
REMARK    8  A    between atoms: C24_29  and  O6_30 
REMARK    9  A    between atoms: C30_36  and  O7_37 
REMARK   10  A    between atoms: C36_44  and  O9_45 
REMARK   11  A    between atoms: C37_46  and  O10_47 
ROOT
HETATM    1  C5  UNL     1      -2.266  13.893  17.303  1.00  0.00     0.133 C 
HETATM    2  C6  UNL     1      -2.169  14.159  15.791  1.00  0.00     0.034 C 
HETATM    3  C7  UNL     1      -2.404  12.922  14.915  1.00  0.00     0.013 C 
HETATM    4  C8  UNL     1      -2.127  11.641  15.678  1.00  0.00    -0.025 A 
HETATM    5  C9  UNL     1      -0.676  11.283  15.828  1.00  0.00     0.021 A 
HETATM    6  C10 UNL     1      -1.558  10.374  14.975  1.00  0.00    -0.027 A 
HETATM    7  C11 UNL     1      -1.286  10.459  13.464  1.00  0.00     0.011 C 
HETATM    8  C12 UNL     1      -1.150   9.176  12.645  1.00  0.00     0.011 C 
HETATM    9  C13 UNL     1      -0.702   7.970  13.464  1.00  0.00    -0.028 C 
HETATM   10  C14 UNL     1       0.737   8.240  13.975  1.00  0.00     0.016 C 
HETATM   11  C15 UNL     1      -0.790   6.555  12.759  1.00  0.00     0.057 C 
HETATM   12  C24 UNL     1      -0.972   5.597  13.987  1.00  0.00     0.126 C 
HETATM   13  C25 UNL     1      -1.365   6.458  15.192  1.00  0.00     0.042 C 
HETATM   14  C26 UNL     1      -1.783   7.814  14.602  1.00  0.00    -0.029 C 
HETATM   15  C27 UNL     1      -3.250   7.681  14.074  1.00  0.00     0.016 C 
HETATM   16  C28 UNL     1      -1.715   8.983  15.631  1.00  0.00     0.006 C 
HETATM   17  C29 UNL     1      -2.876   8.962  16.645  1.00  0.00     0.038 C 
HETATM   18  C30 UNL     1      -2.899  10.145  17.613  1.00  0.00     0.124 C 
HETATM   19  C31 UNL     1      -3.130  11.463  16.839  1.00  0.00     0.034 C 
HETATM   20  C32 UNL     1      -3.309  12.797  17.691  1.00  0.00    -0.015 C 
HETATM   21  C33 UNL     1      -3.237  12.577  19.215  1.00  0.00     0.018 C 
HETATM   22  C34 UNL     1      -4.728  13.372  17.422  1.00  0.00     0.018 C 
ENDROOT
BRANCH   1  23
HETATM   23  O3  UNL     1      -0.960  13.497  17.765  1.00  0.00    -0.352 OA
BRANCH  23  24
HETATM   24  C4  UNL     1      -0.628  14.015  19.057  1.00  0.00     0.292 C 
HETATM   25  C3  UNL     1       0.688  13.357  19.527  1.00  0.00     0.218 C 
HETATM   26  C37 UNL     1       1.227  14.112  20.747  1.00  0.00     0.183 C 
HETATM   27  C36 UNL     1       1.334  15.628  20.477  1.00  0.00     0.173 C 
HETATM   28  C35 UNL     1       0.707  16.009  19.133  1.00  0.00     0.205 C 
HETATM   29  O8  UNL     1      -0.597  15.444  19.018  1.00  0.00    -0.356 OA
BRANCH  25  30
HETATM   30  O2  UNL     1       0.407  11.991  19.926  1.00  0.00    -0.309 OA
BRANCH  30  31
HETATM   31  C2  UNL     1       1.339  11.056  19.607  1.00  0.00     0.255 C 
HETATM   32  C1  UNL     1       1.684  10.247  20.818  1.00  0.00     0.126 C 
HETATM   33  O1  UNL     1       1.829  10.870  18.501  1.00  0.00    -0.266 OA
ENDBRANCH  30  31
ENDBRANCH  25  30
BRANCH  26  34
HETATM   34  O10 UNL     1       2.530  13.605  21.089  1.00  0.00    -0.390 OA
HETATM   35  H60 UNL     1       2.759  13.990  21.946  1.00  0.00     0.210 HD
ENDBRANCH  26  34
BRANCH  27  36
HETATM   36  O9  UNL     1       0.674  16.300  21.567  1.00  0.00    -0.391 OA
HETATM   37  H58 UNL     1       0.359  17.168  21.238  1.00  0.00     0.210 HD
ENDBRANCH  27  36
ENDBRANCH  23  24
ENDBRANCH   1  23
BRANCH  18  38
HETATM   38  O7  UNL     1      -3.972   9.895  18.526  1.00  0.00    -0.395 OA
HETATM   39  H47 UNL     1      -4.794   9.808  18.017  1.00  0.00     0.210 HD
ENDBRANCH  18  38
BRANCH  11  40
HETATM   40  C16 UNL     1       0.217   6.075  11.671  1.00  0.00     0.065 C 
HETATM   41  C17 UNL     1      -0.191   4.672  11.139  1.00  0.00     0.046 C 
HETATM   42  C18 UNL     1       0.294   7.025  10.472  1.00  0.00     0.041 C 
HETATM   43  C19 UNL     1       1.656   6.743   9.878  1.00  0.00     0.038 C 
HETATM   44  C20 UNL     1       2.471   6.157  11.037  1.00  0.00     0.156 C 
HETATM   45  O5  UNL     1       1.565   6.017  12.157  1.00  0.00    -0.372 OA
BRANCH  44  46
HETATM   46  C21 UNL     1       3.748   6.955  11.438  1.00  0.00     0.076 C 
HETATM   47  C22 UNL     1       3.675   8.409  10.960  1.00  0.00     0.048 C 
HETATM   48  C23 UNL     1       5.000   6.282  10.848  1.00  0.00     0.048 C 
BRANCH  46  49
HETATM   49  O4  UNL     1       3.950   6.993  12.860  1.00  0.00    -0.388 OA
HETATM   50  H35 UNL     1       3.084   7.045  13.294  1.00  0.00     0.210 HD
ENDBRANCH  46  49
ENDBRANCH  44  46
ENDBRANCH  11  40
BRANCH  12  51
HETATM   51  O6  UNL     1       0.172   4.833  14.331  1.00  0.00    -0.395 OA
HETATM   52  H37 UNL     1       0.970   5.348  14.102  1.00  0.00     0.210 HD
ENDBRANCH  12  51
TORSDOF 11
ENDMDL
MODEL 4
REMARK minimizedAffinity -8.01574135
REMARK CNNscore 0.327088922
REMARK CNNaffinity 6.74354029
REMARK  11 active torsions:
REMARK  status: ('A' for Active; 'I' for Inactive)
REMARK    1  A    between atoms: C2_2  and  O2_4 
REMARK    2  A    between atoms: O2_4  and  C3_5 
REMARK    3  A    between atoms: C4_6  and  O3_7 
REMARK    4  A    between atoms: O3_7  and  C5_8 
REMARK    5  A    between atoms: C15_18  and  C16_19 
REMARK    6  A    between atoms: C20_23  and  C21_24 
REMARK    7  A    between atoms: C21_24  and  O4_27 
REMARK    8  A    between atoms: C24_29  and  O6_30 
REMARK    9  A    between atoms: C30_36  and  O7_37 
REMARK   10  A    between atoms: C36_44  and  O9_45 
REMARK   11  A    between atoms: C37_46  and  O10_47 
ROOT
HETATM    1  C5  UNL     1      -3.788   7.121  13.478  1.00  0.00     0.133 C 
HETATM    2  C6  UNL     1      -3.897   8.498  12.801  1.00  0.00     0.034 C 
HETATM    3  C7  UNL     1      -2.814   9.498  13.226  1.00  0.00     0.013 C 
HETATM    4  C8  UNL     1      -2.232   9.144  14.581  1.00  0.00    -0.025 A 
HETATM    5  C9  UNL     1      -3.075   9.525  15.763  1.00  0.00     0.021 A 
HETATM    6  C10 UNL     1      -1.737  10.237  15.573  1.00  0.00    -0.027 A 
HETATM    7  C11 UNL     1      -1.855  11.704  15.132  1.00  0.00     0.011 C 
HETATM    8  C12 UNL     1      -1.020  12.776  15.834  1.00  0.00     0.011 C 
HETATM    9  C13 UNL     1      -0.619  12.405  17.258  1.00  0.00    -0.028 C 
HETATM   10  C14 UNL     1      -1.907  12.317  18.115  1.00  0.00     0.016 C 
HETATM   11  C15 UNL     1       0.459  13.329  17.959  1.00  0.00     0.057 C 
HETATM   12  C24 UNL     1       1.119  12.334  18.975  1.00  0.00     0.126 C 
HETATM   13  C25 UNL     1       0.721  10.915  18.558  1.00  0.00     0.042 C 
HETATM   14  C26 UNL     1       0.177  11.050  17.128  1.00  0.00    -0.029 C 
HETATM   15  C27 UNL     1       1.396  11.117  16.150  1.00  0.00     0.016 C 
HETATM   16  C28 UNL     1      -0.751   9.871  16.706  1.00  0.00     0.006 C 
HETATM   17  C29 UNL     1       0.024   8.577  16.388  1.00  0.00     0.038 C 
HETATM   18  C30 UNL     1      -0.842   7.424  15.879  1.00  0.00     0.124 C 
HETATM   19  C31 UNL     1      -1.481   7.795  14.522  1.00  0.00     0.034 C 
HETATM   20  C32 UNL     1      -2.321   6.669  13.771  1.00  0.00    -0.015 C 
HETATM   21  C33 UNL     1      -2.369   5.323  14.520  1.00  0.00     0.018 C 
HETATM   22  C34 UNL     1      -1.636   6.362  12.409  1.00  0.00     0.018 C 
ENDROOT
BRANCH   1  23
HETATM   23  O3  UNL     1      -4.529   7.176  14.712  1.00  0.00    -0.352 OA
BRANCH  23  24
HETATM   24  C4  UNL     1      -5.927   6.918  14.553  1.00  0.00     0.292 C 
HETATM   25  C3  UNL     1      -6.174   5.406  14.747  1.00  0.00     0.218 C 
HETATM   26  C37 UNL     1      -7.678   5.151  14.894  1.00  0.00     0.183 C 
HETATM   27  C36 UNL     1      -8.303   6.043  15.987  1.00  0.00     0.173 C 
HETATM   28  C35 UNL     1      -7.303   7.077  16.514  1.00  0.00     0.205 C 
HETATM   29  O8  UNL     1      -6.681   7.760  15.428  1.00  0.00    -0.356 OA
BRANCH  25  30
HETATM   30  O2  UNL     1      -5.707   4.705  13.566  1.00  0.00    -0.309 OA
BRANCH  30  31
HETATM   31  C2  UNL     1      -6.648   4.349  12.653  1.00  0.00     0.255 C 
HETATM   32  C1  UNL     1      -6.383   2.959  12.164  1.00  0.00     0.126 C 
HETATM   33  O1  UNL     1      -7.589   5.036  12.279  1.00  0.00    -0.266 OA
ENDBRANCH  30  31
ENDBRANCH  25  30
BRANCH  26  34
HETATM   34  O10 UNL     1      -7.900   3.770  15.234  1.00  0.00    -0.390 OA
HETATM   35  H60 UNL     1      -8.852   3.618  15.159  1.00  0.00     0.210 HD
ENDBRANCH  26  34
BRANCH  27  36
HETATM   36  O9  UNL     1      -9.454   6.684  15.404  1.00  0.00    -0.391 OA
HETATM   37  H58 UNL     1      -9.605   7.525  15.885  1.00  0.00     0.210 HD
ENDBRANCH  27  36
ENDBRANCH  23  24
ENDBRANCH   1  23
BRANCH  18  38
HETATM   38  O7  UNL     1       0.032   6.299  15.740  1.00  0.00    -0.395 OA
HETATM   39  H47 UNL     1       0.744   6.537  15.125  1.00  0.00     0.210 HD
ENDBRANCH  18  38
BRANCH  11  40
HETATM   40  C16 UNL     1       0.139  14.749  18.516  1.00  0.00     0.065 C 
HETATM   41  C17 UNL     1      -0.728  14.643  19.803  1.00  0.00     0.046 C 
HETATM   42  C18 UNL     1       1.399  15.547  18.867  1.00  0.00     0.041 C 
HETATM   43  C19 UNL     1       0.941  16.988  18.799  1.00  0.00     0.038 C 
HETATM   44  C20 UNL     1      -0.281  16.963  17.874  1.00  0.00     0.156 C 
HETATM   45  O5  UNL     1      -0.541  15.574  17.561  1.00  0.00    -0.372 OA
BRANCH  44  46
HETATM   46  C21 UNL     1      -0.168  17.824  16.581  1.00  0.00     0.076 C 
HETATM   47  C22 UNL     1       0.036  16.950  15.340  1.00  0.00     0.048 C 
HETATM   48  C23 UNL     1       1.000  18.819  16.707  1.00  0.00     0.048 C 
BRANCH  46  49
HETATM   49  O4  UNL     1      -1.342  18.619  16.343  1.00  0.00    -0.388 OA
HETATM   50  H35 UNL     1      -2.120  18.114  16.628  1.00  0.00     0.210 HD
ENDBRANCH  46  49
ENDBRANCH  44  46
ENDBRANCH  11  40
BRANCH  12  51
HETATM   51  O6  UNL     1       0.757  12.527  20.332  1.00  0.00    -0.395 OA
HETATM   52  H37 UNL     1      -0.155  12.877  20.363  1.00  0.00     0.210 HD
ENDBRANCH  12  51
TORSDOF 11
ENDMDL
MODEL 5
REMARK minimizedAffinity -8.04443359
REMARK CNNscore 0.322218716
REMARK CNNaffinity 6.41472197
REMARK  11 active torsions:
REMARK  status: ('A' for Active; 'I' for Inactive)
REMARK    1  A    between atoms: C2_2  and  O2_4 
REMARK    2  A    between atoms: O2_4  and  C3_5 
REMARK    3  A    between atoms: C4_6  and  O3_7 
REMARK    4  A    between atoms: O3_7  and  C5_8 
REMARK    5  A    between atoms: C15_18  and  C16_19 
REMARK    6  A    between atoms: C20_23  and  C21_24 
REMARK    7  A    between atoms: C21_24  and  O4_27 
REMARK    8  A    between atoms: C24_29  and  O6_30 
REMARK    9  A    between atoms: C30_36  and  O7_37 
REMARK   10  A    between atoms: C36_44  and  O9_45 
REMARK   11  A    between atoms: C37_46  and  O10_47 
ROOT
HETATM    1  C5  UNL     1      -3.672  13.752  17.144  1.00  0.00     0.133 C 
HETATM    2  C6  UNL     1      -4.629  13.022  16.186  1.00  0.00     0.034 C 
HETATM    3  C7  UNL     1      -4.228  11.575  15.874  1.00  0.00     0.013 C 
HETATM    4  C8  UNL     1      -2.745  11.349  16.098  1.00  0.00    -0.025 A 
HETATM    5  C9  UNL     1      -1.846  11.853  15.006  1.00  0.00     0.021 A 
HETATM    6  C10 UNL     1      -1.928  10.345  15.233  1.00  0.00    -0.027 A 
HETATM    7  C11 UNL     1      -2.679   9.577  14.134  1.00  0.00     0.011 C 
HETATM    8  C12 UNL     1      -2.074   8.298  13.553  1.00  0.00     0.011 C 
HETATM    9  C13 UNL     1      -0.554   8.232  13.670  1.00  0.00    -0.028 C 
HETATM   10  C14 UNL     1       0.048   9.360  12.795  1.00  0.00     0.016 C 
HETATM   11  C15 UNL     1       0.127   6.842  13.340  1.00  0.00     0.057 C 
HETATM   12  C24 UNL     1       1.432   6.912  14.205  1.00  0.00     0.126 C 
HETATM   13  C25 UNL     1       1.253   8.045  15.221  1.00  0.00     0.042 C 
HETATM   14  C26 UNL     1      -0.249   8.364  15.212  1.00  0.00    -0.029 C 
HETATM   15  C27 UNL     1      -0.976   7.301  16.100  1.00  0.00     0.016 C 
HETATM   16  C28 UNL     1      -0.581   9.790  15.749  1.00  0.00     0.006 C 
HETATM   17  C29 UNL     1      -0.473   9.896  17.283  1.00  0.00     0.038 C 
HETATM   18  C30 UNL     1      -0.882  11.253  17.857  1.00  0.00     0.124 C 
HETATM   19  C31 UNL     1      -2.381  11.516  17.590  1.00  0.00     0.034 C 
HETATM   20  C32 UNL     1      -3.024  12.828  18.224  1.00  0.00    -0.015 C 
HETATM   21  C33 UNL     1      -2.033  13.671  19.052  1.00  0.00     0.018 C 
HETATM   22  C34 UNL     1      -4.140  12.404  19.220  1.00  0.00     0.018 C 
ENDROOT
BRANCH   1  23
HETATM   23  O3  UNL     1      -2.636  14.363  16.352  1.00  0.00    -0.352 OA
BRANCH  23  24
HETATM   24  C4  UNL     1      -2.757  15.786  16.247  1.00  0.00     0.292 C 
HETATM   25  C3  UNL     1      -2.717  16.174  14.753  1.00  0.00     0.218 C 
HETATM   26  C37 UNL     1      -3.155  17.634  14.596  1.00  0.00     0.183 C 
HETATM   27  C36 UNL     1      -4.510  17.900  15.286  1.00  0.00     0.173 C 
HETATM   28  C35 UNL     1      -4.976  16.691  16.101  1.00  0.00     0.205 C 
HETATM   29  O8  UNL     1      -3.924  16.228  16.945  1.00  0.00    -0.356 OA
BRANCH  25  30
HETATM   30  O2  UNL     1      -1.351  16.056  14.280  1.00  0.00    -0.309 OA
BRANCH  30  31
HETATM   31  C2  UNL     1      -1.180  15.617  13.006  1.00  0.00     0.255 C 
HETATM   32  C1  UNL     1       0.131  16.104  12.471  1.00  0.00     0.126 C 
HETATM   33  O1  UNL     1      -1.956  14.916  12.372  1.00  0.00    -0.266 OA
ENDBRANCH  30  31
ENDBRANCH  25  30
BRANCH  26  34
HETATM   34  O10 UNL     1      -3.273  17.952  13.196  1.00  0.00    -0.390 OA
HETATM   35  H60 UNL     1      -3.392  18.910  13.141  1.00  0.00     0.210 HD
ENDBRANCH  26  34
BRANCH  27  36
HETATM   36  O9  UNL     1      -4.336  19.058  16.126  1.00  0.00    -0.391 OA
HETATM   37  H58 UNL     1      -4.988  18.999  16.856  1.00  0.00     0.210 HD
ENDBRANCH  27  36
ENDBRANCH  23  24
ENDBRANCH   1  23
BRANCH  18  38
HETATM   38  O7  UNL     1      -0.618  11.188  19.263  1.00  0.00    -0.395 OA
HETATM   39  H47 UNL     1      -1.127  10.451  19.636  1.00  0.00     0.210 HD
ENDBRANCH  18  38
BRANCH  11  40
HETATM   40  C16 UNL     1       0.306   6.298  11.890  1.00  0.00     0.065 C 
HETATM   41  C17 UNL     1      -0.674   5.118  11.630  1.00  0.00     0.046 C 
HETATM   42  C18 UNL     1       0.048   7.363  10.820  1.00  0.00     0.041 C 
HETATM   43  C19 UNL     1       0.817   6.858   9.618  1.00  0.00     0.038 C 
HETATM   44  C20 UNL     1       1.895   5.940  10.206  1.00  0.00     0.156 C 
HETATM   45  O5  UNL     1       1.646   5.859  11.630  1.00  0.00    -0.372 OA
BRANCH  44  46
HETATM   46  C21 UNL     1       3.368   6.353   9.911  1.00  0.00     0.076 C 
HETATM   47  C22 UNL     1       4.190   6.460  11.200  1.00  0.00     0.048 C 
HETATM   48  C23 UNL     1       3.402   7.700   9.166  1.00  0.00     0.048 C 
BRANCH  46  49
HETATM   49  O4  UNL     1       4.045   5.412   9.061  1.00  0.00    -0.388 OA
HETATM   50  H35 UNL     1       3.735   4.520   9.279  1.00  0.00     0.210 HD
ENDBRANCH  46  49
ENDBRANCH  44  46
ENDBRANCH  11  40
BRANCH  12  51
HETATM   51  O6  UNL     1       2.628   7.139  13.478  1.00  0.00    -0.395 OA
HETATM   52  H37 UNL     1       2.415   7.680  12.693  1.00  0.00     0.210 HD
ENDBRANCH  12  51
TORSDOF 11
ENDMDL
MODEL 6
REMARK minimizedAffinity -8.02165413
REMARK CNNscore 0.265590757
REMARK CNNaffinity 5.77676582
REMARK  11 active torsions:
REMARK  status: ('A' for Active; 'I' for Inactive)
REMARK    1  A    between atoms: C2_2  and  O2_4 
REMARK    2  A    between atoms: O2_4  and  C3_5 
REMARK    3  A    between atoms: C4_6  and  O3_7 
REMARK    4  A    between atoms: O3_7  and  C5_8 
REMARK    5  A    between atoms: C15_18  and  C16_19 
REMARK    6  A    between atoms: C20_23  and  C21_24 
REMARK    7  A    between atoms: C21_24  and  O4_27 
REMARK    8  A    between atoms: C24_29  and  O6_30 
REMARK    9  A    between atoms: C30_36  and  O7_37 
REMARK   10  A    between atoms: C36_44  and  O9_45 
REMARK   11  A    between atoms: C37_46  and  O10_47 
ROOT
HETATM    1  C5  UNL     1     -18.607   2.037  15.421  1.00  0.00     0.133 C 
HETATM    2  C6  UNL     1     -18.036   2.536  16.760  1.00  0.00     0.034 C 
HETATM    3  C7  UNL     1     -17.562   3.994  16.740  1.00  0.00     0.013 C 
HETATM    4  C8  UNL     1     -17.233   4.452  15.333  1.00  0.00    -0.025 A 
HETATM    5  C9  UNL     1     -15.906   3.994  14.802  1.00  0.00     0.021 A 
HETATM    6  C10 UNL     1     -16.106   5.488  15.050  1.00  0.00    -0.027 A 
HETATM    7  C11 UNL     1     -15.328   6.042  16.254  1.00  0.00     0.011 C 
HETATM    8  C12 UNL     1     -14.534   7.341  16.112  1.00  0.00     0.011 C 
HETATM    9  C13 UNL     1     -14.097   7.638  14.681  1.00  0.00    -0.028 C 
HETATM   10  C14 UNL     1     -13.095   6.540  14.244  1.00  0.00     0.016 C 
HETATM   11  C15 UNL     1     -13.507   9.080  14.400  1.00  0.00     0.057 C 
HETATM   12  C24 UNL     1     -13.848   9.275  12.883  1.00  0.00     0.126 C 
HETATM   13  C25 UNL     1     -14.891   8.219  12.504  1.00  0.00     0.042 C 
HETATM   14  C26 UNL     1     -15.430   7.684  13.839  1.00  0.00    -0.029 C 
HETATM   15  C27 UNL     1     -16.490   8.701  14.376  1.00  0.00     0.016 C 
HETATM   16  C28 UNL     1     -16.089   6.276  13.720  1.00  0.00     0.006 C 
HETATM   17  C29 UNL     1     -17.484   6.317  13.066  1.00  0.00     0.038 C 
HETATM   18  C30 UNL     1     -18.204   4.968  13.016  1.00  0.00     0.124 C 
HETATM   19  C31 UNL     1     -18.499   4.468  14.448  1.00  0.00     0.034 C 
HETATM   20  C32 UNL     1     -19.358   3.134  14.601  1.00  0.00    -0.015 C 
HETATM   21  C33 UNL     1     -19.797   2.519  13.257  1.00  0.00     0.018 C 
HETATM   22  C34 UNL     1     -20.675   3.474  15.352  1.00  0.00     0.018 C 
ENDROOT
BRANCH   1  23
HETATM   23  O3  UNL     1     -17.513   1.519  14.641  1.00  0.00    -0.352 OA
BRANCH  23  24
HETATM   24  C4  UNL     1     -17.465   0.089  14.599  1.00  0.00     0.292 C 
HETATM   25  C3  UNL     1     -15.990  -0.350  14.469  1.00  0.00     0.218 C 
HETATM   26  C37 UNL     1     -15.882  -1.855  14.736  1.00  0.00     0.183 C 
HETATM   27  C36 UNL     1     -16.547  -2.246  16.074  1.00  0.00     0.173 C 
HETATM   28  C35 UNL     1     -17.298  -1.066  16.697  1.00  0.00     0.205 C 
HETATM   29  O8  UNL     1     -18.149  -0.455  15.730  1.00  0.00    -0.356 OA
BRANCH  25  30
HETATM   30  O2  UNL     1     -15.549  -0.096  13.111  1.00  0.00    -0.309 OA
BRANCH  30  31
HETATM   31  C2  UNL     1     -16.514   0.185  12.196  1.00  0.00     0.255 C 
HETATM   32  C1  UNL     1     -17.100  -1.087  11.669  1.00  0.00     0.126 C 
HETATM   33  O1  UNL     1     -16.878   1.300  11.848  1.00  0.00    -0.266 OA
ENDBRANCH  30  31
ENDBRANCH  25  30
BRANCH  26  34
HETATM   34  O10 UNL     1     -14.495  -2.238  14.774  1.00  0.00    -0.390 OA
HETATM   35  H60 UNL     1     -14.476  -3.205  14.783  1.00  0.00     0.210 HD
ENDBRANCH  26  34
BRANCH  27  36
HETATM   36  O9  UNL     1     -17.439  -3.343  15.798  1.00  0.00    -0.391 OA
HETATM   37  H58 UNL     1     -18.149  -3.329  16.475  1.00  0.00     0.210 HD
ENDBRANCH  27  36
ENDBRANCH  23  24
ENDBRANCH   1  23
BRANCH  18  38
HETATM   38  O7  UNL     1     -19.419   5.191  12.293  1.00  0.00    -0.395 OA
HETATM   39  H47 UNL     1     -19.930   5.875  12.754  1.00  0.00     0.210 HD
ENDBRANCH  18  38
BRANCH  11  40
HETATM   40  C16 UNL     1     -12.075   9.519  14.832  1.00  0.00     0.065 C 
HETATM   41  C17 UNL     1     -11.850  11.024  14.508  1.00  0.00     0.046 C 
HETATM   42  C18 UNL     1     -11.819   9.321  16.330  1.00  0.00     0.041 C 
HETATM   43  C19 UNL     1     -10.313   9.221  16.426  1.00  0.00     0.038 C 
HETATM   44  C20 UNL     1      -9.864   8.768  15.032  1.00  0.00     0.156 C 
HETATM   45  O5  UNL     1     -11.048   8.745  14.198  1.00  0.00    -0.372 OA
BRANCH  44  46
HETATM   46  C21 UNL     1      -9.104   7.410  14.973  1.00  0.00     0.076 C 
HETATM   47  C22 UNL     1      -7.589   7.608  15.079  1.00  0.00     0.048 C 
HETATM   48  C23 UNL     1      -9.436   6.673  13.663  1.00  0.00     0.048 C 
BRANCH  46  49
HETATM   49  O4  UNL     1      -9.484   6.520  16.036  1.00  0.00    -0.388 OA
HETATM   50  H35 UNL     1      -9.654   7.045  16.833  1.00  0.00     0.210 HD
ENDBRANCH  46  49
ENDBRANCH  44  46
ENDBRANCH  11  40
BRANCH  12  51
HETATM   51  O6  UNL     1     -12.747   9.164  11.997  1.00  0.00    -0.395 OA
HETATM   52  H37 UNL     1     -12.106   8.533  12.377  1.00  0.00     0.210 HD
ENDBRANCH  12  51
TORSDOF 11
ENDMDL
MODEL 7
REMARK minimizedAffinity -9.09454346
REMARK CNNscore 0.256716818
REMARK CNNaffinity 6.73661232
REMARK  11 active torsions:
REMARK  status: ('A' for Active; 'I' for Inactive)
REMARK    1  A    between atoms: C2_2  and  O2_4 
REMARK    2  A    between atoms: O2_4  and  C3_5 
REMARK    3  A    between atoms: C4_6  and  O3_7 
REMARK    4  A    between atoms: O3_7  and  C5_8 
REMARK    5  A    between atoms: C15_18  and  C16_19 
REMARK    6  A    between atoms: C20_23  and  C21_24 
REMARK    7  A    between atoms: C21_24  and  O4_27 
REMARK    8  A    between atoms: C24_29  and  O6_30 
REMARK    9  A    between atoms: C30_36  and  O7_37 
REMARK   10  A    between atoms: C36_44  and  O9_45 
REMARK   11  A    between atoms: C37_46  and  O10_47 
ROOT
HETATM    1  C5  UNL     1       2.146  12.054  18.239  1.00  0.00     0.133 C 
HETATM    2  C6  UNL     1       2.672  10.612  18.126  1.00  0.00     0.034 C 
HETATM    3  C7  UNL     1       2.083   9.815  16.956  1.00  0.00     0.013 C 
HETATM    4  C8  UNL     1       0.747  10.380  16.515  1.00  0.00    -0.025 A 
HETATM    5  C9  UNL     1      -0.424  10.011  17.379  1.00  0.00     0.021 A 
HETATM    6  C10 UNL     1      -0.384   9.470  15.952  1.00  0.00    -0.027 A 
HETATM    7  C11 UNL     1      -0.101   7.962  15.852  1.00  0.00     0.011 C 
HETATM    8  C12 UNL     1      -0.959   7.089  14.936  1.00  0.00     0.011 C 
HETATM    9  C13 UNL     1      -2.353   7.653  14.681  1.00  0.00    -0.028 C 
HETATM   10  C14 UNL     1      -3.127   7.656  16.024  1.00  0.00     0.016 C 
HETATM   11  C15 UNL     1      -3.207   6.958  13.544  1.00  0.00     0.057 C 
HETATM   12  C24 UNL     1      -4.141   8.131  13.084  1.00  0.00     0.126 C 
HETATM   13  C25 UNL     1      -3.550   9.434  13.631  1.00  0.00     0.042 C 
HETATM   14  C26 UNL     1      -2.117   9.083  14.057  1.00  0.00    -0.029 C 
HETATM   15  C27 UNL     1      -1.218   9.080  12.778  1.00  0.00     0.016 C 
HETATM   16  C28 UNL     1      -1.520  10.078  15.098  1.00  0.00     0.006 C 
HETATM   17  C29 UNL     1      -1.103  11.424  14.475  1.00  0.00     0.038 C 
HETATM   18  C30 UNL     1      -0.426  12.394  15.444  1.00  0.00     0.124 C 
HETATM   19  C31 UNL     1       0.914  11.804  15.940  1.00  0.00     0.034 C 
HETATM   20  C32 UNL     1       1.828  12.724  16.865  1.00  0.00    -0.015 C 
HETATM   21  C33 UNL     1       1.234  14.122  17.133  1.00  0.00     0.018 C 
HETATM   22  C34 UNL     1       3.176  12.980  16.135  1.00  0.00     0.018 C 
ENDROOT
BRANCH   1  23
HETATM   23  O3  UNL     1       0.954  12.026  19.047  1.00  0.00    -0.352 OA
BRANCH  23  24
HETATM   24  C4  UNL     1       1.136  12.573  20.357  1.00  0.00     0.292 C 
HETATM   25  C3  UNL     1       2.316  11.842  21.035  1.00  0.00     0.218 C 
HETATM   26  C37 UNL     1       2.732  12.607  22.295  1.00  0.00     0.183 C 
HETATM   27  C36 UNL     1       2.995  14.099  21.996  1.00  0.00     0.173 C 
HETATM   28  C35 UNL     1       2.598  14.466  20.563  1.00  0.00     0.205 C 
HETATM   29  O8  UNL     1       1.284  13.993  20.277  1.00  0.00    -0.356 OA
BRANCH  25  30
HETATM   30  O2  UNL     1       1.875  10.518  21.431  1.00  0.00    -0.309 OA
BRANCH  30  31
HETATM   31  C2  UNL     1       2.841   9.585  21.631  1.00  0.00     0.255 C 
HETATM   32  C1  UNL     1       2.331   8.510  22.540  1.00  0.00     0.126 C 
HETATM   33  O1  UNL     1       3.964   9.589  21.144  1.00  0.00    -0.266 OA
ENDBRANCH  30  31
ENDBRANCH  25  30
BRANCH  26  34
HETATM   34  O10 UNL     1       3.929  12.022  22.840  1.00  0.00    -0.390 OA
HETATM   35  H60 UNL     1       4.062  12.426  23.709  1.00  0.00     0.210 HD
ENDBRANCH  26  34
BRANCH  27  36
HETATM   36  O9  UNL     1       2.240  14.863  22.956  1.00  0.00    -0.391 OA
HETATM   37  H58 UNL     1       2.044  15.736  22.556  1.00  0.00     0.210 HD
ENDBRANCH  27  36
ENDBRANCH  23  24
ENDBRANCH   1  23
BRANCH  18  38
HETATM   38  O7  UNL     1      -0.210  13.605  14.713  1.00  0.00    -0.395 OA
HETATM   39  H47 UNL     1       0.337  13.402  13.938  1.00  0.00     0.210 HD
ENDBRANCH  18  38
BRANCH  11  40
HETATM   40  C16 UNL     1      -3.899   5.572  13.716  1.00  0.00     0.065 C 
HETATM   41  C17 UNL     1      -3.944   5.174  15.219  1.00  0.00     0.046 C 
HETATM   42  C18 UNL     1      -5.337   5.556  13.186  1.00  0.00     0.041 C 
HETATM   43  C19 UNL     1      -5.594   4.094  12.895  1.00  0.00     0.038 C 
HETATM   44  C20 UNL     1      -4.201   3.487  12.691  1.00  0.00     0.156 C 
HETATM   45  O5  UNL     1      -3.243   4.534  12.977  1.00  0.00    -0.372 OA
BRANCH  44  46
HETATM   46  C21 UNL     1      -3.940   2.847  11.295  1.00  0.00     0.076 C 
HETATM   47  C22 UNL     1      -2.848   3.599  10.526  1.00  0.00     0.048 C 
HETATM   48  C23 UNL     1      -5.237   2.835  10.466  1.00  0.00     0.048 C 
BRANCH  46  49
HETATM   49  O4  UNL     1      -3.516   1.476  11.388  1.00  0.00    -0.388 OA
HETATM   50  H35 UNL     1      -2.958   1.378  12.175  1.00  0.00     0.210 HD
ENDBRANCH  46  49
ENDBRANCH  44  46
ENDBRANCH  11  40
BRANCH  12  51
HETATM   51  O6  UNL     1      -5.490   8.031  13.509  1.00  0.00    -0.395 OA
HETATM   52  H37 UNL     1      -5.511   7.567  14.368  1.00  0.00     0.210 HD
ENDBRANCH  12  51
TORSDOF 11
ENDMDL
MODEL 8
REMARK minimizedAffinity -9.85526752
REMARK CNNscore 0.248068407
REMARK CNNaffinity 7.0986619
REMARK  11 active torsions:
REMARK  status: ('A' for Active; 'I' for Inactive)
REMARK    1  A    between atoms: C2_2  and  O2_4 
REMARK    2  A    between atoms: O2_4  and  C3_5 
REMARK    3  A    between atoms: C4_6  and  O3_7 
REMARK    4  A    between atoms: O3_7  and  C5_8 
REMARK    5  A    between atoms: C15_18  and  C16_19 
REMARK    6  A    between atoms: C20_23  and  C21_24 
REMARK    7  A    between atoms: C21_24  and  O4_27 
REMARK    8  A    between atoms: C24_29  and  O6_30 
REMARK    9  A    between atoms: C30_36  and  O7_37 
REMARK   10  A    between atoms: C36_44  and  O9_45 
REMARK   11  A    between atoms: C37_46  and  O10_47 
ROOT
HETATM    1  C5  UNL     1       4.447   8.835  13.428  1.00  0.00     0.133 C 
HETATM    2  C6  UNL     1       3.978   8.073  12.176  1.00  0.00     0.034 C 
HETATM    3  C7  UNL     1       2.462   8.106  11.947  1.00  0.00     0.013 C 
HETATM    4  C8  UNL     1       1.712   8.376  13.237  1.00  0.00    -0.025 A 
HETATM    5  C9  UNL     1       1.566   7.196  14.155  1.00  0.00     0.021 A 
HETATM    6  C10 UNL     1       0.305   7.768  13.511  1.00  0.00    -0.027 A 
HETATM    7  C11 UNL     1      -0.310   6.877  12.419  1.00  0.00     0.011 C 
HETATM    8  C12 UNL     1      -1.816   6.610  12.419  1.00  0.00     0.011 C 
HETATM    9  C13 UNL     1      -2.462   6.739  13.795  1.00  0.00    -0.028 C 
HETATM   10  C14 UNL     1      -1.886   5.625  14.705  1.00  0.00     0.016 C 
HETATM   11  C15 UNL     1      -4.044   6.740  13.843  1.00  0.00     0.057 C 
HETATM   12  C24 UNL     1      -4.323   7.566  15.146  1.00  0.00     0.126 C 
HETATM   13  C25 UNL     1      -3.026   8.290  15.522  1.00  0.00     0.042 C 
HETATM   14  C26 UNL     1      -2.139   8.208  14.270  1.00  0.00    -0.029 C 
HETATM   15  C27 UNL     1      -2.604   9.319  13.272  1.00  0.00     0.016 C 
HETATM   16  C28 UNL     1      -0.622   8.398  14.575  1.00  0.00     0.006 C 
HETATM   17  C29 UNL     1      -0.244   9.865  14.859  1.00  0.00     0.038 C 
HETATM   18  C30 UNL     1       1.251  10.109  15.070  1.00  0.00     0.124 C 
HETATM   19  C31 UNL     1       2.031   9.788  13.776  1.00  0.00     0.034 C 
HETATM   20  C32 UNL     1       3.594  10.100  13.760  1.00  0.00    -0.015 C 
HETATM   21  C33 UNL     1       4.121  10.708  15.075  1.00  0.00     0.018 C 
HETATM   22  C34 UNL     1       3.877  11.167  12.666  1.00  0.00     0.018 C 
ENDROOT
BRANCH   1  23
HETATM   23  O3  UNL     1       4.406   7.922  14.541  1.00  0.00    -0.352 OA
BRANCH  23  24
HETATM   24  C4  UNL     1       5.699   7.511  14.994  1.00  0.00     0.292 C 
HETATM   25  C3  UNL     1       6.690   7.613  13.813  1.00  0.00     0.218 C 
HETATM   26  C37 UNL     1       8.123   7.485  14.339  1.00  0.00     0.183 C 
HETATM   27  C36 UNL     1       8.400   8.477  15.489  1.00  0.00     0.173 C 
HETATM   28  C35 UNL     1       7.124   9.202  15.928  1.00  0.00     0.205 C 
HETATM   29  O8  UNL     1       6.074   8.264  16.150  1.00  0.00    -0.356 OA
BRANCH  25  30
HETATM   30  O2  UNL     1       6.440   6.513  12.902  1.00  0.00    -0.309 OA
BRANCH  30  31
HETATM   31  C2  UNL     1       6.855   6.674  11.619  1.00  0.00     0.255 C 
HETATM   32  C1  UNL     1       6.816   5.360  10.902  1.00  0.00     0.126 C 
HETATM   33  O1  UNL     1       7.202   7.725  11.096  1.00  0.00    -0.266 OA
ENDBRANCH  30  31
ENDBRANCH  25  30
BRANCH  26  34
HETATM   34  O10 UNL     1       9.052   7.740  13.269  1.00  0.00    -0.390 OA
HETATM   35  H60 UNL     1       9.927   7.493  13.600  1.00  0.00     0.210 HD
ENDBRANCH  26  34
BRANCH  27  36
HETATM   36  O9  UNL     1       8.967   7.719  16.575  1.00  0.00    -0.391 OA
HETATM   37  H58 UNL     1       8.761   8.191  17.410  1.00  0.00     0.210 HD
ENDBRANCH  27  36
ENDBRANCH  23  24
ENDBRANCH   1  23
BRANCH  18  38
HETATM   38  O7  UNL     1       1.386  11.491  15.418  1.00  0.00    -0.395 OA
HETATM   39  H47 UNL     1       1.013  12.025  14.699  1.00  0.00     0.210 HD
ENDBRANCH  18  38
BRANCH  11  40
HETATM   40  C16 UNL     1      -4.909   5.457  13.658  1.00  0.00     0.065 C 
HETATM   41  C17 UNL     1      -5.633   5.098  14.986  1.00  0.00     0.046 C 
HETATM   42  C18 UNL     1      -5.977   5.612  12.570  1.00  0.00     0.041 C 
HETATM   43  C19 UNL     1      -6.265   4.188  12.146  1.00  0.00     0.038 C 
HETATM   44  C20 UNL     1      -5.003   3.407  12.527  1.00  0.00     0.156 C 
HETATM   45  O5  UNL     1      -4.134   4.330  13.228  1.00  0.00    -0.372 OA
BRANCH  44  46
HETATM   46  C21 UNL     1      -4.257   2.710  11.350  1.00  0.00     0.076 C 
HETATM   47  C22 UNL     1      -3.713   1.338  11.762  1.00  0.00     0.048 C 
HETATM   48  C23 UNL     1      -3.098   3.596  10.858  1.00  0.00     0.048 C 
BRANCH  46  49
HETATM   49  O4  UNL     1      -5.105   2.497  10.209  1.00  0.00    -0.388 OA
HETATM   50  H35 UNL     1      -5.999   2.288  10.523  1.00  0.00     0.210 HD
ENDBRANCH  46  49
ENDBRANCH  44  46
ENDBRANCH  11  40
BRANCH  12  51
HETATM   51  O6  UNL     1      -4.756   6.805  16.261  1.00  0.00    -0.395 OA
HETATM   52  H37 UNL     1      -4.356   5.916  16.205  1.00  0.00     0.210 HD
ENDBRANCH  12  51
TORSDOF 11
ENDMDL
MODEL 9
REMARK minimizedAffinity -8.19316483
REMARK CNNscore 0.247728512
REMARK CNNaffinity 6.00960922
REMARK  11 active torsions:
REMARK  status: ('A' for Active; 'I' for Inactive)
REMARK    1  A    between atoms: C2_2  and  O2_4 
REMARK    2  A    between atoms: O2_4  and  C3_5 
REMARK    3  A    between atoms: C4_6  and  O3_7 
REMARK    4  A    between atoms: O3_7  and  C5_8 
REMARK    5  A    between atoms: C15_18  and  C16_19 
REMARK    6  A    between atoms: C20_23  and  C21_24 
REMARK    7  A    between atoms: C21_24  and  O4_27 
REMARK    8  A    between atoms: C24_29  and  O6_30 
REMARK    9  A    between atoms: C30_36  and  O7_37 
REMARK   10  A    between atoms: C36_44  and  O9_45 
REMARK   11  A    between atoms: C37_46  and  O10_47 
ROOT
HETATM    1  C5  UNL     1      -2.662   9.941  16.243  1.00  0.00     0.133 C 
HETATM    2  C6  UNL     1      -2.987  10.124  17.736  1.00  0.00     0.034 C 
HETATM    3  C7  UNL     1      -2.131  11.182  18.444  1.00  0.00     0.013 C 
HETATM    4  C8  UNL     1      -0.820  11.412  17.718  1.00  0.00    -0.025 A 
HETATM    5  C9  UNL     1       0.237  10.372  17.954  1.00  0.00     0.021 A 
HETATM    6  C10 UNL     1       0.485  11.784  18.480  1.00  0.00    -0.027 A 
HETATM    7  C11 UNL     1       0.405  11.916  20.009  1.00  0.00     0.011 C 
HETATM    8  C12 UNL     1       1.494  12.681  20.763  1.00  0.00     0.011 C 
HETATM    9  C13 UNL     1       2.833  12.718  20.033  1.00  0.00    -0.028 C 
HETATM   10  C14 UNL     1       3.381  11.271  19.954  1.00  0.00     0.016 C 
HETATM   11  C15 UNL     1       3.931  13.703  20.608  1.00  0.00     0.057 C 
HETATM   12  C24 UNL     1       4.777  14.020  19.326  1.00  0.00     0.126 C 
HETATM   13  C25 UNL     1       3.957  13.581  18.109  1.00  0.00     0.042 C 
HETATM   14  C26 UNL     1       2.527  13.382  18.635  1.00  0.00    -0.029 C 
HETATM   15  C27 UNL     1       1.845  14.786  18.730  1.00  0.00     0.016 C 
HETATM   16  C28 UNL     1       1.660  12.454  17.730  1.00  0.00     0.006 C 
HETATM   17  C29 UNL     1       1.187  13.146  16.436  1.00  0.00     0.038 C 
HETATM   18  C30 UNL     1       0.255  12.301  15.566  1.00  0.00     0.124 C 
HETATM   19  C31 UNL     1      -1.065  12.017  16.318  1.00  0.00     0.034 C 
HETATM   20  C32 UNL     1      -2.215  11.253  15.524  1.00  0.00    -0.015 C 
HETATM   21  C33 UNL     1      -1.843  10.905  14.069  1.00  0.00     0.018 C 
HETATM   22  C34 UNL     1      -3.454  12.187  15.423  1.00  0.00     0.018 C 
ENDROOT
BRANCH   1  23
HETATM   23  O3  UNL     1      -1.616   8.956  16.138  1.00  0.00    -0.352 OA
BRANCH  23  24
HETATM   24  C4  UNL     1      -1.739   8.110  14.990  1.00  0.00     0.292 C 
HETATM   25  C3  UNL     1      -0.540   7.136  14.966  1.00  0.00     0.218 C 
HETATM   26  C37 UNL     1      -0.805   6.028  13.942  1.00  0.00     0.183 C 
HETATM   27  C36 UNL     1      -2.171   5.349  14.178  1.00  0.00     0.173 C 
HETATM   28  C35 UNL     1      -2.984   6.075  15.254  1.00  0.00     0.205 C 
HETATM   29  O8  UNL     1      -3.020   7.474  14.987  1.00  0.00    -0.356 OA
BRANCH  25  30
HETATM   30  O2  UNL     1       0.642   7.867  14.549  1.00  0.00    -0.309 OA
BRANCH  30  31
HETATM   31  C2  UNL     1       1.614   8.044  15.481  1.00  0.00     0.255 C 
HETATM   32  C1  UNL     1       2.583   9.085  15.016  1.00  0.00     0.126 C 
HETATM   33  O1  UNL     1       1.700   7.463  16.555  1.00  0.00    -0.266 OA
ENDBRANCH  30  31
ENDBRANCH  25  30
BRANCH  26  34
HETATM   34  O10 UNL     1       0.233   5.034  14.030  1.00  0.00    -0.390 OA
HETATM   35  H60 UNL     1       0.116   4.447  13.270  1.00  0.00     0.210 HD
ENDBRANCH  26  34
BRANCH  27  36
HETATM   36  O9  UNL     1      -2.866   5.345  12.916  1.00  0.00    -0.391 OA
HETATM   37  H58 UNL     1      -3.828   5.326  13.104  1.00  0.00     0.210 HD
ENDBRANCH  27  36
ENDBRANCH  23  24
ENDBRANCH   1  23
BRANCH  18  38
HETATM   38  O7  UNL     1       0.013  13.065  14.380  1.00  0.00    -0.395 OA
HETATM   39  H47 UNL     1      -0.378  13.915  14.638  1.00  0.00     0.210 HD
ENDBRANCH  18  38
BRANCH  11  40
HETATM   40  C16 UNL     1       4.749  13.414  21.903  1.00  0.00     0.065 C 
HETATM   41  C17 UNL     1       4.017  13.998  23.145  1.00  0.00     0.046 C 
HETATM   42  C18 UNL     1       4.963  11.917  22.148  1.00  0.00     0.041 C 
HETATM   43  C19 UNL     1       6.197  11.871  23.022  1.00  0.00     0.038 C 
HETATM   44  C20 UNL     1       6.928  13.187  22.732  1.00  0.00     0.156 C 
HETATM   45  O5  UNL     1       6.076  13.952  21.846  1.00  0.00    -0.372 OA
BRANCH  44  46
HETATM   46  C21 UNL     1       8.368  13.047  22.152  1.00  0.00     0.076 C 
HETATM   47  C22 UNL     1       8.381  12.191  20.881  1.00  0.00     0.048 C 
HETATM   48  C23 UNL     1       9.304  12.423  23.203  1.00  0.00     0.048 C 
BRANCH  46  49
HETATM   49  O4  UNL     1       8.948  14.316  21.807  1.00  0.00    -0.388 OA
HETATM   50  H35 UNL     1       8.248  14.894  21.465  1.00  0.00     0.210 HD
ENDBRANCH  46  49
ENDBRANCH  44  46
ENDBRANCH  11  40
BRANCH  12  51
HETATM   51  O6  UNL     1       6.046  13.388  19.269  1.00  0.00    -0.395 OA
HETATM   52  H37 UNL     1       5.988  12.533  19.737  1.00  0.00     0.210 HD
ENDBRANCH  12  51
TORSDOF 11
ENDMDL
