MODEL 1
REMARK minimizedAffinity -7.74748087
REMARK CNNscore 0.650740504
REMARK CNNaffinity 7.2510581
REMARK  13 active torsions:
REMARK  status: ('A' for Active; 'I' for Inactive)
REMARK    1  A    between atoms: O1_2  and  C2_3 
REMARK    2  A    between atoms: C2_3  and  C3_4 
REMARK    3  A    between atoms: C3_4  and  C4_5 
REMARK    4  A    between atoms: C4_5  and  N1_6 
REMARK    5  A    between atoms: N1_6  and  C5_7 
REMARK    6  A    between atoms: C5_7  and  C6_8 
REMARK    7  A    between atoms: C10_12  and  O2_13 
REMARK    8  A    between atoms: C16_19  and  O3_20 
REMARK    9  A    between atoms: C20_24  and  C21_25 
REMARK   10  A    between atoms: C21_25  and  C23_27 
REMARK   11  A    between atoms: C31_35  and  O4_36 
REMARK   12  A    between atoms: C34_39  and  C35_40 
REMARK   13  A    between atoms: C36_42  and  O6_43 
ROOT
HETATM    1  C6  UNL     1     -10.580   7.689  14.313  1.00  0.00    -0.022 C 
HETATM    2  C7  UNL     1      -9.995   8.723  14.966  1.00  0.00    -0.014 C 
HETATM    3  C8  UNL     1     -10.832   9.761  15.670  1.00  0.00     0.021 C 
HETATM    4  C9  UNL     1     -10.292  10.471  16.916  1.00  0.00     0.051 C 
HETATM    5  C10 UNL     1     -11.530  11.290  17.351  1.00  0.00     0.098 C 
HETATM    6  C11 UNL     1     -12.707  10.245  17.212  1.00  0.00    -0.002 C 
HETATM    7  C12 UNL     1     -14.038  10.887  16.802  1.00  0.00     0.019 C 
HETATM    8  C13 UNL     1     -12.904   9.475  18.552  1.00  0.00     0.013 C 
HETATM    9  C14 UNL     1     -12.988  10.364  19.780  1.00  0.00     0.010 C 
HETATM   10  C15 UNL     1     -11.694  11.189  19.967  1.00  0.00     0.041 C 
HETATM   11  C16 UNL     1     -11.460  12.059  18.721  1.00  0.00     0.095 C 
HETATM   12  C17 UNL     1     -10.169  12.894  18.846  1.00  0.00     0.049 C 
HETATM   13  C18 UNL     1      -9.504  12.904  20.248  1.00  0.00     0.025 C 
HETATM   14  C19 UNL     1      -8.334  13.919  20.165  1.00  0.00     0.012 C 
HETATM   15  C20 UNL     1      -7.488  14.265  21.413  1.00  0.00    -0.010 C 
HETATM   16  C28 UNL     1      -7.319  13.080  22.382  1.00  0.00     0.005 C 
HETATM   17  C29 UNL     1      -8.592  12.456  22.968  1.00  0.00     0.010 C 
HETATM   18  C30 UNL     1      -9.869  13.286  22.783  1.00  0.00     0.050 C 
HETATM   19  C31 UNL     1     -10.874  13.027  23.911  1.00  0.00     0.125 C 
HETATM   20  C32 UNL     1     -11.446  11.618  23.893  1.00  0.00     0.033 C 
HETATM   21  C33 UNL     1     -11.505  11.002  22.490  1.00  0.00     0.023 C 
HETATM   22  C34 UNL     1     -11.696  12.020  21.329  1.00  0.00     0.051 C 
HETATM   23  C36 UNL     1     -10.548  13.139  21.374  1.00  0.00     0.082 C 
HETATM   24  C37 UNL     1     -12.166   9.182  16.178  1.00  0.00     0.036 C 
HETATM   25  C38 UNL     1     -12.829   8.609  14.967  1.00  0.00    -0.035 C 
HETATM   26  C39 UNL     1     -13.857   8.967  14.209  1.00  0.00     0.088 C 
HETATM   27  C40 UNL     1     -13.797   8.117  13.019  1.00  0.00     0.284 C 
HETATM   28  O7  UNL     1     -14.613   8.157  12.111  1.00  0.00    -0.260 OA
HETATM   29  O8  UNL     1     -12.695   7.319  13.071  1.00  0.00    -0.304 OA
HETATM   30  C41 UNL     1     -12.093   7.460  14.349  1.00  0.00     0.192 C 
ENDROOT
BRANCH   1  31
HETATM   31  C5  UNL     1      -9.771   6.636  13.606  1.00  0.00     0.306 C 
BRANCH  31  32
HETATM   32  N1  UNL     1      -8.983   5.891  14.582  1.00  0.00     0.087 N 
HETATM   33  H10 UNL     1      -9.182   4.893  14.497  1.00  0.00     0.316 HD
BRANCH  32  34
HETATM   34  C4  UNL     1      -7.554   6.142  14.435  1.00  0.00     0.272 C 
BRANCH  34  35
HETATM   35  C3  UNL     1      -6.872   5.023  13.642  1.00  0.00     0.056 C 
BRANCH  35  36
HETATM   36  C2  UNL     1      -7.731   4.480  12.501  1.00  0.00     0.168 C 
BRANCH  36  37
HETATM   37  O1  UNL     1      -8.383   3.278  12.919  1.00  0.00    -0.396 OA
HETATM   38  C1  UNL     1      -7.569   2.126  12.737  1.00  0.00     0.201 C 
ENDBRANCH  36  37
ENDBRANCH  35  36
ENDBRANCH  34  35
ENDBRANCH  32  34
ENDBRANCH  31  32
ENDBRANCH   1  31
BRANCH   5  39
HETATM   39  O2  UNL     1     -11.717  12.322  16.343  1.00  0.00    -0.386 OA
HETATM   40  H17 UNL     1     -10.905  12.862  16.305  1.00  0.00     0.210 HD
ENDBRANCH   5  39
BRANCH  11  41
HETATM   41  O3  UNL     1     -12.547  13.012  18.694  1.00  0.00    -0.386 OA
HETATM   42  H26 UNL     1     -12.663  13.271  17.759  1.00  0.00     0.210 HD
ENDBRANCH  11  41
BRANCH  22  43
HETATM   43  C35 UNL     1     -13.099  12.649  21.488  1.00  0.00     0.244 C 
HETATM   44  O5  UNL     1     -13.938  12.260  22.302  1.00  0.00    -0.306 OA
ENDBRANCH  22  43
BRANCH  23  45
HETATM   45  O6  UNL     1     -11.123  14.432  21.090  1.00  0.00    -0.388 OA
HETATM   46  H58 UNL     1     -11.567  14.731  21.914  1.00  0.00     0.210 HD
ENDBRANCH  23  45
BRANCH  15  47
HETATM   47  C21 UNL     1      -6.091  14.901  21.009  1.00  0.00    -0.011 C 
HETATM   48  C22 UNL     1      -5.084  14.818  22.174  1.00  0.00     0.011 C 
BRANCH  47  49
HETATM   49  C23 UNL     1      -5.523  14.243  19.708  1.00  0.00    -0.010 C 
HETATM   50  C24 UNL     1      -4.771  12.912  19.860  1.00  0.00     0.005 C 
HETATM   51  C25 UNL     1      -4.080  12.731  18.512  1.00  0.00     0.000 C 
HETATM   52  C26 UNL     1      -3.786  14.148  18.014  1.00  0.00     0.000 C 
HETATM   53  C27 UNL     1      -4.442  15.095  19.020  1.00  0.00     0.005 C 
ENDBRANCH  47  49
ENDBRANCH  15  47
BRANCH  19  54
HETATM   54  O4  UNL     1     -11.927  13.982  23.750  1.00  0.00    -0.395 OA
HETATM   55  H52 UNL     1     -12.379  14.087  24.612  1.00  0.00     0.210 HD
ENDBRANCH  19  54
TORSDOF 13
ENDMDL
MODEL 2
REMARK minimizedAffinity -8.10307884
REMARK CNNscore 0.633661389
REMARK CNNaffinity 7.51125145
REMARK  13 active torsions:
REMARK  status: ('A' for Active; 'I' for Inactive)
REMARK    1  A    between atoms: O1_2  and  C2_3 
REMARK    2  A    between atoms: C2_3  and  C3_4 
REMARK    3  A    between atoms: C3_4  and  C4_5 
REMARK    4  A    between atoms: C4_5  and  N1_6 
REMARK    5  A    between atoms: N1_6  and  C5_7 
REMARK    6  A    between atoms: C5_7  and  C6_8 
REMARK    7  A    between atoms: C10_12  and  O2_13 
REMARK    8  A    between atoms: C16_19  and  O3_20 
REMARK    9  A    between atoms: C20_24  and  C21_25 
REMARK   10  A    between atoms: C21_25  and  C23_27 
REMARK   11  A    between atoms: C31_35  and  O4_36 
REMARK   12  A    between atoms: C34_39  and  C35_40 
REMARK   13  A    between atoms: C36_42  and  O6_43 
ROOT
HETATM    1  C6  UNL     1      -8.576  -7.822  -2.035  1.00  0.00    -0.022 C 
HETATM    2  C7  UNL     1      -8.808  -8.148  -0.739  1.00  0.00    -0.014 C 
HETATM    3  C8  UNL     1      -8.203  -9.392  -0.139  1.00  0.00     0.021 C 
HETATM    4  C9  UNL     1      -7.850  -9.436   1.350  1.00  0.00     0.051 C 
HETATM    5  C10 UNL     1      -7.137 -10.805   1.447  1.00  0.00     0.098 C 
HETATM    6  C11 UNL     1      -6.189 -10.795   0.183  1.00  0.00    -0.002 C 
HETATM    7  C12 UNL     1      -5.983 -12.187  -0.426  1.00  0.00     0.019 C 
HETATM    8  C13 UNL     1      -4.802 -10.191   0.554  1.00  0.00     0.013 C 
HETATM    9  C14 UNL     1      -4.178 -10.775   1.809  1.00  0.00     0.010 C 
HETATM   10  C15 UNL     1      -5.075 -10.538   3.046  1.00  0.00     0.041 C 
HETATM   11  C16 UNL     1      -6.450 -11.184   2.811  1.00  0.00     0.095 C 
HETATM   12  C17 UNL     1      -7.395 -10.963   4.010  1.00  0.00     0.049 C 
HETATM   13  C18 UNL     1      -6.736 -10.380   5.289  1.00  0.00     0.025 C 
HETATM   14  C19 UNL     1      -7.832 -10.396   6.386  1.00  0.00     0.012 C 
HETATM   15  C20 UNL     1      -7.515  -9.968   7.838  1.00  0.00    -0.010 C 
HETATM   16  C28 UNL     1      -6.454  -8.856   7.926  1.00  0.00     0.005 C 
HETATM   17  C29 UNL     1      -5.073  -9.143   7.323  1.00  0.00     0.010 C 
HETATM   18  C30 UNL     1      -4.799 -10.616   6.993  1.00  0.00     0.050 C 
HETATM   19  C31 UNL     1      -3.305 -10.943   7.085  1.00  0.00     0.125 C 
HETATM   20  C32 UNL     1      -2.473 -10.254   6.015  1.00  0.00     0.033 C 
HETATM   21  C33 UNL     1      -3.247  -9.987   4.717  1.00  0.00     0.023 C 
HETATM   22  C34 UNL     1      -4.376 -11.011   4.400  1.00  0.00     0.051 C 
HETATM   23  C36 UNL     1      -5.405 -11.105   5.627  1.00  0.00     0.082 C 
HETATM   24  C37 UNL     1      -6.862  -9.762  -0.803  1.00  0.00     0.036 C 
HETATM   25  C38 UNL     1      -7.171  -9.898  -2.258  1.00  0.00    -0.035 C 
HETATM   26  C39 UNL     1      -7.285 -10.919  -3.097  1.00  0.00     0.088 C 
HETATM   27  C40 UNL     1      -7.883 -10.375  -4.317  1.00  0.00     0.284 C 
HETATM   28  O7  UNL     1      -8.110 -11.037  -5.319  1.00  0.00    -0.260 OA
HETATM   29  O8  UNL     1      -8.168  -9.054  -4.149  1.00  0.00    -0.304 OA
HETATM   30  C41 UNL     1      -7.614  -8.626  -2.913  1.00  0.00     0.192 C 
ENDROOT
BRANCH   1  31
HETATM   31  C5  UNL     1      -9.163  -6.585  -2.660  1.00  0.00     0.306 C 
BRANCH  31  32
HETATM   32  N1  UNL     1      -8.353  -6.189  -3.807  1.00  0.00     0.087 N 
HETATM   33  H10 UNL     1      -7.781  -6.977  -4.113  1.00  0.00     0.316 HD
BRANCH  32  34
HETATM   34  C4  UNL     1      -9.173  -5.693  -4.906  1.00  0.00     0.272 C 
BRANCH  34  35
HETATM   35  C3  UNL     1      -9.618  -4.248  -4.660  1.00  0.00     0.056 C 
BRANCH  35  36
HETATM   36  C2  UNL     1     -10.973  -3.919  -5.286  1.00  0.00     0.168 C 
BRANCH  36  37
HETATM   37  O1  UNL     1     -11.593  -2.854  -4.561  1.00  0.00    -0.396 OA
HETATM   38  C1  UNL     1     -11.670  -1.652  -5.318  1.00  0.00     0.201 C 
ENDBRANCH  36  37
ENDBRANCH  35  36
ENDBRANCH  34  35
ENDBRANCH  32  34
ENDBRANCH  31  32
ENDBRANCH   1  31
BRANCH   5  39
HETATM   39  O2  UNL     1      -8.160 -11.818   1.241  1.00  0.00    -0.386 OA
HETATM   40  H17 UNL     1      -8.845 -11.704   1.927  1.00  0.00     0.210 HD
ENDBRANCH   5  39
BRANCH  11  41
HETATM   41  O3  UNL     1      -6.213 -12.609   2.750  1.00  0.00    -0.386 OA
HETATM   42  H26 UNL     1      -6.934 -12.985   2.210  1.00  0.00     0.210 HD
ENDBRANCH  11  41
BRANCH  22  43
HETATM   43  C35 UNL     1      -3.704 -12.375   4.125  1.00  0.00     0.244 C 
HETATM   44  O5  UNL     1      -2.485 -12.532   4.028  1.00  0.00    -0.306 OA
ENDBRANCH  22  43
BRANCH  23  45
HETATM   45  O6  UNL     1      -5.771 -12.484   5.845  1.00  0.00    -0.388 OA
HETATM   46  H58 UNL     1      -5.024 -12.903   6.325  1.00  0.00     0.210 HD
ENDBRANCH  23  45
BRANCH  15  47
HETATM   47  C21 UNL     1      -8.835  -9.589   8.633  1.00  0.00    -0.011 C 
HETATM   48  C22 UNL     1     -10.054 -10.361   8.090  1.00  0.00     0.011 C 
BRANCH  47  49
HETATM   49  C23 UNL     1      -8.653  -9.810  10.172  1.00  0.00    -0.010 C 
HETATM   50  C24 UNL     1      -7.840  -8.761  10.945  1.00  0.00     0.005 C 
HETATM   51  C25 UNL     1      -7.574  -9.429  12.291  1.00  0.00     0.000 C 
HETATM   52  C26 UNL     1      -7.495 -10.927  11.990  1.00  0.00     0.000 C 
HETATM   53  C27 UNL     1      -7.858 -11.082  10.512  1.00  0.00     0.005 C 
ENDBRANCH  47  49
ENDBRANCH  15  47
BRANCH  19  54
HETATM   54  O4  UNL     1      -3.187 -12.363   6.954  1.00  0.00    -0.395 OA
HETATM   55  H52 UNL     1      -2.335 -12.637   7.351  1.00  0.00     0.210 HD
ENDBRANCH  19  54
TORSDOF 13
ENDMDL
MODEL 3
REMARK minimizedAffinity -7.87654877
REMARK CNNscore 0.468436062
REMARK CNNaffinity 7.10515404
REMARK  13 active torsions:
REMARK  status: ('A' for Active; 'I' for Inactive)
REMARK    1  A    between atoms: O1_2  and  C2_3 
REMARK    2  A    between atoms: C2_3  and  C3_4 
REMARK    3  A    between atoms: C3_4  and  C4_5 
REMARK    4  A    between atoms: C4_5  and  N1_6 
REMARK    5  A    between atoms: N1_6  and  C5_7 
REMARK    6  A    between atoms: C5_7  and  C6_8 
REMARK    7  A    between atoms: C10_12  and  O2_13 
REMARK    8  A    between atoms: C16_19  and  O3_20 
REMARK    9  A    between atoms: C20_24  and  C21_25 
REMARK   10  A    between atoms: C21_25  and  C23_27 
REMARK   11  A    between atoms: C31_35  and  O4_36 
REMARK   12  A    between atoms: C34_39  and  C35_40 
REMARK   13  A    between atoms: C36_42  and  O6_43 
ROOT
HETATM    1  C6  UNL     1      -8.043  -8.059  -2.430  1.00  0.00    -0.022 C 
HETATM    2  C7  UNL     1      -8.372  -8.362  -1.149  1.00  0.00    -0.014 C 
HETATM    3  C8  UNL     1      -7.788  -9.576  -0.472  1.00  0.00     0.021 C 
HETATM    4  C9  UNL     1      -7.557  -9.577   1.042  1.00  0.00     0.051 C 
HETATM    5  C10 UNL     1      -6.822 -10.925   1.229  1.00  0.00     0.098 C 
HETATM    6  C11 UNL     1      -5.775 -10.919   0.046  1.00  0.00    -0.002 C 
HETATM    7  C12 UNL     1      -5.486 -12.318  -0.511  1.00  0.00     0.019 C 
HETATM    8  C13 UNL     1      -4.437 -10.271   0.513  1.00  0.00     0.013 C 
HETATM    9  C14 UNL     1      -3.904 -10.811   1.829  1.00  0.00     0.010 C 
HETATM   10  C15 UNL     1      -4.903 -10.569   2.982  1.00  0.00     0.041 C 
HETATM   11  C16 UNL     1      -6.239 -11.255   2.653  1.00  0.00     0.095 C 
HETATM   12  C17 UNL     1      -7.283 -11.032   3.766  1.00  0.00     0.049 C 
HETATM   13  C18 UNL     1      -6.745 -10.404   5.079  1.00  0.00     0.025 C 
HETATM   14  C19 UNL     1      -7.927 -10.424   6.084  1.00  0.00     0.012 C 
HETATM   15  C20 UNL     1      -7.740  -9.955   7.546  1.00  0.00    -0.010 C 
HETATM   16  C28 UNL     1      -6.716  -8.814   7.693  1.00  0.00     0.005 C 
HETATM   17  C29 UNL     1      -5.284  -9.079   7.210  1.00  0.00     0.010 C 
HETATM   18  C30 UNL     1      -4.949 -10.552   6.939  1.00  0.00     0.050 C 
HETATM   19  C31 UNL     1      -3.460 -10.838   7.160  1.00  0.00     0.125 C 
HETATM   20  C32 UNL     1      -2.560 -10.151   6.144  1.00  0.00     0.033 C 
HETATM   21  C33 UNL     1      -3.232  -9.934   4.783  1.00  0.00     0.023 C 
HETATM   22  C34 UNL     1      -4.307 -10.993   4.400  1.00  0.00     0.051 C 
HETATM   23  C36 UNL     1      -5.429 -11.087   5.542  1.00  0.00     0.082 C 
HETATM   24  C37 UNL     1      -6.390  -9.926  -1.016  1.00  0.00     0.036 C 
HETATM   25  C38 UNL     1      -6.576 -10.102  -2.488  1.00  0.00    -0.035 C 
HETATM   26  C39 UNL     1      -6.596 -11.144  -3.308  1.00  0.00     0.088 C 
HETATM   27  C40 UNL     1      -7.105 -10.643  -4.585  1.00  0.00     0.284 C 
HETATM   28  O7  UNL     1      -7.234 -11.333  -5.586  1.00  0.00    -0.260 OA
HETATM   29  O8  UNL     1      -7.434  -9.326  -4.473  1.00  0.00    -0.304 OA
HETATM   30  C41 UNL     1      -6.994  -8.857  -3.208  1.00  0.00     0.192 C 
ENDROOT
BRANCH   1  31
HETATM   31  C5  UNL     1      -8.607  -6.851  -3.130  1.00  0.00     0.306 C 
BRANCH  31  32
HETATM   32  N1  UNL     1      -9.462  -7.283  -4.230  1.00  0.00     0.087 N 
HETATM   33  H10 UNL     1     -10.001  -8.102  -3.948  1.00  0.00     0.316 HD
BRANCH  32  34
HETATM   34  C4  UNL     1     -10.349  -6.216  -4.680  1.00  0.00     0.272 C 
BRANCH  34  35
HETATM   35  C3  UNL     1      -9.720  -4.838  -4.456  1.00  0.00     0.056 C 
BRANCH  35  36
HETATM   36  C2  UNL     1     -10.406  -3.725  -5.247  1.00  0.00     0.168 C 
BRANCH  36  37
HETATM   37  O1  UNL     1     -11.167  -2.901  -4.360  1.00  0.00    -0.396 OA
HETATM   38  C1  UNL     1     -11.021  -1.515  -4.644  1.00  0.00     0.201 C 
ENDBRANCH  36  37
ENDBRANCH  35  36
ENDBRANCH  34  35
ENDBRANCH  32  34
ENDBRANCH  31  32
ENDBRANCH   1  31
BRANCH   5  39
HETATM   39  O2  UNL     1      -7.800 -11.969   0.966  1.00  0.00    -0.386 OA
HETATM   40  H17 UNL     1      -8.541 -11.857   1.590  1.00  0.00     0.210 HD
ENDBRANCH   5  39
BRANCH  11  41
HETATM   41  O3  UNL     1      -5.964 -12.675   2.646  1.00  0.00    -0.386 OA
HETATM   42  H26 UNL     1      -6.630 -13.082   2.058  1.00  0.00     0.210 HD
ENDBRANCH  11  41
BRANCH  22  43
HETATM   43  C35 UNL     1      -3.582 -12.345   4.214  1.00  0.00     0.244 C 
HETATM   44  O5  UNL     1      -2.995 -12.673   3.181  1.00  0.00    -0.306 OA
ENDBRANCH  22  43
BRANCH  23  45
HETATM   45  O6  UNL     1      -5.779 -12.469   5.762  1.00  0.00    -0.388 OA
HETATM   46  H58 UNL     1      -5.064 -12.859   6.312  1.00  0.00     0.210 HD
ENDBRANCH  23  45
BRANCH  15  47
HETATM   47  C21 UNL     1      -9.128  -9.593   8.222  1.00  0.00    -0.011 C 
HETATM   48  C22 UNL     1      -8.924  -8.757   9.502  1.00  0.00     0.011 C 
BRANCH  47  49
HETATM   49  C23 UNL     1     -10.081  -8.873   7.211  1.00  0.00    -0.010 C 
HETATM   50  C24 UNL     1     -11.099  -7.877   7.785  1.00  0.00     0.005 C 
HETATM   51  C25 UNL     1     -12.058  -7.629   6.624  1.00  0.00     0.000 C 
HETATM   52  C26 UNL     1     -12.077  -8.937   5.829  1.00  0.00     0.000 C 
HETATM   53  C27 UNL     1     -11.025  -9.840   6.474  1.00  0.00     0.005 C 
ENDBRANCH  47  49
ENDBRANCH  15  47
BRANCH  19  54
HETATM   54  O4  UNL     1      -3.298 -12.258   7.074  1.00  0.00    -0.395 OA
HETATM   55  H52 UNL     1      -2.474 -12.500   7.545  1.00  0.00     0.210 HD
ENDBRANCH  19  54
TORSDOF 13
ENDMDL
MODEL 4
REMARK minimizedAffinity -10.2774134
REMARK CNNscore 0.418128937
REMARK CNNaffinity 7.155478
REMARK  13 active torsions:
REMARK  status: ('A' for Active; 'I' for Inactive)
REMARK    1  A    between atoms: O1_2  and  C2_3 
REMARK    2  A    between atoms: C2_3  and  C3_4 
REMARK    3  A    between atoms: C3_4  and  C4_5 
REMARK    4  A    between atoms: C4_5  and  N1_6 
REMARK    5  A    between atoms: N1_6  and  C5_7 
REMARK    6  A    between atoms: C5_7  and  C6_8 
REMARK    7  A    between atoms: C10_12  and  O2_13 
REMARK    8  A    between atoms: C16_19  and  O3_20 
REMARK    9  A    between atoms: C20_24  and  C21_25 
REMARK   10  A    between atoms: C21_25  and  C23_27 
REMARK   11  A    between atoms: C31_35  and  O4_36 
REMARK   12  A    between atoms: C34_39  and  C35_40 
REMARK   13  A    between atoms: C36_42  and  O6_43 
ROOT
HETATM    1  C6  UNL     1      -7.423   6.818  14.068  1.00  0.00    -0.022 C 
HETATM    2  C7  UNL     1      -6.376   7.229  14.826  1.00  0.00    -0.014 C 
HETATM    3  C8  UNL     1      -5.056   6.504  14.772  1.00  0.00     0.021 C 
HETATM    4  C9  UNL     1      -3.749   7.265  15.012  1.00  0.00     0.051 C 
HETATM    5  C10 UNL     1      -2.704   6.166  14.702  1.00  0.00     0.098 C 
HETATM    6  C11 UNL     1      -3.266   5.514  13.377  1.00  0.00    -0.002 C 
HETATM    7  C12 UNL     1      -2.966   4.014  13.270  1.00  0.00     0.019 C 
HETATM    8  C13 UNL     1      -2.684   6.241  12.129  1.00  0.00     0.013 C 
HETATM    9  C14 UNL     1      -1.176   6.423  12.156  1.00  0.00     0.010 C 
HETATM   10  C15 UNL     1      -0.733   7.270  13.369  1.00  0.00     0.041 C 
HETATM   11  C16 UNL     1      -1.187   6.581  14.666  1.00  0.00     0.095 C 
HETATM   12  C17 UNL     1      -0.785   7.395  15.914  1.00  0.00     0.049 C 
HETATM   13  C18 UNL     1       0.189   8.577  15.663  1.00  0.00     0.025 C 
HETATM   14  C19 UNL     1       0.563   9.134  17.062  1.00  0.00     0.012 C 
HETATM   15  C20 UNL     1       1.597  10.274  17.217  1.00  0.00    -0.010 C 
HETATM   16  C28 UNL     1       1.578  11.275  16.048  1.00  0.00     0.005 C 
HETATM   17  C29 UNL     1       1.849  10.729  14.640  1.00  0.00     0.010 C 
HETATM   18  C30 UNL     1       2.430   9.310  14.593  1.00  0.00     0.050 C 
HETATM   19  C31 UNL     1       3.299   9.102  13.347  1.00  0.00     0.125 C 
HETATM   20  C32 UNL     1       2.505   9.126  12.051  1.00  0.00     0.033 C 
HETATM   21  C33 UNL     1       1.056   8.650  12.214  1.00  0.00     0.023 C 
HETATM   22  C34 UNL     1       0.828   7.601  13.341  1.00  0.00     0.051 C 
HETATM   23  C36 UNL     1       1.369   8.161  14.743  1.00  0.00     0.082 C 
HETATM   24  C37 UNL     1      -4.807   5.855  13.397  1.00  0.00     0.036 C 
HETATM   25  C38 UNL     1      -5.983   4.961  13.169  1.00  0.00    -0.035 C 
HETATM   26  C39 UNL     1      -6.175   3.649  13.186  1.00  0.00     0.088 C 
HETATM   27  C40 UNL     1      -7.624   3.451  13.157  1.00  0.00     0.284 C 
HETATM   28  O7  UNL     1      -8.163   2.355  13.138  1.00  0.00    -0.260 OA
HETATM   29  O8  UNL     1      -8.261   4.655  13.188  1.00  0.00    -0.304 OA
HETATM   30  C41 UNL     1      -7.290   5.683  13.050  1.00  0.00     0.192 C 
ENDROOT
BRANCH   1  31
HETATM   31  C5  UNL     1      -8.752   7.525  14.098  1.00  0.00     0.306 C 
BRANCH  31  32
HETATM   32  N1  UNL     1      -9.787   6.594  14.533  1.00  0.00     0.087 N 
HETATM   33  H10 UNL     1      -9.588   6.274  15.481  1.00  0.00     0.316 HD
BRANCH  32  34
HETATM   34  C4  UNL     1     -11.117   7.189  14.462  1.00  0.00     0.272 C 
BRANCH  34  35
HETATM   35  C3  UNL     1     -11.480   7.571  13.024  1.00  0.00     0.056 C 
BRANCH  35  36
HETATM   36  C2  UNL     1     -11.831   9.050  12.862  1.00  0.00     0.168 C 
BRANCH  36  37
HETATM   37  O1  UNL     1     -13.058   9.178  12.141  1.00  0.00    -0.396 OA
HETATM   38  C1  UNL     1     -14.181   8.737  12.894  1.00  0.00     0.201 C 
ENDBRANCH  36  37
ENDBRANCH  35  36
ENDBRANCH  34  35
ENDBRANCH  32  34
ENDBRANCH  31  32
ENDBRANCH   1  31
BRANCH   5  39
HETATM   39  O2  UNL     1      -2.807   5.186  15.772  1.00  0.00    -0.386 OA
HETATM   40  H17 UNL     1      -2.633   5.639  16.618  1.00  0.00     0.210 HD
ENDBRANCH   5  39
BRANCH  11  41
HETATM   41  O3  UNL     1      -0.439   5.346  14.740  1.00  0.00    -0.386 OA
HETATM   42  H26 UNL     1      -0.977   4.730  15.275  1.00  0.00     0.210 HD
ENDBRANCH  11  41
BRANCH  22  43
HETATM   43  C35 UNL     1       1.569   6.309  12.929  1.00  0.00     0.244 C 
HETATM   44  O5  UNL     1       2.097   6.141  11.828  1.00  0.00    -0.306 OA
ENDBRANCH  22  43
BRANCH  23  45
HETATM   45  O6  UNL     1       2.047   7.105  15.455  1.00  0.00    -0.388 OA
HETATM   46  H58 UNL     1       2.937   7.016  15.049  1.00  0.00     0.210 HD
ENDBRANCH  23  45
BRANCH  15  47
HETATM   47  C21 UNL     1       1.454  11.001  18.620  1.00  0.00    -0.011 C 
HETATM   48  C22 UNL     1      -0.011  10.996  19.103  1.00  0.00     0.011 C 
BRANCH  47  49
HETATM   49  C23 UNL     1       2.413  10.373  19.685  1.00  0.00    -0.010 C 
HETATM   50  C24 UNL     1       1.877  10.217  21.115  1.00  0.00     0.005 C 
HETATM   51  C25 UNL     1       3.124   9.911  21.939  1.00  0.00     0.000 C 
HETATM   52  C26 UNL     1       4.265  10.644  21.231  1.00  0.00     0.000 C 
HETATM   53  C27 UNL     1       3.666  11.226  19.950  1.00  0.00     0.005 C 
ENDBRANCH  47  49
ENDBRANCH  15  47
BRANCH  19  54
HETATM   54  O4  UNL     1       3.940   7.831  13.503  1.00  0.00    -0.395 OA
HETATM   55  H52 UNL     1       4.741   7.822  12.939  1.00  0.00     0.210 HD
ENDBRANCH  19  54
TORSDOF 13
ENDMDL
MODEL 5
REMARK minimizedAffinity -9.92235279
REMARK CNNscore 0.406620502
REMARK CNNaffinity 7.4799099
REMARK  13 active torsions:
REMARK  status: ('A' for Active; 'I' for Inactive)
REMARK    1  A    between atoms: O1_2  and  C2_3 
REMARK    2  A    between atoms: C2_3  and  C3_4 
REMARK    3  A    between atoms: C3_4  and  C4_5 
REMARK    4  A    between atoms: C4_5  and  N1_6 
REMARK    5  A    between atoms: N1_6  and  C5_7 
REMARK    6  A    between atoms: C5_7  and  C6_8 
REMARK    7  A    between atoms: C10_12  and  O2_13 
REMARK    8  A    between atoms: C16_19  and  O3_20 
REMARK    9  A    between atoms: C20_24  and  C21_25 
REMARK   10  A    between atoms: C21_25  and  C23_27 
REMARK   11  A    between atoms: C31_35  and  O4_36 
REMARK   12  A    between atoms: C34_39  and  C35_40 
REMARK   13  A    between atoms: C36_42  and  O6_43 
ROOT
HETATM    1  C6  UNL     1      -5.392   6.455  13.701  1.00  0.00    -0.022 C 
HETATM    2  C7  UNL     1      -4.481   6.883  14.610  1.00  0.00    -0.014 C 
HETATM    3  C8  UNL     1      -3.041   6.447  14.521  1.00  0.00     0.021 C 
HETATM    4  C9  UNL     1      -1.924   7.371  15.016  1.00  0.00     0.051 C 
HETATM    5  C10 UNL     1      -0.668   6.580  14.579  1.00  0.00     0.098 C 
HETATM    6  C11 UNL     1      -1.033   6.132  13.108  1.00  0.00    -0.002 C 
HETATM    7  C12 UNL     1      -0.433   4.773  12.727  1.00  0.00     0.019 C 
HETATM    8  C13 UNL     1      -0.556   7.204  12.084  1.00  0.00     0.013 C 
HETATM    9  C14 UNL     1       0.882   7.656  12.272  1.00  0.00     0.010 C 
HETATM   10  C15 UNL     1       1.095   8.292  13.663  1.00  0.00     0.041 C 
HETATM   11  C16 UNL     1       0.735   7.269  14.753  1.00  0.00     0.095 C 
HETATM   12  C17 UNL     1       0.913   7.859  16.168  1.00  0.00     0.049 C 
HETATM   13  C18 UNL     1       1.639   9.228  16.241  1.00  0.00     0.025 C 
HETATM   14  C19 UNL     1       1.836   9.533  17.749  1.00  0.00     0.012 C 
HETATM   15  C20 UNL     1       2.612  10.787  18.216  1.00  0.00    -0.010 C 
HETATM   16  C28 UNL     1       2.441  11.994  17.274  1.00  0.00     0.005 C 
HETATM   17  C29 UNL     1       2.874  11.821  15.813  1.00  0.00     0.010 C 
HETATM   18  C30 UNL     1       3.730  10.580  15.529  1.00  0.00     0.050 C 
HETATM   19  C31 UNL     1       4.674  10.809  14.344  1.00  0.00     0.125 C 
HETATM   20  C32 UNL     1       3.946  10.960  13.018  1.00  0.00     0.033 C 
HETATM   21  C33 UNL     1       2.616  10.197  12.962  1.00  0.00     0.023 C 
HETATM   22  C34 UNL     1       2.557   8.908  13.831  1.00  0.00     0.051 C 
HETATM   23  C36 UNL     1       2.916   9.247  15.357  1.00  0.00     0.082 C 
HETATM   24  C37 UNL     1      -2.610   6.165  13.068  1.00  0.00     0.036 C 
HETATM   25  C38 UNL     1      -3.572   5.136  12.569  1.00  0.00    -0.035 C 
HETATM   26  C39 UNL     1      -3.497   3.839  12.306  1.00  0.00     0.088 C 
HETATM   27  C40 UNL     1      -4.875   3.383  12.118  1.00  0.00     0.284 C 
HETATM   28  O7  UNL     1      -5.182   2.235  11.834  1.00  0.00    -0.260 OA
HETATM   29  O8  UNL     1      -5.741   4.412  12.338  1.00  0.00    -0.304 OA
HETATM   30  C41 UNL     1      -4.991   5.608  12.490  1.00  0.00     0.192 C 
ENDROOT
BRANCH   1  31
HETATM   31  C5  UNL     1      -6.835   6.877  13.763  1.00  0.00     0.306 C 
BRANCH  31  32
HETATM   32  N1  UNL     1      -7.691   5.702  13.639  1.00  0.00     0.087 N 
HETATM   33  H10 UNL     1      -7.501   5.054  14.405  1.00  0.00     0.316 HD
BRANCH  32  34
HETATM   34  C4  UNL     1      -9.105   6.059  13.609  1.00  0.00     0.272 C 
BRANCH  34  35
HETATM   35  C3  UNL     1      -9.415   7.182  14.603  1.00  0.00     0.056 C 
BRANCH  35  36
HETATM   36  C2  UNL     1     -10.842   7.718  14.483  1.00  0.00     0.168 C 
BRANCH  36  37
HETATM   37  O1  UNL     1     -11.384   7.364  13.209  1.00  0.00    -0.396 OA
HETATM   38  C1  UNL     1     -12.269   8.355  12.700  1.00  0.00     0.201 C 
ENDBRANCH  36  37
ENDBRANCH  35  36
ENDBRANCH  34  35
ENDBRANCH  32  34
ENDBRANCH  31  32
ENDBRANCH   1  31
BRANCH   5  39
HETATM   39  O2  UNL     1      -0.617   5.392  15.417  1.00  0.00    -0.386 OA
HETATM   40  H17 UNL     1      -0.573   5.678  16.349  1.00  0.00     0.210 HD
ENDBRANCH   5  39
BRANCH  11  41
HETATM   41  O3  UNL     1       1.711   6.209  14.639  1.00  0.00    -0.386 OA
HETATM   42  H26 UNL     1       1.286   5.404  14.993  1.00  0.00     0.210 HD
ENDBRANCH  11  41
BRANCH  22  43
HETATM   43  C35 UNL     1       3.559   7.896  13.231  1.00  0.00     0.244 C 
HETATM   44  O5  UNL     1       4.040   7.994  12.100  1.00  0.00    -0.306 OA
ENDBRANCH  22  43
BRANCH  23  45
HETATM   45  O6  UNL     1       3.762   8.210  15.896  1.00  0.00    -0.388 OA
HETATM   46  H58 UNL     1       4.668   8.378  15.555  1.00  0.00     0.210 HD
ENDBRANCH  23  45
BRANCH  15  47
HETATM   47  C21 UNL     1       2.268  11.158  19.719  1.00  0.00    -0.011 C 
HETATM   48  C22 UNL     1       0.761  10.988  20.004  1.00  0.00     0.011 C 
BRANCH  47  49
HETATM   49  C23 UNL     1       3.140  10.330  20.722  1.00  0.00    -0.010 C 
HETATM   50  C24 UNL     1       2.401   9.493  21.776  1.00  0.00     0.005 C 
HETATM   51  C25 UNL     1       3.498   9.106  22.764  1.00  0.00     0.000 C 
HETATM   52  C26 UNL     1       4.496  10.265  22.734  1.00  0.00     0.000 C 
HETATM   53  C27 UNL     1       4.016  11.209  21.631  1.00  0.00     0.005 C 
ENDBRANCH  47  49
ENDBRANCH  15  47
BRANCH  19  54
HETATM   54  O4  UNL     1       5.550   9.678  14.293  1.00  0.00    -0.395 OA
HETATM   55  H52 UNL     1       6.359   9.940  13.807  1.00  0.00     0.210 HD
ENDBRANCH  19  54
TORSDOF 13
ENDMDL
MODEL 6
REMARK minimizedAffinity -9.30856609
REMARK CNNscore 0.374297947
REMARK CNNaffinity 7.03938341
REMARK  13 active torsions:
REMARK  status: ('A' for Active; 'I' for Inactive)
REMARK    1  A    between atoms: O1_2  and  C2_3 
REMARK    2  A    between atoms: C2_3  and  C3_4 
REMARK    3  A    between atoms: C3_4  and  C4_5 
REMARK    4  A    between atoms: C4_5  and  N1_6 
REMARK    5  A    between atoms: N1_6  and  C5_7 
REMARK    6  A    between atoms: C5_7  and  C6_8 
REMARK    7  A    between atoms: C10_12  and  O2_13 
REMARK    8  A    between atoms: C16_19  and  O3_20 
REMARK    9  A    between atoms: C20_24  and  C21_25 
REMARK   10  A    between atoms: C21_25  and  C23_27 
REMARK   11  A    between atoms: C31_35  and  O4_36 
REMARK   12  A    between atoms: C34_39  and  C35_40 
REMARK   13  A    between atoms: C36_42  and  O6_43 
ROOT
HETATM    1  C6  UNL     1      -6.581   5.662  13.412  1.00  0.00    -0.022 C 
HETATM    2  C7  UNL     1      -6.397   6.497  14.464  1.00  0.00    -0.014 C 
HETATM    3  C8  UNL     1      -5.009   6.909  14.885  1.00  0.00     0.021 C 
HETATM    4  C9  UNL     1      -4.774   8.280  15.527  1.00  0.00     0.051 C 
HETATM    5  C10 UNL     1      -3.230   8.301  15.626  1.00  0.00     0.098 C 
HETATM    6  C11 UNL     1      -2.782   7.755  14.212  1.00  0.00    -0.002 C 
HETATM    7  C12 UNL     1      -1.482   6.943  14.264  1.00  0.00     0.019 C 
HETATM    8  C13 UNL     1      -2.606   8.935  13.210  1.00  0.00     0.013 C 
HETATM    9  C14 UNL     1      -1.770  10.088  13.739  1.00  0.00     0.010 C 
HETATM   10  C15 UNL     1      -2.407  10.711  15.001  1.00  0.00     0.041 C 
HETATM   11  C16 UNL     1      -2.539   9.635  16.091  1.00  0.00     0.095 C 
HETATM   12  C17 UNL     1      -3.187  10.200  17.373  1.00  0.00     0.049 C 
HETATM   13  C18 UNL     1      -3.343  11.743  17.425  1.00  0.00     0.025 C 
HETATM   14  C19 UNL     1      -3.862  12.077  18.848  1.00  0.00     0.012 C 
HETATM   15  C20 UNL     1      -4.055  13.542  19.305  1.00  0.00    -0.010 C 
HETATM   16  C28 UNL     1      -4.485  14.483  18.165  1.00  0.00     0.005 C 
HETATM   17  C29 UNL     1      -3.554  14.600  16.951  1.00  0.00     0.010 C 
HETATM   18  C30 UNL     1      -2.146  14.023  17.152  1.00  0.00     0.050 C 
HETATM   19  C31 UNL     1      -1.114  14.749  16.282  1.00  0.00     0.125 C 
HETATM   20  C32 UNL     1      -1.309  14.508  14.793  1.00  0.00     0.033 C 
HETATM   21  C33 UNL     1      -1.945  13.149  14.473  1.00  0.00     0.023 C 
HETATM   22  C34 UNL     1      -1.629  12.015  15.491  1.00  0.00     0.051 C 
HETATM   23  C36 UNL     1      -2.044  12.465  16.973  1.00  0.00     0.082 C 
HETATM   24  C37 UNL     1      -4.027   6.932  13.698  1.00  0.00     0.036 C 
HETATM   25  C38 UNL     1      -4.085   5.557  13.117  1.00  0.00    -0.035 C 
HETATM   26  C39 UNL     1      -3.270   4.510  13.112  1.00  0.00     0.088 C 
HETATM   27  C40 UNL     1      -4.057   3.387  12.602  1.00  0.00     0.284 C 
HETATM   28  O7  UNL     1      -3.612   2.261  12.439  1.00  0.00    -0.260 OA
HETATM   29  O8  UNL     1      -5.341   3.781  12.375  1.00  0.00    -0.304 OA
HETATM   30  C41 UNL     1      -5.417   5.189  12.538  1.00  0.00     0.192 C 
ENDROOT
BRANCH   1  31
HETATM   31  C5  UNL     1      -7.955   5.237  12.967  1.00  0.00     0.306 C 
BRANCH  31  32
HETATM   32  N1  UNL     1      -8.952   5.779  13.883  1.00  0.00     0.087 N 
HETATM   33  H10 UNL     1      -8.496   6.367  14.582  1.00  0.00     0.316 HD
BRANCH  32  34
HETATM   34  C4  UNL     1      -9.987   6.529  13.180  1.00  0.00     0.272 C 
BRANCH  34  35
HETATM   35  C3  UNL     1     -11.085   6.995  14.141  1.00  0.00     0.056 C 
BRANCH  35  36
HETATM   36  C2  UNL     1     -12.213   7.756  13.445  1.00  0.00     0.168 C 
BRANCH  36  37
HETATM   37  O1  UNL     1     -13.287   6.861  13.149  1.00  0.00    -0.396 OA
HETATM   38  C1  UNL     1     -13.572   5.976  14.225  1.00  0.00     0.201 C 
ENDBRANCH  36  37
ENDBRANCH  35  36
ENDBRANCH  34  35
ENDBRANCH  32  34
ENDBRANCH  31  32
ENDBRANCH   1  31
BRANCH   5  39
HETATM   39  O2  UNL     1      -2.868   7.313  16.631  1.00  0.00    -0.386 OA
HETATM   40  H17 UNL     1      -3.300   7.559  17.470  1.00  0.00     0.210 HD
ENDBRANCH   5  39
BRANCH  11  41
HETATM   41  O3  UNL     1      -1.188   9.273  16.456  1.00  0.00    -0.386 OA
HETATM   42  H26 UNL     1      -1.231   8.359  16.798  1.00  0.00     0.210 HD
ENDBRANCH  11  41
BRANCH  22  43
HETATM   43  C35 UNL     1      -0.116  11.717  15.399  1.00  0.00     0.244 C 
HETATM   44  O5  UNL     1       0.567  11.331  16.349  1.00  0.00    -0.306 OA
ENDBRANCH  22  43
BRANCH  23  45
HETATM   45  O6  UNL     1      -1.032  12.039  17.908  1.00  0.00    -0.388 OA
HETATM   46  H58 UNL     1      -0.288  12.676  17.830  1.00  0.00     0.210 HD
ENDBRANCH  23  45
BRANCH  15  47
HETATM   47  C21 UNL     1      -5.032  13.639  20.551  1.00  0.00    -0.011 C 
HETATM   48  C22 UNL     1      -4.926  15.016  21.236  1.00  0.00     0.011 C 
BRANCH  47  49
HETATM   49  C23 UNL     1      -6.506  13.311  20.142  1.00  0.00    -0.010 C 
HETATM   50  C24 UNL     1      -7.259  14.360  19.310  1.00  0.00     0.005 C 
HETATM   51  C25 UNL     1      -8.713  13.901  19.378  1.00  0.00     0.000 C 
HETATM   52  C26 UNL     1      -8.858  13.218  20.740  1.00  0.00     0.000 C 
HETATM   53  C27 UNL     1      -7.455  13.181  21.347  1.00  0.00     0.005 C 
ENDBRANCH  47  49
ENDBRANCH  15  47
BRANCH  19  54
HETATM   54  O4  UNL     1       0.173  14.271  16.688  1.00  0.00    -0.395 OA
HETATM   55  H52 UNL     1       0.842  14.937  16.428  1.00  0.00     0.210 HD
ENDBRANCH  19  54
TORSDOF 13
ENDMDL
MODEL 7
REMARK minimizedAffinity -7.50105286
REMARK CNNscore 0.370691925
REMARK CNNaffinity 6.75597
REMARK  13 active torsions:
REMARK  status: ('A' for Active; 'I' for Inactive)
REMARK    1  A    between atoms: O1_2  and  C2_3 
REMARK    2  A    between atoms: C2_3  and  C3_4 
REMARK    3  A    between atoms: C3_4  and  C4_5 
REMARK    4  A    between atoms: C4_5  and  N1_6 
REMARK    5  A    between atoms: N1_6  and  C5_7 
REMARK    6  A    between atoms: C5_7  and  C6_8 
REMARK    7  A    between atoms: C10_12  and  O2_13 
REMARK    8  A    between atoms: C16_19  and  O3_20 
REMARK    9  A    between atoms: C20_24  and  C21_25 
REMARK   10  A    between atoms: C21_25  and  C23_27 
REMARK   11  A    between atoms: C31_35  and  O4_36 
REMARK   12  A    between atoms: C34_39  and  C35_40 
REMARK   13  A    between atoms: C36_42  and  O6_43 
ROOT
HETATM    1  C6  UNL     1     -18.823   4.120  14.416  1.00  0.00    -0.022 C 
HETATM    2  C7  UNL     1     -17.493   4.217  14.170  1.00  0.00    -0.014 C 
HETATM    3  C8  UNL     1     -16.926   5.428  13.472  1.00  0.00     0.021 C 
HETATM    4  C9  UNL     1     -15.502   5.899  13.782  1.00  0.00     0.051 C 
HETATM    5  C10 UNL     1     -15.442   7.216  12.972  1.00  0.00     0.098 C 
HETATM    6  C11 UNL     1     -16.829   7.896  13.308  1.00  0.00    -0.002 C 
HETATM    7  C12 UNL     1     -17.392   8.721  12.145  1.00  0.00     0.019 C 
HETATM    8  C13 UNL     1     -16.691   8.810  14.561  1.00  0.00     0.013 C 
HETATM    9  C14 UNL     1     -15.512   9.766  14.515  1.00  0.00     0.010 C 
HETATM   10  C15 UNL     1     -14.173   9.001  14.414  1.00  0.00     0.041 C 
HETATM   11  C16 UNL     1     -14.175   8.131  13.147  1.00  0.00     0.095 C 
HETATM   12  C17 UNL     1     -12.864   7.330  13.004  1.00  0.00     0.049 C 
HETATM   13  C18 UNL     1     -11.724   7.724  13.980  1.00  0.00     0.025 C 
HETATM   14  C19 UNL     1     -10.481   6.904  13.546  1.00  0.00     0.012 C 
HETATM   15  C20 UNL     1      -9.112   7.101  14.240  1.00  0.00    -0.010 C 
HETATM   16  C28 UNL     1      -9.233   7.450  15.735  1.00  0.00     0.005 C 
HETATM   17  C29 UNL     1     -10.014   8.717  16.107  1.00  0.00     0.010 C 
HETATM   18  C30 UNL     1     -10.307   9.668  14.940  1.00  0.00     0.050 C 
HETATM   19  C31 UNL     1     -10.415  11.121  15.415  1.00  0.00     0.125 C 
HETATM   20  C32 UNL     1     -11.627  11.375  16.298  1.00  0.00     0.033 C 
HETATM   21  C33 UNL     1     -12.810  10.449  15.991  1.00  0.00     0.023 C 
HETATM   22  C34 UNL     1     -12.911   9.973  14.513  1.00  0.00     0.051 C 
HETATM   23  C36 UNL     1     -11.546   9.265  14.060  1.00  0.00     0.082 C 
HETATM   24  C37 UNL     1     -17.757   6.696  13.746  1.00  0.00     0.036 C 
HETATM   25  C38 UNL     1     -19.144   6.356  13.308  1.00  0.00    -0.035 C 
HETATM   26  C39 UNL     1     -19.906   6.696  12.277  1.00  0.00     0.088 C 
HETATM   27  C40 UNL     1     -21.053   5.787  12.306  1.00  0.00     0.284 C 
HETATM   28  O7  UNL     1     -21.978   5.830  11.508  1.00  0.00    -0.260 OA
HETATM   29  O8  UNL     1     -20.911   4.887  13.318  1.00  0.00    -0.304 OA
HETATM   30  C41 UNL     1     -19.790   5.265  14.104  1.00  0.00     0.192 C 
ENDROOT
BRANCH   1  31
HETATM   31  C5  UNL     1     -19.417   2.926  15.115  1.00  0.00     0.306 C 
BRANCH  31  32
HETATM   32  N1  UNL     1     -20.578   3.346  15.891  1.00  0.00     0.087 N 
HETATM   33  H10 UNL     1     -20.969   4.201  15.494  1.00  0.00     0.316 HD
BRANCH  32  34
HETATM   34  C4  UNL     1     -21.594   2.302  15.958  1.00  0.00     0.272 C 
BRANCH  34  35
HETATM   35  C3  UNL     1     -22.873   2.812  16.630  1.00  0.00     0.056 C 
BRANCH  35  36
HETATM   36  C2  UNL     1     -24.042   2.973  15.659  1.00  0.00     0.168 C 
BRANCH  36  37
HETATM   37  O1  UNL     1     -25.218   2.385  16.219  1.00  0.00    -0.396 OA
HETATM   38  C1  UNL     1     -25.005   1.888  17.534  1.00  0.00     0.201 C 
ENDBRANCH  36  37
ENDBRANCH  35  36
ENDBRANCH  34  35
ENDBRANCH  32  34
ENDBRANCH  31  32
ENDBRANCH   1  31
BRANCH   5  39
HETATM   39  O2  UNL     1     -15.449   6.837  11.568  1.00  0.00    -0.386 OA
HETATM   40  H17 UNL     1     -14.679   6.261  11.404  1.00  0.00     0.210 HD
ENDBRANCH   5  39
BRANCH  11  41
HETATM   41  O3  UNL     1     -14.199   9.054  12.034  1.00  0.00    -0.386 OA
HETATM   42  H26 UNL     1     -14.611   8.575  11.288  1.00  0.00     0.210 HD
ENDBRANCH  11  41
BRANCH  22  43
HETATM   43  C35 UNL     1     -13.213  11.216  13.644  1.00  0.00     0.244 C 
HETATM   44  O5  UNL     1     -13.462  12.332  14.105  1.00  0.00    -0.306 OA
ENDBRANCH  22  43
BRANCH  23  45
HETATM   45  O6  UNL     1     -11.210   9.675  12.718  1.00  0.00    -0.388 OA
HETATM   46  H58 UNL     1     -10.822  10.575  12.785  1.00  0.00     0.210 HD
ENDBRANCH  23  45
BRANCH  15  47
HETATM   47  C21 UNL     1      -8.155   5.859  13.999  1.00  0.00    -0.011 C 
HETATM   48  C22 UNL     1      -8.514   5.124  12.692  1.00  0.00     0.011 C 
BRANCH  47  49
HETATM   49  C23 UNL     1      -6.650   6.289  14.023  1.00  0.00    -0.010 C 
HETATM   50  C24 UNL     1      -5.642   5.373  13.313  1.00  0.00     0.005 C 
HETATM   51  C25 UNL     1      -4.288   5.878  13.802  1.00  0.00     0.000 C 
HETATM   52  C26 UNL     1      -4.540   6.404  15.217  1.00  0.00     0.000 C 
HETATM   53  C27 UNL     1      -6.050   6.316  15.440  1.00  0.00     0.005 C 
ENDBRANCH  47  49
ENDBRANCH  15  47
BRANCH  19  54
HETATM   54  O4  UNL     1     -10.492  11.932  14.237  1.00  0.00    -0.395 OA
HETATM   55  H52 UNL     1     -10.209  12.840  14.473  1.00  0.00     0.210 HD
ENDBRANCH  19  54
TORSDOF 13
ENDMDL
MODEL 8
REMARK minimizedAffinity -7.75039101
REMARK CNNscore 0.352203816
REMARK CNNaffinity 6.96757889
REMARK  13 active torsions:
REMARK  status: ('A' for Active; 'I' for Inactive)
REMARK    1  A    between atoms: O1_2  and  C2_3 
REMARK    2  A    between atoms: C2_3  and  C3_4 
REMARK    3  A    between atoms: C3_4  and  C4_5 
REMARK    4  A    between atoms: C4_5  and  N1_6 
REMARK    5  A    between atoms: N1_6  and  C5_7 
REMARK    6  A    between atoms: C5_7  and  C6_8 
REMARK    7  A    between atoms: C10_12  and  O2_13 
REMARK    8  A    between atoms: C16_19  and  O3_20 
REMARK    9  A    between atoms: C20_24  and  C21_25 
REMARK   10  A    between atoms: C21_25  and  C23_27 
REMARK   11  A    between atoms: C31_35  and  O4_36 
REMARK   12  A    between atoms: C34_39  and  C35_40 
REMARK   13  A    between atoms: C36_42  and  O6_43 
ROOT
HETATM    1  C6  UNL     1      -4.980  14.203  21.160  1.00  0.00    -0.022 C 
HETATM    2  C7  UNL     1      -5.296  13.381  20.129  1.00  0.00    -0.014 C 
HETATM    3  C8  UNL     1      -4.488  13.398  18.856  1.00  0.00     0.021 C 
HETATM    4  C9  UNL     1      -4.340  12.123  18.021  1.00  0.00     0.051 C 
HETATM    5  C10 UNL     1      -3.329  12.587  16.945  1.00  0.00     0.098 C 
HETATM    6  C11 UNL     1      -2.252  13.371  17.795  1.00  0.00    -0.002 C 
HETATM    7  C12 UNL     1      -1.626  14.548  17.037  1.00  0.00     0.019 C 
HETATM    8  C13 UNL     1      -1.121  12.404  18.257  1.00  0.00     0.013 C 
HETATM    9  C14 UNL     1      -0.547  11.536  17.150  1.00  0.00     0.010 C 
HETATM   10  C15 UNL     1      -1.633  10.632  16.524  1.00  0.00     0.041 C 
HETATM   11  C16 UNL     1      -2.760  11.508  15.953  1.00  0.00     0.095 C 
HETATM   12  C17 UNL     1      -3.883  10.654  15.329  1.00  0.00     0.049 C 
HETATM   13  C18 UNL     1      -3.568   9.143  15.162  1.00  0.00     0.025 C 
HETATM   14  C19 UNL     1      -4.764   8.536  14.383  1.00  0.00     0.012 C 
HETATM   15  C20 UNL     1      -4.762   7.051  13.948  1.00  0.00    -0.010 C 
HETATM   16  C28 UNL     1      -4.032   6.127  14.940  1.00  0.00     0.005 C 
HETATM   17  C29 UNL     1      -2.555   6.423  15.230  1.00  0.00     0.010 C 
HETATM   18  C30 UNL     1      -1.882   7.399  14.255  1.00  0.00     0.050 C 
HETATM   19  C31 UNL     1      -0.380   7.122  14.132  1.00  0.00     0.125 C 
HETATM   20  C32 UNL     1       0.392   7.419  15.408  1.00  0.00     0.033 C 
HETATM   21  C33 UNL     1      -0.242   8.526  16.260  1.00  0.00     0.023 C 
HETATM   22  C34 UNL     1      -1.029   9.606  15.462  1.00  0.00     0.051 C 
HETATM   23  C36 UNL     1      -2.157   8.917  14.554  1.00  0.00     0.082 C 
HETATM   24  C37 UNL     1      -3.021  13.796  19.106  1.00  0.00     0.036 C 
HETATM   25  C38 UNL     1      -3.087  15.127  19.783  1.00  0.00    -0.035 C 
HETATM   26  C39 UNL     1      -2.830  16.374  19.414  1.00  0.00     0.088 C 
HETATM   27  C40 UNL     1      -3.374  17.228  20.471  1.00  0.00     0.284 C 
HETATM   28  O7  UNL     1      -3.292  18.447  20.472  1.00  0.00    -0.260 OA
HETATM   29  O8  UNL     1      -3.997  16.467  21.413  1.00  0.00    -0.304 OA
HETATM   30  C41 UNL     1      -3.740  15.099  21.131  1.00  0.00     0.192 C 
ENDROOT
BRANCH   1  31
HETATM   31  C5  UNL     1      -5.766  14.205  22.444  1.00  0.00     0.306 C 
BRANCH  31  32
HETATM   32  N1  UNL     1      -6.677  13.066  22.457  1.00  0.00     0.087 N 
HETATM   33  H10 UNL     1      -6.424  12.430  23.214  1.00  0.00     0.316 HD
BRANCH  32  34
HETATM   34  C4  UNL     1      -8.069  13.484  22.584  1.00  0.00     0.272 C 
BRANCH  34  35
HETATM   35  C3  UNL     1      -8.797  12.672  23.659  1.00  0.00     0.056 C 
BRANCH  35  36
HETATM   36  C2  UNL     1     -10.130  13.288  24.083  1.00  0.00     0.168 C 
BRANCH  36  37
HETATM   37  O1  UNL     1      -9.968  14.693  24.288  1.00  0.00    -0.396 OA
HETATM   38  C1  UNL     1     -11.189  15.338  24.626  1.00  0.00     0.201 C 
ENDBRANCH  36  37
ENDBRANCH  35  36
ENDBRANCH  34  35
ENDBRANCH  32  34
ENDBRANCH  31  32
ENDBRANCH   1  31
BRANCH   5  39
HETATM   39  O2  UNL     1      -4.032  13.545  16.106  1.00  0.00    -0.386 OA
HETATM   40  H17 UNL     1      -4.809  13.100  15.720  1.00  0.00     0.210 HD
ENDBRANCH   5  39
BRANCH  11  41
HETATM   41  O3  UNL     1      -2.171  12.249  14.860  1.00  0.00    -0.386 OA
HETATM   42  H26 UNL     1      -2.697  13.067  14.767  1.00  0.00     0.210 HD
ENDBRANCH  11  41
BRANCH  22  43
HETATM   43  C35 UNL     1      -0.008  10.380  14.597  1.00  0.00     0.244 C 
HETATM   44  O5  UNL     1       0.922  11.044  15.060  1.00  0.00    -0.306 OA
ENDBRANCH  22  43
BRANCH  23  45
HETATM   45  O6  UNL     1      -2.196   9.559  13.262  1.00  0.00    -0.388 OA
HETATM   46  H58 UNL     1      -1.440   9.203  12.746  1.00  0.00     0.210 HD
ENDBRANCH  23  45
BRANCH  15  47
HETATM   47  C21 UNL     1      -6.229   6.537  13.632  1.00  0.00    -0.011 C 
HETATM   48  C22 UNL     1      -6.305   4.997  13.690  1.00  0.00     0.011 C 
BRANCH  47  49
HETATM   49  C23 UNL     1      -7.280   7.200  14.584  1.00  0.00    -0.010 C 
HETATM   50  C24 UNL     1      -7.265   6.775  16.060  1.00  0.00     0.005 C 
HETATM   51  C25 UNL     1      -8.579   7.324  16.608  1.00  0.00     0.000 C 
HETATM   52  C26 UNL     1      -9.554   7.290  15.429  1.00  0.00     0.000 C 
HETATM   53  C27 UNL     1      -8.734   6.859  14.213  1.00  0.00     0.005 C 
ENDBRANCH  47  49
ENDBRANCH  15  47
BRANCH  19  54
HETATM   54  O4  UNL     1       0.103   7.948  13.067  1.00  0.00    -0.395 OA
HETATM   55  H52 UNL     1       0.935   7.556  12.730  1.00  0.00     0.210 HD
ENDBRANCH  19  54
TORSDOF 13
ENDMDL
MODEL 9
REMARK minimizedAffinity -8.73176003
REMARK CNNscore 0.326492101
REMARK CNNaffinity 6.97856712
REMARK  13 active torsions:
REMARK  status: ('A' for Active; 'I' for Inactive)
REMARK    1  A    between atoms: O1_2  and  C2_3 
REMARK    2  A    between atoms: C2_3  and  C3_4 
REMARK    3  A    between atoms: C3_4  and  C4_5 
REMARK    4  A    between atoms: C4_5  and  N1_6 
REMARK    5  A    between atoms: N1_6  and  C5_7 
REMARK    6  A    between atoms: C5_7  and  C6_8 
REMARK    7  A    between atoms: C10_12  and  O2_13 
REMARK    8  A    between atoms: C16_19  and  O3_20 
REMARK    9  A    between atoms: C20_24  and  C21_25 
REMARK   10  A    between atoms: C21_25  and  C23_27 
REMARK   11  A    between atoms: C31_35  and  O4_36 
REMARK   12  A    between atoms: C34_39  and  C35_40 
REMARK   13  A    between atoms: C36_42  and  O6_43 
ROOT
HETATM    1  C6  UNL     1      -4.403   7.484  14.474  1.00  0.00    -0.022 C 
HETATM    2  C7  UNL     1      -3.482   7.938  15.360  1.00  0.00    -0.014 C 
HETATM    3  C8  UNL     1      -2.025   7.580  15.208  1.00  0.00     0.021 C 
HETATM    4  C9  UNL     1      -0.940   8.549  15.685  1.00  0.00     0.051 C 
HETATM    5  C10 UNL     1       0.338   7.835  15.184  1.00  0.00     0.098 C 
HETATM    6  C11 UNL     1      -0.058   7.402  13.716  1.00  0.00    -0.002 C 
HETATM    7  C12 UNL     1       0.596   6.086  13.280  1.00  0.00     0.019 C 
HETATM    8  C13 UNL     1       0.324   8.522  12.702  1.00  0.00     0.013 C 
HETATM    9  C14 UNL     1       1.743   9.043  12.849  1.00  0.00     0.010 C 
HETATM   10  C15 UNL     1       1.975   9.658  14.247  1.00  0.00     0.041 C 
HETATM   11  C16 UNL     1       1.709   8.593  15.324  1.00  0.00     0.095 C 
HETATM   12  C17 UNL     1       1.909   9.159  16.745  1.00  0.00     0.049 C 
HETATM   13  C18 UNL     1       2.566  10.562  16.826  1.00  0.00     0.025 C 
HETATM   14  C19 UNL     1       2.803  10.843  18.333  1.00  0.00     0.012 C 
HETATM   15  C20 UNL     1       3.531  12.124  18.802  1.00  0.00    -0.010 C 
HETATM   16  C28 UNL     1       3.263  13.342  17.898  1.00  0.00     0.005 C 
HETATM   17  C29 UNL     1       3.650  13.225  16.418  1.00  0.00     0.010 C 
HETATM   18  C30 UNL     1       4.557  12.037  16.073  1.00  0.00     0.050 C 
HETATM   19  C31 UNL     1       5.443  12.342  14.860  1.00  0.00     0.125 C 
HETATM   20  C32 UNL     1       4.659  12.485  13.565  1.00  0.00     0.033 C 
HETATM   21  C33 UNL     1       3.369  11.656  13.538  1.00  0.00     0.023 C 
HETATM   22  C34 UNL     1       3.409  10.345  14.377  1.00  0.00     0.051 C 
HETATM   23  C36 UNL     1       3.806  10.668  15.897  1.00  0.00     0.082 C 
HETATM   24  C37 UNL     1      -1.636   7.354  13.734  1.00  0.00     0.036 C 
HETATM   25  C38 UNL     1      -2.561   6.288  13.245  1.00  0.00    -0.035 C 
HETATM   26  C39 UNL     1      -2.430   5.003  12.947  1.00  0.00     0.088 C 
HETATM   27  C40 UNL     1      -3.788   4.480  12.798  1.00  0.00     0.284 C 
HETATM   28  O7  UNL     1      -4.046   3.325  12.497  1.00  0.00    -0.260 OA
HETATM   29  O8  UNL     1      -4.697   5.457  13.074  1.00  0.00    -0.304 OA
HETATM   30  C41 UNL     1      -4.005   6.687  13.229  1.00  0.00     0.192 C 
ENDROOT
BRANCH   1  31
HETATM   31  C5  UNL     1      -5.863   7.828  14.598  1.00  0.00     0.306 C 
BRANCH  31  32
HETATM   32  N1  UNL     1      -6.643   6.956  13.728  1.00  0.00     0.087 N 
HETATM   33  H10 UNL     1      -6.064   6.179  13.407  1.00  0.00     0.316 HD
BRANCH  32  34
HETATM   34  C4  UNL     1      -7.844   6.459  14.391  1.00  0.00     0.272 C 
BRANCH  34  35
HETATM   35  C3  UNL     1      -7.847   4.928  14.460  1.00  0.00     0.056 C 
BRANCH  35  36
HETATM   36  C2  UNL     1      -7.850   4.262  13.084  1.00  0.00     0.168 C 
BRANCH  36  37
HETATM   37  O1  UNL     1      -8.165   2.874  13.222  1.00  0.00    -0.396 OA
HETATM   38  C1  UNL     1      -7.316   2.043  12.439  1.00  0.00     0.201 C 
ENDBRANCH  36  37
ENDBRANCH  35  36
ENDBRANCH  34  35
ENDBRANCH  32  34
ENDBRANCH  31  32
ENDBRANCH   1  31
BRANCH   5  39
HETATM   39  O2  UNL     1       0.481   6.633  15.990  1.00  0.00    -0.386 OA
HETATM   40  H17 UNL     1       0.545   6.900  16.926  1.00  0.00     0.210 HD
ENDBRANCH   5  39
BRANCH  11  41
HETATM   41  O3  UNL     1       2.734   7.589  15.148  1.00  0.00    -0.386 OA
HETATM   42  H26 UNL     1       2.364   6.754  15.497  1.00  0.00     0.210 HD
ENDBRANCH  11  41
BRANCH  22  43
HETATM   43  C35 UNL     1       4.438   9.401  13.716  1.00  0.00     0.244 C 
HETATM   44  O5  UNL     1       4.973   9.621  12.628  1.00  0.00    -0.306 OA
ENDBRANCH  22  43
BRANCH  23  45
HETATM   45  O6  UNL     1       4.724   9.664  16.379  1.00  0.00    -0.388 OA
HETATM   46  H58 UNL     1       5.607   9.887  16.010  1.00  0.00     0.210 HD
ENDBRANCH  23  45
BRANCH  15  47
HETATM   47  C21 UNL     1       3.224  12.442  20.326  1.00  0.00    -0.011 C 
HETATM   48  C22 UNL     1       1.927  11.749  20.789  1.00  0.00     0.011 C 
BRANCH  47  49
HETATM   49  C23 UNL     1       4.437  12.063  21.240  1.00  0.00    -0.010 C 
HETATM   50  C24 UNL     1       4.504  12.712  22.630  1.00  0.00     0.005 C 
HETATM   51  C25 UNL     1       5.924  12.412  23.102  1.00  0.00     0.000 C 
HETATM   52  C26 UNL     1       6.772  12.370  21.829  1.00  0.00     0.000 C 
HETATM   53  C27 UNL     1       5.793  12.506  20.662  1.00  0.00     0.005 C 
ENDBRANCH  47  49
ENDBRANCH  15  47
BRANCH  19  54
HETATM   54  O4  UNL     1       6.374  11.260  14.750  1.00  0.00    -0.395 OA
HETATM   55  H52 UNL     1       7.149  11.575  14.241  1.00  0.00     0.210 HD
ENDBRANCH  19  54
TORSDOF 13
ENDMDL
