MODEL 1
REMARK minimizedAffinity -7.68191814
REMARK CNNscore 0.414895296
REMARK CNNaffinity 6.15418482
REMARK  9 active torsions:
REMARK  status: ('A' for Active; 'I' for Inactive)
REMARK    1  A    between atoms: C7_8  and  O1_9 
REMARK    2  A    between atoms: O1_9  and  C8_10 
REMARK    3  A    between atoms: C8_10  and  C9_11 
REMARK       I    between atoms: C9_11  and  N1_13 
REMARK    4  A    between atoms: N1_13  and  N2_14 
REMARK    5  A    between atoms: C10_16  and  C11_17 
REMARK    6  A    between atoms: C14_20  and  O3_21 
REMARK    7  A    between atoms: C16_23  and  O4_24 
REMARK    8  A    between atoms: C25_33  and  C26_34 
REMARK    9  A    between atoms: C32_42  and  O7_43 
ROOT
HETATM    1  C11 UNL     1     -11.395  46.400 -27.432  1.00  0.00     0.028 C 
HETATM    2  C12 UNL     1     -11.268  47.811 -26.774  1.00  0.00     0.021 C 
HETATM    3  C13 UNL     1      -9.856  48.412 -26.814  1.00  0.00     0.033 C 
HETATM    4  C14 UNL     1      -8.977  47.854 -27.925  1.00  0.00     0.121 C 
HETATM    5  C15 UNL     1      -8.870  46.320 -27.900  1.00  0.00     0.070 C 
HETATM    6  C16 UNL     1     -10.060  45.628 -27.195  1.00  0.00     0.073 C 
HETATM    7  C17 UNL     1     -10.140  44.147 -27.604  1.00  0.00     0.039 C 
HETATM    8  C18 UNL     1     -11.331  43.421 -26.973  1.00  0.00     0.011 C 
HETATM    9  C19 UNL     1     -12.669  44.136 -27.251  1.00  0.00     0.026 C 
HETATM   10  C20 UNL     1     -12.613  45.624 -26.809  1.00  0.00     0.009 C 
HETATM   11  C21 UNL     1     -13.971  46.339 -26.999  1.00  0.00     0.007 C 
HETATM   12  C22 UNL     1     -15.031  45.483 -27.682  1.00  0.00     0.013 C 
HETATM   13  C23 UNL     1     -15.259  44.068 -27.087  1.00  0.00    -0.005 C 
HETATM   14  C24 UNL     1     -15.999  43.259 -28.183  1.00  0.00     0.019 C 
HETATM   15  C25 UNL     1     -16.111  44.022 -25.776  1.00  0.00     0.028 C 
HETATM   16  C30 UNL     1     -15.102  44.202 -24.648  1.00  0.00     0.013 C 
HETATM   17  C31 UNL     1     -13.916  43.362 -25.097  1.00  0.00     0.040 C 
HETATM   18  C32 UNL     1     -13.900  43.400 -26.647  1.00  0.00     0.070 C 
ENDROOT
BRANCH   1  19
HETATM   19  C10 UNL     1     -11.653  46.510 -28.948  1.00  0.00     0.093 C 
HETATM   20  N2  UNL     1     -11.469  45.509 -29.746  1.00  0.00    -0.312 N 
ATOM     21  H2  UNL     1     -11.168  44.598 -29.401  1.00  0.00     0.185 HD
BRANCH  20  22
HETATM   22  N1  UNL     1     -11.698  45.732 -31.070  1.00  0.00    -0.269 N 
HETATM   23  C9  UNL     1     -10.608  45.921 -31.921  1.00  0.00     0.260 C 
HETATM   24  O2  UNL     1      -9.433  45.908 -31.565  1.00  0.00    -0.269 OA
HETATM   25  H9  UNL     1     -12.648  45.859 -31.405  1.00  0.00     0.190 HD
BRANCH  23  26
HETATM   26  C8  UNL     1     -11.039  46.167 -33.374  1.00  0.00     0.280 C 
BRANCH  26  27
HETATM   27  O1  UNL     1     -10.351  45.439 -34.375  1.00  0.00    -0.342 OA
BRANCH  27  28
HETATM   28  C7  UNL     1      -9.650  46.134 -35.325  1.00  0.00     0.075 A 
HETATM   29  C2  UNL     1     -10.105  45.976 -36.649  1.00  0.00    -0.027 A 
HETATM   30  C1  UNL     1     -11.296  45.109 -36.956  1.00  0.00     0.051 C 
HETATM   31  C3  UNL     1      -9.439  46.635 -37.696  1.00  0.00     0.033 A 
HETATM   32  C4  UNL     1      -8.339  47.445 -37.427  1.00  0.00     0.034 A 
HETATM   33 CL1  UNL     1      -7.527  48.247 -38.714  1.00  0.00    -0.084 Cl
HETATM   34  C5  UNL     1      -7.890  47.605 -36.119  1.00  0.00     0.026 A 
HETATM   35  C6  UNL     1      -8.543  46.950 -35.069  1.00  0.00     0.039 A 
ENDBRANCH  27  28
ENDBRANCH  26  27
ENDBRANCH  23  26
ENDBRANCH  20  22
ENDBRANCH   1  19
BRANCH   6  36
HETATM   36  O4  UNL     1      -9.721  45.638 -25.794  1.00  0.00    -0.389 OA
HETATM   37  H19 UNL     1     -10.453  45.289 -25.262  1.00  0.00     0.210 HD
ENDBRANCH   6  36
BRANCH   4  38
HETATM   38  O3  UNL     1      -7.676  48.428 -27.818  1.00  0.00    -0.395 OA
HETATM   39  H16 UNL     1      -7.152  48.124 -28.577  1.00  0.00     0.210 HD
ENDBRANCH   4  38
BRANCH  18  40
HETATM   40  O7  UNL     1     -13.875  42.044 -27.107  1.00  0.00    -0.389 OA
HETATM   41  H41 UNL     1     -13.204  41.549 -26.608  1.00  0.00     0.210 HD
ENDBRANCH  18  40
BRANCH  15  42
HETATM   42  C26 UNL     1     -17.329  44.893 -25.678  1.00  0.00    -0.045 A 
HETATM   43  C27 UNL     1     -17.431  45.989 -24.925  1.00  0.00     0.087 A 
HETATM   44  C28 UNL     1     -18.755  46.559 -25.159  1.00  0.00     0.283 A 
HETATM   45  O5  UNL     1     -19.181  47.567 -24.626  1.00  0.00    -0.260 OA
HETATM   46  O6  UNL     1     -19.415  45.789 -26.063  1.00  0.00    -0.314 OA
HETATM   47  C29 UNL     1     -18.574  44.704 -26.460  1.00  0.00     0.213 A 
ENDBRANCH  15  42
TORSDOF 9
ENDMDL
MODEL 2
REMARK minimizedAffinity -9.39114666
REMARK CNNscore 0.411856174
REMARK CNNaffinity 7.24898529
REMARK  9 active torsions:
REMARK  status: ('A' for Active; 'I' for Inactive)
REMARK    1  A    between atoms: C7_8  and  O1_9 
REMARK    2  A    between atoms: O1_9  and  C8_10 
REMARK    3  A    between atoms: C8_10  and  C9_11 
REMARK       I    between atoms: C9_11  and  N1_13 
REMARK    4  A    between atoms: N1_13  and  N2_14 
REMARK    5  A    between atoms: C10_16  and  C11_17 
REMARK    6  A    between atoms: C14_20  and  O3_21 
REMARK    7  A    between atoms: C16_23  and  O4_24 
REMARK    8  A    between atoms: C25_33  and  C26_34 
REMARK    9  A    between atoms: C32_42  and  O7_43 
ROOT
HETATM    1  C11 UNL     1      -0.303  51.510 -12.052  1.00  0.00     0.028 C 
HETATM    2  C12 UNL     1      -0.012  49.977 -12.108  1.00  0.00     0.021 C 
HETATM    3  C13 UNL     1      -1.180  49.122 -12.620  1.00  0.00     0.033 C 
HETATM    4  C14 UNL     1      -2.168  49.885 -13.493  1.00  0.00     0.121 C 
HETATM    5  C15 UNL     1      -2.729  51.145 -12.814  1.00  0.00     0.070 C 
HETATM    6  C16 UNL     1      -1.811  51.711 -11.705  1.00  0.00     0.073 C 
HETATM    7  C17 UNL     1      -2.170  53.176 -11.405  1.00  0.00     0.039 C 
HETATM    8  C18 UNL     1      -1.260  53.806 -10.348  1.00  0.00     0.011 C 
HETATM    9  C19 UNL     1       0.234  53.674 -10.705  1.00  0.00     0.026 C 
HETATM   10  C20 UNL     1       0.619  52.193 -10.975  1.00  0.00     0.009 C 
HETATM   11  C21 UNL     1       2.131  52.025 -11.251  1.00  0.00     0.007 C 
HETATM   12  C22 UNL     1       2.897  53.341 -11.320  1.00  0.00     0.013 C 
HETATM   13  C23 UNL     1       2.683  54.322 -10.137  1.00  0.00    -0.005 C 
HETATM   14  C24 UNL     1       3.165  55.707 -10.641  1.00  0.00     0.019 C 
HETATM   15  C25 UNL     1       3.462  53.973  -8.827  1.00  0.00     0.028 C 
HETATM   16  C30 UNL     1       2.537  53.036  -8.060  1.00  0.00     0.013 C 
HETATM   17  C31 UNL     1       1.160  53.651  -8.268  1.00  0.00     0.040 C 
HETATM   18  C32 UNL     1       1.180  54.334  -9.661  1.00  0.00     0.070 C 
ENDROOT
BRANCH   1  19
HETATM   19  C10 UNL     1      -0.001  52.188 -13.403  1.00  0.00     0.093 C 
HETATM   20  N2  UNL     1       0.888  51.721 -14.218  1.00  0.00    -0.312 N 
ATOM     21  H2  UNL     1       1.411  50.870 -14.009  1.00  0.00     0.185 HD
BRANCH  20  22
HETATM   22  N1  UNL     1       1.092  52.421 -15.369  1.00  0.00    -0.269 N 
HETATM   23  C9  UNL     1       0.961  51.762 -16.592  1.00  0.00     0.260 C 
HETATM   24  O2  UNL     1       0.676  50.574 -16.719  1.00  0.00    -0.269 OA
HETATM   25  H9  UNL     1       1.432  53.376 -15.326  1.00  0.00     0.190 HD
BRANCH  23  26
HETATM   26  C8  UNL     1       1.231  52.689 -17.785  1.00  0.00     0.280 C 
BRANCH  26  27
HETATM   27  O1  UNL     1       0.126  52.996 -18.616  1.00  0.00    -0.342 OA
BRANCH  27  28
HETATM   28  C7  UNL     1       0.321  53.046 -19.972  1.00  0.00     0.075 A 
HETATM   29  C2  UNL     1      -0.322  52.035 -20.714  1.00  0.00    -0.027 A 
HETATM   30  C1  UNL     1      -1.172  51.001 -20.029  1.00  0.00     0.051 C 
HETATM   31  C3  UNL     1      -0.166  51.992 -22.109  1.00  0.00     0.033 A 
HETATM   32  C4  UNL     1       0.613  52.946 -22.757  1.00  0.00     0.034 A 
HETATM   33 CL1  UNL     1       0.801  52.886 -24.466  1.00  0.00    -0.084 Cl
HETATM   34  C5  UNL     1       1.247  53.948 -22.027  1.00  0.00     0.026 A 
HETATM   35  C6  UNL     1       1.103  53.998 -20.636  1.00  0.00     0.039 A 
ENDBRANCH  27  28
ENDBRANCH  26  27
ENDBRANCH  23  26
ENDBRANCH  20  22
ENDBRANCH   1  19
BRANCH   6  36
HETATM   36  O4  UNL     1      -2.153  50.965 -10.521  1.00  0.00    -0.389 OA
HETATM   37  H19 UNL     1      -1.566  51.202  -9.785  1.00  0.00     0.210 HD
ENDBRANCH   6  36
BRANCH   4  38
HETATM   38  O3  UNL     1      -3.240  49.013 -13.848  1.00  0.00    -0.395 OA
HETATM   39  H16 UNL     1      -3.819  49.488 -14.465  1.00  0.00     0.210 HD
ENDBRANCH   4  38
BRANCH  18  40
HETATM   40  O7  UNL     1       0.759  55.691  -9.477  1.00  0.00    -0.389 OA
HETATM   41  H41 UNL     1      -0.037  55.705  -8.919  1.00  0.00     0.210 HD
ENDBRANCH  18  40
BRANCH  15  42
HETATM   42  C26 UNL     1       4.883  53.502  -8.938  1.00  0.00    -0.045 A 
HETATM   43  C27 UNL     1       5.293  52.246  -8.759  1.00  0.00     0.087 A 
HETATM   44  C28 UNL     1       6.732  52.216  -9.006  1.00  0.00     0.283 A 
HETATM   45  O5  UNL     1       7.429  51.221  -8.928  1.00  0.00    -0.260 OA
HETATM   46  O6  UNL     1       7.150  53.464  -9.342  1.00  0.00    -0.314 OA
HETATM   47  C29 UNL     1       6.031  54.353  -9.335  1.00  0.00     0.213 A 
ENDBRANCH  15  42
TORSDOF 9
ENDMDL
MODEL 3
REMARK minimizedAffinity -9.3158989
REMARK CNNscore 0.27009061
REMARK CNNaffinity 6.82509661
REMARK  9 active torsions:
REMARK  status: ('A' for Active; 'I' for Inactive)
REMARK    1  A    between atoms: C7_8  and  O1_9 
REMARK    2  A    between atoms: O1_9  and  C8_10 
REMARK    3  A    between atoms: C8_10  and  C9_11 
REMARK       I    between atoms: C9_11  and  N1_13 
REMARK    4  A    between atoms: N1_13  and  N2_14 
REMARK    5  A    between atoms: C10_16  and  C11_17 
REMARK    6  A    between atoms: C14_20  and  O3_21 
REMARK    7  A    between atoms: C16_23  and  O4_24 
REMARK    8  A    between atoms: C25_33  and  C26_34 
REMARK    9  A    between atoms: C32_42  and  O7_43 
ROOT
HETATM    1  C11 UNL     1      -0.461  52.918 -10.275  1.00  0.00     0.028 C 
HETATM    2  C12 UNL     1      -0.874  51.443  -9.971  1.00  0.00     0.021 C 
HETATM    3  C13 UNL     1      -2.382  51.168 -10.063  1.00  0.00     0.033 C 
HETATM    4  C14 UNL     1      -3.137  52.152 -10.947  1.00  0.00     0.121 C 
HETATM    5  C15 UNL     1      -2.917  53.620 -10.545  1.00  0.00     0.070 C 
HETATM    6  C16 UNL     1      -1.599  53.859  -9.772  1.00  0.00     0.073 C 
HETATM    7  C17 UNL     1      -1.213  55.348  -9.815  1.00  0.00     0.039 C 
HETATM    8  C18 UNL     1       0.113  55.637  -9.106  1.00  0.00     0.011 C 
HETATM    9  C19 UNL     1       1.265  54.760  -9.635  1.00  0.00     0.026 C 
HETATM   10  C20 UNL     1       0.902  53.252  -9.564  1.00  0.00     0.009 C 
HETATM   11  C21 UNL     1       2.076  52.348 -10.009  1.00  0.00     0.007 C 
HETATM   12  C22 UNL     1       3.284  53.117 -10.532  1.00  0.00     0.013 C 
HETATM   13  C23 UNL     1       3.813  54.262  -9.628  1.00  0.00    -0.005 C 
HETATM   14  C24 UNL     1       4.694  55.152 -10.542  1.00  0.00     0.019 C 
HETATM   15  C25 UNL     1       4.673  53.806  -8.404  1.00  0.00     0.028 C 
HETATM   16  C30 UNL     1       3.663  53.556  -7.289  1.00  0.00     0.013 C 
HETATM   17  C31 UNL     1       2.675  54.703  -7.444  1.00  0.00     0.040 C 
HETATM   18  C32 UNL     1       2.631  55.058  -8.953  1.00  0.00     0.070 C 
ENDROOT
BRANCH   1  19
HETATM   19  C10 UNL     1      -0.251  53.142 -11.786  1.00  0.00     0.093 C 
HETATM   20  N2  UNL     1       0.126  52.188 -12.572  1.00  0.00    -0.312 N 
ATOM     21  H2  UNL     1       0.280  51.240 -12.228  1.00  0.00     0.185 HD
BRANCH  20  22
HETATM   22  N1  UNL     1       0.310  52.510 -13.883  1.00  0.00    -0.269 N 
HETATM   23  C9  UNL     1       0.993  51.616 -14.709  1.00  0.00     0.260 C 
HETATM   24  O2  UNL     1       1.457  50.540 -14.341  1.00  0.00    -0.269 OA
HETATM   25  H9  UNL     1       0.043  53.429 -14.220  1.00  0.00     0.190 HD
BRANCH  23  26
HETATM   26  C8  UNL     1       1.120  52.133 -16.148  1.00  0.00     0.280 C 
BRANCH  26  27
HETATM   27  O1  UNL     1       0.157  51.670 -17.079  1.00  0.00    -0.342 OA
BRANCH  27  28
HETATM   28  C7  UNL     1       0.306  52.009 -18.398  1.00  0.00     0.075 A 
HETATM   29  C2  UNL     1      -0.187  51.069 -19.324  1.00  0.00    -0.027 A 
HETATM   30  C1  UNL     1      -0.844  49.799 -18.856  1.00  0.00     0.051 C 
HETATM   31  C3  UNL     1      -0.063  51.319 -20.701  1.00  0.00     0.033 A 
HETATM   32  C4  UNL     1       0.538  52.492 -21.149  1.00  0.00     0.034 A 
HETATM   33 CL1  UNL     1       0.688  52.790 -22.836  1.00  0.00    -0.084 Cl
HETATM   34  C5  UNL     1       1.023  53.424 -20.236  1.00  0.00     0.026 A 
HETATM   35  C6  UNL     1       0.909  53.183 -18.862  1.00  0.00     0.039 A 
ENDBRANCH  27  28
ENDBRANCH  26  27
ENDBRANCH  23  26
ENDBRANCH  20  22
ENDBRANCH   1  19
BRANCH   6  36
HETATM   36  O4  UNL     1      -1.914  53.567  -8.396  1.00  0.00    -0.389 OA
HETATM   37  H19 UNL     1      -1.118  53.617  -7.844  1.00  0.00     0.210 HD
ENDBRANCH   6  36
BRANCH   4  38
HETATM   38  O3  UNL     1      -4.528  51.843 -10.898  1.00  0.00    -0.395 OA
HETATM   39  H16 UNL     1      -4.986  52.427 -11.524  1.00  0.00     0.210 HD
ENDBRANCH   4  38
BRANCH  18  40
HETATM   40  O7  UNL     1       2.888  56.462  -9.068  1.00  0.00    -0.389 OA
HETATM   41  H41 UNL     1       2.343  56.941  -8.422  1.00  0.00     0.210 HD
ENDBRANCH  18  40
BRANCH  15  42
HETATM   42  C26 UNL     1       5.680  52.711  -8.599  1.00  0.00    -0.045 A 
HETATM   43  C27 UNL     1       5.810  51.974  -9.703  1.00  0.00     0.087 A 
HETATM   44  C28 UNL     1       6.933  51.065  -9.492  1.00  0.00     0.283 A 
HETATM   45  O5  UNL     1       7.327  50.247 -10.303  1.00  0.00    -0.260 OA
HETATM   46  O6  UNL     1       7.460  51.290  -8.259  1.00  0.00    -0.314 OA
HETATM   47  C29 UNL     1       6.728  52.336  -7.619  1.00  0.00     0.213 A 
ENDBRANCH  15  42
TORSDOF 9
ENDMDL
MODEL 4
REMARK minimizedAffinity -8.65523529
REMARK CNNscore 0.197773471
REMARK CNNaffinity 6.23208284
REMARK  9 active torsions:
REMARK  status: ('A' for Active; 'I' for Inactive)
REMARK    1  A    between atoms: C7_8  and  O1_9 
REMARK    2  A    between atoms: O1_9  and  C8_10 
REMARK    3  A    between atoms: C8_10  and  C9_11 
REMARK       I    between atoms: C9_11  and  N1_13 
REMARK    4  A    between atoms: N1_13  and  N2_14 
REMARK    5  A    between atoms: C10_16  and  C11_17 
REMARK    6  A    between atoms: C14_20  and  O3_21 
REMARK    7  A    between atoms: C16_23  and  O4_24 
REMARK    8  A    between atoms: C25_33  and  C26_34 
REMARK    9  A    between atoms: C32_42  and  O7_43 
ROOT
HETATM    1  C11 UNL     1      -2.162  49.925 -11.954  1.00  0.00     0.028 C 
HETATM    2  C12 UNL     1      -3.693  49.992 -12.253  1.00  0.00     0.021 C 
HETATM    3  C13 UNL     1      -4.590  49.478 -11.117  1.00  0.00     0.033 C 
HETATM    4  C14 UNL     1      -3.937  49.527  -9.742  1.00  0.00     0.121 C 
HETATM    5  C15 UNL     1      -2.587  48.794  -9.687  1.00  0.00     0.070 C 
HETATM    6  C16 UNL     1      -1.890  48.674 -11.063  1.00  0.00     0.073 C 
HETATM    7  C17 UNL     1      -0.392  48.375 -10.883  1.00  0.00     0.039 C 
HETATM    8  C18 UNL     1       0.360  48.294 -12.214  1.00  0.00     0.011 C 
HETATM    9  C19 UNL     1       0.156  49.552 -13.082  1.00  0.00     0.026 C 
HETATM   10  C20 UNL     1      -1.354  49.844 -13.301  1.00  0.00     0.009 C 
HETATM   11  C21 UNL     1      -1.583  51.051 -14.240  1.00  0.00     0.007 C 
HETATM   12  C22 UNL     1      -0.302  51.767 -14.651  1.00  0.00     0.013 C 
HETATM   13  C23 UNL     1       0.835  50.872 -15.212  1.00  0.00    -0.005 C 
HETATM   14  C24 UNL     1       2.130  51.719 -15.116  1.00  0.00     0.019 C 
HETATM   15  C25 UNL     1       0.654  50.409 -16.695  1.00  0.00     0.028 C 
HETATM   16  C30 UNL     1      -0.154  49.120 -16.606  1.00  0.00     0.013 C 
HETATM   17  C31 UNL     1       0.450  48.407 -15.405  1.00  0.00     0.040 C 
HETATM   18  C32 UNL     1       0.936  49.508 -14.427  1.00  0.00     0.070 C 
ENDROOT
BRANCH   1  19
HETATM   19  C10 UNL     1      -1.680  51.188 -11.211  1.00  0.00     0.093 C 
HETATM   20  N2  UNL     1      -2.217  52.346 -11.412  1.00  0.00    -0.312 N 
ATOM     21  H2  UNL     1      -3.000  52.468 -12.055  1.00  0.00     0.185 HD
BRANCH  20  22
HETATM   22  N1  UNL     1      -1.688  53.395 -10.723  1.00  0.00    -0.269 N 
HETATM   23  C9  UNL     1      -0.391  53.815 -11.024  1.00  0.00     0.260 C 
HETATM   24  O2  UNL     1       0.330  53.300 -11.875  1.00  0.00    -0.269 OA
HETATM   25  H9  UNL     1      -2.194  53.792  -9.939  1.00  0.00     0.190 HD
BRANCH  23  26
HETATM   26  C8  UNL     1       0.054  54.999 -10.155  1.00  0.00     0.280 C 
BRANCH  26  27
HETATM   27  O1  UNL     1       1.437  55.088  -9.860  1.00  0.00    -0.342 OA
BRANCH  27  28
HETATM   28  C7  UNL     1       1.836  55.908  -8.837  1.00  0.00     0.075 A 
HETATM   29  C2  UNL     1       3.153  56.402  -8.936  1.00  0.00    -0.027 A 
HETATM   30  C1  UNL     1       4.023  56.045 -10.110  1.00  0.00     0.051 C 
HETATM   31  C3  UNL     1       3.659  57.236  -7.925  1.00  0.00     0.033 A 
HETATM   32  C4  UNL     1       2.864  57.579  -6.836  1.00  0.00     0.034 A 
HETATM   33 CL1  UNL     1       3.492  58.600  -5.602  1.00  0.00    -0.084 Cl
HETATM   34  C5  UNL     1       1.562  57.096  -6.738  1.00  0.00     0.026 A 
HETATM   35  C6  UNL     1       1.048  56.260  -7.736  1.00  0.00     0.039 A 
ENDBRANCH  27  28
ENDBRANCH  26  27
ENDBRANCH  23  26
ENDBRANCH  20  22
ENDBRANCH   1  19
BRANCH   6  36
HETATM   36  O4  UNL     1      -2.463  47.498 -11.669  1.00  0.00    -0.389 OA
HETATM   37  H19 UNL     1      -2.137  47.388 -12.576  1.00  0.00     0.210 HD
ENDBRANCH   6  36
BRANCH   4  38
HETATM   38  O3  UNL     1      -4.831  48.961  -8.786  1.00  0.00    -0.395 OA
HETATM   39  H16 UNL     1      -4.435  49.070  -7.907  1.00  0.00     0.210 HD
ENDBRANCH   4  38
BRANCH  18  40
HETATM   40  O7  UNL     1       2.312  49.239 -14.133  1.00  0.00    -0.389 OA
HETATM   41  H41 UNL     1       2.416  48.296 -13.922  1.00  0.00     0.210 HD
ENDBRANCH  18  40
BRANCH  15  42
HETATM   42  C26 UNL     1       0.149  51.401 -17.702  1.00  0.00    -0.045 A 
HETATM   43  C27 UNL     1       0.870  52.386 -18.238  1.00  0.00     0.087 A 
HETATM   44  C28 UNL     1       0.018  53.079 -19.200  1.00  0.00     0.283 A 
HETATM   45  O5  UNL     1       0.360  54.036 -19.870  1.00  0.00    -0.260 OA
HETATM   46  O6  UNL     1      -1.201  52.478 -19.225  1.00  0.00    -0.314 OA
HETATM   47  C29 UNL     1      -1.205  51.385 -18.305  1.00  0.00     0.213 A 
ENDBRANCH  15  42
TORSDOF 9
ENDMDL
MODEL 5
REMARK minimizedAffinity -7.74174786
REMARK CNNscore 0.189437777
REMARK CNNaffinity 6.26520777
REMARK  9 active torsions:
REMARK  status: ('A' for Active; 'I' for Inactive)
REMARK    1  A    between atoms: C7_8  and  O1_9 
REMARK    2  A    between atoms: O1_9  and  C8_10 
REMARK    3  A    between atoms: C8_10  and  C9_11 
REMARK       I    between atoms: C9_11  and  N1_13 
REMARK    4  A    between atoms: N1_13  and  N2_14 
REMARK    5  A    between atoms: C10_16  and  C11_17 
REMARK    6  A    between atoms: C14_20  and  O3_21 
REMARK    7  A    between atoms: C16_23  and  O4_24 
REMARK    8  A    between atoms: C25_33  and  C26_34 
REMARK    9  A    between atoms: C32_42  and  O7_43 
ROOT
HETATM    1  C11 UNL     1       2.137  53.657  -9.389  1.00  0.00     0.028 C 
HETATM    2  C12 UNL     1       0.908  53.379  -8.467  1.00  0.00     0.021 C 
HETATM    3  C13 UNL     1      -0.386  54.089  -8.894  1.00  0.00     0.033 C 
HETATM    4  C14 UNL     1      -0.432  54.456 -10.371  1.00  0.00     0.121 C 
HETATM    5  C15 UNL     1       0.775  55.296 -10.823  1.00  0.00     0.070 C 
HETATM    6  C16 UNL     1       2.024  55.117  -9.930  1.00  0.00     0.073 C 
HETATM    7  C17 UNL     1       3.288  55.584 -10.672  1.00  0.00     0.039 C 
HETATM    8  C18 UNL     1       4.565  55.384  -9.853  1.00  0.00     0.011 C 
HETATM    9  C19 UNL     1       4.727  53.930  -9.364  1.00  0.00     0.026 C 
HETATM   10  C20 UNL     1       3.472  53.458  -8.580  1.00  0.00     0.009 C 
HETATM   11  C21 UNL     1       3.646  52.033  -8.006  1.00  0.00     0.007 C 
HETATM   12  C22 UNL     1       4.944  51.352  -8.423  1.00  0.00     0.013 C 
HETATM   13  C23 UNL     1       6.246  52.168  -8.211  1.00  0.00    -0.005 C 
HETATM   14  C24 UNL     1       7.321  51.494  -9.102  1.00  0.00     0.019 C 
HETATM   15  C25 UNL     1       6.778  52.212  -6.741  1.00  0.00     0.028 C 
HETATM   16  C30 UNL     1       6.071  53.403  -6.104  1.00  0.00     0.013 C 
HETATM   17  C31 UNL     1       6.091  54.454  -7.205  1.00  0.00     0.040 C 
HETATM   18  C32 UNL     1       6.035  53.693  -8.554  1.00  0.00     0.070 C 
ENDROOT
BRANCH   1  19
HETATM   19  C10 UNL     1       2.178  52.679 -10.580  1.00  0.00     0.093 C 
HETATM   20  N2  UNL     1       1.505  51.575 -10.581  1.00  0.00    -0.312 N 
ATOM     21  H2  UNL     1       0.901  51.316  -9.801  1.00  0.00     0.185 HD
BRANCH  20  22
HETATM   22  N1  UNL     1       1.643  50.774 -11.674  1.00  0.00    -0.269 N 
HETATM   23  C9  UNL     1       0.619  50.744 -12.623  1.00  0.00     0.260 C 
HETATM   24  O2  UNL     1      -0.421  51.392 -12.547  1.00  0.00    -0.269 OA
HETATM   25  H9  UNL     1       2.431  50.138 -11.739  1.00  0.00     0.190 HD
BRANCH  23  26
HETATM   26  C8  UNL     1       0.929  49.789 -13.783  1.00  0.00     0.280 C 
BRANCH  26  27
HETATM   27  O1  UNL     1       1.877  50.232 -14.738  1.00  0.00    -0.342 OA
BRANCH  27  28
HETATM   28  C7  UNL     1       1.425  50.902 -15.845  1.00  0.00     0.075 A 
HETATM   29  C2  UNL     1       2.243  51.961 -16.287  1.00  0.00    -0.027 A 
HETATM   30  C1  UNL     1       3.527  52.290 -15.577  1.00  0.00     0.051 C 
HETATM   31  C3  UNL     1       1.854  52.719 -17.404  1.00  0.00     0.033 A 
HETATM   32  C4  UNL     1       0.672  52.422 -18.075  1.00  0.00     0.034 A 
HETATM   33 CL1  UNL     1       0.201  53.356 -19.441  1.00  0.00    -0.084 Cl
HETATM   34  C5  UNL     1      -0.136  51.374 -17.643  1.00  0.00     0.026 A 
HETATM   35  C6  UNL     1       0.238  50.616 -16.528  1.00  0.00     0.039 A 
ENDBRANCH  27  28
ENDBRANCH  26  27
ENDBRANCH  23  26
ENDBRANCH  20  22
ENDBRANCH   1  19
BRANCH   6  36
HETATM   36  O4  UNL     1       1.838  56.039  -8.838  1.00  0.00    -0.389 OA
HETATM   37  H19 UNL     1       2.544  55.938  -8.181  1.00  0.00     0.210 HD
ENDBRANCH   6  36
BRANCH   4  38
HETATM   38  O3  UNL     1      -1.639  55.170 -10.632  1.00  0.00    -0.395 OA
HETATM   39  H16 UNL     1      -1.690  55.329 -11.588  1.00  0.00     0.210 HD
ENDBRANCH   4  38
BRANCH  18  40
HETATM   40  O7  UNL     1       7.136  54.150  -9.348  1.00  0.00    -0.389 OA
HETATM   41  H41 UNL     1       7.171  55.120  -9.318  1.00  0.00     0.210 HD
ENDBRANCH  18  40
BRANCH  15  42
HETATM   42  C26 UNL     1       6.747  50.952  -5.926  1.00  0.00    -0.045 A 
HETATM   43  C27 UNL     1       7.700  50.020  -5.915  1.00  0.00     0.087 A 
HETATM   44  C28 UNL     1       7.299  48.994  -4.957  1.00  0.00     0.283 A 
HETATM   45  O5  UNL     1       7.941  47.993  -4.700  1.00  0.00    -0.260 OA
HETATM   46  O6  UNL     1       6.108  49.346  -4.403  1.00  0.00    -0.314 OA
HETATM   47  C29 UNL     1       5.684  50.594  -4.956  1.00  0.00     0.213 A 
ENDBRANCH  15  42
TORSDOF 9
ENDMDL
MODEL 6
REMARK minimizedAffinity -7.46538734
REMARK CNNscore 0.180557594
REMARK CNNaffinity 6.1730504
REMARK  9 active torsions:
REMARK  status: ('A' for Active; 'I' for Inactive)
REMARK    1  A    between atoms: C7_8  and  O1_9 
REMARK    2  A    between atoms: O1_9  and  C8_10 
REMARK    3  A    between atoms: C8_10  and  C9_11 
REMARK       I    between atoms: C9_11  and  N1_13 
REMARK    4  A    between atoms: N1_13  and  N2_14 
REMARK    5  A    between atoms: C10_16  and  C11_17 
REMARK    6  A    between atoms: C14_20  and  O3_21 
REMARK    7  A    between atoms: C16_23  and  O4_24 
REMARK    8  A    between atoms: C25_33  and  C26_34 
REMARK    9  A    between atoms: C32_42  and  O7_43 
ROOT
HETATM    1  C11 UNL     1      -1.588  51.417 -11.905  1.00  0.00     0.028 C 
HETATM    2  C12 UNL     1      -2.370  52.744 -12.166  1.00  0.00     0.021 C 
HETATM    3  C13 UNL     1      -2.896  53.437 -10.901  1.00  0.00     0.033 C 
HETATM    4  C14 UNL     1      -2.131  53.077  -9.634  1.00  0.00     0.121 C 
HETATM    5  C15 UNL     1      -2.057  51.561  -9.383  1.00  0.00     0.070 C 
HETATM    6  C16 UNL     1      -2.221  50.712 -10.665  1.00  0.00     0.073 C 
HETATM    7  C17 UNL     1      -1.681  49.289 -10.440  1.00  0.00     0.039 C 
HETATM    8  C18 UNL     1      -1.772  48.415 -11.694  1.00  0.00     0.011 C 
HETATM    9  C19 UNL     1      -1.095  49.069 -12.916  1.00  0.00     0.026 C 
HETATM   10  C20 UNL     1      -1.658  50.493 -13.175  1.00  0.00     0.009 C 
HETATM   11  C21 UNL     1      -1.055  51.135 -14.447  1.00  0.00     0.007 C 
HETATM   12  C22 UNL     1       0.037  50.299 -15.103  1.00  0.00     0.013 C 
HETATM   13  C23 UNL     1      -0.307  48.811 -15.376  1.00  0.00    -0.005 C 
HETATM   14  C24 UNL     1       1.049  48.093 -15.595  1.00  0.00     0.019 C 
HETATM   15  C25 UNL     1      -1.213  48.551 -16.625  1.00  0.00     0.028 C 
HETATM   16  C30 UNL     1      -2.640  48.660 -16.102  1.00  0.00     0.013 C 
HETATM   17  C31 UNL     1      -2.577  47.960 -14.752  1.00  0.00     0.040 C 
HETATM   18  C32 UNL     1      -1.147  48.186 -14.196  1.00  0.00     0.070 C 
ENDROOT
BRANCH   1  19
HETATM   19  C10 UNL     1      -0.098  51.691 -11.623  1.00  0.00     0.093 C 
HETATM   20  N2  UNL     1       0.498  52.749 -12.067  1.00  0.00    -0.312 N 
ATOM     21  H2  UNL     1      -0.000  53.459 -12.604  1.00  0.00     0.185 HD
BRANCH  20  22
HETATM   22  N1  UNL     1       1.825  52.870 -11.783  1.00  0.00    -0.269 N 
HETATM   23  C9  UNL     1       2.214  53.649 -10.692  1.00  0.00     0.260 C 
HETATM   24  O2  UNL     1       1.441  54.253  -9.954  1.00  0.00    -0.269 OA
HETATM   25  H9  UNL     1       2.515  52.481 -12.417  1.00  0.00     0.190 HD
BRANCH  23  26
HETATM   26  C8  UNL     1       3.739  53.686 -10.518  1.00  0.00     0.280 C 
BRANCH  26  27
HETATM   27  O1  UNL     1       4.364  54.952 -10.635  1.00  0.00    -0.342 OA
BRANCH  27  28
HETATM   28  C7  UNL     1       4.592  55.678  -9.496  1.00  0.00     0.075 A 
HETATM   29  C2  UNL     1       5.770  55.352  -8.796  1.00  0.00    -0.027 A 
HETATM   30  C1  UNL     1       6.700  54.286  -9.309  1.00  0.00     0.051 C 
HETATM   31  C3  UNL     1       6.081  56.029  -7.605  1.00  0.00     0.033 A 
HETATM   32  C4  UNL     1       5.233  57.021  -7.122  1.00  0.00     0.034 A 
HETATM   33 CL1  UNL     1       5.619  57.844  -5.661  1.00  0.00    -0.084 Cl
HETATM   34  C5  UNL     1       4.069  57.347  -7.813  1.00  0.00     0.026 A 
HETATM   35  C6  UNL     1       3.747  56.676  -8.997  1.00  0.00     0.039 A 
ENDBRANCH  27  28
ENDBRANCH  26  27
ENDBRANCH  23  26
ENDBRANCH  20  22
ENDBRANCH   1  19
BRANCH   6  36
HETATM   36  O4  UNL     1      -3.645  50.576 -10.843  1.00  0.00    -0.389 OA
HETATM   37  H19 UNL     1      -3.844  50.118 -11.675  1.00  0.00     0.210 HD
ENDBRANCH   6  36
BRANCH   4  38
HETATM   38  O3  UNL     1      -2.752  53.719  -8.522  1.00  0.00    -0.395 OA
HETATM   39  H16 UNL     1      -2.209  53.543  -7.736  1.00  0.00     0.210 HD
ENDBRANCH   4  38
BRANCH  18  40
HETATM   40  O7  UNL     1      -0.608  46.900 -13.869  1.00  0.00    -0.389 OA
HETATM   41  H41 UNL     1      -1.269  46.394 -13.369  1.00  0.00     0.210 HD
ENDBRANCH  18  40
BRANCH  15  42
HETATM   42  C26 UNL     1      -0.942  49.321 -17.884  1.00  0.00    -0.045 A 
HETATM   43  C27 UNL     1      -0.438  50.555 -17.936  1.00  0.00     0.087 A 
HETATM   44  C28 UNL     1      -0.290  50.907 -19.345  1.00  0.00     0.283 A 
HETATM   45  O5  UNL     1       0.141  51.970 -19.754  1.00  0.00    -0.260 OA
HETATM   46  O6  UNL     1      -0.702  49.862 -20.109  1.00  0.00    -0.314 OA
HETATM   47  C29 UNL     1      -1.127  48.796 -19.258  1.00  0.00     0.213 A 
ENDBRANCH  15  42
TORSDOF 9
ENDMDL
MODEL 7
REMARK minimizedAffinity -9.71047211
REMARK CNNscore 0.175512969
REMARK CNNaffinity 6.24643326
REMARK  9 active torsions:
REMARK  status: ('A' for Active; 'I' for Inactive)
REMARK    1  A    between atoms: C7_8  and  O1_9 
REMARK    2  A    between atoms: O1_9  and  C8_10 
REMARK    3  A    between atoms: C8_10  and  C9_11 
REMARK       I    between atoms: C9_11  and  N1_13 
REMARK    4  A    between atoms: N1_13  and  N2_14 
REMARK    5  A    between atoms: C10_16  and  C11_17 
REMARK    6  A    between atoms: C14_20  and  O3_21 
REMARK    7  A    between atoms: C16_23  and  O4_24 
REMARK    8  A    between atoms: C25_33  and  C26_34 
REMARK    9  A    between atoms: C32_42  and  O7_43 
ROOT
HETATM    1  C11 UNL     1      -6.758  46.737 -30.411  1.00  0.00     0.028 C 
HETATM    2  C12 UNL     1      -6.082  45.561 -31.186  1.00  0.00     0.021 C 
HETATM    3  C13 UNL     1      -5.014  45.994 -32.201  1.00  0.00     0.033 C 
HETATM    4  C14 UNL     1      -4.393  47.353 -31.904  1.00  0.00     0.121 C 
HETATM    5  C15 UNL     1      -5.434  48.475 -31.762  1.00  0.00     0.070 C 
HETATM    6  C16 UNL     1      -6.841  47.969 -31.364  1.00  0.00     0.073 C 
HETATM    7  C17 UNL     1      -7.684  49.120 -30.790  1.00  0.00     0.039 C 
HETATM    8  C18 UNL     1      -9.073  48.667 -30.332  1.00  0.00     0.011 C 
HETATM    9  C19 UNL     1      -9.009  47.490 -29.338  1.00  0.00     0.026 C 
HETATM   10  C20 UNL     1      -8.190  46.306 -29.922  1.00  0.00     0.009 C 
HETATM   11  C21 UNL     1      -8.183  45.081 -28.978  1.00  0.00     0.007 C 
HETATM   12  C22 UNL     1      -8.870  45.328 -27.639  1.00  0.00     0.013 C 
HETATM   13  C23 UNL     1     -10.295  45.939 -27.701  1.00  0.00    -0.005 C 
HETATM   14  C24 UNL     1     -10.575  46.508 -26.286  1.00  0.00     0.019 C 
HETATM   15  C25 UNL     1     -11.438  44.937 -28.067  1.00  0.00     0.028 C 
HETATM   16  C30 UNL     1     -11.497  44.951 -29.590  1.00  0.00     0.013 C 
HETATM   17  C31 UNL     1     -11.309  46.420 -29.937  1.00  0.00     0.040 C 
HETATM   18  C32 UNL     1     -10.407  47.030 -28.833  1.00  0.00     0.070 C 
ENDROOT
BRANCH   1  19
HETATM   19  C10 UNL     1      -5.946  47.122 -29.158  1.00  0.00     0.093 C 
HETATM   20  N2  UNL     1      -5.840  48.348 -28.763  1.00  0.00    -0.312 N 
ATOM     21  H2  UNL     1      -6.308  49.110 -29.252  1.00  0.00     0.185 HD
BRANCH  20  22
HETATM   22  N1  UNL     1      -5.071  48.572 -27.661  1.00  0.00    -0.269 N 
HETATM   23  C9  UNL     1      -3.923  49.357 -27.787  1.00  0.00     0.260 C 
HETATM   24  O2  UNL     1      -3.539  49.869 -28.835  1.00  0.00    -0.269 OA
HETATM   25  H9  UNL     1      -5.279  48.090 -26.793  1.00  0.00     0.190 HD
BRANCH  23  26
HETATM   26  C8  UNL     1      -3.169  49.503 -26.458  1.00  0.00     0.280 C 
BRANCH  26  27
HETATM   27  O1  UNL     1      -1.804  49.873 -26.537  1.00  0.00    -0.342 OA
BRANCH  27  28
HETATM   28  C7  UNL     1      -1.270  50.627 -25.525  1.00  0.00     0.075 A 
HETATM   29  C2  UNL     1      -0.090  51.325 -25.847  1.00  0.00    -0.027 A 
HETATM   30  C1  UNL     1       0.503  51.239 -27.228  1.00  0.00     0.051 C 
HETATM   31  C3  UNL     1       0.542  52.110 -24.869  1.00  0.00     0.033 A 
HETATM   32  C4  UNL     1       0.003  52.204 -23.590  1.00  0.00     0.034 A 
HETATM   33 CL1  UNL     1       0.783  53.166 -22.396  1.00  0.00    -0.084 Cl
HETATM   34  C5  UNL     1      -1.165  51.518 -23.269  1.00  0.00     0.026 A 
HETATM   35  C6  UNL     1      -1.801  50.728 -24.234  1.00  0.00     0.039 A 
ENDBRANCH  27  28
ENDBRANCH  26  27
ENDBRANCH  23  26
ENDBRANCH  20  22
ENDBRANCH   1  19
BRANCH   6  36
HETATM   36  O4  UNL     1      -7.468  47.596 -32.607  1.00  0.00    -0.389 OA
HETATM   37  H19 UNL     1      -8.334  47.191 -32.445  1.00  0.00     0.210 HD
ENDBRANCH   6  36
BRANCH   4  38
HETATM   38  O3  UNL     1      -3.475  47.678 -32.946  1.00  0.00    -0.395 OA
HETATM   39  H16 UNL     1      -3.032  48.507 -32.705  1.00  0.00     0.210 HD
ENDBRANCH   4  38
BRANCH  18  40
HETATM   40  O7  UNL     1     -11.088  48.177 -28.311  1.00  0.00    -0.389 OA
HETATM   41  H41 UNL     1     -11.417  48.717 -29.049  1.00  0.00     0.210 HD
ENDBRANCH  18  40
BRANCH  15  42
HETATM   42  C26 UNL     1     -11.422  43.569 -27.450  1.00  0.00    -0.045 A 
HETATM   43  C27 UNL     1     -10.784  42.509 -27.947  1.00  0.00     0.087 A 
HETATM   44  C28 UNL     1     -10.985  41.401 -27.017  1.00  0.00     0.283 A 
HETATM   45  O5  UNL     1     -10.539  40.279 -27.166  1.00  0.00    -0.260 OA
HETATM   46  O6  UNL     1     -11.737  41.832 -25.970  1.00  0.00    -0.314 OA
HETATM   47  C29 UNL     1     -12.054  43.213 -26.156  1.00  0.00     0.213 A 
ENDBRANCH  15  42
TORSDOF 9
ENDMDL
MODEL 8
REMARK minimizedAffinity -7.43395901
REMARK CNNscore 0.175382972
REMARK CNNaffinity 6.15559244
REMARK  9 active torsions:
REMARK  status: ('A' for Active; 'I' for Inactive)
REMARK    1  A    between atoms: C7_8  and  O1_9 
REMARK    2  A    between atoms: O1_9  and  C8_10 
REMARK    3  A    between atoms: C8_10  and  C9_11 
REMARK       I    between atoms: C9_11  and  N1_13 
REMARK    4  A    between atoms: N1_13  and  N2_14 
REMARK    5  A    between atoms: C10_16  and  C11_17 
REMARK    6  A    between atoms: C14_20  and  O3_21 
REMARK    7  A    between atoms: C16_23  and  O4_24 
REMARK    8  A    between atoms: C25_33  and  C26_34 
REMARK    9  A    between atoms: C32_42  and  O7_43 
ROOT
HETATM    1  C11 UNL     1       1.134  52.892  -8.221  1.00  0.00     0.028 C 
HETATM    2  C12 UNL     1       0.762  52.022  -6.979  1.00  0.00     0.021 C 
HETATM    3  C13 UNL     1      -0.635  51.387  -7.037  1.00  0.00     0.033 C 
HETATM    4  C14 UNL     1      -1.181  51.223  -8.449  1.00  0.00     0.121 C 
HETATM    5  C15 UNL     1      -1.192  52.536  -9.250  1.00  0.00     0.070 C 
HETATM    6  C16 UNL     1      -0.165  53.577  -8.747  1.00  0.00     0.073 C 
HETATM    7  C17 UNL     1       0.106  54.633  -9.832  1.00  0.00     0.039 C 
HETATM    8  C18 UNL     1       1.154  55.665  -9.406  1.00  0.00     0.011 C 
HETATM    9  C19 UNL     1       2.471  55.008  -8.943  1.00  0.00     0.026 C 
HETATM   10  C20 UNL     1       2.214  53.965  -7.821  1.00  0.00     0.009 C 
HETATM   11  C21 UNL     1       3.529  53.355  -7.281  1.00  0.00     0.007 C 
HETATM   12  C22 UNL     1       4.775  53.807  -8.033  1.00  0.00     0.013 C 
HETATM   13  C23 UNL     1       4.943  55.338  -8.224  1.00  0.00    -0.005 C 
HETATM   14  C24 UNL     1       5.977  55.513  -9.366  1.00  0.00     0.019 C 
HETATM   15  C25 UNL     1       5.455  56.118  -6.969  1.00  0.00     0.028 C 
HETATM   16  C30 UNL     1       4.194  56.476  -6.190  1.00  0.00     0.013 C 
HETATM   17  C31 UNL     1       3.208  56.874  -7.279  1.00  0.00     0.040 C 
HETATM   18  C32 UNL     1       3.564  56.037  -8.535  1.00  0.00     0.070 C 
ENDROOT
BRANCH   1  19
HETATM   19  C10 UNL     1       1.743  52.032  -9.346  1.00  0.00     0.093 C 
HETATM   20  N2  UNL     1       2.119  52.546 -10.471  1.00  0.00    -0.312 N 
ATOM     21  H2  UNL     1       2.050  53.547 -10.652  1.00  0.00     0.185 HD
BRANCH  20  22
HETATM   22  N1  UNL     1       2.613  51.684 -11.404  1.00  0.00    -0.269 N 
HETATM   23  C9  UNL     1       1.740  51.137 -12.346  1.00  0.00     0.260 C 
HETATM   24  O2  UNL     1       0.535  51.370 -12.401  1.00  0.00    -0.269 OA
HETATM   25  H9  UNL     1       3.576  51.372 -11.344  1.00  0.00     0.190 HD
BRANCH  23  26
HETATM   26  C8  UNL     1       2.453  50.184 -13.315  1.00  0.00     0.280 C 
BRANCH  26  27
HETATM   27  O1  UNL     1       3.058  50.769 -14.455  1.00  0.00    -0.342 OA
BRANCH  27  28
HETATM   28  C7  UNL     1       2.254  51.171 -15.488  1.00  0.00     0.075 A 
HETATM   29  C2  UNL     1       2.761  52.224 -16.276  1.00  0.00    -0.027 A 
HETATM   30  C1  UNL     1       4.109  52.825 -15.982  1.00  0.00     0.051 C 
HETATM   31  C3  UNL     1       2.001  52.718 -17.348  1.00  0.00     0.033 A 
HETATM   32  C4  UNL     1       0.755  52.168 -17.636  1.00  0.00     0.034 A 
HETATM   33 CL1  UNL     1      -0.172  52.780 -18.950  1.00  0.00    -0.084 Cl
HETATM   34  C5  UNL     1       0.252  51.126 -16.861  1.00  0.00     0.026 A 
HETATM   35  C6  UNL     1       0.999  50.629 -15.788  1.00  0.00     0.039 A 
ENDBRANCH  27  28
ENDBRANCH  26  27
ENDBRANCH  23  26
ENDBRANCH  20  22
ENDBRANCH   1  19
BRANCH   6  36
HETATM   36  O4  UNL     1      -0.832  54.269  -7.673  1.00  0.00    -0.389 OA
HETATM   37  H19 UNL     1      -0.229  54.895  -7.242  1.00  0.00     0.210 HD
ENDBRANCH   6  36
BRANCH   4  38
HETATM   38  O3  UNL     1      -2.504  50.695  -8.374  1.00  0.00    -0.395 OA
HETATM   39  H16 UNL     1      -2.808  50.524  -9.280  1.00  0.00     0.210 HD
ENDBRANCH   4  38
BRANCH  18  40
HETATM   40  O7  UNL     1       3.739  56.952  -9.623  1.00  0.00    -0.389 OA
HETATM   41  H41 UNL     1       3.001  57.584  -9.630  1.00  0.00     0.210 HD
ENDBRANCH  18  40
BRANCH  15  42
HETATM   42  C26 UNL     1       6.554  55.514  -6.144  1.00  0.00    -0.045 A 
HETATM   43  C27 UNL     1       7.841  55.858  -6.210  1.00  0.00     0.087 A 
HETATM   44  C28 UNL     1       8.556  55.067  -5.212  1.00  0.00     0.283 A 
HETATM   45  O5  UNL     1       9.754  55.129  -5.005  1.00  0.00    -0.260 OA
HETATM   46  O6  UNL     1       7.670  54.271  -4.559  1.00  0.00    -0.314 OA
HETATM   47  C29 UNL     1       6.359  54.498  -5.083  1.00  0.00     0.213 A 
ENDBRANCH  15  42
TORSDOF 9
ENDMDL
MODEL 9
REMARK minimizedAffinity -8.80188847
REMARK CNNscore 0.173948184
REMARK CNNaffinity 6.27599144
REMARK  9 active torsions:
REMARK  status: ('A' for Active; 'I' for Inactive)
REMARK    1  A    between atoms: C7_8  and  O1_9 
REMARK    2  A    between atoms: O1_9  and  C8_10 
REMARK    3  A    between atoms: C8_10  and  C9_11 
REMARK       I    between atoms: C9_11  and  N1_13 
REMARK    4  A    between atoms: N1_13  and  N2_14 
REMARK    5  A    between atoms: C10_16  and  C11_17 
REMARK    6  A    between atoms: C14_20  and  O3_21 
REMARK    7  A    between atoms: C16_23  and  O4_24 
REMARK    8  A    between atoms: C25_33  and  C26_34 
REMARK    9  A    between atoms: C32_42  and  O7_43 
ROOT
HETATM    1  C11 UNL     1      -6.670  46.534 -31.182  1.00  0.00     0.028 C 
HETATM    2  C12 UNL     1      -5.975  45.490 -32.112  1.00  0.00     0.021 C 
HETATM    3  C13 UNL     1      -4.835  46.056 -32.971  1.00  0.00     0.033 C 
HETATM    4  C14 UNL     1      -4.202  47.320 -32.404  1.00  0.00     0.121 C 
HETATM    5  C15 UNL     1      -5.223  48.436 -32.126  1.00  0.00     0.070 C 
HETATM    6  C16 UNL     1      -6.664  47.917 -31.906  1.00  0.00     0.073 C 
HETATM    7  C17 UNL     1      -7.514  48.978 -31.188  1.00  0.00     0.039 C 
HETATM    8  C18 UNL     1      -8.940  48.499 -30.899  1.00  0.00     0.011 C 
HETATM    9  C19 UNL     1      -8.966  47.165 -30.126  1.00  0.00     0.026 C 
HETATM   10  C20 UNL     1      -8.139  46.074 -30.861  1.00  0.00     0.009 C 
HETATM   11  C21 UNL     1      -8.222  44.703 -30.149  1.00  0.00     0.007 C 
HETATM   12  C22 UNL     1      -8.985  44.736 -28.830  1.00  0.00     0.013 C 
HETATM   13  C23 UNL     1     -10.389  45.397 -28.865  1.00  0.00    -0.005 C 
HETATM   14  C24 UNL     1     -10.744  45.720 -27.391  1.00  0.00     0.019 C 
HETATM   15  C25 UNL     1     -11.530  44.514 -29.468  1.00  0.00     0.028 C 
HETATM   16  C30 UNL     1     -11.492  44.795 -30.966  1.00  0.00     0.013 C 
HETATM   17  C31 UNL     1     -11.248  46.296 -31.037  1.00  0.00     0.040 C 
HETATM   18  C32 UNL     1     -10.403  46.672 -29.792  1.00  0.00     0.070 C 
ENDROOT
BRANCH   1  19
HETATM   19  C10 UNL     1      -5.930  46.667 -29.836  1.00  0.00     0.093 C 
HETATM   20  N2  UNL     1      -5.780  47.808 -29.248  1.00  0.00    -0.312 N 
ATOM     21  H2  UNL     1      -6.165  48.667 -29.641  1.00  0.00     0.185 HD
BRANCH  20  22
HETATM   22  N1  UNL     1      -5.081  47.808 -28.079  1.00  0.00    -0.269 N 
HETATM   23  C9  UNL     1      -4.106  48.785 -27.875  1.00  0.00     0.260 C 
HETATM   24  O2  UNL     1      -3.816  49.662 -28.685  1.00  0.00    -0.269 OA
HETATM   25  H9  UNL     1      -5.202  47.047 -27.418  1.00  0.00     0.190 HD
BRANCH  23  26
HETATM   26  C8  UNL     1      -3.409  48.638 -26.515  1.00  0.00     0.280 C 
BRANCH  26  27
HETATM   27  O1  UNL     1      -3.759  49.579 -25.515  1.00  0.00    -0.342 OA
BRANCH  27  28
HETATM   28  C7  UNL     1      -2.853  49.846 -24.523  1.00  0.00     0.075 A 
HETATM   29  C2  UNL     1      -3.109  49.223 -23.285  1.00  0.00    -0.027 A 
HETATM   30  C1  UNL     1      -4.296  48.315 -23.112  1.00  0.00     0.051 C 
HETATM   31  C3  UNL     1      -2.246  49.451 -22.201  1.00  0.00     0.033 A 
HETATM   32  C4  UNL     1      -1.141  50.284 -22.348  1.00  0.00     0.034 A 
HETATM   33 CL1  UNL     1      -0.089  50.560 -21.015  1.00  0.00    -0.084 Cl
HETATM   34  C5  UNL     1      -0.884  50.899 -23.571  1.00  0.00     0.026 A 
HETATM   35  C6  UNL     1      -1.739  50.682 -24.656  1.00  0.00     0.039 A 
ENDBRANCH  27  28
ENDBRANCH  26  27
ENDBRANCH  23  26
ENDBRANCH  20  22
ENDBRANCH   1  19
BRANCH   6  36
HETATM   36  O4  UNL     1      -7.220  47.787 -33.230  1.00  0.00    -0.389 OA
HETATM   37  H19 UNL     1      -8.104  47.390 -33.193  1.00  0.00     0.210 HD
ENDBRANCH   6  36
BRANCH   4  38
HETATM   38  O3  UNL     1      -3.213  47.791 -33.317  1.00  0.00    -0.395 OA
HETATM   39  H16 UNL     1      -2.766  48.550 -32.908  1.00  0.00     0.210 HD
ENDBRANCH   4  38
BRANCH  18  40
HETATM   40  O7  UNL     1     -11.089  47.733 -29.116  1.00  0.00    -0.389 OA
HETATM   41  H41 UNL     1     -11.358  48.404 -29.765  1.00  0.00     0.210 HD
ENDBRANCH  18  40
BRANCH  15  42
HETATM   42  C26 UNL     1     -11.585  43.059 -29.102  1.00  0.00    -0.045 A 
HETATM   43  C27 UNL     1     -11.085  42.063 -29.834  1.00  0.00     0.087 A 
HETATM   44  C28 UNL     1     -11.308  40.823 -29.096  1.00  0.00     0.283 A 
HETATM   45  O5  UNL     1     -10.976  39.717 -29.480  1.00  0.00    -0.260 OA
HETATM   46  O6  UNL     1     -11.931  41.112 -27.923  1.00  0.00    -0.314 OA
HETATM   47  C29 UNL     1     -12.139  42.523 -27.836  1.00  0.00     0.213 A 
ENDBRANCH  15  42
TORSDOF 9
ENDMDL
