MODEL 1
REMARK minimizedAffinity -7.15762663
REMARK CNNscore 0.298331797
REMARK CNNaffinity 6.23198462
REMARK  8 active torsions:
REMARK  status: ('A' for Active; 'I' for Inactive)
REMARK    1  A    between atoms: C10_11  and  C11_12 
REMARK    2  A    between atoms: C29_32  and  C30_33 
REMARK    3  A    between atoms: C29_32  and  C31_35 
REMARK    4  A    between atoms: C30_33  and  O1_34 
REMARK    5  A    between atoms: C31_35  and  O3_37 
REMARK    6  A    between atoms: C41_48  and  C42_49 
REMARK    7  A    between atoms: C42_49  and  O5_51 
REMARK    8  A    between atoms: C44_53  and  O6_54 
ROOT
HETATM    1  C1  UNL     1      -6.202  47.783 -25.541  1.00  0.00     0.036 C 
HETATM    2  C2  UNL     1      -6.861  47.770 -26.880  1.00  0.00    -0.026 C 
HETATM    3  C3  UNL     1      -7.590  46.789 -27.448  1.00  0.00    -0.050 C 
HETATM    4  C4  UNL     1      -8.065  46.990 -28.883  1.00  0.00     0.310 C 
HETATM    5  N1  UNL     1      -9.448  46.647 -29.171  1.00  0.00     0.125 N 
HETATM    6  C5  UNL     1     -10.366  47.654 -28.621  1.00  0.00     0.277 C 
HETATM    7  C6  UNL     1     -10.590  47.245 -27.179  1.00  0.00     0.051 C 
HETATM    8  C7  UNL     1     -10.454  45.708 -27.210  1.00  0.00     0.070 C 
HETATM    9  C8  UNL     1     -11.859  45.126 -27.215  1.00  0.00    -0.016 A 
HETATM   10  C9  UNL     1     -12.774  45.046 -26.168  1.00  0.00     0.018 A 
HETATM   11  C10 UNL     1     -14.038  44.486 -26.390  1.00  0.00    -0.048 A 
HETATM   12  C33 UNL     1     -14.378  44.073 -27.694  1.00  0.00     0.010 A 
HETATM   13  C34 UNL     1     -13.461  44.185 -28.744  1.00  0.00     0.030 A 
HETATM   14  C35 UNL     1     -12.199  44.697 -28.498  1.00  0.00     0.039 A 
HETATM   15  N4  UNL     1     -11.147  44.797 -29.386  1.00  0.00    -0.347 N 
HETATM   16  C36 UNL     1     -11.333  45.004 -30.803  1.00  0.00     0.152 C 
HETATM   17  C37 UNL     1      -9.961  45.344 -28.685  1.00  0.00     0.274 C 
HETATM   18  C38 UNL     1      -8.954  44.082 -28.546  1.00  0.00     0.186 C 
HETATM   19  C39 UNL     1      -7.593  44.392 -27.934  1.00  0.00     0.047 C 
HETATM   20  C40 UNL     1      -7.883  45.415 -26.816  1.00  0.00     0.043 C 
HETATM   21  C41 UNL     1      -9.360  45.133 -26.250  1.00  0.00     0.121 C 
HETATM   22  C44 UNL     1      -9.557  43.593 -26.266  1.00  0.00     0.277 C 
HETATM   23  O7  UNL     1      -9.523  43.104 -27.620  1.00  0.00    -0.350 OA
ENDROOT
BRANCH  11  24
HETATM   24  C11 UNL     1     -14.989  44.227 -25.207  1.00  0.00     0.070 C 
HETATM   25  C12 UNL     1     -16.425  44.283 -25.771  1.00  0.00     0.026 C 
HETATM   26  C13 UNL     1     -17.559  43.439 -25.116  1.00  0.00     0.039 C 
HETATM   27  C14 UNL     1     -17.049  42.224 -24.360  1.00  0.00    -0.051 C 
HETATM   28  C29 UNL     1     -18.564  44.257 -24.267  1.00  0.00     0.107 C 
HETATM   29  C15 UNL     1     -16.695  41.067 -24.961  1.00  0.00    -0.026 C 
HETATM   30  C17 UNL     1     -16.988  42.318 -22.849  1.00  0.00     0.306 C 
HETATM   31  C16 UNL     1     -16.702  40.756 -26.427  1.00  0.00     0.036 C 
HETATM   32  N2  UNL     1     -16.992  43.666 -22.309  1.00  0.00     0.094 N 
HETATM   33  C18 UNL     1     -17.109  43.668 -20.853  1.00  0.00     0.310 C 
HETATM   34  C19 UNL     1     -17.843  44.691 -22.951  1.00  0.00     0.248 C 
HETATM   35  C20 UNL     1     -17.001  46.007 -23.101  1.00  0.00     0.079 C 
HETATM   36  C21 UNL     1     -15.497  45.898 -23.174  1.00  0.00    -0.020 A 
HETATM   37  C22 UNL     1     -14.707  45.163 -24.053  1.00  0.00     0.025 A 
HETATM   38  C28 UNL     1     -14.595  46.598 -22.285  1.00  0.00    -0.001 A 
HETATM   39  N3  UNL     1     -13.395  45.346 -23.663  1.00  0.00    -0.358 N 
HETATM   40  C23 UNL     1     -13.296  46.236 -22.622  1.00  0.00     0.043 A 
HETATM   41  H28 UNL     1     -12.605  44.897 -24.113  1.00  0.00     0.166 HD
HETATM   42  C24 UNL     1     -12.165  46.726 -21.954  1.00  0.00     0.030 A 
HETATM   43  C25 UNL     1     -12.366  47.616 -20.899  1.00  0.00     0.002 A 
HETATM   44  C26 UNL     1     -13.654  47.999 -20.531  1.00  0.00     0.001 A 
HETATM   45  C27 UNL     1     -14.773  47.502 -21.213  1.00  0.00     0.014 A 
BRANCH  28  46
HETATM   46  C30 UNL     1     -19.900  43.465 -24.003  1.00  0.00     0.186 C 
BRANCH  46  47
HETATM   47  O1  UNL     1     -20.891  44.119 -23.239  1.00  0.00    -0.399 OA
HETATM   48  H35 UNL     1     -21.584  43.468 -23.028  1.00  0.00     0.209 HD
ENDBRANCH  46  47
ENDBRANCH  28  46
BRANCH  28  49
HETATM   49  C31 UNL     1     -19.151  45.460 -25.018  1.00  0.00     0.272 C 
HETATM   50  O2  UNL     1     -19.779  46.353 -24.466  1.00  0.00    -0.264 OA
BRANCH  49  51
HETATM   51  O3  UNL     1     -18.998  45.373 -26.366  1.00  0.00    -0.326 OA
HETATM   52  C32 UNL     1     -19.954  44.552 -27.035  1.00  0.00     0.213 C 
ENDBRANCH  49  51
ENDBRANCH  28  49
ENDBRANCH  11  24
BRANCH  21  53
HETATM   53  C42 UNL     1      -9.567  45.590 -24.817  1.00  0.00     0.274 C 
HETATM   54  O4  UNL     1      -9.244  46.694 -24.393  1.00  0.00    -0.264 OA
BRANCH  53  55
HETATM   55  O5  UNL     1     -10.092  44.626 -24.016  1.00  0.00    -0.326 OA
HETATM   56  C43 UNL     1      -9.438  44.495 -22.753  1.00  0.00     0.213 C 
ENDBRANCH  53  55
ENDBRANCH  21  53
BRANCH  22  57
HETATM   57  O6  UNL     1      -8.533  42.936 -25.533  1.00  0.00    -0.370 OA
HETATM   58  H52 UNL     1      -8.837  42.015 -25.458  1.00  0.00     0.212 HD
ENDBRANCH  22  57
TORSDOF 8
ENDMDL
MODEL 2
REMARK minimizedAffinity -7.3525033
REMARK CNNscore 0.261650831
REMARK CNNaffinity 6.48734474
REMARK  8 active torsions:
REMARK  status: ('A' for Active; 'I' for Inactive)
REMARK    1  A    between atoms: C10_11  and  C11_12 
REMARK    2  A    between atoms: C29_32  and  C30_33 
REMARK    3  A    between atoms: C29_32  and  C31_35 
REMARK    4  A    between atoms: C30_33  and  O1_34 
REMARK    5  A    between atoms: C31_35  and  O3_37 
REMARK    6  A    between atoms: C41_48  and  C42_49 
REMARK    7  A    between atoms: C42_49  and  O5_51 
REMARK    8  A    between atoms: C44_53  and  O6_54 
ROOT
HETATM    1  C1  UNL     1      -8.601  49.390 -30.815  1.00  0.00     0.036 C 
HETATM    2  C2  UNL     1      -8.617  48.166 -31.670  1.00  0.00    -0.026 C 
HETATM    3  C3  UNL     1      -8.542  46.876 -31.291  1.00  0.00    -0.050 C 
HETATM    4  C4  UNL     1      -8.471  45.813 -32.382  1.00  0.00     0.310 C 
HETATM    5  N1  UNL     1      -9.319  44.644 -32.215  1.00  0.00     0.125 N 
HETATM    6  C5  UNL     1     -10.726  44.971 -32.488  1.00  0.00     0.277 C 
HETATM    7  C6  UNL     1     -11.268  45.520 -31.182  1.00  0.00     0.051 C 
HETATM    8  C7  UNL     1     -10.447  44.779 -30.106  1.00  0.00     0.070 C 
HETATM    9  C8  UNL     1     -11.311  43.648 -29.571  1.00  0.00    -0.016 A 
HETATM   10  C9  UNL     1     -12.410  43.718 -28.718  1.00  0.00     0.018 A 
HETATM   11  C10 UNL     1     -13.087  42.547 -28.359  1.00  0.00    -0.048 A 
HETATM   12  C33 UNL     1     -12.679  41.324 -28.929  1.00  0.00     0.010 A 
HETATM   13  C34 UNL     1     -11.593  41.270 -29.808  1.00  0.00     0.030 A 
HETATM   14  C35 UNL     1     -10.903  42.430 -30.115  1.00  0.00     0.039 A 
HETATM   15  N4  UNL     1      -9.763  42.549 -30.886  1.00  0.00    -0.347 N 
HETATM   16  C36 UNL     1      -9.470  41.670 -31.993  1.00  0.00     0.152 C 
HETATM   17  C37 UNL     1      -9.324  43.965 -30.898  1.00  0.00     0.274 C 
HETATM   18  C38 UNL     1      -7.991  43.984 -29.976  1.00  0.00     0.186 C 
HETATM   19  C39 UNL     1      -7.268  45.323 -29.894  1.00  0.00     0.047 C 
HETATM   20  C40 UNL     1      -8.392  46.379 -29.841  1.00  0.00     0.043 C 
HETATM   21  C41 UNL     1      -9.669  45.716 -29.124  1.00  0.00     0.121 C 
HETATM   22  C44 UNL     1      -9.120  44.788 -28.007  1.00  0.00     0.277 C 
HETATM   23  O7  UNL     1      -8.356  43.713 -28.587  1.00  0.00    -0.350 OA
ENDROOT
BRANCH  11  24
HETATM   24  C11 UNL     1     -14.185  42.587 -27.279  1.00  0.00     0.070 C 
HETATM   25  C12 UNL     1     -14.853  43.975 -27.375  1.00  0.00     0.026 C 
HETATM   26  C13 UNL     1     -16.350  44.156 -26.985  1.00  0.00     0.039 C 
HETATM   27  C14 UNL     1     -17.161  42.875 -27.090  1.00  0.00    -0.051 C 
HETATM   28  C29 UNL     1     -16.582  44.865 -25.628  1.00  0.00     0.107 C 
HETATM   29  C15 UNL     1     -17.644  42.393 -28.256  1.00  0.00    -0.026 C 
HETATM   30  C17 UNL     1     -17.475  42.140 -25.803  1.00  0.00     0.306 C 
HETATM   31  C16 UNL     1     -17.471  42.971 -29.628  1.00  0.00     0.036 C 
HETATM   32  N2  UNL     1     -16.620  42.469 -24.675  1.00  0.00     0.094 N 
HETATM   33  C18 UNL     1     -17.095  41.856 -23.437  1.00  0.00     0.310 C 
HETATM   34  C19 UNL     1     -16.189  43.871 -24.489  1.00  0.00     0.248 C 
HETATM   35  C20 UNL     1     -14.656  43.874 -24.153  1.00  0.00     0.079 C 
HETATM   36  C21 UNL     1     -13.810  42.718 -24.628  1.00  0.00    -0.020 A 
HETATM   37  C22 UNL     1     -13.637  42.222 -25.918  1.00  0.00     0.025 A 
HETATM   38  C28 UNL     1     -12.990  41.908 -23.753  1.00  0.00    -0.001 A 
HETATM   39  N3  UNL     1     -12.817  41.115 -25.816  1.00  0.00    -0.358 N 
HETATM   40  C23 UNL     1     -12.383  40.925 -24.526  1.00  0.00     0.043 A 
HETATM   41  H28 UNL     1     -12.551  40.537 -26.604  1.00  0.00     0.166 HD
HETATM   42  C24 UNL     1     -11.520  39.955 -23.997  1.00  0.00     0.030 A 
HETATM   43  C25 UNL     1     -11.271  39.986 -22.625  1.00  0.00     0.002 A 
HETATM   44  C26 UNL     1     -11.865  40.953 -21.818  1.00  0.00     0.001 A 
HETATM   45  C27 UNL     1     -12.721  41.918 -22.366  1.00  0.00     0.014 A 
BRANCH  28  46
HETATM   46  C30 UNL     1     -18.053  45.410 -25.487  1.00  0.00     0.186 C 
BRANCH  46  47
HETATM   47  O1  UNL     1     -18.778  45.612 -26.681  1.00  0.00    -0.399 OA
HETATM   48  H35 UNL     1     -19.598  46.086 -26.458  1.00  0.00     0.209 HD
ENDBRANCH  46  47
ENDBRANCH  28  46
BRANCH  28  49
HETATM   49  C31 UNL     1     -15.828  46.197 -25.506  1.00  0.00     0.272 C 
HETATM   50  O2  UNL     1     -14.838  46.470 -26.171  1.00  0.00    -0.264 OA
BRANCH  49  51
HETATM   51  O3  UNL     1     -16.304  46.990 -24.509  1.00  0.00    -0.326 OA
HETATM   52  C32 UNL     1     -15.341  47.393 -23.539  1.00  0.00     0.213 C 
ENDBRANCH  49  51
ENDBRANCH  28  49
ENDBRANCH  11  24
BRANCH  21  53
HETATM   53  C42 UNL     1     -10.588  46.721 -28.452  1.00  0.00     0.274 C 
HETATM   54  O4  UNL     1     -10.930  46.661 -27.276  1.00  0.00    -0.264 OA
BRANCH  53  55
HETATM   55  O5  UNL     1     -11.058  47.671 -29.301  1.00  0.00    -0.326 OA
HETATM   56  C43 UNL     1     -12.334  48.200 -28.938  1.00  0.00     0.213 C 
ENDBRANCH  53  55
ENDBRANCH  21  53
BRANCH  22  57
HETATM   57  O6  UNL     1      -8.275  45.500 -27.115  1.00  0.00    -0.370 OA
HETATM   58  H52 UNL     1      -8.129  44.888 -26.373  1.00  0.00     0.212 HD
ENDBRANCH  22  57
TORSDOF 8
ENDMDL
MODEL 3
REMARK minimizedAffinity -7.39505386
REMARK CNNscore 0.206401229
REMARK CNNaffinity 6.38799524
REMARK  8 active torsions:
REMARK  status: ('A' for Active; 'I' for Inactive)
REMARK    1  A    between atoms: C10_11  and  C11_12 
REMARK    2  A    between atoms: C29_32  and  C30_33 
REMARK    3  A    between atoms: C29_32  and  C31_35 
REMARK    4  A    between atoms: C30_33  and  O1_34 
REMARK    5  A    between atoms: C31_35  and  O3_37 
REMARK    6  A    between atoms: C41_48  and  C42_49 
REMARK    7  A    between atoms: C42_49  and  O5_51 
REMARK    8  A    between atoms: C44_53  and  O6_54 
ROOT
HETATM    1  C1  UNL     1      -8.689  49.620 -30.771  1.00  0.00     0.036 C 
HETATM    2  C2  UNL     1      -8.423  48.366 -31.536  1.00  0.00    -0.026 C 
HETATM    3  C3  UNL     1      -8.225  47.120 -31.063  1.00  0.00    -0.050 C 
HETATM    4  C4  UNL     1      -7.863  46.026 -32.061  1.00  0.00     0.310 C 
HETATM    5  N1  UNL     1      -8.560  44.757 -31.925  1.00  0.00     0.125 N 
HETATM    6  C5  UNL     1      -9.948  44.864 -32.396  1.00  0.00     0.277 C 
HETATM    7  C6  UNL     1     -10.731  45.394 -31.211  1.00  0.00     0.051 C 
HETATM    8  C7  UNL     1      -9.971  44.834 -29.991  1.00  0.00     0.070 C 
HETATM    9  C8  UNL     1     -10.739  43.618 -29.494  1.00  0.00    -0.016 A 
HETATM   10  C9  UNL     1     -11.942  43.572 -28.795  1.00  0.00     0.018 A 
HETATM   11  C10 UNL     1     -12.497  42.335 -28.447  1.00  0.00    -0.048 A 
HETATM   12  C33 UNL     1     -11.853  41.157 -28.874  1.00  0.00     0.010 A 
HETATM   13  C34 UNL     1     -10.660  41.215 -29.602  1.00  0.00     0.030 A 
HETATM   14  C35 UNL     1     -10.099  42.445 -29.897  1.00  0.00     0.039 A 
HETATM   15  N4  UNL     1      -8.892  42.689 -30.523  1.00  0.00    -0.347 N 
HETATM   16  C36 UNL     1      -8.334  41.807 -31.521  1.00  0.00     0.152 C 
HETATM   17  C37 UNL     1      -8.651  44.151 -30.576  1.00  0.00     0.274 C 
HETATM   18  C38 UNL     1      -7.471  44.406 -29.495  1.00  0.00     0.186 C 
HETATM   19  C39 UNL     1      -6.954  45.838 -29.413  1.00  0.00     0.047 C 
HETATM   20  C40 UNL     1      -8.208  46.723 -29.575  1.00  0.00     0.043 C 
HETATM   21  C41 UNL     1      -9.468  45.920 -28.984  1.00  0.00     0.121 C 
HETATM   22  C44 UNL     1      -8.955  45.137 -27.745  1.00  0.00     0.277 C 
HETATM   23  O7  UNL     1      -7.981  44.155 -28.148  1.00  0.00    -0.350 OA
ENDROOT
BRANCH  11  24
HETATM   24  C11 UNL     1     -13.726  42.270 -27.521  1.00  0.00     0.070 C 
HETATM   25  C12 UNL     1     -14.964  42.138 -28.434  1.00  0.00     0.026 C 
HETATM   26  C13 UNL     1     -16.233  41.386 -27.933  1.00  0.00     0.039 C 
HETATM   27  C14 UNL     1     -15.943  40.375 -26.835  1.00  0.00    -0.051 C 
HETATM   28  C29 UNL     1     -17.423  42.305 -27.559  1.00  0.00     0.107 C 
HETATM   29  C15 UNL     1     -15.447  39.141 -27.072  1.00  0.00    -0.026 C 
HETATM   30  C17 UNL     1     -16.280  40.775 -25.413  1.00  0.00     0.306 C 
HETATM   31  C16 UNL     1     -15.071  38.542 -28.393  1.00  0.00     0.036 C 
HETATM   32  N2  UNL     1     -16.421  42.202 -25.185  1.00  0.00     0.094 N 
HETATM   33  C18 UNL     1     -16.916  42.490 -23.841  1.00  0.00     0.310 C 
HETATM   34  C19 UNL     1     -17.071  43.032 -26.222  1.00  0.00     0.248 C 
HETATM   35  C20 UNL     1     -16.214  44.331 -26.420  1.00  0.00     0.079 C 
HETATM   36  C21 UNL     1     -14.744  44.287 -26.079  1.00  0.00    -0.020 A 
HETATM   37  C22 UNL     1     -13.754  43.432 -26.553  1.00  0.00     0.025 A 
HETATM   38  C28 UNL     1     -14.105  45.198 -25.153  1.00  0.00    -0.001 A 
HETATM   39  N3  UNL     1     -12.589  43.757 -25.886  1.00  0.00    -0.358 N 
HETATM   40  C23 UNL     1     -12.764  44.843 -25.062  1.00  0.00     0.043 A 
HETATM   41  H28 UNL     1     -11.711  43.268 -26.014  1.00  0.00     0.166 HD
HETATM   42  C24 UNL     1     -11.846  45.514 -24.243  1.00  0.00     0.030 A 
HETATM   43  C25 UNL     1     -12.314  46.586 -23.483  1.00  0.00     0.002 A 
HETATM   44  C26 UNL     1     -13.652  46.968 -23.546  1.00  0.00     0.001 A 
HETATM   45  C27 UNL     1     -14.555  46.288 -24.375  1.00  0.00     0.014 A 
BRANCH  28  46
HETATM   46  C30 UNL     1     -18.783  41.515 -27.489  1.00  0.00     0.186 C 
BRANCH  46  47
HETATM   47  O1  UNL     1     -19.665  41.851 -26.439  1.00  0.00    -0.399 OA
HETATM   48  H35 UNL     1     -20.382  41.192 -26.427  1.00  0.00     0.209 HD
ENDBRANCH  46  47
ENDBRANCH  28  46
BRANCH  28  49
HETATM   49  C31 UNL     1     -17.788  43.301 -28.669  1.00  0.00     0.272 C 
HETATM   50  O2  UNL     1     -16.958  43.968 -29.271  1.00  0.00    -0.264 OA
BRANCH  49  51
HETATM   51  O3  UNL     1     -19.130  43.446 -28.835  1.00  0.00    -0.326 OA
HETATM   52  C32 UNL     1     -19.564  43.593 -30.184  1.00  0.00     0.213 C 
ENDBRANCH  49  51
ENDBRANCH  28  49
ENDBRANCH  11  24
BRANCH  21  53
HETATM   53  C42 UNL     1     -10.598  46.814 -28.504  1.00  0.00     0.274 C 
HETATM   54  O4  UNL     1     -11.036  46.816 -27.359  1.00  0.00    -0.264 OA
BRANCH  53  55
HETATM   55  O5  UNL     1     -11.133  47.580 -29.491  1.00  0.00    -0.326 OA
HETATM   56  C43 UNL     1     -12.432  48.093 -29.193  1.00  0.00     0.213 C 
ENDBRANCH  53  55
ENDBRANCH  21  53
BRANCH  22  57
HETATM   57  O6  UNL     1      -8.344  46.006 -26.803  1.00  0.00    -0.370 OA
HETATM   58  H52 UNL     1      -8.218  45.459 -26.008  1.00  0.00     0.212 HD
ENDBRANCH  22  57
TORSDOF 8
ENDMDL
MODEL 4
REMARK minimizedAffinity -7.986341
REMARK CNNscore 0.125979707
REMARK CNNaffinity 5.97464418
REMARK  8 active torsions:
REMARK  status: ('A' for Active; 'I' for Inactive)
REMARK    1  A    between atoms: C10_11  and  C11_12 
REMARK    2  A    between atoms: C29_32  and  C30_33 
REMARK    3  A    between atoms: C29_32  and  C31_35 
REMARK    4  A    between atoms: C30_33  and  O1_34 
REMARK    5  A    between atoms: C31_35  and  O3_37 
REMARK    6  A    between atoms: C41_48  and  C42_49 
REMARK    7  A    between atoms: C42_49  and  O5_51 
REMARK    8  A    between atoms: C44_53  and  O6_54 
ROOT
HETATM    1  C1  UNL     1     -16.360  43.712 -19.456  1.00  0.00     0.036 C 
HETATM    2  C2  UNL     1     -17.280  43.487 -20.610  1.00  0.00    -0.026 C 
HETATM    3  C3  UNL     1     -17.402  44.211 -21.740  1.00  0.00    -0.050 C 
HETATM    4  C4  UNL     1     -18.503  43.824 -22.722  1.00  0.00     0.310 C 
HETATM    5  N1  UNL     1     -18.140  43.773 -24.128  1.00  0.00     0.125 N 
HETATM    6  C5  UNL     1     -17.327  42.583 -24.419  1.00  0.00     0.277 C 
HETATM    7  C6  UNL     1     -15.902  42.985 -24.091  1.00  0.00     0.051 C 
HETATM    8  C7  UNL     1     -15.872  44.499 -24.386  1.00  0.00     0.070 C 
HETATM    9  C8  UNL     1     -15.227  44.685 -25.752  1.00  0.00    -0.016 A 
HETATM   10  C9  UNL     1     -13.886  44.566 -26.106  1.00  0.00     0.018 A 
HETATM   11  C10 UNL     1     -13.499  44.759 -27.438  1.00  0.00    -0.048 A 
HETATM   12  C33 UNL     1     -14.493  45.005 -28.405  1.00  0.00     0.010 A 
HETATM   13  C34 UNL     1     -15.841  45.093 -28.042  1.00  0.00     0.030 A 
HETATM   14  C35 UNL     1     -16.202  44.947 -26.714  1.00  0.00     0.039 A 
HETATM   15  N4  UNL     1     -17.462  45.090 -26.167  1.00  0.00    -0.347 N 
HETATM   16  C36 UNL     1     -18.671  44.775 -26.890  1.00  0.00     0.152 C 
HETATM   17  C37 UNL     1     -17.383  44.912 -24.697  1.00  0.00     0.274 C 
HETATM   18  C38 UNL     1     -17.596  46.402 -24.097  1.00  0.00     0.186 C 
HETATM   19  C39 UNL     1     -17.656  46.495 -22.576  1.00  0.00     0.047 C 
HETATM   20  C40 UNL     1     -16.603  45.485 -22.075  1.00  0.00     0.043 C 
HETATM   21  C41 UNL     1     -15.436  45.388 -23.175  1.00  0.00     0.121 C 
HETATM   22  C44 UNL     1     -15.249  46.818 -23.752  1.00  0.00     0.277 C 
HETATM   23  O7  UNL     1     -16.444  47.235 -24.439  1.00  0.00    -0.350 OA
ENDROOT
BRANCH  11  24
HETATM   24  C11 UNL     1     -12.005  44.810 -27.811  1.00  0.00     0.070 C 
HETATM   25  C12 UNL     1     -11.700  46.265 -28.228  1.00  0.00     0.026 C 
HETATM   26  C13 UNL     1     -10.279  46.863 -28.009  1.00  0.00     0.039 C 
HETATM   27  C14 UNL     1      -9.495  46.172 -26.906  1.00  0.00    -0.051 C 
HETATM   28  C29 UNL     1      -9.435  47.011 -29.300  1.00  0.00     0.107 C 
HETATM   29  C15 UNL     1      -9.677  46.426 -25.591  1.00  0.00    -0.026 C 
HETATM   30  C17 UNL     1      -8.424  45.186 -27.325  1.00  0.00     0.306 C 
HETATM   31  C16 UNL     1     -10.657  47.373 -24.968  1.00  0.00     0.036 C 
HETATM   32  N2  UNL     1      -8.548  44.671 -28.677  1.00  0.00     0.094 N 
HETATM   33  C18 UNL     1      -7.388  43.869 -29.061  1.00  0.00     0.310 C 
HETATM   34  C19 UNL     1      -8.991  45.583 -29.753  1.00  0.00     0.248 C 
HETATM   35  C20 UNL     1     -10.066  44.837 -30.619  1.00  0.00     0.079 C 
HETATM   36  C21 UNL     1     -10.865  43.727 -29.981  1.00  0.00    -0.020 A 
HETATM   37  C22 UNL     1     -11.652  43.753 -28.833  1.00  0.00     0.025 A 
HETATM   38  C28 UNL     1     -10.943  42.383 -30.513  1.00  0.00    -0.001 A 
HETATM   39  N3  UNL     1     -12.118  42.468 -28.635  1.00  0.00    -0.358 N 
HETATM   40  C23 UNL     1     -11.735  41.630 -29.654  1.00  0.00     0.043 A 
HETATM   41  H28 UNL     1     -12.693  42.192 -27.848  1.00  0.00     0.166 HD
HETATM   42  C24 UNL     1     -12.018  40.272 -29.862  1.00  0.00     0.030 A 
HETATM   43  C25 UNL     1     -11.468  39.658 -30.988  1.00  0.00     0.002 A 
HETATM   44  C26 UNL     1     -10.667  40.381 -31.869  1.00  0.00     0.001 A 
HETATM   45  C27 UNL     1     -10.399  41.739 -31.647  1.00  0.00     0.014 A 
BRANCH  28  46
HETATM   46  C30 UNL     1      -8.223  47.998 -29.107  1.00  0.00     0.186 C 
BRANCH  46  47
HETATM   47  O1  UNL     1      -8.493  49.224 -28.460  1.00  0.00    -0.399 OA
HETATM   48  H35 UNL     1      -7.704  49.788 -28.545  1.00  0.00     0.209 HD
ENDBRANCH  46  47
ENDBRANCH  28  46
BRANCH  28  49
HETATM   49  C31 UNL     1     -10.170  47.760 -30.420  1.00  0.00     0.272 C 
HETATM   50  O2  UNL     1     -11.163  48.449 -30.226  1.00  0.00    -0.264 OA
BRANCH  49  51
HETATM   51  O3  UNL     1      -9.674  47.491 -31.656  1.00  0.00    -0.326 OA
HETATM   52  C32 UNL     1      -8.706  48.420 -32.139  1.00  0.00     0.213 C 
ENDBRANCH  49  51
ENDBRANCH  28  49
ENDBRANCH  11  24
BRANCH  21  53
HETATM   53  C42 UNL     1     -14.093  44.960 -22.612  1.00  0.00     0.274 C 
HETATM   54  O4  UNL     1     -13.923  43.962 -21.921  1.00  0.00    -0.264 OA
BRANCH  53  55
HETATM   55  O5  UNL     1     -13.090  45.832 -22.893  1.00  0.00    -0.326 OA
HETATM   56  C43 UNL     1     -12.095  45.926 -21.872  1.00  0.00     0.213 C 
ENDBRANCH  53  55
ENDBRANCH  21  53
BRANCH  22  57
HETATM   57  O6  UNL     1     -14.981  47.757 -22.721  1.00  0.00    -0.370 OA
HETATM   58  H52 UNL     1     -14.713  48.567 -23.190  1.00  0.00     0.212 HD
ENDBRANCH  22  57
TORSDOF 8
ENDMDL
MODEL 5
REMARK minimizedAffinity -8.0692606
REMARK CNNscore 0.113744535
REMARK CNNaffinity 6.33365631
REMARK  8 active torsions:
REMARK  status: ('A' for Active; 'I' for Inactive)
REMARK    1  A    between atoms: C10_11  and  C11_12 
REMARK    2  A    between atoms: C29_32  and  C30_33 
REMARK    3  A    between atoms: C29_32  and  C31_35 
REMARK    4  A    between atoms: C30_33  and  O1_34 
REMARK    5  A    between atoms: C31_35  and  O3_37 
REMARK    6  A    between atoms: C41_48  and  C42_49 
REMARK    7  A    between atoms: C42_49  and  O5_51 
REMARK    8  A    between atoms: C44_53  and  O6_54 
ROOT
HETATM    1  C1  UNL     1     -19.599  45.209 -20.155  1.00  0.00     0.036 C 
HETATM    2  C2  UNL     1     -19.525  44.061 -21.107  1.00  0.00    -0.026 C 
HETATM    3  C3  UNL     1     -19.285  44.084 -22.433  1.00  0.00    -0.050 C 
HETATM    4  C4  UNL     1     -19.370  42.768 -23.198  1.00  0.00     0.310 C 
HETATM    5  N1  UNL     1     -18.305  42.490 -24.147  1.00  0.00     0.125 N 
HETATM    6  C5  UNL     1     -17.064  42.119 -23.453  1.00  0.00     0.277 C 
HETATM    7  C6  UNL     1     -16.388  43.434 -23.115  1.00  0.00     0.051 C 
HETATM    8  C7  UNL     1     -16.830  44.375 -24.254  1.00  0.00     0.070 C 
HETATM    9  C8  UNL     1     -15.683  44.456 -25.251  1.00  0.00    -0.016 A 
HETATM   10  C9  UNL     1     -14.471  45.131 -25.132  1.00  0.00     0.018 A 
HETATM   11  C10 UNL     1     -13.531  45.059 -26.168  1.00  0.00    -0.048 A 
HETATM   12  C33 UNL     1     -13.811  44.245 -27.283  1.00  0.00     0.010 A 
HETATM   13  C34 UNL     1     -15.019  43.548 -27.378  1.00  0.00     0.030 A 
HETATM   14  C35 UNL     1     -15.958  43.667 -26.368  1.00  0.00     0.039 A 
HETATM   15  N4  UNL     1     -17.229  43.127 -26.336  1.00  0.00    -0.347 N 
HETATM   16  C36 UNL     1     -17.566  41.877 -26.975  1.00  0.00     0.152 C 
HETATM   17  C37 UNL     1     -17.916  43.560 -25.096  1.00  0.00     0.274 C 
HETATM   18  C38 UNL     1     -19.022  44.633 -25.599  1.00  0.00     0.186 C 
HETATM   19  C39 UNL     1     -19.950  45.176 -24.518  1.00  0.00     0.047 C 
HETATM   20  C40 UNL     1     -19.052  45.352 -23.276  1.00  0.00     0.043 C 
HETATM   21  C41 UNL     1     -17.560  45.674 -23.777  1.00  0.00     0.121 C 
HETATM   22  C44 UNL     1     -17.697  46.565 -25.042  1.00  0.00     0.277 C 
HETATM   23  O7  UNL     1     -18.348  45.831 -26.096  1.00  0.00    -0.350 OA
ENDROOT
BRANCH  11  24
HETATM   24  C11 UNL     1     -12.270  45.943 -26.131  1.00  0.00     0.070 C 
HETATM   25  C12 UNL     1     -11.227  45.266 -27.046  1.00  0.00     0.026 C 
HETATM   26  C13 UNL     1     -10.164  46.124 -27.794  1.00  0.00     0.039 C 
HETATM   27  C14 UNL     1     -10.592  47.566 -28.009  1.00  0.00    -0.051 C 
HETATM   28  C29 UNL     1      -8.734  46.038 -27.204  1.00  0.00     0.107 C 
HETATM   29  C15 UNL     1     -11.430  47.956 -28.995  1.00  0.00    -0.026 C 
HETATM   30  C17 UNL     1     -10.000  48.614 -27.088  1.00  0.00     0.306 C 
HETATM   31  C16 UNL     1     -12.103  47.093 -30.019  1.00  0.00     0.036 C 
HETATM   32  N2  UNL     1      -9.450  48.108 -25.843  1.00  0.00     0.094 N 
HETATM   33  C18 UNL     1      -8.746  49.149 -25.097  1.00  0.00     0.310 C 
HETATM   34  C19 UNL     1      -8.720  46.822 -25.854  1.00  0.00     0.248 C 
HETATM   35  C20 UNL     1      -9.206  45.970 -24.628  1.00  0.00     0.079 C 
HETATM   36  C21 UNL     1     -10.583  46.230 -24.068  1.00  0.00    -0.020 A 
HETATM   37  C22 UNL     1     -11.817  46.205 -24.712  1.00  0.00     0.025 A 
HETATM   38  C28 UNL     1     -10.840  46.554 -22.681  1.00  0.00    -0.001 A 
HETATM   39  N3  UNL     1     -12.765  46.576 -23.780  1.00  0.00    -0.358 N 
HETATM   40  C23 UNL     1     -12.208  46.757 -22.537  1.00  0.00     0.043 A 
HETATM   41  H28 UNL     1     -13.752  46.673 -23.987  1.00  0.00     0.166 HD
HETATM   42  C24 UNL     1     -12.809  47.097 -21.317  1.00  0.00     0.030 A 
HETATM   43  C25 UNL     1     -11.983  47.240 -20.202  1.00  0.00     0.002 A 
HETATM   44  C26 UNL     1     -10.608  47.049 -20.310  1.00  0.00     0.001 A 
HETATM   45  C27 UNL     1     -10.025  46.704 -21.537  1.00  0.00     0.014 A 
BRANCH  28  46
HETATM   46  C30 UNL     1      -7.642  46.545 -28.220  1.00  0.00     0.186 C 
BRANCH  46  47
HETATM   47  O1  UNL     1      -6.670  47.440 -27.721  1.00  0.00    -0.399 OA
HETATM   48  H35 UNL     1      -6.163  47.784 -28.478  1.00  0.00     0.209 HD
ENDBRANCH  46  47
ENDBRANCH  28  46
BRANCH  28  49
HETATM   49  C31 UNL     1      -8.238  44.595 -27.030  1.00  0.00     0.272 C 
HETATM   50  O2  UNL     1      -7.635  43.984 -27.902  1.00  0.00    -0.264 OA
BRANCH  49  51
HETATM   51  O3  UNL     1      -8.635  44.033 -25.858  1.00  0.00    -0.326 OA
HETATM   52  C32 UNL     1      -7.940  42.845 -25.487  1.00  0.00     0.213 C 
ENDBRANCH  49  51
ENDBRANCH  28  49
ENDBRANCH  11  24
BRANCH  21  53
HETATM   53  C42 UNL     1     -16.728  46.455 -22.775  1.00  0.00     0.274 C 
HETATM   54  O4  UNL     1     -15.762  47.147 -23.073  1.00  0.00    -0.264 OA
BRANCH  53  55
HETATM   55  O5  UNL     1     -17.118  46.262 -21.488  1.00  0.00    -0.326 OA
HETATM   56  C43 UNL     1     -16.161  46.687 -20.517  1.00  0.00     0.213 C 
ENDBRANCH  53  55
ENDBRANCH  21  53
BRANCH  22  57
HETATM   57  O6  UNL     1     -18.467  47.727 -24.771  1.00  0.00    -0.370 OA
HETATM   58  H52 UNL     1     -18.349  48.289 -25.557  1.00  0.00     0.212 HD
ENDBRANCH  22  57
TORSDOF 8
ENDMDL
MODEL 6
REMARK minimizedAffinity -9.11679459
REMARK CNNscore 0.0995005965
REMARK CNNaffinity 6.89380503
REMARK  8 active torsions:
REMARK  status: ('A' for Active; 'I' for Inactive)
REMARK    1  A    between atoms: C10_11  and  C11_12 
REMARK    2  A    between atoms: C29_32  and  C30_33 
REMARK    3  A    between atoms: C29_32  and  C31_35 
REMARK    4  A    between atoms: C30_33  and  O1_34 
REMARK    5  A    between atoms: C31_35  and  O3_37 
REMARK    6  A    between atoms: C41_48  and  C42_49 
REMARK    7  A    between atoms: C42_49  and  O5_51 
REMARK    8  A    between atoms: C44_53  and  O6_54 
ROOT
HETATM    1  C1  UNL     1      -3.946  52.289 -23.224  1.00  0.00     0.036 C 
HETATM    2  C2  UNL     1      -4.657  51.060 -22.766  1.00  0.00    -0.026 C 
HETATM    3  C3  UNL     1      -4.147  49.974 -22.153  1.00  0.00    -0.050 C 
HETATM    4  C4  UNL     1      -5.081  48.799 -21.884  1.00  0.00     0.310 C 
HETATM    5  N1  UNL     1      -5.008  48.190 -20.566  1.00  0.00     0.125 N 
HETATM    6  C5  UNL     1      -5.637  49.048 -19.553  1.00  0.00     0.277 C 
HETATM    7  C6  UNL     1      -4.556  50.027 -19.134  1.00  0.00     0.051 C 
HETATM    8  C7  UNL     1      -3.249  49.227 -19.313  1.00  0.00     0.070 C 
HETATM    9  C8  UNL     1      -2.827  48.730 -17.939  1.00  0.00    -0.016 A 
HETATM   10  C9  UNL     1      -2.269  49.449 -16.885  1.00  0.00     0.018 A 
HETATM   11  C10 UNL     1      -1.969  48.799 -15.681  1.00  0.00    -0.048 A 
HETATM   12  C33 UNL     1      -2.304  47.438 -15.543  1.00  0.00     0.010 A 
HETATM   13  C34 UNL     1      -2.891  46.732 -16.598  1.00  0.00     0.030 A 
HETATM   14  C35 UNL     1      -3.137  47.377 -17.798  1.00  0.00     0.039 A 
HETATM   15  N4  UNL     1      -3.624  46.821 -18.965  1.00  0.00    -0.347 N 
HETATM   16  C36 UNL     1      -4.539  45.704 -18.979  1.00  0.00     0.152 C 
HETATM   17  C37 UNL     1      -3.670  47.859 -20.022  1.00  0.00     0.274 C 
HETATM   18  C38 UNL     1      -2.465  47.463 -21.031  1.00  0.00     0.186 C 
HETATM   19  C39 UNL     1      -2.344  48.327 -22.282  1.00  0.00     0.047 C 
HETATM   20  C40 UNL     1      -2.661  49.760 -21.807  1.00  0.00     0.043 C 
HETATM   21  C41 UNL     1      -2.207  49.891 -20.271  1.00  0.00     0.121 C 
HETATM   22  C44 UNL     1      -0.906  49.057 -20.119  1.00  0.00     0.277 C 
HETATM   23  O7  UNL     1      -1.181  47.663 -20.360  1.00  0.00    -0.350 OA
ENDROOT
BRANCH  11  24
HETATM   24  C11 UNL     1      -1.189  49.537 -14.576  1.00  0.00     0.070 C 
HETATM   25  C12 UNL     1       0.275  49.057 -14.671  1.00  0.00     0.026 C 
HETATM   26  C13 UNL     1       1.439  50.001 -14.248  1.00  0.00     0.039 C 
HETATM   27  C14 UNL     1       1.079  51.476 -14.321  1.00  0.00    -0.051 C 
HETATM   28  C29 UNL     1       2.100  49.644 -12.893  1.00  0.00     0.107 C 
HETATM   29  C15 UNL     1       1.077  52.186 -15.471  1.00  0.00    -0.026 C 
HETATM   30  C17 UNL     1       0.756  52.181 -13.019  1.00  0.00     0.306 C 
HETATM   31  C16 UNL     1       1.386  51.694 -16.852  1.00  0.00     0.036 C 
HETATM   32  N2  UNL     1       0.391  51.311 -11.916  1.00  0.00     0.094 N 
HETATM   33  C18 UNL     1       0.267  52.049 -10.660  1.00  0.00     0.310 C 
HETATM   34  C19 UNL     1       1.101  50.024 -11.753  1.00  0.00     0.248 C 
HETATM   35  C20 UNL     1       0.038  48.909 -11.454  1.00  0.00     0.079 C 
HETATM   36  C21 UNL     1      -1.378  49.112 -11.936  1.00  0.00    -0.020 A 
HETATM   37  C22 UNL     1      -1.844  49.362 -13.224  1.00  0.00     0.025 A 
HETATM   38  C28 UNL     1      -2.538  49.063 -11.073  1.00  0.00    -0.001 A 
HETATM   39  N3  UNL     1      -3.211  49.536 -13.131  1.00  0.00    -0.358 N 
HETATM   40  C23 UNL     1      -3.661  49.324 -11.850  1.00  0.00     0.043 A 
HETATM   41  H28 UNL     1      -3.806  49.764 -13.919  1.00  0.00     0.166 HD
HETATM   42  C24 UNL     1      -4.962  49.363 -11.330  1.00  0.00     0.030 A 
HETATM   43  C25 UNL     1      -5.125  49.129  -9.965  1.00  0.00     0.002 A 
HETATM   44  C26 UNL     1      -4.023  48.867  -9.154  1.00  0.00     0.001 A 
HETATM   45  C27 UNL     1      -2.729  48.828  -9.692  1.00  0.00     0.014 A 
BRANCH  28  46
HETATM   46  C30 UNL     1       3.511  50.324 -12.723  1.00  0.00     0.186 C 
BRANCH  46  47
HETATM   47  O1  UNL     1       4.598  49.716 -13.388  1.00  0.00    -0.399 OA
HETATM   48  H35 UNL     1       5.416  50.142 -13.077  1.00  0.00     0.209 HD
ENDBRANCH  46  47
ENDBRANCH  28  46
BRANCH  28  49
HETATM   49  C31 UNL     1       2.536  48.176 -12.802  1.00  0.00     0.272 C 
HETATM   50  O2  UNL     1       3.302  47.755 -11.945  1.00  0.00    -0.264 OA
BRANCH  49  51
HETATM   51  O3  UNL     1       2.075  47.418 -13.832  1.00  0.00    -0.326 OA
HETATM   52  C32 UNL     1       2.959  46.392 -14.277  1.00  0.00     0.213 C 
ENDBRANCH  49  51
ENDBRANCH  28  49
ENDBRANCH  11  24
BRANCH  21  53
HETATM   53  C42 UNL     1      -1.873  51.311 -19.848  1.00  0.00     0.274 C 
HETATM   54  O4  UNL     1      -2.319  51.853 -18.843  1.00  0.00    -0.264 OA
BRANCH  53  55
HETATM   55  O5  UNL     1      -1.072  51.961 -20.733  1.00  0.00    -0.326 OA
HETATM   56  C43 UNL     1      -0.082  52.792 -20.125  1.00  0.00     0.213 C 
ENDBRANCH  53  55
ENDBRANCH  21  53
BRANCH  22  57
HETATM   57  O6  UNL     1       0.086  49.478 -21.043  1.00  0.00    -0.370 OA
HETATM   58  H52 UNL     1       0.898  49.024 -20.755  1.00  0.00     0.212 HD
ENDBRANCH  22  57
TORSDOF 8
ENDMDL
MODEL 7
REMARK minimizedAffinity -7.9520545
REMARK CNNscore 0.0977490172
REMARK CNNaffinity 5.92101288
REMARK  8 active torsions:
REMARK  status: ('A' for Active; 'I' for Inactive)
REMARK    1  A    between atoms: C10_11  and  C11_12 
REMARK    2  A    between atoms: C29_32  and  C30_33 
REMARK    3  A    between atoms: C29_32  and  C31_35 
REMARK    4  A    between atoms: C30_33  and  O1_34 
REMARK    5  A    between atoms: C31_35  and  O3_37 
REMARK    6  A    between atoms: C41_48  and  C42_49 
REMARK    7  A    between atoms: C42_49  and  O5_51 
REMARK    8  A    between atoms: C44_53  and  O6_54 
ROOT
HETATM    1  C1  UNL     1     -17.467  45.587 -25.859  1.00  0.00     0.036 C 
HETATM    2  C2  UNL     1     -16.590  44.512 -26.410  1.00  0.00    -0.026 C 
HETATM    3  C3  UNL     1     -15.370  44.628 -26.969  1.00  0.00    -0.050 C 
HETATM    4  C4  UNL     1     -14.728  43.374 -27.553  1.00  0.00     0.310 C 
HETATM    5  N1  UNL     1     -13.327  43.146 -27.239  1.00  0.00     0.125 N 
HETATM    6  C5  UNL     1     -13.165  42.699 -25.848  1.00  0.00     0.277 C 
HETATM    7  C6  UNL     1     -13.118  43.972 -25.025  1.00  0.00     0.051 C 
HETATM    8  C7  UNL     1     -12.486  45.003 -25.982  1.00  0.00     0.070 C 
HETATM    9  C8  UNL     1     -11.018  45.135 -25.608  1.00  0.00    -0.016 A 
HETATM   10  C9  UNL     1     -10.452  45.775 -24.508  1.00  0.00     0.018 A 
HETATM   11  C10 UNL     1      -9.063  45.761 -24.334  1.00  0.00    -0.048 A 
HETATM   12  C33 UNL     1      -8.271  45.037 -25.247  1.00  0.00     0.010 A 
HETATM   13  C34 UNL     1      -8.853  44.373 -26.332  1.00  0.00     0.030 A 
HETATM   14  C35 UNL     1     -10.223  44.436 -26.517  1.00  0.00     0.039 A 
HETATM   15  N4  UNL     1     -10.952  43.921 -27.571  1.00  0.00    -0.347 N 
HETATM   16  C36 UNL     1     -10.562  42.728 -28.285  1.00  0.00     0.152 C 
HETATM   17  C37 UNL     1     -12.381  44.275 -27.400  1.00  0.00     0.274 C 
HETATM   18  C38 UNL     1     -12.657  45.404 -28.530  1.00  0.00     0.186 C 
HETATM   19  C39 UNL     1     -14.100  45.884 -28.640  1.00  0.00     0.047 C 
HETATM   20  C40 UNL     1     -14.609  45.950 -27.186  1.00  0.00     0.043 C 
HETATM   21  C41 UNL     1     -13.358  46.278 -26.231  1.00  0.00     0.121 C 
HETATM   22  C44 UNL     1     -12.448  47.262 -27.013  1.00  0.00     0.277 C 
HETATM   23  O7  UNL     1     -11.923  46.622 -28.192  1.00  0.00    -0.350 OA
ENDROOT
BRANCH  11  24
HETATM   24  C11 UNL     1      -8.412  46.614 -23.228  1.00  0.00     0.070 C 
HETATM   25  C12 UNL     1      -6.995  46.045 -23.004  1.00  0.00     0.026 C 
HETATM   26  C13 UNL     1      -5.841  46.976 -22.528  1.00  0.00     0.039 C 
HETATM   27  C14 UNL     1      -6.065  48.440 -22.869  1.00  0.00    -0.051 C 
HETATM   28  C29 UNL     1      -5.436  46.794 -21.043  1.00  0.00     0.107 C 
HETATM   29  C15 UNL     1      -5.827  48.965 -24.091  1.00  0.00    -0.026 C 
HETATM   30  C17 UNL     1      -6.534  49.352 -21.754  1.00  0.00     0.306 C 
HETATM   31  C16 UNL     1      -5.342  48.250 -25.316  1.00  0.00     0.036 C 
HETATM   32  N2  UNL     1      -7.139  48.683 -20.616  1.00  0.00     0.094 N 
HETATM   33  C18 UNL     1      -7.402  49.609 -19.517  1.00  0.00     0.310 C 
HETATM   34  C19 UNL     1      -6.570  47.399 -20.155  1.00  0.00     0.248 C 
HETATM   35  C20 UNL     1      -7.753  46.404 -19.886  1.00  0.00     0.079 C 
HETATM   36  C21 UNL     1      -9.053  46.609 -20.626  1.00  0.00    -0.020 A 
HETATM   37  C22 UNL     1      -9.286  46.685 -21.996  1.00  0.00     0.025 A 
HETATM   38  C28 UNL     1     -10.336  46.757 -19.973  1.00  0.00    -0.001 A 
HETATM   39  N3  UNL     1     -10.632  46.947 -22.161  1.00  0.00    -0.358 N 
HETATM   40  C23 UNL     1     -11.296  46.959 -20.958  1.00  0.00     0.043 A 
HETATM   41  H28 UNL     1     -11.073  47.085 -23.063  1.00  0.00     0.166 HD
HETATM   42  C24 UNL     1     -12.656  47.149 -20.678  1.00  0.00     0.030 A 
HETATM   43  C25 UNL     1     -13.053  47.137 -19.341  1.00  0.00     0.002 A 
HETATM   44  C26 UNL     1     -12.119  46.940 -18.326  1.00  0.00     0.001 A 
HETATM   45  C27 UNL     1     -10.763  46.748 -18.626  1.00  0.00     0.014 A 
BRANCH  28  46
HETATM   46  C30 UNL     1      -4.020  47.411 -20.735  1.00  0.00     0.186 C 
BRANCH  46  47
HETATM   47  O1  UNL     1      -3.870  48.085 -19.504  1.00  0.00    -0.399 OA
HETATM   48  H35 UNL     1      -3.009  48.539 -19.513  1.00  0.00     0.209 HD
ENDBRANCH  46  47
ENDBRANCH  28  46
BRANCH  28  49
HETATM   49  C31 UNL     1      -5.140  45.334 -20.673  1.00  0.00     0.272 C 
HETATM   50  O2  UNL     1      -5.950  44.428 -20.817  1.00  0.00    -0.264 OA
BRANCH  49  51
HETATM   51  O3  UNL     1      -3.933  45.172 -20.068  1.00  0.00    -0.326 OA
HETATM   52  C32 UNL     1      -3.852  44.082 -19.152  1.00  0.00     0.213 C 
ENDBRANCH  49  51
ENDBRANCH  28  49
ENDBRANCH  11  24
BRANCH  21  53
HETATM   53  C42 UNL     1     -13.740  46.966 -24.932  1.00  0.00     0.274 C 
HETATM   54  O4  UNL     1     -12.932  47.343 -24.090  1.00  0.00    -0.264 OA
BRANCH  53  55
HETATM   55  O5  UNL     1     -15.082  47.069 -24.752  1.00  0.00    -0.326 OA
HETATM   56  C43 UNL     1     -15.475  47.304 -23.400  1.00  0.00     0.213 C 
ENDBRANCH  53  55
ENDBRANCH  21  53
BRANCH  22  57
HETATM   57  O6  UNL     1     -13.168  48.416 -27.421  1.00  0.00    -0.370 OA
HETATM   58  H52 UNL     1     -12.485  49.032 -27.740  1.00  0.00     0.212 HD
ENDBRANCH  22  57
TORSDOF 8
ENDMDL
MODEL 8
REMARK minimizedAffinity -7.64329195
REMARK CNNscore 0.0825053751
REMARK CNNaffinity 5.36987066
REMARK  8 active torsions:
REMARK  status: ('A' for Active; 'I' for Inactive)
REMARK    1  A    between atoms: C10_11  and  C11_12 
REMARK    2  A    between atoms: C29_32  and  C30_33 
REMARK    3  A    between atoms: C29_32  and  C31_35 
REMARK    4  A    between atoms: C30_33  and  O1_34 
REMARK    5  A    between atoms: C31_35  and  O3_37 
REMARK    6  A    between atoms: C41_48  and  C42_49 
REMARK    7  A    between atoms: C42_49  and  O5_51 
REMARK    8  A    between atoms: C44_53  and  O6_54 
ROOT
HETATM    1  C1  UNL     1     -16.976  45.847 -26.363  1.00  0.00     0.036 C 
HETATM    2  C2  UNL     1     -16.093  44.847 -27.034  1.00  0.00    -0.026 C 
HETATM    3  C3  UNL     1     -14.811  44.987 -27.422  1.00  0.00    -0.050 C 
HETATM    4  C4  UNL     1     -14.166  43.837 -28.189  1.00  0.00     0.310 C 
HETATM    5  N1  UNL     1     -12.826  43.448 -27.784  1.00  0.00     0.125 N 
HETATM    6  C5  UNL     1     -12.853  42.714 -26.511  1.00  0.00     0.277 C 
HETATM    7  C6  UNL     1     -12.841  43.783 -25.435  1.00  0.00     0.051 C 
HETATM    8  C7  UNL     1     -12.051  44.941 -26.078  1.00  0.00     0.070 C 
HETATM    9  C8  UNL     1     -10.633  44.885 -25.530  1.00  0.00    -0.016 A 
HETATM   10  C9  UNL     1     -10.172  45.242 -24.266  1.00  0.00     0.018 A 
HETATM   11  C10 UNL     1      -8.815  45.092 -23.952  1.00  0.00    -0.048 A 
HETATM   12  C33 UNL     1      -7.957  44.516 -24.909  1.00  0.00     0.010 A 
HETATM   13  C34 UNL     1      -8.437  44.134 -26.166  1.00  0.00     0.030 A 
HETATM   14  C35 UNL     1      -9.770  44.333 -26.477  1.00  0.00     0.039 A 
HETATM   15  N4  UNL     1     -10.393  44.100 -27.688  1.00  0.00    -0.347 N 
HETATM   16  C36 UNL     1      -9.979  43.055 -28.595  1.00  0.00     0.152 C 
HETATM   17  C37 UNL     1     -11.814  44.514 -27.599  1.00  0.00     0.274 C 
HETATM   18  C38 UNL     1     -11.897  45.868 -28.485  1.00  0.00     0.186 C 
HETATM   19  C39 UNL     1     -13.292  46.464 -28.643  1.00  0.00     0.047 C 
HETATM   20  C40 UNL     1     -13.967  46.267 -27.271  1.00  0.00     0.043 C 
HETATM   21  C41 UNL     1     -12.824  46.299 -26.141  1.00  0.00     0.121 C 
HETATM   22  C44 UNL     1     -11.780  47.355 -26.594  1.00  0.00     0.277 C 
HETATM   23  O7  UNL     1     -11.150  46.934 -27.819  1.00  0.00    -0.350 OA
ENDROOT
BRANCH  11  24
HETATM   24  C11 UNL     1      -8.260  45.649 -22.627  1.00  0.00     0.070 C 
HETATM   25  C12 UNL     1      -9.453  45.746 -21.652  1.00  0.00     0.026 C 
HETATM   26  C13 UNL     1      -9.227  45.593 -20.118  1.00  0.00     0.039 C 
HETATM   27  C14 UNL     1      -7.973  44.809 -19.766  1.00  0.00    -0.051 C 
HETATM   28  C29 UNL     1      -9.312  46.917 -19.318  1.00  0.00     0.107 C 
HETATM   29  C15 UNL     1      -7.906  43.460 -19.792  1.00  0.00    -0.026 C 
HETATM   30  C17 UNL     1      -6.760  45.599 -19.319  1.00  0.00     0.306 C 
HETATM   31  C16 UNL     1      -8.987  42.497 -20.178  1.00  0.00     0.036 C 
HETATM   32  N2  UNL     1      -6.761  47.004 -19.688  1.00  0.00     0.094 N 
HETATM   33  C18 UNL     1      -5.651  47.728 -19.073  1.00  0.00     0.310 C 
HETATM   34  C19 UNL     1      -8.033  47.756 -19.634  1.00  0.00     0.248 C 
HETATM   35  C20 UNL     1      -8.152  48.615 -20.942  1.00  0.00     0.079 C 
HETATM   36  C21 UNL     1      -7.420  48.154 -22.179  1.00  0.00    -0.020 A 
HETATM   37  C22 UNL     1      -7.492  46.934 -22.844  1.00  0.00     0.025 A 
HETATM   38  C28 UNL     1      -6.478  48.975 -22.909  1.00  0.00    -0.001 A 
HETATM   39  N3  UNL     1      -6.579  46.985 -23.879  1.00  0.00    -0.358 N 
HETATM   40  C23 UNL     1      -5.979  48.218 -23.963  1.00  0.00     0.043 A 
HETATM   41  H28 UNL     1      -6.399  46.213 -24.510  1.00  0.00     0.166 HD
HETATM   42  C24 UNL     1      -5.032  48.703 -24.876  1.00  0.00     0.030 A 
HETATM   43  C25 UNL     1      -4.572  50.008 -24.705  1.00  0.00     0.002 A 
HETATM   44  C26 UNL     1      -5.046  50.795 -23.658  1.00  0.00     0.001 A 
HETATM   45  C27 UNL     1      -5.997  50.295 -22.757  1.00  0.00     0.014 A 
BRANCH  28  46
HETATM   46  C30 UNL     1      -9.518  46.667 -17.777  1.00  0.00     0.186 C 
BRANCH  46  47
HETATM   47  O1  UNL     1      -9.067  47.677 -16.899  1.00  0.00    -0.399 OA
HETATM   48  H35 UNL     1      -9.116  47.328 -15.991  1.00  0.00     0.209 HD
ENDBRANCH  46  47
ENDBRANCH  28  46
BRANCH  28  49
HETATM   49  C31 UNL     1     -10.597  47.710 -19.599  1.00  0.00     0.272 C 
HETATM   50  O2  UNL     1     -10.824  48.811 -19.115  1.00  0.00    -0.264 OA
BRANCH  49  51
HETATM   51  O3  UNL     1     -11.498  47.018 -20.345  1.00  0.00    -0.326 OA
HETATM   52  C32 UNL     1     -12.839  47.499 -20.281  1.00  0.00     0.213 C 
ENDBRANCH  49  51
ENDBRANCH  28  49
ENDBRANCH  11  24
BRANCH  21  53
HETATM   53  C42 UNL     1     -13.323  46.731 -24.773  1.00  0.00     0.274 C 
HETATM   54  O4  UNL     1     -12.601  47.161 -23.881  1.00  0.00    -0.264 OA
BRANCH  53  55
HETATM   55  O5  UNL     1     -14.656  46.532 -24.600  1.00  0.00    -0.326 OA
HETATM   56  C43 UNL     1     -15.196  47.164 -23.439  1.00  0.00     0.213 C 
ENDBRANCH  53  55
ENDBRANCH  21  53
BRANCH  22  57
HETATM   57  O6  UNL     1     -12.389  48.617 -26.821  1.00  0.00    -0.370 OA
HETATM   58  H52 UNL     1     -11.644  49.234 -26.927  1.00  0.00     0.212 HD
ENDBRANCH  22  57
TORSDOF 8
ENDMDL
MODEL 9
REMARK minimizedAffinity -8.53429222
REMARK CNNscore 0.0716262683
REMARK CNNaffinity 5.77746344
REMARK  8 active torsions:
REMARK  status: ('A' for Active; 'I' for Inactive)
REMARK    1  A    between atoms: C10_11  and  C11_12 
REMARK    2  A    between atoms: C29_32  and  C30_33 
REMARK    3  A    between atoms: C29_32  and  C31_35 
REMARK    4  A    between atoms: C30_33  and  O1_34 
REMARK    5  A    between atoms: C31_35  and  O3_37 
REMARK    6  A    between atoms: C41_48  and  C42_49 
REMARK    7  A    between atoms: C42_49  and  O5_51 
REMARK    8  A    between atoms: C44_53  and  O6_54 
ROOT
HETATM    1  C1  UNL     1     -19.545  44.964 -20.265  1.00  0.00     0.036 C 
HETATM    2  C2  UNL     1     -19.980  43.987 -21.306  1.00  0.00    -0.026 C 
HETATM    3  C3  UNL     1     -19.885  44.090 -22.646  1.00  0.00    -0.050 C 
HETATM    4  C4  UNL     1     -20.507  42.987 -23.495  1.00  0.00     0.310 C 
HETATM    5  N1  UNL     1     -19.712  42.483 -24.602  1.00  0.00     0.125 N 
HETATM    6  C5  UNL     1     -18.618  41.629 -24.120  1.00  0.00     0.277 C 
HETATM    7  C6  UNL     1     -17.490  42.584 -23.776  1.00  0.00     0.051 C 
HETATM    8  C7  UNL     1     -17.687  43.752 -24.764  1.00  0.00     0.070 C 
HETATM    9  C8  UNL     1     -16.695  43.561 -25.901  1.00  0.00    -0.016 A 
HETATM   10  C9  UNL     1     -15.318  43.765 -25.900  1.00  0.00     0.018 A 
HETATM   11  C10 UNL     1     -14.576  43.506 -27.059  1.00  0.00    -0.048 A 
HETATM   12  C33 UNL     1     -15.238  42.980 -28.185  1.00  0.00     0.010 A 
HETATM   13  C34 UNL     1     -16.617  42.752 -28.166  1.00  0.00     0.030 A 
HETATM   14  C35 UNL     1     -17.344  43.057 -27.028  1.00  0.00     0.039 A 
HETATM   15  N4  UNL     1     -18.713  42.982 -26.862  1.00  0.00    -0.347 N 
HETATM   16  C36 UNL     1     -19.534  42.010 -27.545  1.00  0.00     0.152 C 
HETATM   17  C37 UNL     1     -19.071  43.466 -25.507  1.00  0.00     0.274 C 
HETATM   18  C38 UNL     1     -19.774  44.904 -25.764  1.00  0.00     0.186 C 
HETATM   19  C39 UNL     1     -20.334  45.592 -24.524  1.00  0.00     0.047 C 
HETATM   20  C40 UNL     1     -19.309  45.298 -23.409  1.00  0.00     0.043 C 
HETATM   21  C41 UNL     1     -17.859  45.153 -24.087  1.00  0.00     0.121 C 
HETATM   22  C44 UNL     1     -17.803  46.186 -25.245  1.00  0.00     0.277 C 
HETATM   23  O7  UNL     1     -18.776  45.853 -26.253  1.00  0.00    -0.350 OA
ENDROOT
BRANCH  11  24
HETATM   24  C11 UNL     1     -13.087  43.897 -27.129  1.00  0.00     0.070 C 
HETATM   25  C12 UNL     1     -13.035  45.438 -27.193  1.00  0.00     0.026 C 
HETATM   26  C13 UNL     1     -11.817  46.208 -26.600  1.00  0.00     0.039 C 
HETATM   27  C14 UNL     1     -11.076  45.431 -25.525  1.00  0.00    -0.051 C 
HETATM   28  C29 UNL     1     -10.843  46.786 -27.658  1.00  0.00     0.107 C 
HETATM   29  C15 UNL     1     -11.496  45.346 -24.244  1.00  0.00    -0.026 C 
HETATM   30  C17 UNL     1      -9.773  44.765 -25.919  1.00  0.00     0.306 C 
HETATM   31  C16 UNL     1     -12.732  45.945 -23.644  1.00  0.00     0.036 C 
HETATM   32  N2  UNL     1      -9.588  44.555 -27.344  1.00  0.00     0.094 N 
HETATM   33  C18 UNL     1      -8.244  44.072 -27.652  1.00  0.00     0.310 C 
HETATM   34  C19 UNL     1     -10.050  45.596 -28.286  1.00  0.00     0.248 C 
HETATM   35  C20 UNL     1     -10.808  44.891 -29.466  1.00  0.00     0.079 C 
HETATM   36  C21 UNL     1     -11.442  43.545 -29.216  1.00  0.00    -0.020 A 
HETATM   37  C22 UNL     1     -12.376  43.175 -28.252  1.00  0.00     0.025 A 
HETATM   38  C28 UNL     1     -11.161  42.363 -30.002  1.00  0.00    -0.001 A 
HETATM   39  N3  UNL     1     -12.588  41.818 -28.396  1.00  0.00    -0.358 N 
HETATM   40  C23 UNL     1     -11.895  41.310 -29.469  1.00  0.00     0.043 A 
HETATM   41  H28 UNL     1     -13.202  41.276 -27.799  1.00  0.00     0.166 HD
HETATM   42  C24 UNL     1     -11.855  40.007 -29.984  1.00  0.00     0.030 A 
HETATM   43  C25 UNL     1     -11.031  39.767 -31.084  1.00  0.00     0.002 A 
HETATM   44  C26 UNL     1     -10.278  40.797 -31.643  1.00  0.00     0.001 A 
HETATM   45  C27 UNL     1     -10.334  42.095 -31.117  1.00  0.00     0.014 A 
BRANCH  28  46
HETATM   46  C30 UNL     1      -9.905  47.898 -27.054  1.00  0.00     0.186 C 
BRANCH  46  47
HETATM   47  O1  UNL     1     -10.530  48.953 -26.356  1.00  0.00    -0.399 OA
HETATM   48  H35 UNL     1      -9.857  49.634 -26.175  1.00  0.00     0.209 HD
ENDBRANCH  46  47
ENDBRANCH  28  46
BRANCH  28  49
HETATM   49  C31 UNL     1     -11.546  47.631 -28.729  1.00  0.00     0.272 C 
HETATM   50  O2  UNL     1     -12.511  48.345 -28.492  1.00  0.00    -0.264 OA
BRANCH  49  51
HETATM   51  O3  UNL     1     -11.060  47.418 -29.980  1.00  0.00    -0.326 OA
HETATM   52  C32 UNL     1     -10.116  48.383 -30.439  1.00  0.00     0.213 C 
ENDBRANCH  49  51
ENDBRANCH  28  49
ENDBRANCH  11  24
BRANCH  21  53
HETATM   53  C42 UNL     1     -16.707  45.475 -23.152  1.00  0.00     0.274 C 
HETATM   54  O4  UNL     1     -15.956  46.434 -23.289  1.00  0.00    -0.264 OA
BRANCH  53  55
HETATM   55  O5  UNL     1     -16.539  44.552 -22.169  1.00  0.00    -0.326 OA
HETATM   56  C43 UNL     1     -15.830  45.035 -21.028  1.00  0.00     0.213 C 
ENDBRANCH  53  55
ENDBRANCH  21  53
BRANCH  22  57
HETATM   57  O6  UNL     1     -18.082  47.498 -24.777  1.00  0.00    -0.370 OA
HETATM   58  H52 UNL     1     -17.855  48.079 -25.524  1.00  0.00     0.212 HD
ENDBRANCH  22  57
TORSDOF 8
ENDMDL
