MODEL 1
REMARK minimizedAffinity -6.79245901
REMARK CNNscore 0.219337538
REMARK CNNaffinity 5.32254982
REMARK  14 active torsions:
REMARK  status: ('A' for Active; 'I' for Inactive)
REMARK    1  A    between atoms: C2_2  and  C4_4 
REMARK    2  A    between atoms: C7_7  and  C8_8 
REMARK    3  A    between atoms: C8_8  and  O2_10 
REMARK    4  A    between atoms: C21_23  and  O3_24 
REMARK    5  A    between atoms: O3_24  and  C22_25 
REMARK    6  A    between atoms: C22_25  and  C23_27 
REMARK    7  A    between atoms: C23_27  and  N1_28 
REMARK    8  A    between atoms: N1_28  and  O5_29 
REMARK    9  A    between atoms: N1_28  and  C25_31 
REMARK   10  A    between atoms: C26_33  and  C27_34 
REMARK   11  A    between atoms: C27_34  and  O7_35 
REMARK   12  A    between atoms: C28_36  and  O8_37 
REMARK   13  A    between atoms: C29_38  and  O9_39 
REMARK   14  A    between atoms: C30_40  and  O10_41 
ROOT
HETATM    1  C4  UNL     1       6.527  15.285  22.692  1.00  0.00     0.019 C 
HETATM    2  C5  UNL     1       7.635  15.399  23.760  1.00  0.00     0.011 C 
HETATM    3  C6  UNL     1       8.936  15.099  23.023  1.00  0.00     0.021 C 
HETATM    4  C7  UNL     1       8.586  14.022  21.969  1.00  0.00     0.050 C 
HETATM    5  C9  UNL     1       9.373  14.293  20.672  1.00  0.00     0.022 C 
HETATM    6  C10 UNL     1       8.707  13.767  19.394  1.00  0.00     0.011 C 
HETATM    7  C11 UNL     1       7.239  14.262  19.178  1.00  0.00    -0.032 C 
HETATM    8  C12 UNL     1       7.304  15.807  19.133  1.00  0.00     0.016 C 
HETATM    9  C13 UNL     1       6.437  13.758  20.432  1.00  0.00     0.000 C 
HETATM   10  C14 UNL     1       6.239  12.203  20.389  1.00  0.00     0.006 C 
HETATM   11  C15 UNL     1       6.003  11.587  19.013  1.00  0.00     0.006 C 
HETATM   12  C16 UNL     1       5.441  12.637  18.063  1.00  0.00     0.003 C 
HETATM   13  C17 UNL     1       4.596  12.065  16.848  1.00  0.00    -0.035 C 
HETATM   14  C18 UNL     1       5.454  11.148  15.949  1.00  0.00     0.016 C 
HETATM   15  C19 UNL     1       3.416  11.202  17.420  1.00  0.00     0.012 C 
HETATM   16  C20 UNL     1       2.056  11.398  16.740  1.00  0.00     0.034 C 
HETATM   17  C21 UNL     1       2.138  11.646  15.234  1.00  0.00     0.140 C 
HETATM   18  C31 UNL     1       2.989  12.921  14.901  1.00  0.00    -0.017 C 
HETATM   19  C32 UNL     1       3.703  12.798  13.538  1.00  0.00     0.018 C 
HETATM   20  C33 UNL     1       1.986  14.105  14.745  1.00  0.00     0.018 C 
HETATM   21  C34 UNL     1       3.974  13.284  16.084  1.00  0.00     0.004 C 
HETATM   22  C35 UNL     1       5.026  14.351  15.732  1.00  0.00     0.007 C 
HETATM   23  C36 UNL     1       5.797  14.839  16.968  1.00  0.00     0.011 C 
HETATM   24  C37 UNL     1       6.550  13.718  17.758  1.00  0.00    -0.032 C 
HETATM   25  C38 UNL     1       7.682  13.215  16.825  1.00  0.00     0.016 C 
HETATM   26  C39 UNL     1       7.033  14.075  21.840  1.00  0.00     0.017 C 
ENDROOT
BRANCH  17  27
HETATM   27  O3  UNL     1       2.673  10.449  14.635  1.00  0.00    -0.314 OA
BRANCH  27  28
HETATM   28  C22 UNL     1       1.875   9.789  13.735  1.00  0.00     0.274 C 
HETATM   29  O4  UNL     1       2.289   9.216  12.737  1.00  0.00    -0.264 OA
BRANCH  28  30
HETATM   30  C23 UNL     1       0.438   9.799  14.275  1.00  0.00     0.234 C 
BRANCH  30  31
HETATM   31  N1  UNL     1      -0.606   9.270  13.368  1.00  0.00    -0.156 NA
BRANCH  31  32
HETATM   32  O5  UNL     1      -1.615  10.307  13.220  1.00  0.00    -0.305 OA
HETATM   33  C24 UNL     1      -1.674  11.067  14.427  1.00  0.00     0.230 C 
ENDBRANCH  31  32
BRANCH  31  34
HETATM   34  C25 UNL     1      -1.211   8.010  13.863  1.00  0.00     0.253 C 
HETATM   35  O6  UNL     1      -2.587   7.891  13.496  1.00  0.00    -0.356 OA
HETATM   36  C26 UNL     1      -3.276   6.779  14.104  1.00  0.00     0.178 C 
HETATM   37  C28 UNL     1      -2.574   5.431  13.824  1.00  0.00     0.180 C 
HETATM   38  C29 UNL     1      -1.057   5.498  14.088  1.00  0.00     0.182 C 
HETATM   39  C30 UNL     1      -0.445   6.734  13.412  1.00  0.00     0.195 C 
BRANCH  36  40
HETATM   40  C27 UNL     1      -3.543   7.041  15.598  1.00  0.00     0.198 C 
BRANCH  40  41
HETATM   41  O7  UNL     1      -3.633   5.825  16.328  1.00  0.00    -0.398 OA
HETATM   42  H42 UNL     1      -3.766   6.061  17.264  1.00  0.00     0.209 HD
ENDBRANCH  40  41
ENDBRANCH  36  40
BRANCH  37  43
HETATM   43  O8  UNL     1      -2.800   5.054  12.456  1.00  0.00    -0.390 OA
HETATM   44  H44 UNL     1      -2.216   5.617  11.904  1.00  0.00     0.210 HD
ENDBRANCH  37  43
BRANCH  38  45
HETATM   45  O9  UNL     1      -0.781   5.518  15.491  1.00  0.00    -0.390 OA
HETATM   46  H46 UNL     1      -1.066   4.655  15.845  1.00  0.00     0.210 HD
ENDBRANCH  38  45
BRANCH  39  47
HETATM   47  O10 UNL     1      -0.549   6.547  11.982  1.00  0.00    -0.389 OA
HETATM   48  H48 UNL     1      -0.788   7.432  11.628  1.00  0.00     0.210 HD
ENDBRANCH  39  47
ENDBRANCH  31  34
ENDBRANCH  30  31
ENDBRANCH  28  30
ENDBRANCH  27  28
ENDBRANCH  17  27
BRANCH   1  49
HETATM   49  C2  UNL     1       6.101  16.600  22.049  1.00  0.00    -0.088 C 
HETATM   50  C1  UNL     1       6.821  17.737  22.068  1.00  0.00     0.014 C 
HETATM   51  C3  UNL     1       4.697  16.642  21.492  1.00  0.00     0.043 C 
ENDBRANCH   1  49
BRANCH   4  52
HETATM   52  C8  UNL     1       9.014  12.643  22.501  1.00  0.00     0.149 C 
HETATM   53  O1  UNL     1       8.994  12.267  23.662  1.00  0.00    -0.649 OA
BRANCH  52  54
HETATM   54  O2  UNL     1       9.492  11.814  21.552  1.00  0.00    -0.776 OA
HETATM   55  H11 UNL     1       9.739  11.009  22.051  1.00  0.00     0.167 HD
ENDBRANCH  52  54
ENDBRANCH   4  52
TORSDOF 14
ENDMDL
MODEL 2
REMARK minimizedAffinity -8.08996201
REMARK CNNscore 0.214194283
REMARK CNNaffinity 6.22740173
REMARK  14 active torsions:
REMARK  status: ('A' for Active; 'I' for Inactive)
REMARK    1  A    between atoms: C2_2  and  C4_4 
REMARK    2  A    between atoms: C7_7  and  C8_8 
REMARK    3  A    between atoms: C8_8  and  O2_10 
REMARK    4  A    between atoms: C21_23  and  O3_24 
REMARK    5  A    between atoms: O3_24  and  C22_25 
REMARK    6  A    between atoms: C22_25  and  C23_27 
REMARK    7  A    between atoms: C23_27  and  N1_28 
REMARK    8  A    between atoms: N1_28  and  O5_29 
REMARK    9  A    between atoms: N1_28  and  C25_31 
REMARK   10  A    between atoms: C26_33  and  C27_34 
REMARK   11  A    between atoms: C27_34  and  O7_35 
REMARK   12  A    between atoms: C28_36  and  O8_37 
REMARK   13  A    between atoms: C29_38  and  O9_39 
REMARK   14  A    between atoms: C30_40  and  O10_41 
ROOT
HETATM    1  C4  UNL     1      -2.994  14.843  17.621  1.00  0.00     0.019 C 
HETATM    2  C5  UNL     1      -3.849  15.102  16.363  1.00  0.00     0.011 C 
HETATM    3  C6  UNL     1      -3.491  13.979  15.395  1.00  0.00     0.021 C 
HETATM    4  C7  UNL     1      -1.985  13.697  15.614  1.00  0.00     0.050 C 
HETATM    5  C9  UNL     1      -1.722  12.183  15.506  1.00  0.00     0.022 C 
HETATM    6  C10 UNL     1      -0.505  11.685  16.295  1.00  0.00     0.011 C 
HETATM    7  C11 UNL     1      -0.516  12.064  17.812  1.00  0.00    -0.032 C 
HETATM    8  C12 UNL     1      -1.806  11.449  18.404  1.00  0.00     0.016 C 
HETATM    9  C13 UNL     1      -0.558  13.635  17.852  1.00  0.00     0.000 C 
HETATM   10  C14 UNL     1       0.812  14.249  17.399  1.00  0.00     0.006 C 
HETATM   11  C15 UNL     1       2.067  13.492  17.821  1.00  0.00     0.006 C 
HETATM   12  C16 UNL     1       1.774  12.644  19.052  1.00  0.00     0.003 C 
HETATM   13  C17 UNL     1       3.036  12.300  19.952  1.00  0.00    -0.035 C 
HETATM   14  C18 UNL     1       4.084  11.487  19.161  1.00  0.00     0.016 C 
HETATM   15  C19 UNL     1       3.713  13.643  20.399  1.00  0.00     0.012 C 
HETATM   16  C20 UNL     1       4.164  13.707  21.863  1.00  0.00     0.034 C 
HETATM   17  C21 UNL     1       4.694  12.383  22.414  1.00  0.00     0.140 C 
HETATM   18  C31 UNL     1       3.616  11.247  22.331  1.00  0.00    -0.017 C 
HETATM   19  C32 UNL     1       4.259   9.855  22.146  1.00  0.00     0.018 C 
HETATM   20  C33 UNL     1       2.901  11.200  23.715  1.00  0.00     0.018 C 
HETATM   21  C34 UNL     1       2.519  11.571  21.238  1.00  0.00     0.004 C 
HETATM   22  C35 UNL     1       1.585  10.392  20.907  1.00  0.00     0.007 C 
HETATM   23  C36 UNL     1       0.399  10.820  20.028  1.00  0.00     0.011 C 
HETATM   24  C37 UNL     1       0.793  11.471  18.662  1.00  0.00    -0.032 C 
HETATM   25  C38 UNL     1       1.455  10.349  17.821  1.00  0.00     0.016 C 
HETATM   26  C39 UNL     1      -1.651  14.345  16.992  1.00  0.00     0.017 C 
ENDROOT
BRANCH  17  27
HETATM   27  O3  UNL     1       5.893  12.067  21.679  1.00  0.00    -0.314 OA
BRANCH  27  28
HETATM   28  C22 UNL     1       7.090  12.265  22.320  1.00  0.00     0.274 C 
HETATM   29  O4  UNL     1       7.418  11.705  23.357  1.00  0.00    -0.264 OA
BRANCH  28  30
HETATM   30  C23 UNL     1       7.951  13.187  21.446  1.00  0.00     0.234 C 
BRANCH  30  31
HETATM   31  N1  UNL     1       9.413  12.954  21.491  1.00  0.00    -0.156 NA
BRANCH  31  32
HETATM   32  O5  UNL     1      10.055  14.256  21.582  1.00  0.00    -0.305 OA
HETATM   33  C24 UNL     1       9.052  15.270  21.514  1.00  0.00     0.230 C 
ENDBRANCH  31  32
BRANCH  31  34
HETATM   34  C25 UNL     1       9.910  12.199  20.316  1.00  0.00     0.253 C 
HETATM   35  O6  UNL     1       9.206  12.538  19.119  1.00  0.00    -0.356 OA
HETATM   36  C26 UNL     1       9.517  11.705  17.984  1.00  0.00     0.178 C 
HETATM   37  C28 UNL     1      11.031  11.681  17.673  1.00  0.00     0.180 C 
HETATM   38  C29 UNL     1      11.880  11.430  18.934  1.00  0.00     0.182 C 
HETATM   39  C30 UNL     1      11.438  12.357  20.076  1.00  0.00     0.195 C 
BRANCH  36  40
HETATM   40  C27 UNL     1       8.891  10.305  18.133  1.00  0.00     0.198 C 
BRANCH  40  41
HETATM   41  O7  UNL     1       7.509  10.388  18.452  1.00  0.00    -0.398 OA
HETATM   42  H42 UNL     1       7.169   9.476  18.497  1.00  0.00     0.209 HD
ENDBRANCH  40  41
ENDBRANCH  36  40
BRANCH  37  43
HETATM   43  O8  UNL     1      11.414  12.934  17.085  1.00  0.00    -0.390 OA
HETATM   44  H44 UNL     1      11.445  13.593  17.811  1.00  0.00     0.210 HD
ENDBRANCH  37  43
BRANCH  38  45
HETATM   45  O9  UNL     1      11.794  10.065  19.348  1.00  0.00    -0.390 OA
HETATM   46  H46 UNL     1      12.212   9.532  18.646  1.00  0.00     0.210 HD
ENDBRANCH  38  45
BRANCH  39  47
HETATM   47  O10 UNL     1      11.764  13.712  19.691  1.00  0.00    -0.389 OA
HETATM   48  H48 UNL     1      11.002  14.252  19.997  1.00  0.00     0.210 HD
ENDBRANCH  39  47
ENDBRANCH  31  34
ENDBRANCH  30  31
ENDBRANCH  28  30
ENDBRANCH  27  28
ENDBRANCH  17  27
BRANCH   1  49
HETATM   49  C2  UNL     1      -3.692  14.079  18.740  1.00  0.00    -0.088 C 
HETATM   50  C1  UNL     1      -4.647  13.148  18.559  1.00  0.00     0.014 C 
HETATM   51  C3  UNL     1      -3.377  14.529  20.148  1.00  0.00     0.043 C 
ENDBRANCH   1  49
BRANCH   4  52
HETATM   52  C8  UNL     1      -1.178  14.396  14.506  1.00  0.00     0.149 C 
HETATM   53  O1  UNL     1      -0.427  15.350  14.636  1.00  0.00    -0.649 OA
BRANCH  52  54
HETATM   54  O2  UNL     1      -1.389  13.893  13.274  1.00  0.00    -0.776 OA
HETATM   55  H11 UNL     1      -0.834  14.454  12.695  1.00  0.00     0.167 HD
ENDBRANCH  52  54
ENDBRANCH   4  52
TORSDOF 14
ENDMDL
MODEL 3
REMARK minimizedAffinity -6.77613306
REMARK CNNscore 0.209943965
REMARK CNNaffinity 5.85275316
REMARK  14 active torsions:
REMARK  status: ('A' for Active; 'I' for Inactive)
REMARK    1  A    between atoms: C2_2  and  C4_4 
REMARK    2  A    between atoms: C7_7  and  C8_8 
REMARK    3  A    between atoms: C8_8  and  O2_10 
REMARK    4  A    between atoms: C21_23  and  O3_24 
REMARK    5  A    between atoms: O3_24  and  C22_25 
REMARK    6  A    between atoms: C22_25  and  C23_27 
REMARK    7  A    between atoms: C23_27  and  N1_28 
REMARK    8  A    between atoms: N1_28  and  O5_29 
REMARK    9  A    between atoms: N1_28  and  C25_31 
REMARK   10  A    between atoms: C26_33  and  C27_34 
REMARK   11  A    between atoms: C27_34  and  O7_35 
REMARK   12  A    between atoms: C28_36  and  O8_37 
REMARK   13  A    between atoms: C29_38  and  O9_39 
REMARK   14  A    between atoms: C30_40  and  O10_41 
ROOT
HETATM    1  C4  UNL     1     -11.237  16.002  23.300  1.00  0.00     0.019 C 
HETATM    2  C5  UNL     1     -12.432  15.427  24.089  1.00  0.00     0.011 C 
HETATM    3  C6  UNL     1     -11.911  14.145  24.731  1.00  0.00     0.021 C 
HETATM    4  C7  UNL     1     -10.922  13.534  23.710  1.00  0.00     0.050 C 
HETATM    5  C9  UNL     1      -9.726  12.913  24.459  1.00  0.00     0.022 C 
HETATM    6  C10 UNL     1      -8.422  12.858  23.652  1.00  0.00     0.011 C 
HETATM    7  C11 UNL     1      -7.962  14.235  23.069  1.00  0.00    -0.032 C 
HETATM    8  C12 UNL     1      -7.786  15.182  24.280  1.00  0.00     0.016 C 
HETATM    9  C13 UNL     1      -9.135  14.709  22.136  1.00  0.00     0.000 C 
HETATM   10  C14 UNL     1      -9.207  13.840  20.833  1.00  0.00     0.006 C 
HETATM   11  C15 UNL     1      -7.874  13.391  20.243  1.00  0.00     0.006 C 
HETATM   12  C16 UNL     1      -6.764  14.335  20.688  1.00  0.00     0.003 C 
HETATM   13  C17 UNL     1      -5.501  14.393  19.728  1.00  0.00    -0.035 C 
HETATM   14  C18 UNL     1      -4.816  13.013  19.617  1.00  0.00     0.016 C 
HETATM   15  C19 UNL     1      -5.983  14.803  18.292  1.00  0.00     0.012 C 
HETATM   16  C20 UNL     1      -5.107  15.830  17.563  1.00  0.00     0.034 C 
HETATM   17  C21 UNL     1      -3.610  15.684  17.837  1.00  0.00     0.140 C 
HETATM   18  C31 UNL     1      -3.282  15.825  19.365  1.00  0.00    -0.017 C 
HETATM   19  C32 UNL     1      -2.047  14.991  19.768  1.00  0.00     0.018 C 
HETATM   20  C33 UNL     1      -2.883  17.313  19.605  1.00  0.00     0.018 C 
HETATM   21  C34 UNL     1      -4.552  15.521  20.258  1.00  0.00     0.004 C 
HETATM   22  C35 UNL     1      -4.251  15.375  21.761  1.00  0.00     0.007 C 
HETATM   23  C36 UNL     1      -5.532  15.320  22.608  1.00  0.00     0.011 C 
HETATM   24  C37 UNL     1      -6.517  14.162  22.237  1.00  0.00    -0.032 C 
HETATM   25  C38 UNL     1      -5.798  12.842  22.618  1.00  0.00     0.016 C 
HETATM   26  C39 UNL     1     -10.577  14.701  22.736  1.00  0.00     0.017 C 
ENDROOT
BRANCH  17  27
HETATM   27  O3  UNL     1      -3.202  14.412  17.296  1.00  0.00    -0.314 OA
BRANCH  27  28
HETATM   28  C22 UNL     1      -2.526  14.427  16.102  1.00  0.00     0.274 C 
HETATM   29  O4  UNL     1      -2.747  15.217  15.194  1.00  0.00    -0.264 OA
BRANCH  28  30
HETATM   30  C23 UNL     1      -1.400  13.387  16.178  1.00  0.00     0.234 C 
BRANCH  30  31
HETATM   31  N1  UNL     1      -1.661  12.201  17.025  1.00  0.00    -0.156 NA
BRANCH  31  32
HETATM   32  O5  UNL     1      -0.414  11.863  17.692  1.00  0.00    -0.305 OA
HETATM   33  C24 UNL     1       0.579  12.820  17.321  1.00  0.00     0.230 C 
ENDBRANCH  31  32
BRANCH  31  34
HETATM   34  C25 UNL     1      -2.177  11.046  16.250  1.00  0.00     0.253 C 
HETATM   35  O6  UNL     1      -1.186  10.032  16.067  1.00  0.00    -0.356 OA
HETATM   36  C26 UNL     1      -1.570   8.973  15.168  1.00  0.00     0.178 C 
HETATM   37  C28 UNL     1      -2.893   8.296  15.592  1.00  0.00     0.180 C 
HETATM   38  C29 UNL     1      -3.995   9.323  15.918  1.00  0.00     0.182 C 
HETATM   39  C30 UNL     1      -3.457  10.410  16.861  1.00  0.00     0.195 C 
BRANCH  36  40
HETATM   40  C27 UNL     1      -1.560   9.455  13.705  1.00  0.00     0.198 C 
BRANCH  40  41
HETATM   41  O7  UNL     1      -1.582  10.874  13.628  1.00  0.00    -0.398 OA
HETATM   42  H42 UNL     1      -1.539  11.111  12.684  1.00  0.00     0.209 HD
ENDBRANCH  40  41
ENDBRANCH  36  40
BRANCH  37  43
HETATM   43  O8  UNL     1      -2.657   7.473  16.745  1.00  0.00    -0.390 OA
HETATM   44  H44 UNL     1      -2.572   8.076  17.514  1.00  0.00     0.210 HD
ENDBRANCH  37  43
BRANCH  38  45
HETATM   45  O9  UNL     1      -4.511   9.919  14.725  1.00  0.00    -0.390 OA
HETATM   46  H46 UNL     1      -4.960   9.209  14.229  1.00  0.00     0.210 HD
ENDBRANCH  38  45
BRANCH  39  47
HETATM   47  O10 UNL     1      -3.168   9.783  18.131  1.00  0.00    -0.389 OA
HETATM   48  H48 UNL     1      -2.331  10.199  18.434  1.00  0.00     0.210 HD
ENDBRANCH  39  47
ENDBRANCH  31  34
ENDBRANCH  30  31
ENDBRANCH  28  30
ENDBRANCH  27  28
ENDBRANCH  17  27
BRANCH   1  49
HETATM   49  C2  UNL     1     -10.425  17.067  24.028  1.00  0.00    -0.088 C 
HETATM   50  C1  UNL     1     -10.403  17.242  25.362  1.00  0.00     0.014 C 
HETATM   51  C3  UNL     1      -9.726  18.082  23.153  1.00  0.00     0.043 C 
ENDBRANCH   1  49
BRANCH   4  52
HETATM   52  C8  UNL     1     -11.630  12.408  22.938  1.00  0.00     0.149 C 
HETATM   53  O1  UNL     1     -11.173  11.751  22.016  1.00  0.00    -0.649 OA
BRANCH  52  54
HETATM   54  O2  UNL     1     -12.902  12.192  23.327  1.00  0.00    -0.776 OA
HETATM   55  H11 UNL     1     -13.210  11.480  22.731  1.00  0.00     0.167 HD
ENDBRANCH  52  54
ENDBRANCH   4  52
TORSDOF 14
ENDMDL
MODEL 4
REMARK minimizedAffinity -7.55216026
REMARK CNNscore 0.203940883
REMARK CNNaffinity 5.95444489
REMARK  14 active torsions:
REMARK  status: ('A' for Active; 'I' for Inactive)
REMARK    1  A    between atoms: C2_2  and  C4_4 
REMARK    2  A    between atoms: C7_7  and  C8_8 
REMARK    3  A    between atoms: C8_8  and  O2_10 
REMARK    4  A    between atoms: C21_23  and  O3_24 
REMARK    5  A    between atoms: O3_24  and  C22_25 
REMARK    6  A    between atoms: C22_25  and  C23_27 
REMARK    7  A    between atoms: C23_27  and  N1_28 
REMARK    8  A    between atoms: N1_28  and  O5_29 
REMARK    9  A    between atoms: N1_28  and  C25_31 
REMARK   10  A    between atoms: C26_33  and  C27_34 
REMARK   11  A    between atoms: C27_34  and  O7_35 
REMARK   12  A    between atoms: C28_36  and  O8_37 
REMARK   13  A    between atoms: C29_38  and  O9_39 
REMARK   14  A    between atoms: C30_40  and  O10_41 
ROOT
HETATM    1  C4  UNL     1      -3.800  15.030  17.484  1.00  0.00     0.019 C 
HETATM    2  C5  UNL     1      -4.877  15.180  16.390  1.00  0.00     0.011 C 
HETATM    3  C6  UNL     1      -4.783  13.906  15.555  1.00  0.00     0.021 C 
HETATM    4  C7  UNL     1      -3.282  13.534  15.521  1.00  0.00     0.050 C 
HETATM    5  C9  UNL     1      -3.127  12.003  15.600  1.00  0.00     0.022 C 
HETATM    6  C10 UNL     1      -1.803  11.522  16.207  1.00  0.00     0.011 C 
HETATM    7  C11 UNL     1      -1.486  12.110  17.621  1.00  0.00    -0.032 C 
HETATM    8  C12 UNL     1      -2.660  11.694  18.538  1.00  0.00     0.016 C 
HETATM    9  C13 UNL     1      -1.436  13.669  17.426  1.00  0.00     0.000 C 
HETATM   10  C14 UNL     1      -0.155  14.097  16.628  1.00  0.00     0.006 C 
HETATM   11  C15 UNL     1       1.117  13.306  16.911  1.00  0.00     0.006 C 
HETATM   12  C16 UNL     1       1.035  12.667  18.292  1.00  0.00     0.003 C 
HETATM   13  C17 UNL     1       2.433  12.350  18.974  1.00  0.00    -0.035 C 
HETATM   14  C18 UNL     1       3.255  11.349  18.132  1.00  0.00     0.016 C 
HETATM   15  C19 UNL     1       3.257  13.682  19.070  1.00  0.00     0.012 C 
HETATM   16  C20 UNL     1       3.999  13.913  20.392  1.00  0.00     0.034 C 
HETATM   17  C21 UNL     1       4.558  12.641  21.028  1.00  0.00     0.140 C 
HETATM   18  C31 UNL     1       3.426  11.597  21.330  1.00  0.00    -0.017 C 
HETATM   19  C32 UNL     1       3.944  10.145  21.243  1.00  0.00     0.018 C 
HETATM   20  C33 UNL     1       3.006  11.805  22.817  1.00  0.00     0.018 C 
HETATM   21  C34 UNL     1       2.149  11.854  20.433  1.00  0.00     0.004 C 
HETATM   22  C35 UNL     1       1.106  10.722  20.473  1.00  0.00     0.007 C 
HETATM   23  C36 UNL     1      -0.209  11.118  19.785  1.00  0.00     0.011 C 
HETATM   24  C37 UNL     1      -0.065  11.536  18.284  1.00  0.00    -0.032 C 
HETATM   25  C38 UNL     1       0.352  10.256  17.515  1.00  0.00     0.016 C 
HETATM   26  C39 UNL     1      -2.641  14.339  16.693  1.00  0.00     0.017 C 
ENDROOT
BRANCH  17  27
HETATM   27  O3  UNL     1       5.564  12.126  20.134  1.00  0.00    -0.314 OA
BRANCH  27  28
HETATM   28  C22 UNL     1       6.840  12.608  20.284  1.00  0.00     0.274 C 
HETATM   29  O4  UNL     1       7.320  12.970  21.349  1.00  0.00    -0.264 OA
BRANCH  28  30
HETATM   30  C23 UNL     1       7.557  12.487  18.932  1.00  0.00     0.234 C 
BRANCH  30  31
HETATM   31  N1  UNL     1       8.659  11.500  18.861  1.00  0.00    -0.156 NA
BRANCH  31  32
HETATM   32  O5  UNL     1       9.894  12.244  18.676  1.00  0.00    -0.305 OA
HETATM   33  C24 UNL     1      10.567  12.338  19.932  1.00  0.00     0.230 C 
ENDBRANCH  31  32
BRANCH  31  34
HETATM   34  C25 UNL     1       8.471  10.507  17.776  1.00  0.00     0.253 C 
HETATM   35  O6  UNL     1       7.975  11.105  16.576  1.00  0.00    -0.356 OA
HETATM   36  C26 UNL     1       7.598  10.166  15.550  1.00  0.00     0.178 C 
HETATM   37  C28 UNL     1       8.753   9.207  15.180  1.00  0.00     0.180 C 
HETATM   38  C29 UNL     1       9.423   8.596  16.426  1.00  0.00     0.182 C 
HETATM   39  C30 UNL     1       9.752   9.689  17.453  1.00  0.00     0.195 C 
BRANCH  36  40
HETATM   40  C27 UNL     1       6.284   9.446  15.909  1.00  0.00     0.198 C 
BRANCH  40  41
HETATM   41  O7  UNL     1       6.447   8.034  15.892  1.00  0.00    -0.398 OA
HETATM   42  H42 UNL     1       5.596   7.644  16.161  1.00  0.00     0.209 HD
ENDBRANCH  40  41
ENDBRANCH  36  40
BRANCH  37  43
HETATM   43  O8  UNL     1       9.737   9.922  14.415  1.00  0.00    -0.390 OA
HETATM   44  H44 UNL     1      10.236  10.483  15.046  1.00  0.00     0.210 HD
ENDBRANCH  37  43
BRANCH  38  45
HETATM   45  O9  UNL     1       8.589   7.598  17.020  1.00  0.00    -0.390 OA
HETATM   46  H46 UNL     1       8.525   6.867  16.378  1.00  0.00     0.210 HD
ENDBRANCH  38  45
BRANCH  39  47
HETATM   47  O10 UNL     1      10.775  10.535  16.878  1.00  0.00    -0.389 OA
HETATM   48  H48 UNL     1      10.525  11.448  17.142  1.00  0.00     0.210 HD
ENDBRANCH  39  47
ENDBRANCH  31  34
ENDBRANCH  30  31
ENDBRANCH  28  30
ENDBRANCH  27  28
ENDBRANCH  17  27
BRANCH   1  49
HETATM   49  C2  UNL     1      -4.296  14.491  18.820  1.00  0.00    -0.088 C 
HETATM   50  C1  UNL     1      -5.428  13.784  18.994  1.00  0.00     0.014 C 
HETATM   51  C3  UNL     1      -3.521  14.929  20.042  1.00  0.00     0.043 C 
ENDBRANCH   1  49
BRANCH   4  52
HETATM   52  C8  UNL     1      -2.680  14.001  14.184  1.00  0.00     0.149 C 
HETATM   53  O1  UNL     1      -1.646  13.606  13.669  1.00  0.00    -0.649 OA
BRANCH  52  54
HETATM   54  O2  UNL     1      -3.383  14.977  13.578  1.00  0.00    -0.776 OA
HETATM   55  H11 UNL     1      -2.861  15.173  12.773  1.00  0.00     0.167 HD
ENDBRANCH  52  54
ENDBRANCH   4  52
TORSDOF 14
ENDMDL
MODEL 5
REMARK minimizedAffinity -7.16178226
REMARK CNNscore 0.189722806
REMARK CNNaffinity 5.89558744
REMARK  14 active torsions:
REMARK  status: ('A' for Active; 'I' for Inactive)
REMARK    1  A    between atoms: C2_2  and  C4_4 
REMARK    2  A    between atoms: C7_7  and  C8_8 
REMARK    3  A    between atoms: C8_8  and  O2_10 
REMARK    4  A    between atoms: C21_23  and  O3_24 
REMARK    5  A    between atoms: O3_24  and  C22_25 
REMARK    6  A    between atoms: C22_25  and  C23_27 
REMARK    7  A    between atoms: C23_27  and  N1_28 
REMARK    8  A    between atoms: N1_28  and  O5_29 
REMARK    9  A    between atoms: N1_28  and  C25_31 
REMARK   10  A    between atoms: C26_33  and  C27_34 
REMARK   11  A    between atoms: C27_34  and  O7_35 
REMARK   12  A    between atoms: C28_36  and  O8_37 
REMARK   13  A    between atoms: C29_38  and  O9_39 
REMARK   14  A    between atoms: C30_40  and  O10_41 
ROOT
HETATM    1  C4  UNL     1       6.586  14.998  23.289  1.00  0.00     0.019 C 
HETATM    2  C5  UNL     1       7.997  15.173  23.887  1.00  0.00     0.011 C 
HETATM    3  C6  UNL     1       8.959  14.914  22.731  1.00  0.00     0.021 C 
HETATM    4  C7  UNL     1       8.300  13.807  21.874  1.00  0.00     0.050 C 
HETATM    5  C9  UNL     1       8.555  14.088  20.381  1.00  0.00     0.022 C 
HETATM    6  C10 UNL     1       7.498  13.515  19.429  1.00  0.00     0.011 C 
HETATM    7  C11 UNL     1       6.030  13.947  19.755  1.00  0.00    -0.032 C 
HETATM    8  C12 UNL     1       6.007  15.493  19.689  1.00  0.00     0.016 C 
HETATM    9  C13 UNL     1       5.755  13.432  21.215  1.00  0.00     0.000 C 
HETATM   10  C14 UNL     1       5.622  11.869  21.246  1.00  0.00     0.006 C 
HETATM   11  C15 UNL     1       4.935  11.222  20.048  1.00  0.00     0.006 C 
HETATM   12  C16 UNL     1       4.024  12.233  19.364  1.00  0.00     0.003 C 
HETATM   13  C17 UNL     1       2.824  11.608  18.534  1.00  0.00    -0.035 C 
HETATM   14  C18 UNL     1       3.340  10.712  17.387  1.00  0.00     0.016 C 
HETATM   15  C19 UNL     1       1.967  10.708  19.494  1.00  0.00     0.012 C 
HETATM   16  C20 UNL     1       0.447  10.838  19.348  1.00  0.00     0.034 C 
HETATM   17  C21 UNL     1      -0.029  11.065  17.913  1.00  0.00     0.140 C 
HETATM   18  C31 UNL     1       0.589  12.368  17.296  1.00  0.00    -0.017 C 
HETATM   19  C32 UNL     1       0.769  12.251  15.767  1.00  0.00     0.018 C 
HETATM   20  C33 UNL     1      -0.453  13.507  17.511  1.00  0.00     0.018 C 
HETATM   21  C34 UNL     1       1.916  12.788  18.045  1.00  0.00     0.004 C 
HETATM   22  C35 UNL     1       2.724  13.891  17.337  1.00  0.00     0.007 C 
HETATM   23  C36 UNL     1       3.866  14.430  18.212  1.00  0.00     0.011 C 
HETATM   24  C37 UNL     1       4.901  13.353  18.679  1.00  0.00    -0.032 C 
HETATM   25  C38 UNL     1       5.642  12.881  17.402  1.00  0.00     0.016 C 
HETATM   26  C39 UNL     1       6.804  13.795  22.313  1.00  0.00     0.017 C 
ENDROOT
BRANCH  17  27
HETATM   27  O3  UNL     1       0.306   9.881  17.163  1.00  0.00    -0.314 OA
BRANCH  27  28
HETATM   28  C22 UNL     1      -0.608   9.448  16.235  1.00  0.00     0.274 C 
HETATM   29  O4  UNL     1      -1.759   9.854  16.160  1.00  0.00    -0.264 OA
BRANCH  28  30
HETATM   30  C23 UNL     1       0.108   8.492  15.272  1.00  0.00     0.234 C 
BRANCH  30  31
HETATM   31  N1  UNL     1      -0.669   8.047  14.092  1.00  0.00    -0.156 NA
BRANCH  31  32
HETATM   32  O5  UNL     1      -0.748   9.175  13.177  1.00  0.00    -0.305 OA
HETATM   33  C24 UNL     1      -0.067   8.836  11.969  1.00  0.00     0.230 C 
ENDBRANCH  31  32
BRANCH  31  34
HETATM   34  C25 UNL     1      -2.022   7.558  14.448  1.00  0.00     0.253 C 
HETATM   35  O6  UNL     1      -3.013   7.975  13.506  1.00  0.00    -0.356 OA
HETATM   36  C26 UNL     1      -4.371   7.688  13.896  1.00  0.00     0.178 C 
HETATM   37  C28 UNL     1      -4.586   6.189  14.205  1.00  0.00     0.180 C 
HETATM   38  C29 UNL     1      -3.495   5.622  15.133  1.00  0.00     0.182 C 
HETATM   39  C30 UNL     1      -2.099   6.016  14.627  1.00  0.00     0.195 C 
BRANCH  36  40
HETATM   40  C27 UNL     1      -4.836   8.627  15.024  1.00  0.00     0.198 C 
BRANCH  40  41
HETATM   41  O7  UNL     1      -4.454   9.972  14.767  1.00  0.00    -0.398 OA
HETATM   42  H42 UNL     1      -4.807  10.515  15.495  1.00  0.00     0.209 HD
ENDBRANCH  40  41
ENDBRANCH  36  40
BRANCH  37  43
HETATM   43  O8  UNL     1      -4.594   5.447  12.974  1.00  0.00    -0.390 OA
HETATM   44  H44 UNL     1      -3.663   5.381  12.675  1.00  0.00     0.210 HD
ENDBRANCH  37  43
BRANCH  38  45
HETATM   45  O9  UNL     1      -3.676   6.076  16.476  1.00  0.00    -0.390 OA
HETATM   46  H46 UNL     1      -4.512   5.685  16.794  1.00  0.00     0.210 HD
ENDBRANCH  38  45
BRANCH  39  47
HETATM   47  O10 UNL     1      -1.883   5.338  13.368  1.00  0.00    -0.389 OA
HETATM   48  H48 UNL     1      -1.423   5.997  12.802  1.00  0.00     0.210 HD
ENDBRANCH  39  47
ENDBRANCH  31  34
ENDBRANCH  30  31
ENDBRANCH  28  30
ENDBRANCH  27  28
ENDBRANCH  17  27
BRANCH   1  49
HETATM   49  C2  UNL     1       5.901  16.284  22.842  1.00  0.00    -0.088 C 
HETATM   50  C1  UNL     1       6.535  17.432  22.543  1.00  0.00     0.014 C 
HETATM   51  C3  UNL     1       4.390  16.284  22.897  1.00  0.00     0.043 C 
ENDBRANCH   1  49
BRANCH   4  52
HETATM   52  C8  UNL     1       8.949  12.455  22.217  1.00  0.00     0.149 C 
HETATM   53  O1  UNL     1       9.759  11.838  21.542  1.00  0.00    -0.649 OA
BRANCH  52  54
HETATM   54  O2  UNL     1       8.516  11.916  23.373  1.00  0.00    -0.776 OA
HETATM   55  H11 UNL     1       8.997  11.065  23.428  1.00  0.00     0.167 HD
ENDBRANCH  52  54
ENDBRANCH   4  52
TORSDOF 14
ENDMDL
MODEL 6
REMARK minimizedAffinity -7.50640774
REMARK CNNscore 0.18003571
REMARK CNNaffinity 6.11008072
REMARK  14 active torsions:
REMARK  status: ('A' for Active; 'I' for Inactive)
REMARK    1  A    between atoms: C2_2  and  C4_4 
REMARK    2  A    between atoms: C7_7  and  C8_8 
REMARK    3  A    between atoms: C8_8  and  O2_10 
REMARK    4  A    between atoms: C21_23  and  O3_24 
REMARK    5  A    between atoms: O3_24  and  C22_25 
REMARK    6  A    between atoms: C22_25  and  C23_27 
REMARK    7  A    between atoms: C23_27  and  N1_28 
REMARK    8  A    between atoms: N1_28  and  O5_29 
REMARK    9  A    between atoms: N1_28  and  C25_31 
REMARK   10  A    between atoms: C26_33  and  C27_34 
REMARK   11  A    between atoms: C27_34  and  O7_35 
REMARK   12  A    between atoms: C28_36  and  O8_37 
REMARK   13  A    between atoms: C29_38  and  O9_39 
REMARK   14  A    between atoms: C30_40  and  O10_41 
ROOT
HETATM    1  C4  UNL     1      -3.131  13.595  17.192  1.00  0.00     0.019 C 
HETATM    2  C5  UNL     1      -3.844  13.608  15.824  1.00  0.00     0.011 C 
HETATM    3  C6  UNL     1      -3.053  12.641  14.948  1.00  0.00     0.021 C 
HETATM    4  C7  UNL     1      -1.574  12.799  15.375  1.00  0.00     0.050 C 
HETATM    5  C9  UNL     1      -0.881  11.423  15.352  1.00  0.00     0.022 C 
HETATM    6  C10 UNL     1       0.308  11.287  16.312  1.00  0.00     0.011 C 
HETATM    7  C11 UNL     1      -0.018  11.637  17.801  1.00  0.00    -0.032 C 
HETATM    8  C12 UNL     1      -1.149  10.675  18.236  1.00  0.00     0.016 C 
HETATM    9  C13 UNL     1      -0.509  13.130  17.784  1.00  0.00     0.000 C 
HETATM   10  C14 UNL     1       0.680  14.112  17.498  1.00  0.00     0.006 C 
HETATM   11  C15 UNL     1       2.028  13.741  18.107  1.00  0.00     0.006 C 
HETATM   12  C16 UNL     1       1.821  12.837  19.316  1.00  0.00     0.003 C 
HETATM   13  C17 UNL     1       2.993  12.860  20.386  1.00  0.00    -0.035 C 
HETATM   14  C18 UNL     1       4.328  12.385  19.769  1.00  0.00     0.016 C 
HETATM   15  C19 UNL     1       3.194  14.338  20.876  1.00  0.00     0.012 C 
HETATM   16  C20 UNL     1       3.404  14.517  22.384  1.00  0.00     0.034 C 
HETATM   17  C21 UNL     1       4.207  13.395  23.043  1.00  0.00     0.140 C 
HETATM   18  C31 UNL     1       3.517  11.999  22.854  1.00  0.00    -0.017 C 
HETATM   19  C32 UNL     1       4.547  10.850  22.802  1.00  0.00     0.018 C 
HETATM   20  C33 UNL     1       2.662  11.741  24.132  1.00  0.00     0.018 C 
HETATM   21  C34 UNL     1       2.533  12.004  21.615  1.00  0.00     0.004 C 
HETATM   22  C35 UNL     1       2.026  10.611  21.200  1.00  0.00     0.007 C 
HETATM   23  C36 UNL     1       0.899  10.689  20.158  1.00  0.00     0.011 C 
HETATM   24  C37 UNL     1       1.277  11.435  18.836  1.00  0.00    -0.032 C 
HETATM   25  C38 UNL     1       2.338  10.555  18.128  1.00  0.00     0.016 C 
HETATM   26  C39 UNL     1      -1.629  13.505  16.764  1.00  0.00     0.017 C 
ENDROOT
BRANCH  17  27
HETATM   27  O3  UNL     1       5.535  13.439  22.485  1.00  0.00    -0.314 OA
BRANCH  27  28
HETATM   28  C22 UNL     1       6.305  14.534  22.788  1.00  0.00     0.274 C 
HETATM   29  O4  UNL     1       5.978  15.410  23.576  1.00  0.00    -0.264 OA
BRANCH  28  30
HETATM   30  C23 UNL     1       7.654  14.380  22.072  1.00  0.00     0.234 C 
BRANCH  30  31
HETATM   31  N1  UNL     1       8.859  14.700  22.871  1.00  0.00    -0.156 NA
BRANCH  31  32
HETATM   32  O5  UNL     1       9.033  13.629  23.839  1.00  0.00    -0.305 OA
HETATM   33  C24 UNL     1       9.018  12.379  23.150  1.00  0.00     0.230 C 
ENDBRANCH  31  32
BRANCH  31  34
HETATM   34  C25 UNL     1       8.766  16.016  23.547  1.00  0.00     0.253 C 
HETATM   35  O6  UNL     1       9.335  15.991  24.858  1.00  0.00    -0.356 OA
HETATM   36  C26 UNL     1       9.109  17.186  25.633  1.00  0.00     0.178 C 
HETATM   37  C28 UNL     1       9.604  18.457  24.907  1.00  0.00     0.180 C 
HETATM   38  C29 UNL     1       9.127  18.515  23.443  1.00  0.00     0.182 C 
HETATM   39  C30 UNL     1       9.399  17.180  22.734  1.00  0.00     0.195 C 
BRANCH  36  40
HETATM   40  C27 UNL     1       7.646  17.273  26.108  1.00  0.00     0.198 C 
BRANCH  40  41
HETATM   41  O7  UNL     1       7.262  18.618  26.360  1.00  0.00    -0.398 OA
HETATM   42  H42 UNL     1       6.324  18.605  26.620  1.00  0.00     0.209 HD
ENDBRANCH  40  41
ENDBRANCH  36  40
BRANCH  37  43
HETATM   43  O8  UNL     1      11.040  18.493  24.939  1.00  0.00    -0.390 OA
HETATM   44  H44 UNL     1      11.357  17.840  24.280  1.00  0.00     0.210 HD
ENDBRANCH  37  43
BRANCH  38  45
HETATM   45  O9  UNL     1       7.737  18.837  23.368  1.00  0.00    -0.390 OA
HETATM   46  H46 UNL     1       7.640  19.747  23.705  1.00  0.00     0.210 HD
ENDBRANCH  38  45
BRANCH  39  47
HETATM   47  O10 UNL     1      10.833  17.021  22.635  1.00  0.00    -0.389 OA
HETATM   48  H48 UNL     1      10.995  16.069  22.815  1.00  0.00     0.210 HD
ENDBRANCH  39  47
ENDBRANCH  31  34
ENDBRANCH  30  31
ENDBRANCH  28  30
ENDBRANCH  27  28
ENDBRANCH  17  27
BRANCH   1  49
HETATM   49  C2  UNL     1      -3.730  12.655  18.232  1.00  0.00    -0.088 C 
HETATM   50  C1  UNL     1      -4.087  11.378  18.003  1.00  0.00     0.014 C 
HETATM   51  C3  UNL     1      -4.079  13.276  19.565  1.00  0.00     0.043 C 
ENDBRANCH   1  49
BRANCH   4  52
HETATM   52  C8  UNL     1      -0.855  13.706  14.363  1.00  0.00     0.149 C 
HETATM   53  O1  UNL     1       0.232  14.245  14.504  1.00  0.00    -0.649 OA
BRANCH  52  54
HETATM   54  O2  UNL     1      -1.557  13.934  13.235  1.00  0.00    -0.776 OA
HETATM   55  H11 UNL     1      -0.982  14.538  12.722  1.00  0.00     0.167 HD
ENDBRANCH  52  54
ENDBRANCH   4  52
TORSDOF 14
ENDMDL
MODEL 7
REMARK minimizedAffinity -8.05886555
REMARK CNNscore 0.160174713
REMARK CNNaffinity 5.69440413
REMARK  14 active torsions:
REMARK  status: ('A' for Active; 'I' for Inactive)
REMARK    1  A    between atoms: C2_2  and  C4_4 
REMARK    2  A    between atoms: C7_7  and  C8_8 
REMARK    3  A    between atoms: C8_8  and  O2_10 
REMARK    4  A    between atoms: C21_23  and  O3_24 
REMARK    5  A    between atoms: O3_24  and  C22_25 
REMARK    6  A    between atoms: C22_25  and  C23_27 
REMARK    7  A    between atoms: C23_27  and  N1_28 
REMARK    8  A    between atoms: N1_28  and  O5_29 
REMARK    9  A    between atoms: N1_28  and  C25_31 
REMARK   10  A    between atoms: C26_33  and  C27_34 
REMARK   11  A    between atoms: C27_34  and  O7_35 
REMARK   12  A    between atoms: C28_36  and  O8_37 
REMARK   13  A    between atoms: C29_38  and  O9_39 
REMARK   14  A    between atoms: C30_40  and  O10_41 
ROOT
HETATM    1  C4  UNL     1       6.859  17.937  29.272  1.00  0.00     0.019 C 
HETATM    2  C5  UNL     1       7.036  19.248  30.067  1.00  0.00     0.011 C 
HETATM    3  C6  UNL     1       6.844  20.366  29.047  1.00  0.00     0.021 C 
HETATM    4  C7  UNL     1       7.448  19.838  27.724  1.00  0.00     0.050 C 
HETATM    5  C9  UNL     1       6.582  20.306  26.538  1.00  0.00     0.022 C 
HETATM    6  C10 UNL     1       6.639  19.397  25.304  1.00  0.00     0.011 C 
HETATM    7  C11 UNL     1       6.296  17.897  25.587  1.00  0.00    -0.032 C 
HETATM    8  C12 UNL     1       4.866  17.883  26.179  1.00  0.00     0.016 C 
HETATM    9  C13 UNL     1       7.358  17.416  26.641  1.00  0.00     0.000 C 
HETATM   10  C14 UNL     1       8.779  17.281  25.990  1.00  0.00     0.006 C 
HETATM   11  C15 UNL     1       8.821  16.774  24.552  1.00  0.00     0.006 C 
HETATM   12  C16 UNL     1       7.563  15.970  24.248  1.00  0.00     0.003 C 
HETATM   13  C17 UNL     1       7.710  14.902  23.082  1.00  0.00    -0.035 C 
HETATM   14  C18 UNL     1       8.072  15.579  21.742  1.00  0.00     0.016 C 
HETATM   15  C19 UNL     1       8.876  13.918  23.449  1.00  0.00     0.012 C 
HETATM   16  C20 UNL     1       8.606  12.433  23.175  1.00  0.00     0.034 C 
HETATM   17  C21 UNL     1       7.770  12.169  21.922  1.00  0.00     0.140 C 
HETATM   18  C31 UNL     1       6.368  12.868  22.001  1.00  0.00    -0.017 C 
HETATM   19  C32 UNL     1       5.844  13.267  20.605  1.00  0.00     0.018 C 
HETATM   20  C33 UNL     1       5.363  11.805  22.540  1.00  0.00     0.018 C 
HETATM   21  C34 UNL     1       6.381  14.074  23.025  1.00  0.00     0.004 C 
HETATM   22  C35 UNL     1       5.134  14.974  22.963  1.00  0.00     0.007 C 
HETATM   23  C36 UNL     1       5.082  15.978  24.125  1.00  0.00     0.011 C 
HETATM   24  C37 UNL     1       6.315  16.935  24.223  1.00  0.00    -0.032 C 
HETATM   25  C38 UNL     1       6.252  17.853  22.975  1.00  0.00     0.016 C 
HETATM   26  C39 UNL     1       7.552  18.295  27.917  1.00  0.00     0.017 C 
ENDROOT
BRANCH  17  27
HETATM   27  O3  UNL     1       8.548  12.610  20.793  1.00  0.00    -0.314 OA
BRANCH  27  28
HETATM   28  C22 UNL     1       9.463  11.725  20.279  1.00  0.00     0.274 C 
HETATM   29  O4  UNL     1      10.501  11.405  20.841  1.00  0.00    -0.264 OA
BRANCH  28  30
HETATM   30  C23 UNL     1       8.889  11.146  18.979  1.00  0.00     0.234 C 
BRANCH  30  31
HETATM   31  N1  UNL     1       9.869  10.566  18.032  1.00  0.00    -0.156 NA
BRANCH  31  32
HETATM   32  O5  UNL     1      10.762  11.639  17.624  1.00  0.00    -0.305 OA
HETATM   33  C24 UNL     1      11.263  11.349  16.319  1.00  0.00     0.230 C 
ENDBRANCH  31  32
BRANCH  31  34
HETATM   34  C25 UNL     1       9.225   9.937  16.854  1.00  0.00     0.253 C 
HETATM   35  O6  UNL     1       9.260   8.509  16.918  1.00  0.00    -0.356 OA
HETATM   36  C26 UNL     1       8.816   7.844  15.718  1.00  0.00     0.178 C 
HETATM   37  C28 UNL     1       7.395   8.283  15.297  1.00  0.00     0.180 C 
HETATM   38  C29 UNL     1       7.231   9.814  15.306  1.00  0.00     0.182 C 
HETATM   39  C30 UNL     1       7.761  10.406  16.622  1.00  0.00     0.195 C 
BRANCH  36  40
HETATM   40  C27 UNL     1       9.863   7.968  14.595  1.00  0.00     0.198 C 
BRANCH  40  41
HETATM   41  O7  UNL     1       9.247   7.978  13.314  1.00  0.00    -0.398 OA
HETATM   42  H42 UNL     1       9.956   8.093  12.655  1.00  0.00     0.209 HD
ENDBRANCH  40  41
ENDBRANCH  36  40
BRANCH  37  43
HETATM   43  O8  UNL     1       6.434   7.698  16.191  1.00  0.00    -0.390 OA
HETATM   44  H44 UNL     1       6.479   8.204  17.029  1.00  0.00     0.210 HD
ENDBRANCH  37  43
BRANCH  38  45
HETATM   45  O9  UNL     1       7.903  10.410  14.194  1.00  0.00    -0.390 OA
HETATM   46  H46 UNL     1       7.440  10.107  13.391  1.00  0.00     0.210 HD
ENDBRANCH  38  45
BRANCH  39  47
HETATM   47  O10 UNL     1       6.896   9.949  17.686  1.00  0.00    -0.389 OA
HETATM   48  H48 UNL     1       7.500   9.750  18.435  1.00  0.00     0.210 HD
ENDBRANCH  39  47
ENDBRANCH  31  34
ENDBRANCH  30  31
ENDBRANCH  28  30
ENDBRANCH  27  28
ENDBRANCH  17  27
BRANCH   1  49
HETATM   49  C2  UNL     1       5.466  17.323  29.327  1.00  0.00    -0.088 C 
HETATM   50  C1  UNL     1       4.321  18.017  29.458  1.00  0.00     0.014 C 
HETATM   51  C3  UNL     1       5.408  15.813  29.391  1.00  0.00     0.043 C 
ENDBRANCH   1  49
BRANCH   4  52
HETATM   52  C8  UNL     1       8.855  20.433  27.544  1.00  0.00     0.149 C 
HETATM   53  O1  UNL     1       9.519  20.448  26.519  1.00  0.00    -0.649 OA
BRANCH  52  54
HETATM   54  O2  UNL     1       9.385  20.940  28.674  1.00  0.00    -0.776 OA
HETATM   55  H11 UNL     1      10.273  21.246  28.398  1.00  0.00     0.167 HD
ENDBRANCH  52  54
ENDBRANCH   4  52
TORSDOF 14
ENDMDL
MODEL 8
REMARK minimizedAffinity -6.66808462
REMARK CNNscore 0.154408723
REMARK CNNaffinity 5.84030199
REMARK  14 active torsions:
REMARK  status: ('A' for Active; 'I' for Inactive)
REMARK    1  A    between atoms: C2_2  and  C4_4 
REMARK    2  A    between atoms: C7_7  and  C8_8 
REMARK    3  A    between atoms: C8_8  and  O2_10 
REMARK    4  A    between atoms: C21_23  and  O3_24 
REMARK    5  A    between atoms: O3_24  and  C22_25 
REMARK    6  A    between atoms: C22_25  and  C23_27 
REMARK    7  A    between atoms: C23_27  and  N1_28 
REMARK    8  A    between atoms: N1_28  and  O5_29 
REMARK    9  A    between atoms: N1_28  and  C25_31 
REMARK   10  A    between atoms: C26_33  and  C27_34 
REMARK   11  A    between atoms: C27_34  and  O7_35 
REMARK   12  A    between atoms: C28_36  and  O8_37 
REMARK   13  A    between atoms: C29_38  and  O9_39 
REMARK   14  A    between atoms: C30_40  and  O10_41 
ROOT
HETATM    1  C4  UNL     1     -18.835  -1.070  16.058  1.00  0.00     0.019 C 
HETATM    2  C5  UNL     1     -18.870   0.287  16.792  1.00  0.00     0.011 C 
HETATM    3  C6  UNL     1     -17.899   1.182  16.028  1.00  0.00     0.021 C 
HETATM    4  C7  UNL     1     -16.749   0.257  15.563  1.00  0.00     0.050 C 
HETATM    5  C9  UNL     1     -16.288   0.677  14.153  1.00  0.00     0.022 C 
HETATM    6  C10 UNL     1     -15.665  -0.451  13.320  1.00  0.00     0.011 C 
HETATM    7  C11 UNL     1     -16.565  -1.722  13.173  1.00  0.00    -0.032 C 
HETATM    8  C12 UNL     1     -17.880  -1.249  12.509  1.00  0.00     0.016 C 
HETATM    9  C13 UNL     1     -16.814  -2.231  14.639  1.00  0.00     0.000 C 
HETATM   10  C14 UNL     1     -15.511  -2.855  15.250  1.00  0.00     0.006 C 
HETATM   11  C15 UNL     1     -14.621  -3.640  14.292  1.00  0.00     0.006 C 
HETATM   12  C16 UNL     1     -15.444  -4.142  13.112  1.00  0.00     0.003 C 
HETATM   13  C17 UNL     1     -14.865  -5.427  12.382  1.00  0.00    -0.035 C 
HETATM   14  C18 UNL     1     -13.464  -5.155  11.791  1.00  0.00     0.016 C 
HETATM   15  C19 UNL     1     -14.722  -6.579  13.438  1.00  0.00     0.012 C 
HETATM   16  C20 UNL     1     -15.173  -7.969  12.973  1.00  0.00     0.034 C 
HETATM   17  C21 UNL     1     -14.882  -8.263  11.502  1.00  0.00     0.140 C 
HETATM   18  C31 UNL     1     -15.583  -7.229  10.553  1.00  0.00    -0.017 C 
HETATM   19  C32 UNL     1     -14.782  -7.005   9.253  1.00  0.00     0.018 C 
HETATM   20  C33 UNL     1     -16.935  -7.866  10.111  1.00  0.00     0.018 C 
HETATM   21  C34 UNL     1     -15.917  -5.882  11.314  1.00  0.00     0.004 C 
HETATM   22  C35 UNL     1     -16.356  -4.726  10.396  1.00  0.00     0.007 C 
HETATM   23  C36 UNL     1     -16.894  -3.526  11.190  1.00  0.00     0.011 C 
HETATM   24  C37 UNL     1     -15.889  -2.916  12.222  1.00  0.00    -0.032 C 
HETATM   25  C38 UNL     1     -14.740  -2.289  11.391  1.00  0.00     0.016 C 
HETATM   26  C39 UNL     1     -17.321  -1.188  15.684  1.00  0.00     0.017 C 
ENDROOT
BRANCH  17  27
HETATM   27  O3  UNL     1     -13.450  -8.278  11.347  1.00  0.00    -0.314 OA
BRANCH  27  28
HETATM   28  C22 UNL     1     -12.868  -9.474  11.009  1.00  0.00     0.274 C 
HETATM   29  O4  UNL     1     -13.103 -10.088   9.978  1.00  0.00    -0.264 OA
BRANCH  28  30
HETATM   30  C23 UNL     1     -11.815  -9.809  12.075  1.00  0.00     0.234 C 
BRANCH  30  31
HETATM   31  N1  UNL     1     -10.723 -10.716  11.653  1.00  0.00    -0.156 NA
BRANCH  31  32
HETATM   32  O5  UNL     1     -10.321 -11.481  12.823  1.00  0.00    -0.305 OA
HETATM   33  C24 UNL     1     -10.735 -12.836  12.651  1.00  0.00     0.230 C 
ENDBRANCH  31  32
BRANCH  31  34
HETATM   34  C25 UNL     1      -9.568  -9.992  11.071  1.00  0.00     0.253 C 
HETATM   35  O6  UNL     1      -8.333 -10.360  11.688  1.00  0.00    -0.356 OA
HETATM   36  C26 UNL     1      -7.202  -9.557  11.293  1.00  0.00     0.178 C 
HETATM   37  C28 UNL     1      -7.001  -9.542   9.761  1.00  0.00     0.180 C 
HETATM   38  C29 UNL     1      -8.313  -9.260   9.004  1.00  0.00     0.182 C 
HETATM   39  C30 UNL     1      -9.444 -10.157   9.530  1.00  0.00     0.195 C 
BRANCH  36  40
HETATM   40  C27 UNL     1      -7.270  -8.153  11.924  1.00  0.00     0.198 C 
BRANCH  40  41
HETATM   41  O7  UNL     1      -5.970  -7.616  12.132  1.00  0.00    -0.398 OA
HETATM   42  H42 UNL     1      -6.085  -6.721  12.497  1.00  0.00     0.209 HD
ENDBRANCH  40  41
ENDBRANCH  36  40
BRANCH  37  43
HETATM   43  O8  UNL     1      -6.474 -10.810   9.339  1.00  0.00    -0.390 OA
HETATM   44  H44 UNL     1      -7.217 -11.450   9.362  1.00  0.00     0.210 HD
ENDBRANCH  37  43
BRANCH  38  45
HETATM   45  O9  UNL     1      -8.685  -7.884   9.116  1.00  0.00    -0.390 OA
HETATM   46  H46 UNL     1      -8.002  -7.369   8.647  1.00  0.00     0.210 HD
ENDBRANCH  38  45
BRANCH  39  47
HETATM   47  O10 UNL     1      -9.118 -11.521   9.180  1.00  0.00    -0.389 OA
HETATM   48  H48 UNL     1      -9.382 -12.053   9.964  1.00  0.00     0.210 HD
ENDBRANCH  39  47
ENDBRANCH  31  34
ENDBRANCH  30  31
ENDBRANCH  28  30
ENDBRANCH  27  28
ENDBRANCH  17  27
BRANCH   1  49
HETATM   49  C2  UNL     1     -19.938  -1.284  15.028  1.00  0.00    -0.088 C 
HETATM   50  C1  UNL     1     -20.353  -2.483  14.580  1.00  0.00     0.014 C 
HETATM   51  C3  UNL     1     -20.479  -0.037  14.366  1.00  0.00     0.043 C 
ENDBRANCH   1  49
BRANCH   4  52
HETATM   52  C8  UNL     1     -15.555   0.423  16.518  1.00  0.00     0.149 C 
HETATM   53  O1  UNL     1     -14.477   0.937  16.263  1.00  0.00    -0.649 OA
BRANCH  52  54
HETATM   54  O2  UNL     1     -15.753  -0.108  17.740  1.00  0.00    -0.776 OA
HETATM   55  H11 UNL     1     -14.907   0.055  18.205  1.00  0.00     0.167 HD
ENDBRANCH  52  54
ENDBRANCH   4  52
TORSDOF 14
ENDMDL
MODEL 9
REMARK minimizedAffinity -7.49322414
REMARK CNNscore 0.144964337
REMARK CNNaffinity 5.14576864
REMARK  14 active torsions:
REMARK  status: ('A' for Active; 'I' for Inactive)
REMARK    1  A    between atoms: C2_2  and  C4_4 
REMARK    2  A    between atoms: C7_7  and  C8_8 
REMARK    3  A    between atoms: C8_8  and  O2_10 
REMARK    4  A    between atoms: C21_23  and  O3_24 
REMARK    5  A    between atoms: O3_24  and  C22_25 
REMARK    6  A    between atoms: C22_25  and  C23_27 
REMARK    7  A    between atoms: C23_27  and  N1_28 
REMARK    8  A    between atoms: N1_28  and  O5_29 
REMARK    9  A    between atoms: N1_28  and  C25_31 
REMARK   10  A    between atoms: C26_33  and  C27_34 
REMARK   11  A    between atoms: C27_34  and  O7_35 
REMARK   12  A    between atoms: C28_36  and  O8_37 
REMARK   13  A    between atoms: C29_38  and  O9_39 
REMARK   14  A    between atoms: C30_40  and  O10_41 
ROOT
HETATM    1  C4  UNL     1       6.302  15.059  23.076  1.00  0.00     0.019 C 
HETATM    2  C5  UNL     1       7.708  15.168  23.700  1.00  0.00     0.011 C 
HETATM    3  C6  UNL     1       8.667  14.674  22.621  1.00  0.00     0.021 C 
HETATM    4  C7  UNL     1       7.920  13.539  21.881  1.00  0.00     0.050 C 
HETATM    5  C9  UNL     1       8.240  13.605  20.376  1.00  0.00     0.022 C 
HETATM    6  C10 UNL     1       7.154  13.025  19.462  1.00  0.00     0.011 C 
HETATM    7  C11 UNL     1       5.730  13.636  19.678  1.00  0.00    -0.032 C 
HETATM    8  C12 UNL     1       5.867  15.156  19.423  1.00  0.00     0.016 C 
HETATM    9  C13 UNL     1       5.368  13.336  21.178  1.00  0.00     0.000 C 
HETATM   10  C14 UNL     1       5.075  11.810  21.394  1.00  0.00     0.006 C 
HETATM   11  C15 UNL     1       4.356  11.090  20.258  1.00  0.00     0.006 C 
HETATM   12  C16 UNL     1       3.570  12.092  19.423  1.00  0.00     0.003 C 
HETATM   13  C17 UNL     1       2.333  11.490  18.631  1.00  0.00    -0.035 C 
HETATM   14  C18 UNL     1       2.784  10.411  17.621  1.00  0.00     0.016 C 
HETATM   15  C19 UNL     1       1.366  10.805  19.660  1.00  0.00     0.012 C 
HETATM   16  C20 UNL     1      -0.130  11.064  19.443  1.00  0.00     0.034 C 
HETATM   17  C21 UNL     1      -0.544  11.156  17.974  1.00  0.00     0.140 C 
HETATM   18  C31 UNL     1       0.219  12.305  17.226  1.00  0.00    -0.017 C 
HETATM   19  C32 UNL     1       0.425  11.981  15.731  1.00  0.00     0.018 C 
HETATM   20  C33 UNL     1      -0.706  13.559  17.262  1.00  0.00     0.018 C 
HETATM   21  C34 UNL     1       1.564  12.683  17.968  1.00  0.00     0.004 C 
HETATM   22  C35 UNL     1       2.498  13.604  17.162  1.00  0.00     0.007 C 
HETATM   23  C36 UNL     1       3.666  14.133  18.008  1.00  0.00     0.011 C 
HETATM   24  C37 UNL     1       4.573  13.026  18.640  1.00  0.00    -0.032 C 
HETATM   25  C38 UNL     1       5.294  12.328  17.458  1.00  0.00     0.016 C 
HETATM   26  C39 UNL     1       6.420  13.729  22.262  1.00  0.00     0.017 C 
ENDROOT
BRANCH  17  27
HETATM   27  O3  UNL     1      -0.313   9.861  17.386  1.00  0.00    -0.314 OA
BRANCH  27  28
HETATM   28  C22 UNL     1      -1.352   9.294  16.692  1.00  0.00     0.274 C 
HETATM   29  O4  UNL     1      -2.474   9.773  16.618  1.00  0.00    -0.264 OA
BRANCH  28  30
HETATM   30  C23 UNL     1      -0.814   8.061  15.953  1.00  0.00     0.234 C 
BRANCH  30  31
HETATM   31  N1  UNL     1      -1.509   7.696  14.697  1.00  0.00    -0.156 NA
BRANCH  31  32
HETATM   32  O5  UNL     1      -2.410   6.597  15.005  1.00  0.00    -0.305 OA
HETATM   33  C24 UNL     1      -3.744   6.993  14.685  1.00  0.00     0.230 C 
ENDBRANCH  31  32
BRANCH  31  34
HETATM   34  C25 UNL     1      -0.571   7.324  13.611  1.00  0.00     0.253 C 
HETATM   35  O6  UNL     1      -1.227   7.212  12.345  1.00  0.00    -0.356 OA
HETATM   36  C26 UNL     1      -0.405   6.674  11.290  1.00  0.00     0.178 C 
HETATM   37  C28 UNL     1       0.901   7.477  11.097  1.00  0.00     0.180 C 
HETATM   38  C29 UNL     1       1.624   7.742  12.431  1.00  0.00     0.182 C 
HETATM   39  C30 UNL     1       0.642   8.287  13.479  1.00  0.00     0.195 C 
BRANCH  36  40
HETATM   40  C27 UNL     1      -0.183   5.161  11.475  1.00  0.00     0.198 C 
BRANCH  40  41
HETATM   41  O7  UNL     1       1.014   4.733  10.839  1.00  0.00    -0.398 OA
HETATM   42  H42 UNL     1       1.112   3.781  11.023  1.00  0.00     0.209 HD
ENDBRANCH  40  41
ENDBRANCH  36  40
BRANCH  37  43
HETATM   43  O8  UNL     1       0.598   8.731  10.465  1.00  0.00    -0.390 OA
HETATM   44  H44 UNL     1       0.197   9.306  11.150  1.00  0.00     0.210 HD
ENDBRANCH  37  43
BRANCH  38  45
HETATM   45  O9  UNL     1       2.253   6.554  12.919  1.00  0.00    -0.390 OA
HETATM   46  H46 UNL     1       2.959   6.329  12.284  1.00  0.00     0.210 HD
ENDBRANCH  38  45
BRANCH  39  47
HETATM   47  O10 UNL     1       0.217   9.597  13.039  1.00  0.00    -0.389 OA
HETATM   48  H48 UNL     1      -0.742   9.637  13.253  1.00  0.00     0.210 HD
ENDBRANCH  39  47
ENDBRANCH  31  34
ENDBRANCH  30  31
ENDBRANCH  28  30
ENDBRANCH  27  28
ENDBRANCH  17  27
BRANCH   1  49
HETATM   49  C2  UNL     1       5.763  16.341  22.451  1.00  0.00    -0.088 C 
HETATM   50  C1  UNL     1       4.461  16.611  22.246  1.00  0.00     0.014 C 
HETATM   51  C3  UNL     1       6.796  17.291  21.891  1.00  0.00     0.043 C 
ENDBRANCH   1  49
BRANCH   4  52
HETATM   52  C8  UNL     1       8.419  12.183  22.410  1.00  0.00     0.149 C 
HETATM   53  O1  UNL     1       7.997  11.574  23.381  1.00  0.00    -0.649 OA
BRANCH  52  54
HETATM   54  O2  UNL     1       9.460  11.676  21.722  1.00  0.00    -0.776 OA
HETATM   55  H11 UNL     1       9.668  10.843  22.194  1.00  0.00     0.167 HD
ENDBRANCH  52  54
ENDBRANCH   4  52
TORSDOF 14
ENDMDL
