MODEL 1
REMARK minimizedAffinity -7.72712946
REMARK CNNscore 0.503639102
REMARK CNNaffinity 6.01858568
REMARK  6 active torsions:
REMARK  status: ('A' for Active; 'I' for Inactive)
REMARK    1  A    between atoms: C2_2  and  C30_31 
REMARK    2  A    between atoms: C3_3  and  C4_4 
REMARK    3  A    between atoms: C4_4  and  C5_5 
REMARK    4  A    between atoms: C5_5  and  C6_6 
REMARK    5  A    between atoms: C6_6  and  C8_8 
REMARK    6  A    between atoms: C30_31  and  O3_33 
ROOT
HETATM    1  C8  UNL     1     -12.380  45.977 -27.541  1.00  0.00    -0.002 C 
HETATM    2  C9  UNL     1     -11.632  46.644 -26.349  1.00  0.00     0.007 C 
HETATM    3  C10 UNL     1     -10.157  46.813 -26.767  1.00  0.00     0.015 C 
HETATM    4  C11 UNL     1     -10.014  45.970 -28.050  1.00  0.00    -0.013 C 
HETATM    5  C12 UNL     1      -9.776  44.499 -27.576  1.00  0.00     0.021 C 
HETATM    6  C13 UNL     1      -8.866  46.299 -29.001  1.00  0.00    -0.070 C 
HETATM    7  C14 UNL     1      -7.664  46.718 -28.549  1.00  0.00    -0.022 C 
HETATM    8  C15 UNL     1      -6.464  46.973 -29.419  1.00  0.00     0.034 C 
HETATM    9  C16 UNL     1      -6.825  46.965 -30.913  1.00  0.00     0.013 C 
HETATM   10  C17 UNL     1      -5.650  47.239 -31.905  1.00  0.00     0.018 C 
HETATM   11  C18 UNL     1      -4.590  46.135 -31.974  1.00  0.00     0.023 C 
HETATM   12  C19 UNL     1      -4.944  48.564 -31.540  1.00  0.00     0.023 C 
HETATM   13  C20 UNL     1      -6.248  47.410 -33.314  1.00  0.00     0.135 C 
HETATM   14  O1  UNL     1      -5.597  47.892 -34.243  1.00  0.00    -0.297 OA
HETATM   15  C21 UNL     1      -7.685  46.980 -33.525  1.00  0.00     0.080 C 
HETATM   16  C22 UNL     1      -7.940  45.661 -32.812  1.00  0.00     0.017 C 
HETATM   17  C23 UNL     1      -7.758  45.741 -31.267  1.00  0.00    -0.031 C 
HETATM   18  C24 UNL     1      -7.201  44.370 -30.799  1.00  0.00     0.016 C 
HETATM   19  C25 UNL     1      -9.115  46.036 -30.503  1.00  0.00     0.024 C 
HETATM   20  C26 UNL     1     -10.248  45.006 -30.729  1.00  0.00     0.010 C 
HETATM   21  C27 UNL     1     -11.554  45.276 -29.942  1.00  0.00     0.011 C 
HETATM   22  C28 UNL     1     -11.402  46.227 -28.736  1.00  0.00    -0.029 C 
HETATM   23  C29 UNL     1     -11.593  47.700 -29.223  1.00  0.00     0.016 C 
ENDROOT
BRANCH   1  24
HETATM   24  C6  UNL     1     -13.858  46.443 -27.648  1.00  0.00    -0.014 C 
HETATM   25  C7  UNL     1     -14.704  45.514 -28.526  1.00  0.00     0.010 C 
BRANCH  24  26
HETATM   26  C5  UNL     1     -14.541  46.621 -26.265  1.00  0.00     0.008 C 
BRANCH  26  27
HETATM   27  C4  UNL     1     -15.367  45.423 -25.784  1.00  0.00     0.028 C 
BRANCH  27  28
HETATM   28  C3  UNL     1     -16.761  45.849 -25.412  1.00  0.00    -0.013 C 
HETATM   29  C2  UNL     1     -17.174  46.373 -24.240  1.00  0.00     0.008 C 
HETATM   30  C1  UNL     1     -16.321  46.605 -23.029  1.00  0.00     0.055 C 
BRANCH  29  31
HETATM   31  C30 UNL     1     -18.614  46.726 -24.146  1.00  0.00     0.171 C 
HETATM   32  O2  UNL     1     -19.219  47.525 -24.840  1.00  0.00    -0.646 OA
BRANCH  31  33
HETATM   33  O3  UNL     1     -19.240  46.056 -23.164  1.00  0.00    -0.773 OA
HETATM   34  H46 UNL     1     -20.162  46.386 -23.218  1.00  0.00     0.167 HD
ENDBRANCH  31  33
ENDBRANCH  29  31
ENDBRANCH  27  28
ENDBRANCH  26  27
ENDBRANCH  24  26
ENDBRANCH   1  24
TORSDOF 6
ENDMDL
MODEL 2
REMARK minimizedAffinity -9.11561108
REMARK CNNscore 0.278044164
REMARK CNNaffinity 6.63285828
REMARK  6 active torsions:
REMARK  status: ('A' for Active; 'I' for Inactive)
REMARK    1  A    between atoms: C2_2  and  C30_31 
REMARK    2  A    between atoms: C3_3  and  C4_4 
REMARK    3  A    between atoms: C4_4  and  C5_5 
REMARK    4  A    between atoms: C5_5  and  C6_6 
REMARK    5  A    between atoms: C6_6  and  C8_8 
REMARK    6  A    between atoms: C30_31  and  O3_33 
ROOT
HETATM    1  C8  UNL     1      -2.208  50.075 -21.492  1.00  0.00    -0.002 C 
HETATM    2  C9  UNL     1      -1.522  51.413 -21.899  1.00  0.00     0.007 C 
HETATM    3  C10 UNL     1      -0.792  51.954 -20.653  1.00  0.00     0.015 C 
HETATM    4  C11 UNL     1      -1.319  51.097 -19.485  1.00  0.00    -0.013 C 
HETATM    5  C12 UNL     1      -2.674  51.746 -19.051  1.00  0.00     0.021 C 
HETATM    6  C13 UNL     1      -0.469  51.005 -18.221  1.00  0.00    -0.070 C 
HETATM    7  C14 UNL     1       0.261  52.050 -17.776  1.00  0.00    -0.022 C 
HETATM    8  C15 UNL     1       1.048  52.060 -16.493  1.00  0.00     0.034 C 
HETATM    9  C16 UNL     1       1.152  50.658 -15.872  1.00  0.00     0.013 C 
HETATM   10  C17 UNL     1       1.968  50.555 -14.544  1.00  0.00     0.018 C 
HETATM   11  C18 UNL     1       1.321  51.236 -13.333  1.00  0.00     0.023 C 
HETATM   12  C19 UNL     1       3.379  51.152 -14.739  1.00  0.00     0.023 C 
HETATM   13  C20 UNL     1       2.143  49.062 -14.209  1.00  0.00     0.135 C 
HETATM   14  O1  UNL     1       2.960  48.674 -13.372  1.00  0.00    -0.297 OA
HETATM   15  C21 UNL     1       1.284  48.066 -14.962  1.00  0.00     0.080 C 
HETATM   16  C22 UNL     1      -0.138  48.595 -15.079  1.00  0.00     0.017 C 
HETATM   17  C23 UNL     1      -0.245  49.923 -15.885  1.00  0.00    -0.031 C 
HETATM   18  C24 UNL     1      -1.397  50.751 -15.254  1.00  0.00     0.016 C 
HETATM   19  C25 UNL     1      -0.561  49.686 -17.420  1.00  0.00     0.024 C 
HETATM   20  C26 UNL     1      -1.868  48.916 -17.724  1.00  0.00     0.010 C 
HETATM   21  C27 UNL     1      -2.193  48.729 -19.227  1.00  0.00     0.011 C 
HETATM   22  C28 UNL     1      -1.451  49.694 -20.176  1.00  0.00    -0.029 C 
HETATM   23  C29 UNL     1      -0.077  49.062 -20.571  1.00  0.00     0.016 C 
ENDROOT
BRANCH   1  24
HETATM   24  C6  UNL     1      -2.269  49.059 -22.665  1.00  0.00    -0.014 C 
HETATM   25  C7  UNL     1      -2.558  47.630 -22.190  1.00  0.00     0.010 C 
BRANCH  24  26
HETATM   26  C5  UNL     1      -3.288  49.460 -23.764  1.00  0.00     0.008 C 
BRANCH  26  27
HETATM   27  C4  UNL     1      -4.379  48.424 -24.055  1.00  0.00     0.028 C 
BRANCH  27  28
HETATM   28  C3  UNL     1      -4.795  48.475 -25.500  1.00  0.00    -0.013 C 
HETATM   29  C2  UNL     1      -3.992  48.518 -26.584  1.00  0.00     0.008 C 
HETATM   30  C1  UNL     1      -2.494  48.565 -26.570  1.00  0.00     0.055 C 
BRANCH  29  31
HETATM   31  C30 UNL     1      -4.670  48.543 -27.906  1.00  0.00     0.171 C 
HETATM   32  O2  UNL     1      -5.631  47.876 -28.248  1.00  0.00    -0.646 OA
BRANCH  31  33
HETATM   33  O3  UNL     1      -4.098  49.412 -28.755  1.00  0.00    -0.773 OA
HETATM   34  H46 UNL     1      -4.637  49.321 -29.569  1.00  0.00     0.167 HD
ENDBRANCH  31  33
ENDBRANCH  29  31
ENDBRANCH  27  28
ENDBRANCH  26  27
ENDBRANCH  24  26
ENDBRANCH   1  24
TORSDOF 6
ENDMDL
MODEL 3
REMARK minimizedAffinity -7.72257996
REMARK CNNscore 0.277434677
REMARK CNNaffinity 6.34678507
REMARK  6 active torsions:
REMARK  status: ('A' for Active; 'I' for Inactive)
REMARK    1  A    between atoms: C2_2  and  C30_31 
REMARK    2  A    between atoms: C3_3  and  C4_4 
REMARK    3  A    between atoms: C4_4  and  C5_5 
REMARK    4  A    between atoms: C5_5  and  C6_6 
REMARK    5  A    between atoms: C6_6  and  C8_8 
REMARK    6  A    between atoms: C30_31  and  O3_33 
ROOT
HETATM    1  C8  UNL     1       0.562  51.277 -18.354  1.00  0.00    -0.002 C 
HETATM    2  C9  UNL     1       0.224  52.736 -18.780  1.00  0.00     0.007 C 
HETATM    3  C10 UNL     1      -0.899  52.660 -19.835  1.00  0.00     0.015 C 
HETATM    4  C11 UNL     1      -0.972  51.169 -20.223  1.00  0.00    -0.013 C 
HETATM    5  C12 UNL     1       0.140  50.949 -21.300  1.00  0.00     0.021 C 
HETATM    6  C13 UNL     1      -2.268  50.651 -20.841  1.00  0.00    -0.070 C 
HETATM    7  C14 UNL     1      -3.020  51.413 -21.664  1.00  0.00    -0.022 C 
HETATM    8  C15 UNL     1      -4.256  50.939 -22.378  1.00  0.00     0.034 C 
HETATM    9  C16 UNL     1      -4.729  49.571 -21.861  1.00  0.00     0.013 C 
HETATM   10  C17 UNL     1      -6.021  48.996 -22.525  1.00  0.00     0.018 C 
HETATM   11  C18 UNL     1      -5.866  48.586 -23.994  1.00  0.00     0.023 C 
HETATM   12  C19 UNL     1      -7.171  50.023 -22.429  1.00  0.00     0.023 C 
HETATM   13  C20 UNL     1      -6.450  47.750 -21.728  1.00  0.00     0.135 C 
HETATM   14  O1  UNL     1      -7.568  47.248 -21.857  1.00  0.00    -0.297 OA
HETATM   15  C21 UNL     1      -5.451  47.160 -20.753  1.00  0.00     0.080 C 
HETATM   16  C22 UNL     1      -4.064  47.148 -21.378  1.00  0.00     0.017 C 
HETATM   17  C23 UNL     1      -3.520  48.567 -21.716  1.00  0.00    -0.031 C 
HETATM   18  C24 UNL     1      -2.656  48.434 -22.999  1.00  0.00     0.016 C 
HETATM   19  C25 UNL     1      -2.629  49.176 -20.555  1.00  0.00     0.024 C 
HETATM   20  C26 UNL     1      -1.386  48.344 -20.159  1.00  0.00     0.010 C 
HETATM   21  C27 UNL     1      -0.495  48.968 -19.056  1.00  0.00     0.011 C 
HETATM   22  C28 UNL     1      -0.696  50.483 -18.839  1.00  0.00    -0.029 C 
HETATM   23  C29 UNL     1      -1.841  50.699 -17.797  1.00  0.00     0.016 C 
ENDROOT
BRANCH   1  24
HETATM   24  C6  UNL     1       1.004  51.181 -16.868  1.00  0.00    -0.014 C 
HETATM   25  C7  UNL     1       1.261  52.555 -16.241  1.00  0.00     0.010 C 
BRANCH  24  26
HETATM   26  C5  UNL     1       0.007  50.381 -15.987  1.00  0.00     0.008 C 
BRANCH  26  27
HETATM   27  C4  UNL     1       0.589  49.140 -15.302  1.00  0.00     0.028 C 
BRANCH  27  28
HETATM   28  C3  UNL     1       1.729  49.514 -14.394  1.00  0.00    -0.013 C 
HETATM   29  C2  UNL     1       2.681  48.699 -13.894  1.00  0.00     0.008 C 
HETATM   30  C1  UNL     1       2.777  47.219 -14.110  1.00  0.00     0.055 C 
BRANCH  29  31
HETATM   31  C30 UNL     1       3.709  49.338 -13.031  1.00  0.00     0.171 C 
HETATM   32  O2  UNL     1       3.593  49.637 -11.855  1.00  0.00    -0.646 OA
BRANCH  31  33
HETATM   33  O3  UNL     1       4.850  49.582 -13.695  1.00  0.00    -0.773 OA
HETATM   34  H46 UNL     1       5.422  49.998 -13.016  1.00  0.00     0.167 HD
ENDBRANCH  31  33
ENDBRANCH  29  31
ENDBRANCH  27  28
ENDBRANCH  26  27
ENDBRANCH  24  26
ENDBRANCH   1  24
TORSDOF 6
ENDMDL
MODEL 4
REMARK minimizedAffinity -7.73277855
REMARK CNNscore 0.242143735
REMARK CNNaffinity 6.04874563
REMARK  6 active torsions:
REMARK  status: ('A' for Active; 'I' for Inactive)
REMARK    1  A    between atoms: C2_2  and  C30_31 
REMARK    2  A    between atoms: C3_3  and  C4_4 
REMARK    3  A    between atoms: C4_4  and  C5_5 
REMARK    4  A    between atoms: C5_5  and  C6_6 
REMARK    5  A    between atoms: C6_6  and  C8_8 
REMARK    6  A    between atoms: C30_31  and  O3_33 
ROOT
HETATM    1  C8  UNL     1      -2.684  49.355 -22.074  1.00  0.00    -0.002 C 
HETATM    2  C9  UNL     1      -1.340  50.040 -22.462  1.00  0.00     0.007 C 
HETATM    3  C10 UNL     1      -0.593  50.363 -21.153  1.00  0.00     0.015 C 
HETATM    4  C11 UNL     1      -1.638  50.146 -20.040  1.00  0.00    -0.013 C 
HETATM    5  C12 UNL     1      -2.468  51.469 -19.964  1.00  0.00     0.021 C 
HETATM    6  C13 UNL     1      -1.134  49.881 -18.624  1.00  0.00    -0.070 C 
HETATM    7  C14 UNL     1      -0.017  50.466 -18.143  1.00  0.00    -0.022 C 
HETATM    8  C15 UNL     1       0.487  50.322 -16.733  1.00  0.00     0.034 C 
HETATM    9  C16 UNL     1      -0.259  49.219 -15.966  1.00  0.00     0.013 C 
HETATM   10  C17 UNL     1       0.201  48.975 -14.494  1.00  0.00     0.018 C 
HETATM   11  C18 UNL     1      -0.117  50.114 -13.519  1.00  0.00     0.023 C 
HETATM   12  C19 UNL     1       1.723  48.711 -14.450  1.00  0.00     0.023 C 
HETATM   13  C20 UNL     1      -0.501  47.703 -13.982  1.00  0.00     0.135 C 
HETATM   14  O1  UNL     1      -0.133  47.124 -12.958  1.00  0.00    -0.297 OA
HETATM   15  C21 UNL     1      -1.662  47.165 -14.793  1.00  0.00     0.080 C 
HETATM   16  C22 UNL     1      -2.545  48.314 -15.256  1.00  0.00     0.017 C 
HETATM   17  C23 UNL     1      -1.818  49.320 -16.196  1.00  0.00    -0.031 C 
HETATM   18  C24 UNL     1      -2.407  50.727 -15.905  1.00  0.00     0.016 C 
HETATM   19  C25 UNL     1      -2.021  48.983 -17.731  1.00  0.00     0.024 C 
HETATM   20  C26 UNL     1      -3.489  48.951 -18.222  1.00  0.00     0.010 C 
HETATM   21  C27 UNL     1      -3.676  48.667 -19.733  1.00  0.00     0.011 C 
HETATM   22  C28 UNL     1      -2.420  48.906 -20.599  1.00  0.00    -0.029 C 
HETATM   23  C29 UNL     1      -1.570  47.596 -20.633  1.00  0.00     0.016 C 
ENDROOT
BRANCH   1  24
HETATM   24  C6  UNL     1      -3.141  48.307 -23.126  1.00  0.00    -0.014 C 
HETATM   25  C7  UNL     1      -4.645  48.023 -23.058  1.00  0.00     0.010 C 
BRANCH  24  26
HETATM   26  C5  UNL     1      -2.747  48.692 -24.578  1.00  0.00     0.008 C 
BRANCH  26  27
HETATM   27  C4  UNL     1      -3.691  49.678 -25.273  1.00  0.00     0.028 C 
BRANCH  27  28
HETATM   28  C3  UNL     1      -3.989  49.235 -26.679  1.00  0.00    -0.013 C 
HETATM   29  C2  UNL     1      -5.024  48.480 -27.100  1.00  0.00     0.008 C 
HETATM   30  C1  UNL     1      -6.089  47.881 -26.230  1.00  0.00     0.055 C 
BRANCH  29  31
HETATM   31  C30 UNL     1      -5.090  48.204 -28.558  1.00  0.00     0.171 C 
HETATM   32  O2  UNL     1      -4.216  47.711 -29.250  1.00  0.00    -0.646 OA
BRANCH  31  33
HETATM   33  O3  UNL     1      -6.266  48.571 -29.094  1.00  0.00    -0.773 OA
HETATM   34  H46 UNL     1      -6.166  48.338 -30.040  1.00  0.00     0.167 HD
ENDBRANCH  31  33
ENDBRANCH  29  31
ENDBRANCH  27  28
ENDBRANCH  26  27
ENDBRANCH  24  26
ENDBRANCH   1  24
TORSDOF 6
ENDMDL
MODEL 5
REMARK minimizedAffinity -8.37269688
REMARK CNNscore 0.222683698
REMARK CNNaffinity 6.68508339
REMARK  6 active torsions:
REMARK  status: ('A' for Active; 'I' for Inactive)
REMARK    1  A    between atoms: C2_2  and  C30_31 
REMARK    2  A    between atoms: C3_3  and  C4_4 
REMARK    3  A    between atoms: C4_4  and  C5_5 
REMARK    4  A    between atoms: C5_5  and  C6_6 
REMARK    5  A    between atoms: C6_6  and  C8_8 
REMARK    6  A    between atoms: C30_31  and  O3_33 
ROOT
HETATM    1  C8  UNL     1      -0.718  51.367 -20.638  1.00  0.00    -0.002 C 
HETATM    2  C9  UNL     1      -2.263  51.323 -20.824  1.00  0.00     0.007 C 
HETATM    3  C10 UNL     1      -2.888  51.097 -19.432  1.00  0.00     0.015 C 
HETATM    4  C11 UNL     1      -1.702  50.707 -18.528  1.00  0.00    -0.013 C 
HETATM    5  C12 UNL     1      -1.478  49.175 -18.746  1.00  0.00     0.021 C 
HETATM    6  C13 UNL     1      -1.853  50.903 -17.021  1.00  0.00    -0.070 C 
HETATM    7  C14 UNL     1      -3.033  50.717 -16.394  1.00  0.00    -0.022 C 
HETATM    8  C15 UNL     1      -3.235  50.805 -14.905  1.00  0.00     0.034 C 
HETATM    9  C16 UNL     1      -2.007  51.392 -14.193  1.00  0.00     0.013 C 
HETATM   10  C17 UNL     1      -2.120  51.543 -12.642  1.00  0.00     0.018 C 
HETATM   11  C18 UNL     1      -2.159  50.223 -11.865  1.00  0.00     0.023 C 
HETATM   12  C19 UNL     1      -3.381  52.357 -12.278  1.00  0.00     0.023 C 
HETATM   13  C20 UNL     1      -0.898  52.345 -12.153  1.00  0.00     0.135 C 
HETATM   14  O1  UNL     1      -0.854  52.840 -11.025  1.00  0.00    -0.297 OA
HETATM   15  C21 UNL     1       0.256  52.526 -13.117  1.00  0.00     0.080 C 
HETATM   16  C22 UNL     1       0.524  51.222 -13.854  1.00  0.00     0.017 C 
HETATM   17  C23 UNL     1      -0.671  50.743 -14.729  1.00  0.00    -0.031 C 
HETATM   18  C24 UNL     1      -0.670  49.191 -14.698  1.00  0.00     0.016 C 
HETATM   19  C25 UNL     1      -0.564  51.230 -16.234  1.00  0.00     0.024 C 
HETATM   20  C26 UNL     1       0.707  50.780 -16.994  1.00  0.00     0.010 C 
HETATM   21  C27 UNL     1       0.782  51.220 -18.477  1.00  0.00     0.011 C 
HETATM   22  C28 UNL     1      -0.569  51.628 -19.103  1.00  0.00    -0.029 C 
HETATM   23  C29 UNL     1      -0.810  53.150 -18.842  1.00  0.00     0.016 C 
ENDROOT
BRANCH   1  24
HETATM   24  C6  UNL     1      -0.026  52.321 -21.650  1.00  0.00    -0.014 C 
HETATM   25  C7  UNL     1       1.482  52.443 -21.406  1.00  0.00     0.010 C 
BRANCH  24  26
HETATM   26  C5  UNL     1      -0.286  51.930 -23.130  1.00  0.00     0.008 C 
BRANCH  26  27
HETATM   27  C4  UNL     1       0.707  52.508 -24.144  1.00  0.00     0.028 C 
BRANCH  27  28
HETATM   28  C3  UNL     1      -0.007  52.999 -25.373  1.00  0.00    -0.013 C 
HETATM   29  C2  UNL     1      -0.182  52.341 -26.538  1.00  0.00     0.008 C 
HETATM   30  C1  UNL     1       0.344  50.977 -26.868  1.00  0.00     0.055 C 
BRANCH  29  31
HETATM   31  C30 UNL     1      -0.950  53.057 -27.591  1.00  0.00     0.171 C 
HETATM   32  O2  UNL     1      -2.050  53.569 -27.474  1.00  0.00    -0.646 OA
BRANCH  31  33
HETATM   33  O3  UNL     1      -0.295  53.093 -28.763  1.00  0.00    -0.773 OA
HETATM   34  H46 UNL     1      -0.909  53.582 -29.350  1.00  0.00     0.167 HD
ENDBRANCH  31  33
ENDBRANCH  29  31
ENDBRANCH  27  28
ENDBRANCH  26  27
ENDBRANCH  24  26
ENDBRANCH   1  24
TORSDOF 6
ENDMDL
MODEL 6
REMARK minimizedAffinity -8.95816994
REMARK CNNscore 0.204574093
REMARK CNNaffinity 6.19127226
REMARK  6 active torsions:
REMARK  status: ('A' for Active; 'I' for Inactive)
REMARK    1  A    between atoms: C2_2  and  C30_31 
REMARK    2  A    between atoms: C3_3  and  C4_4 
REMARK    3  A    between atoms: C4_4  and  C5_5 
REMARK    4  A    between atoms: C5_5  and  C6_6 
REMARK    5  A    between atoms: C6_6  and  C8_8 
REMARK    6  A    between atoms: C30_31  and  O3_33 
ROOT
HETATM    1  C8  UNL     1      -1.695  51.310 -22.908  1.00  0.00    -0.002 C 
HETATM    2  C9  UNL     1      -2.733  52.289 -23.531  1.00  0.00     0.007 C 
HETATM    3  C10 UNL     1      -4.137  51.769 -23.160  1.00  0.00     0.015 C 
HETATM    4  C11 UNL     1      -3.897  50.352 -22.603  1.00  0.00    -0.013 C 
HETATM    5  C12 UNL     1      -3.810  49.409 -23.847  1.00  0.00     0.021 C 
HETATM    6  C13 UNL     1      -4.961  49.749 -21.689  1.00  0.00    -0.070 C 
HETATM    7  C14 UNL     1      -6.277  49.991 -21.872  1.00  0.00    -0.022 C 
HETATM    8  C15 UNL     1      -7.382  49.362 -21.068  1.00  0.00     0.034 C 
HETATM    9  C16 UNL     1      -6.845  48.615 -19.837  1.00  0.00     0.013 C 
HETATM   10  C17 UNL     1      -7.916  47.940 -18.923  1.00  0.00     0.018 C 
HETATM   11  C18 UNL     1      -8.641  46.745 -19.550  1.00  0.00     0.023 C 
HETATM   12  C19 UNL     1      -8.976  48.977 -18.491  1.00  0.00     0.023 C 
HETATM   13  C20 UNL     1      -7.208  47.447 -17.647  1.00  0.00     0.135 C 
HETATM   14  O1  UNL     1      -7.837  47.115 -16.640  1.00  0.00    -0.297 OA
HETATM   15  C21 UNL     1      -5.693  47.399 -17.656  1.00  0.00     0.080 C 
HETATM   16  C22 UNL     1      -5.203  46.847 -18.987  1.00  0.00     0.017 C 
HETATM   17  C23 UNL     1      -5.594  47.728 -20.210  1.00  0.00    -0.031 C 
HETATM   18  C24 UNL     1      -5.836  46.769 -21.406  1.00  0.00     0.016 C 
HETATM   19  C25 UNL     1      -4.465  48.769 -20.603  1.00  0.00     0.024 C 
HETATM   20  C26 UNL     1      -3.087  48.160 -20.960  1.00  0.00     0.010 C 
HETATM   21  C27 UNL     1      -2.003  49.180 -21.388  1.00  0.00     0.011 C 
HETATM   22  C28 UNL     1      -2.545  50.556 -21.832  1.00  0.00    -0.029 C 
HETATM   23  C29 UNL     1      -2.676  51.479 -20.579  1.00  0.00     0.016 C 
ENDROOT
BRANCH   1  24
HETATM   24  C6  UNL     1      -0.383  52.027 -22.485  1.00  0.00    -0.014 C 
HETATM   25  C7  UNL     1       0.318  51.327 -21.316  1.00  0.00     0.010 C 
BRANCH  24  26
HETATM   26  C5  UNL     1       0.615  52.210 -23.660  1.00  0.00     0.008 C 
BRANCH  26  27
HETATM   27  C4  UNL     1       0.749  53.642 -24.188  1.00  0.00     0.028 C 
BRANCH  27  28
HETATM   28  C3  UNL     1       0.022  53.802 -25.495  1.00  0.00    -0.013 C 
HETATM   29  C2  UNL     1       0.016  52.948 -26.540  1.00  0.00     0.008 C 
HETATM   30  C1  UNL     1       0.779  51.661 -26.631  1.00  0.00     0.055 C 
BRANCH  29  31
HETATM   31  C30 UNL     1      -0.809  53.345 -27.711  1.00  0.00     0.171 C 
HETATM   32  O2  UNL     1      -1.976  53.697 -27.698  1.00  0.00    -0.646 OA
BRANCH  31  33
HETATM   33  O3  UNL     1      -0.124  53.274 -28.864  1.00  0.00    -0.773 OA
HETATM   34  H46 UNL     1      -0.781  53.554 -29.535  1.00  0.00     0.167 HD
ENDBRANCH  31  33
ENDBRANCH  29  31
ENDBRANCH  27  28
ENDBRANCH  26  27
ENDBRANCH  24  26
ENDBRANCH   1  24
TORSDOF 6
ENDMDL
MODEL 7
REMARK minimizedAffinity -7.87352419
REMARK CNNscore 0.191094995
REMARK CNNaffinity 5.83494568
REMARK  6 active torsions:
REMARK  status: ('A' for Active; 'I' for Inactive)
REMARK    1  A    between atoms: C2_2  and  C30_31 
REMARK    2  A    between atoms: C3_3  and  C4_4 
REMARK    3  A    between atoms: C4_4  and  C5_5 
REMARK    4  A    between atoms: C5_5  and  C6_6 
REMARK    5  A    between atoms: C6_6  and  C8_8 
REMARK    6  A    between atoms: C30_31  and  O3_33 
ROOT
HETATM    1  C8  UNL     1      -7.939  48.118 -20.212  1.00  0.00    -0.002 C 
HETATM    2  C9  UNL     1      -7.857  49.514 -19.528  1.00  0.00     0.007 C 
HETATM    3  C10 UNL     1      -6.718  50.296 -20.212  1.00  0.00     0.015 C 
HETATM    4  C11 UNL     1      -5.968  49.243 -21.052  1.00  0.00    -0.013 C 
HETATM    5  C12 UNL     1      -4.977  48.535 -20.072  1.00  0.00     0.021 C 
HETATM    6  C13 UNL     1      -5.125  49.730 -22.228  1.00  0.00    -0.070 C 
HETATM    7  C14 UNL     1      -4.450  50.898 -22.185  1.00  0.00    -0.022 C 
HETATM    8  C15 UNL     1      -3.530  51.397 -23.266  1.00  0.00     0.034 C 
HETATM    9  C16 UNL     1      -3.647  50.560 -24.550  1.00  0.00     0.013 C 
HETATM   10  C17 UNL     1      -2.745  51.007 -25.745  1.00  0.00     0.018 C 
HETATM   11  C18 UNL     1      -1.242  50.797 -25.534  1.00  0.00     0.023 C 
HETATM   12  C19 UNL     1      -2.986  52.499 -26.063  1.00  0.00     0.023 C 
HETATM   13  C20 UNL     1      -3.167  50.198 -26.986  1.00  0.00     0.135 C 
HETATM   14  O1  UNL     1      -2.816  50.519 -28.123  1.00  0.00    -0.297 OA
HETATM   15  C21 UNL     1      -4.054  48.988 -26.770  1.00  0.00     0.080 C 
HETATM   16  C22 UNL     1      -3.576  48.207 -25.555  1.00  0.00     0.017 C 
HETATM   17  C23 UNL     1      -3.650  49.015 -24.225  1.00  0.00    -0.031 C 
HETATM   18  C24 UNL     1      -2.459  48.556 -23.342  1.00  0.00     0.016 C 
HETATM   19  C25 UNL     1      -5.003  48.773 -23.435  1.00  0.00     0.024 C 
HETATM   20  C26 UNL     1      -5.294  47.305 -23.040  1.00  0.00     0.010 C 
HETATM   21  C27 UNL     1      -6.594  47.083 -22.227  1.00  0.00     0.011 C 
HETATM   22  C28 UNL     1      -7.159  48.350 -21.548  1.00  0.00    -0.029 C 
HETATM   23  C29 UNL     1      -8.112  49.080 -22.548  1.00  0.00     0.016 C 
ENDROOT
BRANCH   1  24
HETATM   24  C6  UNL     1      -9.390  47.563 -20.256  1.00  0.00    -0.014 C 
HETATM   25  C7  UNL     1      -9.432  46.031 -20.291  1.00  0.00     0.010 C 
BRANCH  24  26
HETATM   26  C5  UNL     1     -10.275  48.084 -19.092  1.00  0.00     0.008 C 
BRANCH  26  27
HETATM   27  C4  UNL     1     -11.781  48.108 -19.376  1.00  0.00     0.028 C 
BRANCH  27  28
HETATM   28  C3  UNL     1     -12.522  47.220 -18.413  1.00  0.00    -0.013 C 
HETATM   29  C2  UNL     1     -13.779  47.380 -17.951  1.00  0.00     0.008 C 
HETATM   30  C1  UNL     1     -14.698  48.519 -18.273  1.00  0.00     0.055 C 
BRANCH  29  31
HETATM   31  C30 UNL     1     -14.276  46.336 -17.017  1.00  0.00     0.171 C 
HETATM   32  O2  UNL     1     -14.686  45.227 -17.311  1.00  0.00    -0.646 OA
BRANCH  31  33
HETATM   33  O3  UNL     1     -14.241  46.739 -15.736  1.00  0.00    -0.773 OA
HETATM   34  H46 UNL     1     -14.593  45.967 -15.247  1.00  0.00     0.167 HD
ENDBRANCH  31  33
ENDBRANCH  29  31
ENDBRANCH  27  28
ENDBRANCH  26  27
ENDBRANCH  24  26
ENDBRANCH   1  24
TORSDOF 6
ENDMDL
MODEL 8
REMARK minimizedAffinity -9.14478302
REMARK CNNscore 0.176636457
REMARK CNNaffinity 6.63133621
REMARK  6 active torsions:
REMARK  status: ('A' for Active; 'I' for Inactive)
REMARK    1  A    between atoms: C2_2  and  C30_31 
REMARK    2  A    between atoms: C3_3  and  C4_4 
REMARK    3  A    between atoms: C4_4  and  C5_5 
REMARK    4  A    between atoms: C5_5  and  C6_6 
REMARK    5  A    between atoms: C6_6  and  C8_8 
REMARK    6  A    between atoms: C30_31  and  O3_33 
ROOT
HETATM    1  C8  UNL     1      -2.243  49.765 -21.496  1.00  0.00    -0.002 C 
HETATM    2  C9  UNL     1      -1.588  51.082 -22.008  1.00  0.00     0.007 C 
HETATM    3  C10 UNL     1      -0.852  51.724 -20.814  1.00  0.00     0.015 C 
HETATM    4  C11 UNL     1      -1.348  50.943 -19.581  1.00  0.00    -0.013 C 
HETATM    5  C12 UNL     1      -2.708  51.598 -19.174  1.00  0.00     0.021 C 
HETATM    6  C13 UNL     1      -0.479  50.957 -18.326  1.00  0.00    -0.070 C 
HETATM    7  C14 UNL     1       0.237  52.044 -17.966  1.00  0.00    -0.022 C 
HETATM    8  C15 UNL     1       1.040  52.160 -16.700  1.00  0.00     0.034 C 
HETATM    9  C16 UNL     1       1.179  50.808 -15.982  1.00  0.00     0.013 C 
HETATM   10  C17 UNL     1       2.013  50.815 -14.661  1.00  0.00     0.018 C 
HETATM   11  C18 UNL     1       1.370  51.570 -13.493  1.00  0.00     0.023 C 
HETATM   12  C19 UNL     1       3.410  51.421 -14.919  1.00  0.00     0.023 C 
HETATM   13  C20 UNL     1       2.220  49.353 -14.223  1.00  0.00     0.135 C 
HETATM   14  O1  UNL     1       3.055  49.040 -13.372  1.00  0.00    -0.297 OA
HETATM   15  C21 UNL     1       1.370  48.291 -14.891  1.00  0.00     0.080 C 
HETATM   16  C22 UNL     1      -0.063  48.785 -15.025  1.00  0.00     0.017 C 
HETATM   17  C23 UNL     1      -0.205  50.050 -15.922  1.00  0.00    -0.031 C 
HETATM   18  C24 UNL     1      -1.363  50.900 -15.335  1.00  0.00     0.016 C 
HETATM   19  C25 UNL     1      -0.536  49.698 -17.432  1.00  0.00     0.024 C 
HETATM   20  C26 UNL     1      -1.833  48.885 -17.661  1.00  0.00     0.010 C 
HETATM   21  C27 UNL     1      -2.174  48.585 -19.142  1.00  0.00     0.011 C 
HETATM   22  C28 UNL     1      -1.462  49.493 -20.168  1.00  0.00    -0.029 C 
HETATM   23  C29 UNL     1      -0.082  48.858 -20.536  1.00  0.00     0.016 C 
ENDROOT
BRANCH   1  24
HETATM   24  C6  UNL     1      -2.301  48.666 -22.593  1.00  0.00    -0.014 C 
HETATM   25  C7  UNL     1      -2.356  47.252 -22.005  1.00  0.00     0.010 C 
BRANCH  24  26
HETATM   26  C5  UNL     1      -3.473  48.864 -23.590  1.00  0.00     0.008 C 
BRANCH  26  27
HETATM   27  C4  UNL     1      -3.140  48.576 -25.058  1.00  0.00     0.028 C 
BRANCH  27  28
HETATM   28  C3  UNL     1      -3.241  49.827 -25.886  1.00  0.00    -0.013 C 
HETATM   29  C2  UNL     1      -2.259  50.712 -26.160  1.00  0.00     0.008 C 
HETATM   30  C1  UNL     1      -0.850  50.650 -25.651  1.00  0.00     0.055 C 
BRANCH  29  31
HETATM   31  C30 UNL     1      -2.629  51.861 -27.027  1.00  0.00     0.171 C 
HETATM   32  O2  UNL     1      -2.636  53.039 -26.717  1.00  0.00    -0.646 OA
BRANCH  31  33
HETATM   33  O3  UNL     1      -2.987  51.472 -28.262  1.00  0.00    -0.773 OA
HETATM   34  H46 UNL     1      -3.203  52.316 -28.711  1.00  0.00     0.167 HD
ENDBRANCH  31  33
ENDBRANCH  29  31
ENDBRANCH  27  28
ENDBRANCH  26  27
ENDBRANCH  24  26
ENDBRANCH   1  24
TORSDOF 6
ENDMDL
MODEL 9
REMARK minimizedAffinity -7.91909504
REMARK CNNscore 0.171650603
REMARK CNNaffinity 5.53825045
REMARK  6 active torsions:
REMARK  status: ('A' for Active; 'I' for Inactive)
REMARK    1  A    between atoms: C2_2  and  C30_31 
REMARK    2  A    between atoms: C3_3  and  C4_4 
REMARK    3  A    between atoms: C4_4  and  C5_5 
REMARK    4  A    between atoms: C5_5  and  C6_6 
REMARK    5  A    between atoms: C6_6  and  C8_8 
REMARK    6  A    between atoms: C30_31  and  O3_33 
ROOT
HETATM    1  C8  UNL     1      -3.689  50.337 -23.834  1.00  0.00    -0.002 C 
HETATM    2  C9  UNL     1      -3.126  51.550 -23.035  1.00  0.00     0.007 C 
HETATM    3  C10 UNL     1      -3.239  51.206 -21.536  1.00  0.00     0.015 C 
HETATM    4  C11 UNL     1      -4.138  49.955 -21.486  1.00  0.00    -0.013 C 
HETATM    5  C12 UNL     1      -5.610  50.479 -21.541  1.00  0.00     0.021 C 
HETATM    6  C13 UNL     1      -4.053  49.059 -20.253  1.00  0.00    -0.070 C 
HETATM    7  C14 UNL     1      -3.841  49.563 -19.019  1.00  0.00    -0.022 C 
HETATM    8  C15 UNL     1      -3.835  48.751 -17.752  1.00  0.00     0.034 C 
HETATM    9  C16 UNL     1      -3.832  47.241 -18.037  1.00  0.00     0.013 C 
HETATM   10  C17 UNL     1      -3.807  46.307 -16.785  1.00  0.00     0.018 C 
HETATM   11  C18 UNL     1      -5.085  46.323 -15.941  1.00  0.00     0.023 C 
HETATM   12  C19 UNL     1      -2.618  46.675 -15.871  1.00  0.00     0.023 C 
HETATM   13  C20 UNL     1      -3.581  44.864 -17.275  1.00  0.00     0.135 C 
HETATM   14  O1  UNL     1      -3.257  43.958 -16.504  1.00  0.00    -0.297 OA
HETATM   15  C21 UNL     1      -3.754  44.587 -18.755  1.00  0.00     0.080 C 
HETATM   16  C22 UNL     1      -4.980  45.320 -19.278  1.00  0.00     0.017 C 
HETATM   17  C23 UNL     1      -4.880  46.870 -19.157  1.00  0.00    -0.031 C 
HETATM   18  C24 UNL     1      -6.311  47.402 -18.881  1.00  0.00     0.016 C 
HETATM   19  C25 UNL     1      -4.320  47.552 -20.474  1.00  0.00     0.024 C 
HETATM   20  C26 UNL     1      -5.138  47.293 -21.762  1.00  0.00     0.010 C 
HETATM   21  C27 UNL     1      -4.612  48.002 -23.035  1.00  0.00     0.011 C 
HETATM   22  C28 UNL     1      -3.661  49.190 -22.770  1.00  0.00    -0.029 C 
HETATM   23  C29 UNL     1      -2.196  48.655 -22.669  1.00  0.00     0.016 C 
ENDROOT
BRANCH   1  24
HETATM   24  C6  UNL     1      -2.971  50.139 -25.197  1.00  0.00    -0.014 C 
HETATM   25  C7  UNL     1      -1.494  50.544 -25.147  1.00  0.00     0.010 C 
BRANCH  24  26
HETATM   26  C5  UNL     1      -3.099  48.694 -25.747  1.00  0.00     0.008 C 
BRANCH  26  27
HETATM   27  C4  UNL     1      -4.441  48.363 -26.410  1.00  0.00     0.028 C 
BRANCH  27  28
HETATM   28  C3  UNL     1      -4.348  48.502 -27.905  1.00  0.00    -0.013 C 
HETATM   29  C2  UNL     1      -5.260  48.118 -28.823  1.00  0.00     0.008 C 
HETATM   30  C1  UNL     1      -6.557  47.423 -28.540  1.00  0.00     0.055 C 
BRANCH  29  31
HETATM   31  C30 UNL     1      -4.921  48.394 -30.244  1.00  0.00     0.171 C 
HETATM   32  O2  UNL     1      -4.885  47.588 -31.157  1.00  0.00    -0.646 OA
BRANCH  31  33
HETATM   33  O3  UNL     1      -4.632  49.688 -30.456  1.00  0.00    -0.773 OA
HETATM   34  H46 UNL     1      -4.430  49.720 -31.415  1.00  0.00     0.167 HD
ENDBRANCH  31  33
ENDBRANCH  29  31
ENDBRANCH  27  28
ENDBRANCH  26  27
ENDBRANCH  24  26
ENDBRANCH   1  24
TORSDOF 6
ENDMDL
