MODEL 1
REMARK minimizedAffinity -8.15991688
REMARK CNNscore 0.489327133
REMARK CNNaffinity 6.87677336
REMARK  14 active torsions:
REMARK  status: ('A' for Active; 'I' for Inactive)
REMARK    1  A    between atoms: C2_2  and  C30_34 
REMARK    2  A    between atoms: C3_3  and  C4_4 
REMARK    3  A    between atoms: C4_4  and  C5_5 
REMARK    4  A    between atoms: C5_5  and  C6_6 
REMARK    5  A    between atoms: C6_6  and  C8_8 
REMARK    6  A    between atoms: C16_16  and  C17_17 
REMARK    7  A    between atoms: C17_17  and  O1_19 
REMARK    8  A    between atoms: C17_17  and  C19_20 
REMARK    9  A    between atoms: C19_20  and  O2_21 
REMARK   10  A    between atoms: C20_22  and  C21_23 
REMARK   11  A    between atoms: C21_23  and  C22_24 
REMARK   12  A    between atoms: C22_24  and  C23_25 
REMARK   13  A    between atoms: C23_25  and  O4_27 
REMARK   14  A    between atoms: C30_34  and  O5_35 
ROOT
HETATM    1  C8  UNL     1      -1.334  51.339 -20.225  1.00  0.00    -0.002 C 
HETATM    2  C9  UNL     1      -0.197  50.959 -21.179  1.00  0.00     0.006 C 
HETATM    3  C10 UNL     1      -0.910  50.118 -22.220  1.00  0.00     0.011 C 
HETATM    4  C11 UNL     1      -1.810  49.158 -21.396  1.00  0.00    -0.032 C 
HETATM    5  C12 UNL     1      -0.939  47.909 -21.082  1.00  0.00     0.016 C 
HETATM    6  C13 UNL     1      -3.023  48.704 -22.273  1.00  0.00     0.004 C 
HETATM    7  C14 UNL     1      -3.875  47.546 -21.632  1.00  0.00     0.007 C 
HETATM    8  C15 UNL     1      -5.333  47.328 -22.141  1.00  0.00     0.009 C 
HETATM    9  C16 UNL     1      -6.029  48.576 -22.771  1.00  0.00     0.031 C 
HETATM   10  C20 UNL     1      -4.975  49.215 -23.685  1.00  0.00    -0.025 A 
HETATM   11  C24 UNL     1      -4.373  50.568 -23.863  1.00  0.00     0.021 A 
HETATM   12  C25 UNL     1      -3.963  49.843 -22.621  1.00  0.00    -0.027 A 
HETATM   13  C26 UNL     1      -4.267  50.793 -21.458  1.00  0.00     0.011 C 
HETATM   14  C27 UNL     1      -3.718  50.362 -20.106  1.00  0.00     0.011 C 
HETATM   15  C28 UNL     1      -2.202  50.016 -20.101  1.00  0.00    -0.032 C 
HETATM   16  C29 UNL     1      -1.945  49.249 -18.791  1.00  0.00     0.016 C 
ENDROOT
BRANCH   1  17
HETATM   17  C6  UNL     1      -0.826  52.160 -19.000  1.00  0.00    -0.014 C 
HETATM   18  C7  UNL     1      -0.274  53.559 -19.301  1.00  0.00     0.010 C 
BRANCH  17  19
HETATM   19  C5  UNL     1       0.163  51.409 -18.081  1.00  0.00     0.008 C 
BRANCH  19  20
HETATM   20  C4  UNL     1       1.260  52.303 -17.490  1.00  0.00     0.028 C 
BRANCH  20  21
HETATM   21  C3  UNL     1       1.680  51.811 -16.132  1.00  0.00    -0.022 C 
HETATM   22  C2  UNL     1       2.855  52.007 -15.499  1.00  0.00    -0.064 C 
HETATM   23  C1  UNL     1       4.032  52.755 -16.066  1.00  0.00     0.045 C 
BRANCH  22  24
HETATM   24  C30 UNL     1       3.093  51.428 -14.126  1.00  0.00     0.197 C 
BRANCH  24  25
HETATM   25  O5  UNL     1       2.741  50.053 -14.139  1.00  0.00    -0.397 OA
HETATM   26  H50 UNL     1       3.247  49.650 -14.867  1.00  0.00     0.209 HD
ENDBRANCH  24  25
ENDBRANCH  22  24
ENDBRANCH  20  21
ENDBRANCH  19  20
ENDBRANCH  17  19
ENDBRANCH   1  17
BRANCH  10  27
HETATM   27  C21 UNL     1      -4.540  48.333 -24.892  1.00  0.00     0.021 C 
BRANCH  27  28
HETATM   28  C22 UNL     1      -3.582  49.045 -25.855  1.00  0.00     0.111 C 
BRANCH  28  29
HETATM   29  C23 UNL     1      -4.008  48.852 -27.284  1.00  0.00     0.139 C 
HETATM   30  O3  UNL     1      -4.765  48.008 -27.732  1.00  0.00    -0.650 OA
BRANCH  29  31
HETATM   31  O4  UNL     1      -3.411  49.738 -28.108  1.00  0.00    -0.776 OA
HETATM   32  H38 UNL     1      -3.752  49.508 -28.996  1.00  0.00     0.167 HD
ENDBRANCH  29  31
ENDBRANCH  28  29
ENDBRANCH  27  28
ENDBRANCH  10  27
BRANCH   9  33
HETATM   33  C17 UNL     1      -7.423  48.292 -23.406  1.00  0.00     0.080 C 
HETATM   34  C18 UNL     1      -7.300  47.201 -24.484  1.00  0.00     0.048 C 
BRANCH  33  35
HETATM   35  O1  UNL     1      -8.355  47.853 -22.409  1.00  0.00    -0.388 OA
HETATM   36  H30 UNL     1      -9.187  47.612 -22.852  1.00  0.00     0.210 HD
ENDBRANCH  33  35
BRANCH  33  37
HETATM   37  C19 UNL     1      -8.022  49.571 -24.051  1.00  0.00     0.201 C 
BRANCH  37  38
HETATM   38  O2  UNL     1      -8.438  49.387 -25.397  1.00  0.00    -0.398 OA
HETATM   39  H33 UNL     1      -9.260  48.869 -25.391  1.00  0.00     0.209 HD
ENDBRANCH  37  38
ENDBRANCH  33  37
ENDBRANCH   9  33
TORSDOF 14
ENDMDL
MODEL 2
REMARK minimizedAffinity -6.51950836
REMARK CNNscore 0.40332377
REMARK CNNaffinity 6.22523832
REMARK  14 active torsions:
REMARK  status: ('A' for Active; 'I' for Inactive)
REMARK    1  A    between atoms: C2_2  and  C30_34 
REMARK    2  A    between atoms: C3_3  and  C4_4 
REMARK    3  A    between atoms: C4_4  and  C5_5 
REMARK    4  A    between atoms: C5_5  and  C6_6 
REMARK    5  A    between atoms: C6_6  and  C8_8 
REMARK    6  A    between atoms: C16_16  and  C17_17 
REMARK    7  A    between atoms: C17_17  and  O1_19 
REMARK    8  A    between atoms: C17_17  and  C19_20 
REMARK    9  A    between atoms: C19_20  and  O2_21 
REMARK   10  A    between atoms: C20_22  and  C21_23 
REMARK   11  A    between atoms: C21_23  and  C22_24 
REMARK   12  A    between atoms: C22_24  and  C23_25 
REMARK   13  A    between atoms: C23_25  and  O4_27 
REMARK   14  A    between atoms: C30_34  and  O5_35 
ROOT
HETATM    1  C8  UNL     1       4.382  53.805  -9.006  1.00  0.00    -0.002 C 
HETATM    2  C9  UNL     1       4.203  54.115  -7.516  1.00  0.00     0.006 C 
HETATM    3  C10 UNL     1       2.699  54.028  -7.341  1.00  0.00     0.011 C 
HETATM    4  C11 UNL     1       2.120  54.820  -8.545  1.00  0.00    -0.032 C 
HETATM    5  C12 UNL     1       2.019  56.300  -8.082  1.00  0.00     0.016 C 
HETATM    6  C13 UNL     1       0.677  54.303  -8.861  1.00  0.00     0.004 C 
HETATM    7  C14 UNL     1      -0.103  55.187  -9.903  1.00  0.00     0.007 C 
HETATM    8  C15 UNL     1      -1.318  54.556 -10.650  1.00  0.00     0.009 C 
HETATM    9  C16 UNL     1      -1.309  52.999 -10.771  1.00  0.00     0.031 C 
HETATM   10  C20 UNL     1      -0.895  52.482  -9.388  1.00  0.00    -0.025 A 
HETATM   11  C24 UNL     1       0.141  51.558  -8.842  1.00  0.00     0.021 A 
HETATM   12  C25 UNL     1       0.655  52.867  -9.350  1.00  0.00    -0.027 A 
HETATM   13  C26 UNL     1       1.749  52.526 -10.366  1.00  0.00     0.011 C 
HETATM   14  C27 UNL     1       2.580  53.706 -10.848  1.00  0.00     0.011 C 
HETATM   15  C28 UNL     1       3.189  54.577  -9.714  1.00  0.00    -0.032 C 
HETATM   16  C29 UNL     1       3.635  55.892 -10.380  1.00  0.00     0.016 C 
ENDROOT
BRANCH   1  17
HETATM   17  C6  UNL     1       5.871  53.913  -9.455  1.00  0.00    -0.014 C 
HETATM   18  C7  UNL     1       6.790  52.754  -9.048  1.00  0.00     0.010 C 
BRANCH  17  19
HETATM   19  C5  UNL     1       6.558  55.254  -9.109  1.00  0.00     0.008 C 
BRANCH  19  20
HETATM   20  C4  UNL     1       7.389  55.208  -7.820  1.00  0.00     0.028 C 
BRANCH  20  21
HETATM   21  C3  UNL     1       6.874  56.202  -6.815  1.00  0.00    -0.022 C 
HETATM   22  C2  UNL     1       7.499  56.681  -5.719  1.00  0.00    -0.064 C 
HETATM   23  C1  UNL     1       8.871  56.272  -5.253  1.00  0.00     0.045 C 
BRANCH  22  24
HETATM   24  C30 UNL     1       6.814  57.682  -4.822  1.00  0.00     0.197 C 
BRANCH  24  25
HETATM   25  O5  UNL     1       7.025  57.307  -3.469  1.00  0.00    -0.397 OA
HETATM   26  H50 UNL     1       7.989  57.222  -3.358  1.00  0.00     0.209 HD
ENDBRANCH  24  25
ENDBRANCH  22  24
ENDBRANCH  20  21
ENDBRANCH  19  20
ENDBRANCH  17  19
ENDBRANCH   1  17
BRANCH  10  27
HETATM   27  C21 UNL     1      -1.904  52.800  -8.245  1.00  0.00     0.021 C 
BRANCH  27  28
HETATM   28  C22 UNL     1      -1.509  52.191  -6.894  1.00  0.00     0.111 C 
BRANCH  28  29
HETATM   29  C23 UNL     1      -1.198  53.264  -5.887  1.00  0.00     0.139 C 
HETATM   30  O3  UNL     1      -0.102  53.642  -5.511  1.00  0.00    -0.650 OA
BRANCH  29  31
HETATM   31  O4  UNL     1      -2.319  53.796  -5.361  1.00  0.00    -0.776 OA
HETATM   32  H38 UNL     1      -1.993  54.462  -4.721  1.00  0.00     0.167 HD
ENDBRANCH  29  31
ENDBRANCH  28  29
ENDBRANCH  27  28
ENDBRANCH  10  27
BRANCH   9  33
HETATM   33  C17 UNL     1      -2.605  52.388 -11.386  1.00  0.00     0.080 C 
HETATM   34  C18 UNL     1      -2.348  51.963 -12.842  1.00  0.00     0.048 C 
BRANCH  33  35
HETATM   35  O1  UNL     1      -3.030  51.243 -10.638  1.00  0.00    -0.388 OA
HETATM   36  H30 UNL     1      -3.792  50.844 -11.094  1.00  0.00     0.210 HD
ENDBRANCH  33  35
BRANCH  33  37
HETATM   37  C19 UNL     1      -3.777  53.406 -11.358  1.00  0.00     0.201 C 
BRANCH  37  38
HETATM   38  O2  UNL     1      -4.179  53.845 -12.649  1.00  0.00    -0.398 OA
HETATM   39  H33 UNL     1      -4.667  53.122 -13.076  1.00  0.00     0.209 HD
ENDBRANCH  37  38
ENDBRANCH  33  37
ENDBRANCH   9  33
TORSDOF 14
ENDMDL
MODEL 3
REMARK minimizedAffinity -6.97297335
REMARK CNNscore 0.377214849
REMARK CNNaffinity 6.01526213
REMARK  14 active torsions:
REMARK  status: ('A' for Active; 'I' for Inactive)
REMARK    1  A    between atoms: C2_2  and  C30_34 
REMARK    2  A    between atoms: C3_3  and  C4_4 
REMARK    3  A    between atoms: C4_4  and  C5_5 
REMARK    4  A    between atoms: C5_5  and  C6_6 
REMARK    5  A    between atoms: C6_6  and  C8_8 
REMARK    6  A    between atoms: C16_16  and  C17_17 
REMARK    7  A    between atoms: C17_17  and  O1_19 
REMARK    8  A    between atoms: C17_17  and  C19_20 
REMARK    9  A    between atoms: C19_20  and  O2_21 
REMARK   10  A    between atoms: C20_22  and  C21_23 
REMARK   11  A    between atoms: C21_23  and  C22_24 
REMARK   12  A    between atoms: C22_24  and  C23_25 
REMARK   13  A    between atoms: C23_25  and  O4_27 
REMARK   14  A    between atoms: C30_34  and  O5_35 
ROOT
HETATM    1  C8  UNL     1      -6.508  44.398 -31.919  1.00  0.00    -0.002 C 
HETATM    2  C9  UNL     1      -5.536  45.544 -31.620  1.00  0.00     0.006 C 
HETATM    3  C10 UNL     1      -6.373  46.465 -30.753  1.00  0.00     0.011 C 
HETATM    4  C11 UNL     1      -7.740  46.554 -31.484  1.00  0.00    -0.032 C 
HETATM    5  C12 UNL     1      -7.616  47.730 -32.493  1.00  0.00     0.016 C 
HETATM    6  C13 UNL     1      -8.859  46.909 -30.450  1.00  0.00     0.004 C 
HETATM    7  C14 UNL     1     -10.245  47.261 -31.106  1.00  0.00     0.007 C 
HETATM    8  C15 UNL     1     -11.529  47.168 -30.225  1.00  0.00     0.009 C 
HETATM    9  C16 UNL     1     -11.447  46.201 -29.002  1.00  0.00     0.031 C 
HETATM   10  C20 UNL     1     -10.081  46.468 -28.357  1.00  0.00    -0.025 A 
HETATM   11  C24 UNL     1      -8.898  45.655 -27.949  1.00  0.00     0.021 A 
HETATM   12  C25 UNL     1      -9.087  45.815 -29.424  1.00  0.00    -0.027 A 
HETATM   13  C26 UNL     1      -9.105  44.396 -30.003  1.00  0.00     0.011 C 
HETATM   14  C27 UNL     1      -9.055  44.312 -31.521  1.00  0.00     0.011 C 
HETATM   15  C28 UNL     1      -7.899  45.118 -32.178  1.00  0.00    -0.032 C 
HETATM   16  C29 UNL     1      -8.252  45.228 -33.672  1.00  0.00     0.016 C 
ENDROOT
BRANCH   1  17
HETATM   17  C6  UNL     1      -5.890  43.338 -32.882  1.00  0.00    -0.014 C 
HETATM   18  C7  UNL     1      -6.380  41.894 -32.707  1.00  0.00     0.010 C 
BRANCH  17  19
HETATM   19  C5  UNL     1      -4.347  43.348 -32.953  1.00  0.00     0.008 C 
BRANCH  19  20
HETATM   20  C4  UNL     1      -3.764  42.288 -33.897  1.00  0.00     0.028 C 
BRANCH  20  21
HETATM   21  C3  UNL     1      -2.836  41.363 -33.157  1.00  0.00    -0.022 C 
HETATM   22  C2  UNL     1      -2.608  40.053 -33.384  1.00  0.00    -0.064 C 
HETATM   23  C1  UNL     1      -3.290  39.222 -34.438  1.00  0.00     0.045 C 
BRANCH  22  24
HETATM   24  C30 UNL     1      -1.632  39.285 -32.527  1.00  0.00     0.197 C 
BRANCH  24  25
HETATM   25  O5  UNL     1      -1.802  39.676 -31.173  1.00  0.00    -0.397 OA
HETATM   26  H50 UNL     1      -2.744  39.546 -30.969  1.00  0.00     0.209 HD
ENDBRANCH  24  25
ENDBRANCH  22  24
ENDBRANCH  20  21
ENDBRANCH  19  20
ENDBRANCH  17  19
ENDBRANCH   1  17
BRANCH  10  27
HETATM   27  C21 UNL     1      -9.911  47.897 -27.763  1.00  0.00     0.021 C 
BRANCH  27  28
HETATM   28  C22 UNL     1      -8.796  47.993 -26.714  1.00  0.00     0.111 C 
BRANCH  28  29
HETATM   29  C23 UNL     1      -9.146  48.987 -25.642  1.00  0.00     0.139 C 
HETATM   30  O3  UNL     1      -9.041  48.854 -24.434  1.00  0.00    -0.650 OA
BRANCH  29  31
HETATM   31  O4  UNL     1      -9.660  50.121 -26.159  1.00  0.00    -0.776 OA
HETATM   32  H38 UNL     1      -9.857  50.676 -25.376  1.00  0.00     0.167 HD
ENDBRANCH  29  31
ENDBRANCH  28  29
ENDBRANCH  27  28
ENDBRANCH  10  27
BRANCH   9  33
HETATM   33  C17 UNL     1     -12.686  46.242 -28.057  1.00  0.00     0.080 C 
HETATM   34  C18 UNL     1     -13.903  45.609 -28.754  1.00  0.00     0.048 C 
BRANCH  33  35
HETATM   35  O1  UNL     1     -12.423  45.526 -26.844  1.00  0.00    -0.388 OA
HETATM   36  H30 UNL     1     -13.240  45.507 -26.315  1.00  0.00     0.210 HD
ENDBRANCH  33  35
BRANCH  33  37
HETATM   37  C19 UNL     1     -13.040  47.699 -27.653  1.00  0.00     0.201 C 
BRANCH  37  38
HETATM   38  O2  UNL     1     -13.352  47.847 -26.275  1.00  0.00    -0.398 OA
HETATM   39  H33 UNL     1     -12.525  47.789 -25.770  1.00  0.00     0.209 HD
ENDBRANCH  37  38
ENDBRANCH  33  37
ENDBRANCH   9  33
TORSDOF 14
ENDMDL
MODEL 4
REMARK minimizedAffinity -7.57527542
REMARK CNNscore 0.370621651
REMARK CNNaffinity 7.11663771
REMARK  14 active torsions:
REMARK  status: ('A' for Active; 'I' for Inactive)
REMARK    1  A    between atoms: C2_2  and  C30_34 
REMARK    2  A    between atoms: C3_3  and  C4_4 
REMARK    3  A    between atoms: C4_4  and  C5_5 
REMARK    4  A    between atoms: C5_5  and  C6_6 
REMARK    5  A    between atoms: C6_6  and  C8_8 
REMARK    6  A    between atoms: C16_16  and  C17_17 
REMARK    7  A    between atoms: C17_17  and  O1_19 
REMARK    8  A    between atoms: C17_17  and  C19_20 
REMARK    9  A    between atoms: C19_20  and  O2_21 
REMARK   10  A    between atoms: C20_22  and  C21_23 
REMARK   11  A    between atoms: C21_23  and  C22_24 
REMARK   12  A    between atoms: C22_24  and  C23_25 
REMARK   13  A    between atoms: C23_25  and  O4_27 
REMARK   14  A    between atoms: C30_34  and  O5_35 
ROOT
HETATM    1  C8  UNL     1      -3.050  49.192 -20.300  1.00  0.00    -0.002 C 
HETATM    2  C9  UNL     1      -4.118  48.115 -20.521  1.00  0.00     0.006 C 
HETATM    3  C10 UNL     1      -4.413  48.246 -22.003  1.00  0.00     0.011 C 
HETATM    4  C11 UNL     1      -4.551  49.774 -22.239  1.00  0.00    -0.032 C 
HETATM    5  C12 UNL     1      -6.045  50.120 -21.982  1.00  0.00     0.016 C 
HETATM    6  C13 UNL     1      -4.222  50.100 -23.734  1.00  0.00     0.004 C 
HETATM    7  C14 UNL     1      -4.558  51.578 -24.154  1.00  0.00     0.007 C 
HETATM    8  C15 UNL     1      -3.867  52.166 -25.422  1.00  0.00     0.009 C 
HETATM    9  C16 UNL     1      -2.505  51.514 -25.819  1.00  0.00     0.031 C 
HETATM   10  C20 UNL     1      -2.719  50.001 -25.683  1.00  0.00    -0.025 A 
HETATM   11  C24 UNL     1      -2.042  48.869 -24.984  1.00  0.00     0.021 A 
HETATM   12  C25 UNL     1      -2.775  49.824 -24.096  1.00  0.00    -0.027 A 
HETATM   13  C26 UNL     1      -1.759  50.288 -23.047  1.00  0.00     0.011 C 
HETATM   14  C27 UNL     1      -2.338  51.092 -21.892  1.00  0.00     0.011 C 
HETATM   15  C28 UNL     1      -3.543  50.421 -21.175  1.00  0.00    -0.032 C 
HETATM   16  C29 UNL     1      -4.209  51.528 -20.336  1.00  0.00     0.016 C 
ENDROOT
BRANCH   1  17
HETATM   17  C6  UNL     1      -2.632  49.308 -18.802  1.00  0.00    -0.014 C 
HETATM   18  C7  UNL     1      -3.772  49.321 -17.777  1.00  0.00     0.010 C 
BRANCH  17  19
HETATM   19  C5  UNL     1      -1.652  50.462 -18.490  1.00  0.00     0.008 C 
BRANCH  19  20
HETATM   20  C4  UNL     1      -0.487  50.570 -19.481  1.00  0.00     0.028 C 
BRANCH  20  21
HETATM   21  C3  UNL     1       0.002  51.989 -19.583  1.00  0.00    -0.022 C 
HETATM   22  C2  UNL     1       0.786  52.536 -20.535  1.00  0.00    -0.064 C 
HETATM   23  C1  UNL     1       1.376  51.795 -21.705  1.00  0.00     0.045 C 
BRANCH  22  24
HETATM   24  C30 UNL     1       1.174  53.992 -20.465  1.00  0.00     0.197 C 
BRANCH  24  25
HETATM   25  O5  UNL     1       1.858  54.344 -21.658  1.00  0.00    -0.397 OA
HETATM   26  H50 UNL     1       1.271  54.093 -22.392  1.00  0.00     0.209 HD
ENDBRANCH  24  25
ENDBRANCH  22  24
ENDBRANCH  20  21
ENDBRANCH  19  20
ENDBRANCH  17  19
ENDBRANCH   1  17
BRANCH  10  27
HETATM   27  C21 UNL     1      -3.765  49.400 -26.667  1.00  0.00     0.021 C 
BRANCH  27  28
HETATM   28  C22 UNL     1      -4.457  48.142 -26.130  1.00  0.00     0.111 C 
BRANCH  28  29
HETATM   29  C23 UNL     1      -5.772  47.909 -26.821  1.00  0.00     0.139 C 
HETATM   30  O3  UNL     1      -6.800  47.461 -26.343  1.00  0.00    -0.650 OA
BRANCH  29  31
HETATM   31  O4  UNL     1      -5.713  48.229 -28.130  1.00  0.00    -0.776 OA
HETATM   32  H38 UNL     1      -6.609  48.026 -28.468  1.00  0.00     0.167 HD
ENDBRANCH  29  31
ENDBRANCH  28  29
ENDBRANCH  27  28
ENDBRANCH  10  27
BRANCH   9  33
HETATM   33  C17 UNL     1      -1.914  52.016 -27.171  1.00  0.00     0.080 C 
HETATM   34  C18 UNL     1      -0.646  51.216 -27.522  1.00  0.00     0.048 C 
BRANCH  33  35
HETATM   35  O1  UNL     1      -2.865  51.861 -28.230  1.00  0.00    -0.388 OA
HETATM   36  H30 UNL     1      -2.437  52.110 -29.068  1.00  0.00     0.210 HD
ENDBRANCH  33  35
BRANCH  33  37
HETATM   37  C19 UNL     1      -1.553  53.525 -27.104  1.00  0.00     0.201 C 
BRANCH  37  38
HETATM   38  O2  UNL     1      -1.803  54.223 -28.316  1.00  0.00    -0.398 OA
HETATM   39  H33 UNL     1      -2.763  54.340 -28.405  1.00  0.00     0.209 HD
ENDBRANCH  37  38
ENDBRANCH  33  37
ENDBRANCH   9  33
TORSDOF 14
ENDMDL
MODEL 5
REMARK minimizedAffinity -7.52973986
REMARK CNNscore 0.327345461
REMARK CNNaffinity 6.53323317
REMARK  14 active torsions:
REMARK  status: ('A' for Active; 'I' for Inactive)
REMARK    1  A    between atoms: C2_2  and  C30_34 
REMARK    2  A    between atoms: C3_3  and  C4_4 
REMARK    3  A    between atoms: C4_4  and  C5_5 
REMARK    4  A    between atoms: C5_5  and  C6_6 
REMARK    5  A    between atoms: C6_6  and  C8_8 
REMARK    6  A    between atoms: C16_16  and  C17_17 
REMARK    7  A    between atoms: C17_17  and  O1_19 
REMARK    8  A    between atoms: C17_17  and  C19_20 
REMARK    9  A    between atoms: C19_20  and  O2_21 
REMARK   10  A    between atoms: C20_22  and  C21_23 
REMARK   11  A    between atoms: C21_23  and  C22_24 
REMARK   12  A    between atoms: C22_24  and  C23_25 
REMARK   13  A    between atoms: C23_25  and  O4_27 
REMARK   14  A    between atoms: C30_34  and  O5_35 
ROOT
HETATM    1  C8  UNL     1      -1.626  50.734 -22.097  1.00  0.00    -0.002 C 
HETATM    2  C9  UNL     1      -1.624  50.001 -23.442  1.00  0.00     0.006 C 
HETATM    3  C10 UNL     1      -2.854  49.120 -23.337  1.00  0.00     0.011 C 
HETATM    4  C11 UNL     1      -2.762  48.491 -21.920  1.00  0.00    -0.032 C 
HETATM    5  C12 UNL     1      -1.928  47.188 -22.077  1.00  0.00     0.016 C 
HETATM    6  C13 UNL     1      -4.197  48.099 -21.433  1.00  0.00     0.004 C 
HETATM    7  C14 UNL     1      -4.210  47.238 -20.117  1.00  0.00     0.007 C 
HETATM    8  C15 UNL     1      -5.524  47.183 -19.278  1.00  0.00     0.009 C 
HETATM    9  C16 UNL     1      -6.491  48.397 -19.446  1.00  0.00     0.031 C 
HETATM   10  C20 UNL     1      -6.544  48.673 -20.954  1.00  0.00    -0.025 A 
HETATM   11  C24 UNL     1      -6.339  49.851 -21.848  1.00  0.00     0.021 A 
HETATM   12  C25 UNL     1      -5.099  49.301 -21.219  1.00  0.00    -0.027 A 
HETATM   13  C26 UNL     1      -4.426  50.482 -20.511  1.00  0.00     0.011 C 
HETATM   14  C27 UNL     1      -3.021  50.213 -19.991  1.00  0.00     0.011 C 
HETATM   15  C28 UNL     1      -2.041  49.621 -21.043  1.00  0.00    -0.032 C 
HETATM   16  C29 UNL     1      -0.845  49.069 -20.247  1.00  0.00     0.016 C 
ENDROOT
BRANCH   1  17
HETATM   17  C6  UNL     1      -0.384  51.663 -21.930  1.00  0.00    -0.014 C 
HETATM   18  C7  UNL     1      -0.328  52.499 -20.645  1.00  0.00     0.010 C 
BRANCH  17  19
HETATM   19  C5  UNL     1      -0.087  52.572 -23.144  1.00  0.00     0.008 C 
BRANCH  19  20
HETATM   20  C4  UNL     1      -0.488  51.958 -24.491  1.00  0.00     0.028 C 
BRANCH  20  21
HETATM   21  C3  UNL     1       0.723  51.707 -25.348  1.00  0.00    -0.022 C 
HETATM   22  C2  UNL     1       0.989  52.190 -26.579  1.00  0.00    -0.064 C 
HETATM   23  C1  UNL     1       0.075  53.080 -27.379  1.00  0.00     0.045 C 
BRANCH  22  24
HETATM   24  C30 UNL     1       2.269  51.821 -27.287  1.00  0.00     0.197 C 
BRANCH  24  25
HETATM   25  O5  UNL     1       3.094  51.088 -26.394  1.00  0.00    -0.397 OA
HETATM   26  H50 UNL     1       2.554  50.345 -26.073  1.00  0.00     0.209 HD
ENDBRANCH  24  25
ENDBRANCH  22  24
ENDBRANCH  20  21
ENDBRANCH  19  20
ENDBRANCH  17  19
ENDBRANCH   1  17
BRANCH  10  27
HETATM   27  C21 UNL     1      -7.170  47.528 -21.803  1.00  0.00     0.021 C 
BRANCH  27  28
HETATM   28  C22 UNL     1      -7.210  47.835 -23.306  1.00  0.00     0.111 C 
BRANCH  28  29
HETATM   29  C23 UNL     1      -8.589  47.621 -23.865  1.00  0.00     0.139 C 
HETATM   30  O3  UNL     1      -9.258  46.602 -23.839  1.00  0.00    -0.650 OA
BRANCH  29  31
HETATM   31  O4  UNL     1      -9.056  48.725 -24.482  1.00  0.00    -0.776 OA
HETATM   32  H38 UNL     1      -9.940  48.463 -24.810  1.00  0.00     0.167 HD
ENDBRANCH  29  31
ENDBRANCH  28  29
ENDBRANCH  27  28
ENDBRANCH  10  27
BRANCH   9  33
HETATM   33  C17 UNL     1      -7.859  48.245 -18.716  1.00  0.00     0.080 C 
HETATM   34  C18 UNL     1      -8.513  49.625 -18.527  1.00  0.00     0.048 C 
BRANCH  33  35
HETATM   35  O1  UNL     1      -8.747  47.411 -19.469  1.00  0.00    -0.388 OA
HETATM   36  H30 UNL     1      -9.613  47.402 -19.025  1.00  0.00     0.210 HD
ENDBRANCH  33  35
BRANCH  33  37
HETATM   37  C19 UNL     1      -7.685  47.577 -17.324  1.00  0.00     0.201 C 
BRANCH  37  38
HETATM   38  O2  UNL     1      -8.785  47.791 -16.450  1.00  0.00    -0.398 OA
HETATM   39  H33 UNL     1      -9.522  47.234 -16.751  1.00  0.00     0.209 HD
ENDBRANCH  37  38
ENDBRANCH  33  37
ENDBRANCH   9  33
TORSDOF 14
ENDMDL
MODEL 6
REMARK minimizedAffinity -7.3300333
REMARK CNNscore 0.314410388
REMARK CNNaffinity 6.37341261
REMARK  14 active torsions:
REMARK  status: ('A' for Active; 'I' for Inactive)
REMARK    1  A    between atoms: C2_2  and  C30_34 
REMARK    2  A    between atoms: C3_3  and  C4_4 
REMARK    3  A    between atoms: C4_4  and  C5_5 
REMARK    4  A    between atoms: C5_5  and  C6_6 
REMARK    5  A    between atoms: C6_6  and  C8_8 
REMARK    6  A    between atoms: C16_16  and  C17_17 
REMARK    7  A    between atoms: C17_17  and  O1_19 
REMARK    8  A    between atoms: C17_17  and  C19_20 
REMARK    9  A    between atoms: C19_20  and  O2_21 
REMARK   10  A    between atoms: C20_22  and  C21_23 
REMARK   11  A    between atoms: C21_23  and  C22_24 
REMARK   12  A    between atoms: C22_24  and  C23_25 
REMARK   13  A    between atoms: C23_25  and  O4_27 
REMARK   14  A    between atoms: C30_34  and  O5_35 
ROOT
HETATM    1  C8  UNL     1      -1.878  50.976 -22.266  1.00  0.00    -0.002 C 
HETATM    2  C9  UNL     1      -1.790  50.194 -23.581  1.00  0.00     0.006 C 
HETATM    3  C10 UNL     1      -2.970  49.246 -23.477  1.00  0.00     0.011 C 
HETATM    4  C11 UNL     1      -2.887  48.678 -22.034  1.00  0.00    -0.032 C 
HETATM    5  C12 UNL     1      -1.974  47.423 -22.113  1.00  0.00     0.016 C 
HETATM    6  C13 UNL     1      -4.312  48.221 -21.574  1.00  0.00     0.004 C 
HETATM    7  C14 UNL     1      -4.317  47.411 -20.226  1.00  0.00     0.007 C 
HETATM    8  C15 UNL     1      -5.652  47.311 -19.425  1.00  0.00     0.009 C 
HETATM    9  C16 UNL     1      -6.682  48.458 -19.671  1.00  0.00     0.031 C 
HETATM   10  C20 UNL     1      -6.702  48.673 -21.190  1.00  0.00    -0.025 A 
HETATM   11  C24 UNL     1      -6.538  49.825 -22.124  1.00  0.00     0.021 A 
HETATM   12  C25 UNL     1      -5.288  49.374 -21.436  1.00  0.00    -0.027 A 
HETATM   13  C26 UNL     1      -4.708  50.619 -20.757  1.00  0.00     0.011 C 
HETATM   14  C27 UNL     1      -3.308  50.455 -20.184  1.00  0.00     0.011 C 
HETATM   15  C28 UNL     1      -2.262  49.882 -21.182  1.00  0.00    -0.032 C 
HETATM   16  C29 UNL     1      -1.062  49.433 -20.328  1.00  0.00     0.016 C 
ENDROOT
BRANCH   1  17
HETATM   17  C6  UNL     1      -0.698  51.983 -22.100  1.00  0.00    -0.014 C 
HETATM   18  C7  UNL     1       0.264  52.105 -23.288  1.00  0.00     0.010 C 
BRANCH  17  19
HETATM   19  C5  UNL     1       0.118  51.816 -20.798  1.00  0.00     0.008 C 
BRANCH  19  20
HETATM   20  C4  UNL     1      -0.167  52.894 -19.746  1.00  0.00     0.028 C 
BRANCH  20  21
HETATM   21  C3  UNL     1       0.798  52.792 -18.597  1.00  0.00    -0.022 C 
HETATM   22  C2  UNL     1       0.702  52.025 -17.491  1.00  0.00    -0.064 C 
HETATM   23  C1  UNL     1      -0.451  51.114 -17.163  1.00  0.00     0.045 C 
BRANCH  22  24
HETATM   24  C30 UNL     1       1.782  52.060 -16.438  1.00  0.00     0.197 C 
BRANCH  24  25
HETATM   25  O5  UNL     1       1.384  52.942 -15.400  1.00  0.00    -0.397 OA
HETATM   26  H50 UNL     1       0.508  52.637 -15.104  1.00  0.00     0.209 HD
ENDBRANCH  24  25
ENDBRANCH  22  24
ENDBRANCH  20  21
ENDBRANCH  19  20
ENDBRANCH  17  19
ENDBRANCH   1  17
BRANCH  10  27
HETATM   27  C21 UNL     1      -7.233  47.461 -22.011  1.00  0.00     0.021 C 
BRANCH  27  28
HETATM   28  C22 UNL     1      -7.225  47.699 -23.526  1.00  0.00     0.111 C 
BRANCH  28  29
HETATM   29  C23 UNL     1      -8.512  47.241 -24.154  1.00  0.00     0.139 C 
HETATM   30  O3  UNL     1      -9.596  47.798 -24.131  1.00  0.00    -0.650 OA
BRANCH  29  31
HETATM   31  O4  UNL     1      -8.373  46.047 -24.765  1.00  0.00    -0.776 OA
HETATM   32  H38 UNL     1      -9.265  45.852 -25.118  1.00  0.00     0.167 HD
ENDBRANCH  29  31
ENDBRANCH  28  29
ENDBRANCH  27  28
ENDBRANCH  10  27
BRANCH   9  33
HETATM   33  C17 UNL     1      -8.062  48.253 -18.977  1.00  0.00     0.080 C 
HETATM   34  C18 UNL     1      -8.500  49.553 -18.280  1.00  0.00     0.048 C 
BRANCH  33  35
HETATM   35  O1  UNL     1      -9.061  47.881 -19.933  1.00  0.00    -0.388 OA
HETATM   36  H30 UNL     1      -9.921  47.838 -19.478  1.00  0.00     0.210 HD
ENDBRANCH  33  35
BRANCH  33  37
HETATM   37  C19 UNL     1      -8.000  47.114 -17.922  1.00  0.00     0.201 C 
BRANCH  37  38
HETATM   38  O2  UNL     1      -7.952  47.583 -16.582  1.00  0.00    -0.398 OA
HETATM   39  H33 UNL     1      -8.836  47.909 -16.344  1.00  0.00     0.209 HD
ENDBRANCH  37  38
ENDBRANCH  33  37
ENDBRANCH   9  33
TORSDOF 14
ENDMDL
MODEL 7
REMARK minimizedAffinity -6.27970409
REMARK CNNscore 0.30471313
REMARK CNNaffinity 6.52309752
REMARK  14 active torsions:
REMARK  status: ('A' for Active; 'I' for Inactive)
REMARK    1  A    between atoms: C2_2  and  C30_34 
REMARK    2  A    between atoms: C3_3  and  C4_4 
REMARK    3  A    between atoms: C4_4  and  C5_5 
REMARK    4  A    between atoms: C5_5  and  C6_6 
REMARK    5  A    between atoms: C6_6  and  C8_8 
REMARK    6  A    between atoms: C16_16  and  C17_17 
REMARK    7  A    between atoms: C17_17  and  O1_19 
REMARK    8  A    between atoms: C17_17  and  C19_20 
REMARK    9  A    between atoms: C19_20  and  O2_21 
REMARK   10  A    between atoms: C20_22  and  C21_23 
REMARK   11  A    between atoms: C21_23  and  C22_24 
REMARK   12  A    between atoms: C22_24  and  C23_25 
REMARK   13  A    between atoms: C23_25  and  O4_27 
REMARK   14  A    between atoms: C30_34  and  O5_35 
ROOT
HETATM    1  C8  UNL     1      -1.871  50.324 -19.993  1.00  0.00    -0.002 C 
HETATM    2  C9  UNL     1      -2.582  51.083 -21.119  1.00  0.00     0.006 C 
HETATM    3  C10 UNL     1      -3.847  50.270 -21.314  1.00  0.00     0.011 C 
HETATM    4  C11 UNL     1      -3.364  48.795 -21.330  1.00  0.00    -0.032 C 
HETATM    5  C12 UNL     1      -3.010  48.471 -22.809  1.00  0.00     0.016 C 
HETATM    6  C13 UNL     1      -4.538  47.859 -20.890  1.00  0.00     0.004 C 
HETATM    7  C14 UNL     1      -4.245  46.327 -21.095  1.00  0.00     0.007 C 
HETATM    8  C15 UNL     1      -5.091  45.294 -20.289  1.00  0.00     0.009 C 
HETATM    9  C16 UNL     1      -5.712  45.816 -18.955  1.00  0.00     0.031 C 
HETATM   10  C20 UNL     1      -6.285  47.201 -19.282  1.00  0.00    -0.025 A 
HETATM   11  C24 UNL     1      -6.163  48.581 -18.730  1.00  0.00     0.021 A 
HETATM   12  C25 UNL     1      -4.954  48.070 -19.446  1.00  0.00    -0.027 A 
HETATM   13  C26 UNL     1      -3.787  48.224 -18.465  1.00  0.00     0.011 C 
HETATM   14  C27 UNL     1      -2.406  47.982 -19.055  1.00  0.00     0.011 C 
HETATM   15  C28 UNL     1      -2.100  48.793 -20.346  1.00  0.00    -0.032 C 
HETATM   16  C29 UNL     1      -0.864  48.130 -20.982  1.00  0.00     0.016 C 
ENDROOT
BRANCH   1  17
HETATM   17  C6  UNL     1      -0.476  50.936 -19.659  1.00  0.00    -0.014 C 
HETATM   18  C7  UNL     1      -0.175  51.169 -18.173  1.00  0.00     0.010 C 
BRANCH  17  19
HETATM   19  C5  UNL     1      -0.118  52.210 -20.458  1.00  0.00     0.008 C 
BRANCH  19  20
HETATM   20  C4  UNL     1       0.881  51.967 -21.596  1.00  0.00     0.028 C 
BRANCH  20  21
HETATM   21  C3  UNL     1       0.531  52.793 -22.803  1.00  0.00    -0.022 C 
HETATM   22  C2  UNL     1      -0.200  52.432 -23.878  1.00  0.00    -0.064 C 
HETATM   23  C1  UNL     1      -0.800  51.070 -24.103  1.00  0.00     0.045 C 
BRANCH  22  24
HETATM   24  C30 UNL     1      -0.445  53.409 -25.001  1.00  0.00     0.197 C 
BRANCH  24  25
HETATM   25  O5  UNL     1       0.799  53.755 -25.591  1.00  0.00    -0.397 OA
HETATM   26  H50 UNL     1       1.225  52.915 -25.839  1.00  0.00     0.209 HD
ENDBRANCH  24  25
ENDBRANCH  22  24
ENDBRANCH  20  21
ENDBRANCH  19  20
ENDBRANCH  17  19
ENDBRANCH   1  17
BRANCH  10  27
HETATM   27  C21 UNL     1      -7.457  47.194 -20.307  1.00  0.00     0.021 C 
BRANCH  27  28
HETATM   28  C22 UNL     1      -8.421  48.375 -20.138  1.00  0.00     0.111 C 
BRANCH  28  29
HETATM   29  C23 UNL     1      -9.817  47.897 -19.849  1.00  0.00     0.139 C 
HETATM   30  O3  UNL     1     -10.584  48.301 -18.991  1.00  0.00    -0.650 OA
BRANCH  29  31
HETATM   31  O4  UNL     1     -10.175  46.878 -20.656  1.00  0.00    -0.776 OA
HETATM   32  H38 UNL     1     -11.083  46.650 -20.369  1.00  0.00     0.167 HD
ENDBRANCH  29  31
ENDBRANCH  28  29
ENDBRANCH  27  28
ENDBRANCH  10  27
BRANCH   9  33
HETATM   33  C17 UNL     1      -6.673  44.812 -18.249  1.00  0.00     0.080 C 
HETATM   34  C18 UNL     1      -7.380  43.934 -19.297  1.00  0.00     0.048 C 
BRANCH  33  35
HETATM   35  O1  UNL     1      -5.950  43.965 -17.348  1.00  0.00    -0.388 OA
HETATM   36  H30 UNL     1      -6.566  43.303 -16.987  1.00  0.00     0.210 HD
ENDBRANCH  33  35
BRANCH  33  37
HETATM   37  C19 UNL     1      -7.747  45.554 -17.408  1.00  0.00     0.201 C 
BRANCH  37  38
HETATM   38  O2  UNL     1      -9.008  44.899 -17.392  1.00  0.00    -0.398 OA
HETATM   39  H33 UNL     1      -8.935  44.119 -16.818  1.00  0.00     0.209 HD
ENDBRANCH  37  38
ENDBRANCH  33  37
ENDBRANCH   9  33
TORSDOF 14
ENDMDL
MODEL 8
REMARK minimizedAffinity -6.35678291
REMARK CNNscore 0.274615824
REMARK CNNaffinity 6.28911448
REMARK  14 active torsions:
REMARK  status: ('A' for Active; 'I' for Inactive)
REMARK    1  A    between atoms: C2_2  and  C30_34 
REMARK    2  A    between atoms: C3_3  and  C4_4 
REMARK    3  A    between atoms: C4_4  and  C5_5 
REMARK    4  A    between atoms: C5_5  and  C6_6 
REMARK    5  A    between atoms: C6_6  and  C8_8 
REMARK    6  A    between atoms: C16_16  and  C17_17 
REMARK    7  A    between atoms: C17_17  and  O1_19 
REMARK    8  A    between atoms: C17_17  and  C19_20 
REMARK    9  A    between atoms: C19_20  and  O2_21 
REMARK   10  A    between atoms: C20_22  and  C21_23 
REMARK   11  A    between atoms: C21_23  and  C22_24 
REMARK   12  A    between atoms: C22_24  and  C23_25 
REMARK   13  A    between atoms: C23_25  and  O4_27 
REMARK   14  A    between atoms: C30_34  and  O5_35 
ROOT
HETATM    1  C8  UNL     1       0.262  54.630  -9.201  1.00  0.00    -0.002 C 
HETATM    2  C9  UNL     1       0.767  54.798 -10.639  1.00  0.00     0.006 C 
HETATM    3  C10 UNL     1       0.007  53.715 -11.381  1.00  0.00     0.011 C 
HETATM    4  C11 UNL     1       0.137  52.459 -10.477  1.00  0.00    -0.032 C 
HETATM    5  C12 UNL     1       1.447  51.744 -10.913  1.00  0.00     0.016 C 
HETATM    6  C13 UNL     1      -1.065  51.496 -10.753  1.00  0.00     0.004 C 
HETATM    7  C14 UNL     1      -0.919  50.084 -10.075  1.00  0.00     0.007 C 
HETATM    8  C15 UNL     1      -2.203  49.223  -9.867  1.00  0.00     0.009 C 
HETATM    9  C16 UNL     1      -3.547  50.014  -9.784  1.00  0.00     0.031 C 
HETATM   10  C20 UNL     1      -3.482  51.052 -10.911  1.00  0.00    -0.025 A 
HETATM   11  C24 UNL     1      -3.649  52.530 -11.033  1.00  0.00     0.021 A 
HETATM   12  C25 UNL     1      -2.402  52.081 -10.340  1.00  0.00    -0.027 A 
HETATM   13  C26 UNL     1      -2.389  52.801  -8.987  1.00  0.00     0.011 C 
HETATM   14  C27 UNL     1      -1.094  52.678  -8.198  1.00  0.00     0.011 C 
HETATM   15  C28 UNL     1       0.188  53.058  -8.992  1.00  0.00    -0.032 C 
HETATM   16  C29 UNL     1       1.373  52.503  -8.179  1.00  0.00     0.016 C 
ENDROOT
BRANCH   1  17
HETATM   17  C6  UNL     1       0.972  55.603  -8.210  1.00  0.00    -0.014 C 
HETATM   18  C7  UNL     1       0.101  56.712  -7.606  1.00  0.00     0.010 C 
BRANCH  17  19
HETATM   19  C5  UNL     1       2.288  56.218  -8.736  1.00  0.00     0.008 C 
BRANCH  19  20
HETATM   20  C4  UNL     1       3.179  55.222  -9.489  1.00  0.00     0.028 C 
BRANCH  20  21
HETATM   21  C3  UNL     1       4.633  55.469  -9.188  1.00  0.00    -0.022 C 
HETATM   22  C2  UNL     1       5.350  55.045  -8.127  1.00  0.00    -0.064 C 
HETATM   23  C1  UNL     1       4.805  54.242  -6.976  1.00  0.00     0.045 C 
BRANCH  22  24
HETATM   24  C30 UNL     1       6.811  55.397  -7.999  1.00  0.00     0.197 C 
BRANCH  24  25
HETATM   25  O5  UNL     1       7.514  54.857  -9.108  1.00  0.00    -0.397 OA
HETATM   26  H50 UNL     1       7.062  55.189  -9.904  1.00  0.00     0.209 HD
ENDBRANCH  24  25
ENDBRANCH  22  24
ENDBRANCH  20  21
ENDBRANCH  19  20
ENDBRANCH  17  19
ENDBRANCH   1  17
BRANCH  10  27
HETATM   27  C21 UNL     1      -3.447  50.453 -12.347  1.00  0.00     0.021 C 
BRANCH  27  28
HETATM   28  C22 UNL     1      -3.122  51.486 -13.432  1.00  0.00     0.111 C 
BRANCH  28  29
HETATM   29  C23 UNL     1      -3.139  50.860 -14.799  1.00  0.00     0.139 C 
HETATM   30  O3  UNL     1      -3.205  51.422 -15.879  1.00  0.00    -0.650 OA
BRANCH  29  31
HETATM   31  O4  UNL     1      -3.107  49.514 -14.734  1.00  0.00    -0.776 OA
HETATM   32  H38 UNL     1      -3.134  49.226 -15.669  1.00  0.00     0.167 HD
ENDBRANCH  29  31
ENDBRANCH  28  29
ENDBRANCH  27  28
ENDBRANCH  10  27
BRANCH   9  33
HETATM   33  C17 UNL     1      -4.823  49.121  -9.729  1.00  0.00     0.080 C 
HETATM   34  C18 UNL     1      -4.674  47.927 -10.688  1.00  0.00     0.048 C 
BRANCH  33  35
HETATM   35  O1  UNL     1      -5.039  48.625  -8.403  1.00  0.00    -0.388 OA
HETATM   36  H30 UNL     1      -5.795  48.012  -8.423  1.00  0.00     0.210 HD
ENDBRANCH  33  35
BRANCH  33  37
HETATM   37  C19 UNL     1      -6.092  49.926 -10.122  1.00  0.00     0.201 C 
BRANCH  37  38
HETATM   38  O2  UNL     1      -7.137  49.844  -9.162  1.00  0.00    -0.398 OA
HETATM   39  H33 UNL     1      -6.889  50.391  -8.398  1.00  0.00     0.209 HD
ENDBRANCH  37  38
ENDBRANCH  33  37
ENDBRANCH   9  33
TORSDOF 14
ENDMDL
MODEL 9
REMARK minimizedAffinity -6.86162376
REMARK CNNscore 0.250855207
REMARK CNNaffinity 6.02637053
REMARK  14 active torsions:
REMARK  status: ('A' for Active; 'I' for Inactive)
REMARK    1  A    between atoms: C2_2  and  C30_34 
REMARK    2  A    between atoms: C3_3  and  C4_4 
REMARK    3  A    between atoms: C4_4  and  C5_5 
REMARK    4  A    between atoms: C5_5  and  C6_6 
REMARK    5  A    between atoms: C6_6  and  C8_8 
REMARK    6  A    between atoms: C16_16  and  C17_17 
REMARK    7  A    between atoms: C17_17  and  O1_19 
REMARK    8  A    between atoms: C17_17  and  C19_20 
REMARK    9  A    between atoms: C19_20  and  O2_21 
REMARK   10  A    between atoms: C20_22  and  C21_23 
REMARK   11  A    between atoms: C21_23  and  C22_24 
REMARK   12  A    between atoms: C22_24  and  C23_25 
REMARK   13  A    between atoms: C23_25  and  O4_27 
REMARK   14  A    between atoms: C30_34  and  O5_35 
ROOT
HETATM    1  C8  UNL     1      -8.580  46.414 -26.253  1.00  0.00    -0.002 C 
HETATM    2  C9  UNL     1      -9.741  45.436 -26.461  1.00  0.00     0.006 C 
HETATM    3  C10 UNL     1      -9.692  45.181 -27.955  1.00  0.00     0.011 C 
HETATM    4  C11 UNL     1      -9.521  46.590 -28.585  1.00  0.00    -0.032 C 
HETATM    5  C12 UNL     1     -10.957  47.147 -28.797  1.00  0.00     0.016 C 
HETATM    6  C13 UNL     1      -8.836  46.453 -29.985  1.00  0.00     0.004 C 
HETATM    7  C14 UNL     1      -8.826  47.784 -30.823  1.00  0.00     0.007 C 
HETATM    8  C15 UNL     1      -7.795  47.922 -31.985  1.00  0.00     0.009 C 
HETATM    9  C16 UNL     1      -6.508  47.047 -31.862  1.00  0.00     0.031 C 
HETATM   10  C20 UNL     1      -6.994  45.662 -31.417  1.00  0.00    -0.025 A 
HETATM   11  C24 UNL     1      -6.677  44.705 -30.317  1.00  0.00     0.021 A 
HETATM   12  C25 UNL     1      -7.411  45.939 -29.899  1.00  0.00    -0.027 A 
HETATM   13  C26 UNL     1      -6.576  46.567 -28.778  1.00  0.00     0.011 C 
HETATM   14  C27 UNL     1      -7.243  47.714 -28.035  1.00  0.00     0.011 C 
HETATM   15  C28 UNL     1      -8.667  47.398 -27.496  1.00  0.00    -0.032 C 
HETATM   16  C29 UNL     1      -9.301  48.756 -27.145  1.00  0.00     0.016 C 
ENDROOT
BRANCH   1  17
HETATM   17  C6  UNL     1      -8.473  46.896 -24.774  1.00  0.00    -0.014 C 
HETATM   18  C7  UNL     1      -9.789  46.991 -23.992  1.00  0.00     0.010 C 
BRANCH  17  19
HETATM   19  C5  UNL     1      -7.666  48.199 -24.573  1.00  0.00     0.008 C 
BRANCH  19  20
HETATM   20  C4  UNL     1      -6.177  47.966 -24.285  1.00  0.00     0.028 C 
BRANCH  20  21
HETATM   21  C3  UNL     1      -5.349  48.202 -25.519  1.00  0.00    -0.022 C 
HETATM   22  C2  UNL     1      -4.031  48.479 -25.599  1.00  0.00    -0.064 C 
HETATM   23  C1  UNL     1      -3.105  48.647 -24.424  1.00  0.00     0.045 C 
BRANCH  22  24
HETATM   24  C30 UNL     1      -3.371  48.686 -26.940  1.00  0.00     0.197 C 
BRANCH  24  25
HETATM   25  O5  UNL     1      -4.159  49.585 -27.706  1.00  0.00    -0.397 OA
HETATM   26  H50 UNL     1      -4.273  50.381 -27.158  1.00  0.00     0.209 HD
ENDBRANCH  24  25
ENDBRANCH  22  24
ENDBRANCH  20  21
ENDBRANCH  19  20
ENDBRANCH  17  19
ENDBRANCH   1  17
BRANCH  10  27
HETATM   27  C21 UNL     1      -7.895  44.925 -32.451  1.00  0.00     0.021 C 
BRANCH  27  28
HETATM   28  C22 UNL     1      -9.110  45.748 -32.898  1.00  0.00     0.111 C 
BRANCH  28  29
HETATM   29  C23 UNL     1      -9.458  45.463 -34.333  1.00  0.00     0.139 C 
HETATM   30  O3  UNL     1     -10.553  45.533 -34.865  1.00  0.00    -0.650 OA
BRANCH  29  31
HETATM   31  O4  UNL     1      -8.384  45.057 -35.038  1.00  0.00    -0.776 OA
HETATM   32  H38 UNL     1      -8.733  44.893 -35.938  1.00  0.00     0.167 HD
ENDBRANCH  29  31
ENDBRANCH  28  29
ENDBRANCH  27  28
ENDBRANCH  10  27
BRANCH   9  33
HETATM   33  C17 UNL     1      -5.570  47.091 -33.106  1.00  0.00     0.080 C 
HETATM   34  C18 UNL     1      -4.661  45.849 -33.126  1.00  0.00     0.048 C 
BRANCH  33  35
HETATM   35  O1  UNL     1      -6.335  47.124 -34.317  1.00  0.00    -0.388 OA
HETATM   36  H30 UNL     1      -5.720  47.071 -35.070  1.00  0.00     0.210 HD
ENDBRANCH  33  35
BRANCH  33  37
HETATM   37  C19 UNL     1      -4.681  48.364 -33.099  1.00  0.00     0.201 C 
BRANCH  37  38
HETATM   38  O2  UNL     1      -3.305  48.098 -33.332  1.00  0.00    -0.398 OA
HETATM   39  H33 UNL     1      -3.193  47.888 -34.274  1.00  0.00     0.209 HD
ENDBRANCH  37  38
ENDBRANCH  33  37
ENDBRANCH   9  33
TORSDOF 14
ENDMDL
