MODEL 1
REMARK minimizedAffinity -9.18530369
REMARK  4 active torsions:
REMARK  status: ('A' for Active; 'I' for Inactive)
REMARK    1  A    between atoms: C4_4  and  C5_5 
REMARK    2  A    between atoms: C5_5  and  C6_6 
REMARK    3  A    between atoms: C6_6  and  C7_7 
REMARK    4  A    between atoms: C7_7  and  C9_9 
ROOT
HETATM    1  C9  UNL     1      -5.688   6.974  14.978  1.00  0.00    -0.002 C 
HETATM    2  C10 UNL     1      -5.906   8.469  14.589  1.00  0.00     0.007 C 
HETATM    3  C11 UNL     1      -4.601   8.980  13.952  1.00  0.00     0.015 C 
HETATM    4  C12 UNL     1      -3.554   7.898  14.276  1.00  0.00    -0.013 C 
HETATM    5  C13 UNL     1      -3.045   8.203  15.722  1.00  0.00     0.021 C 
HETATM    6  C14 UNL     1      -2.307   7.827  13.398  1.00  0.00    -0.070 C 
HETATM    7  C15 UNL     1      -1.757   8.923  12.848  1.00  0.00    -0.022 C 
HETATM    8  C16 UNL     1      -0.475   8.934  12.076  1.00  0.00     0.034 C 
HETATM    9  C17 UNL     1       0.078   7.536  11.715  1.00  0.00     0.013 C 
HETATM   10  C18 UNL     1       1.524   7.597  11.099  1.00  0.00     0.018 C 
HETATM   11  C19 UNL     1       2.454   8.652  11.730  1.00  0.00     0.023 C 
HETATM   12  C20 UNL     1       1.425   7.924   9.592  1.00  0.00     0.023 C 
HETATM   13  C21 UNL     1       2.185   6.220  11.204  1.00  0.00     0.135 C 
HETATM   14  O1  UNL     1       3.407   6.063  11.195  1.00  0.00    -0.297 OA
HETATM   15  C22 UNL     1       1.261   5.035  11.231  1.00  0.00     0.080 C 
HETATM   16  C23 UNL     1       0.348   5.077  12.446  1.00  0.00     0.017 C 
HETATM   17  C24 UNL     1      -0.123   6.500  12.887  1.00  0.00    -0.031 C 
HETATM   18  C25 UNL     1       0.685   6.904  14.144  1.00  0.00     0.016 C 
HETATM   19  C26 UNL     1      -1.676   6.445  13.207  1.00  0.00     0.024 C 
HETATM   20  C27 UNL     1      -2.078   5.455  14.327  1.00  0.00     0.010 C 
HETATM   21  C28 UNL     1      -3.590   5.395  14.660  1.00  0.00     0.011 C 
HETATM   22  C29 UNL     1      -4.417   6.592  14.142  1.00  0.00    -0.029 C 
HETATM   23  C30 UNL     1      -4.877   6.292  12.679  1.00  0.00     0.016 C 
ENDROOT
BRANCH   1  24
HETATM   24  C7  UNL     1      -6.997   6.142  14.827  1.00  0.00    -0.014 C 
HETATM   25  C8  UNL     1      -7.284   5.324  16.099  1.00  0.00     0.010 C 
BRANCH  24  26
HETATM   26  C6  UNL     1      -7.044   5.218  13.586  1.00  0.00     0.008 C 
BRANCH  26  27
HETATM   27  C5  UNL     1      -7.389   3.754  13.870  1.00  0.00     0.028 C 
BRANCH  27  28
HETATM   28  C4  UNL     1      -7.157   2.712  12.800  1.00  0.00    -0.025 C 
HETATM   29  C2  UNL     1      -6.094   2.400  12.032  1.00  0.00    -0.091 C 
HETATM   30  C1  UNL     1      -6.204   1.295  11.009  1.00  0.00     0.042 C 
HETATM   31  C3  UNL     1      -4.745   3.054  12.088  1.00  0.00     0.042 C 
ENDBRANCH  27  28
ENDBRANCH  26  27
ENDBRANCH  24  26
ENDBRANCH   1  24
TORSDOF 4
ENDMDL
MODEL 2
REMARK minimizedAffinity -9.03779888
REMARK  4 active torsions:
REMARK  status: ('A' for Active; 'I' for Inactive)
REMARK    1  A    between atoms: C4_4  and  C5_5 
REMARK    2  A    between atoms: C5_5  and  C6_6 
REMARK    3  A    between atoms: C6_6  and  C7_7 
REMARK    4  A    between atoms: C7_7  and  C9_9 
ROOT
HETATM    1  C9  UNL     1       0.743   7.095  11.982  1.00  0.00    -0.002 C 
HETATM    2  C10 UNL     1       0.545   5.850  11.063  1.00  0.00     0.007 C 
HETATM    3  C11 UNL     1      -0.847   5.265  11.365  1.00  0.00     0.015 C 
HETATM    4  C12 UNL     1      -1.296   5.963  12.662  1.00  0.00    -0.013 C 
HETATM    5  C13 UNL     1      -0.636   5.167  13.835  1.00  0.00     0.021 C 
HETATM    6  C14 UNL     1      -2.790   6.002  12.971  1.00  0.00    -0.070 C 
HETATM    7  C15 UNL     1      -3.621   5.009  12.610  1.00  0.00    -0.022 C 
HETATM    8  C16 UNL     1      -5.069   4.935  12.982  1.00  0.00     0.034 C 
HETATM    9  C17 UNL     1      -5.644   6.224  13.612  1.00  0.00     0.013 C 
HETATM   10  C18 UNL     1      -7.098   6.024  14.179  1.00  0.00     0.018 C 
HETATM   11  C19 UNL     1      -7.350   4.661  14.853  1.00  0.00     0.023 C 
HETATM   12  C20 UNL     1      -8.120   6.156  13.027  1.00  0.00     0.023 C 
HETATM   13  C21 UNL     1      -7.418   7.142  15.177  1.00  0.00     0.135 C 
HETATM   14  O1  UNL     1      -8.271   7.027  16.057  1.00  0.00    -0.297 OA
HETATM   15  C22 UNL     1      -6.694   8.444  14.976  1.00  0.00     0.080 C 
HETATM   16  C23 UNL     1      -5.191   8.267  15.122  1.00  0.00     0.017 C 
HETATM   17  C24 UNL     1      -4.617   6.913  14.591  1.00  0.00    -0.031 C 
HETATM   18  C25 UNL     1      -4.306   6.013  15.810  1.00  0.00     0.016 C 
HETATM   19  C26 UNL     1      -3.300   7.212  13.758  1.00  0.00     0.024 C 
HETATM   20  C27 UNL     1      -2.172   7.917  14.550  1.00  0.00     0.010 C 
HETATM   21  C28 UNL     1      -0.874   8.208  13.755  1.00  0.00     0.011 C 
HETATM   22  C29 UNL     1      -0.724   7.409  12.442  1.00  0.00    -0.029 C 
HETATM   23  C30 UNL     1      -1.430   8.194  11.290  1.00  0.00     0.016 C 
ENDROOT
BRANCH   1  24
HETATM   24  C7  UNL     1       1.591   8.199  11.283  1.00  0.00    -0.014 C 
HETATM   25  C8  UNL     1       0.987   8.583   9.919  1.00  0.00     0.010 C 
BRANCH  24  26
HETATM   26  C6  UNL     1       3.093   7.860  11.115  1.00  0.00     0.008 C 
BRANCH  26  27
HETATM   27  C5  UNL     1       3.700   8.224   9.758  1.00  0.00     0.028 C 
BRANCH  27  28
HETATM   28  C4  UNL     1       2.976   7.838   8.489  1.00  0.00    -0.025 C 
HETATM   29  C2  UNL     1       2.726   6.654   7.894  1.00  0.00    -0.091 C 
HETATM   30  C1  UNL     1       1.983   6.616   6.581  1.00  0.00     0.042 C 
HETATM   31  C3  UNL     1       3.116   5.305   8.420  1.00  0.00     0.042 C 
ENDBRANCH  27  28
ENDBRANCH  26  27
ENDBRANCH  24  26
ENDBRANCH   1  24
TORSDOF 4
ENDMDL
MODEL 3
REMARK minimizedAffinity -8.85300636
REMARK  4 active torsions:
REMARK  status: ('A' for Active; 'I' for Inactive)
REMARK    1  A    between atoms: C4_4  and  C5_5 
REMARK    2  A    between atoms: C5_5  and  C6_6 
REMARK    3  A    between atoms: C6_6  and  C7_7 
REMARK    4  A    between atoms: C7_7  and  C9_9 
ROOT
HETATM    1  C9  UNL     1      -3.950   7.148  14.678  1.00  0.00    -0.002 C 
HETATM    2  C10 UNL     1      -4.450   8.404  13.900  1.00  0.00     0.007 C 
HETATM    3  C11 UNL     1      -3.373   8.768  12.862  1.00  0.00     0.015 C 
HETATM    4  C12 UNL     1      -2.139   7.939  13.267  1.00  0.00    -0.013 C 
HETATM    5  C13 UNL     1      -1.420   8.750  14.393  1.00  0.00     0.021 C 
HETATM    6  C14 UNL     1      -1.079   7.672  12.202  1.00  0.00    -0.070 C 
HETATM    7  C15 UNL     1      -0.804   8.557  11.228  1.00  0.00    -0.022 C 
HETATM    8  C16 UNL     1       0.297   8.404  10.227  1.00  0.00     0.034 C 
HETATM    9  C17 UNL     1       0.969   7.013  10.208  1.00  0.00     0.013 C 
HETATM   10  C18 UNL     1       2.253   6.972   9.298  1.00  0.00     0.018 C 
HETATM   11  C19 UNL     1       3.122   8.244   9.344  1.00  0.00     0.023 C 
HETATM   12  C20 UNL     1       1.830   6.765   7.826  1.00  0.00     0.023 C 
HETATM   13  C21 UNL     1       3.114   5.764   9.680  1.00  0.00     0.135 C 
HETATM   14  O1  UNL     1       4.322   5.706   9.449  1.00  0.00    -0.297 OA
HETATM   15  C22 UNL     1       2.391   4.591  10.280  1.00  0.00     0.080 C 
HETATM   16  C23 UNL     1       1.722   4.970  11.592  1.00  0.00     0.017 C 
HETATM   17  C24 UNL     1       1.140   6.419  11.659  1.00  0.00    -0.031 C 
HETATM   18  C25 UNL     1       2.100   7.282  12.514  1.00  0.00     0.016 C 
HETATM   19  C26 UNL     1      -0.301   6.359  12.317  1.00  0.00     0.024 C 
HETATM   20  C27 UNL     1      -0.342   5.775  13.751  1.00  0.00     0.010 C 
HETATM   21  C28 UNL     1      -1.742   5.717  14.413  1.00  0.00     0.011 C 
HETATM   22  C29 UNL     1      -2.814   6.604  13.743  1.00  0.00    -0.029 C 
HETATM   23  C30 UNL     1      -3.489   5.796  12.589  1.00  0.00     0.016 C 
ENDROOT
BRANCH   1  24
HETATM   24  C7  UNL     1      -5.130   6.218  15.090  1.00  0.00    -0.014 C 
HETATM   25  C8  UNL     1      -5.805   5.596  13.854  1.00  0.00     0.010 C 
BRANCH  24  26
HETATM   26  C6  UNL     1      -6.199   6.879  15.995  1.00  0.00     0.008 C 
BRANCH  26  27
HETATM   27  C5  UNL     1      -7.506   6.097  16.147  1.00  0.00     0.028 C 
BRANCH  27  28
HETATM   28  C4  UNL     1      -8.824   6.791  15.891  1.00  0.00    -0.025 C 
HETATM   29  C2  UNL     1      -9.588   6.943  14.791  1.00  0.00    -0.091 C 
HETATM   30  C1  UNL     1     -10.866   7.742  14.868  1.00  0.00     0.042 C 
HETATM   31  C3  UNL     1      -9.300   6.373  13.433  1.00  0.00     0.042 C 
ENDBRANCH  27  28
ENDBRANCH  26  27
ENDBRANCH  24  26
ENDBRANCH   1  24
TORSDOF 4
ENDMDL
MODEL 4
REMARK minimizedAffinity -8.66403294
REMARK  4 active torsions:
REMARK  status: ('A' for Active; 'I' for Inactive)
REMARK    1  A    between atoms: C4_4  and  C5_5 
REMARK    2  A    between atoms: C5_5  and  C6_6 
REMARK    3  A    between atoms: C6_6  and  C7_7 
REMARK    4  A    between atoms: C7_7  and  C9_9 
ROOT
HETATM    1  C9  UNL     1       0.796   7.143  11.968  1.00  0.00    -0.002 C 
HETATM    2  C10 UNL     1       0.617   5.897  11.046  1.00  0.00     0.007 C 
HETATM    3  C11 UNL     1      -0.772   5.299  11.335  1.00  0.00     0.015 C 
HETATM    4  C12 UNL     1      -1.238   5.991  12.630  1.00  0.00    -0.013 C 
HETATM    5  C13 UNL     1      -0.581   5.200  13.807  1.00  0.00     0.021 C 
HETATM    6  C14 UNL     1      -2.735   6.016  12.926  1.00  0.00    -0.070 C 
HETATM    7  C15 UNL     1      -3.554   5.016  12.557  1.00  0.00    -0.022 C 
HETATM    8  C16 UNL     1      -5.004   4.928  12.916  1.00  0.00     0.034 C 
HETATM    9  C17 UNL     1      -5.596   6.210  13.542  1.00  0.00     0.013 C 
HETATM   10  C18 UNL     1      -7.054   5.997  14.097  1.00  0.00     0.018 C 
HETATM   11  C19 UNL     1      -7.299   4.631  14.767  1.00  0.00     0.023 C 
HETATM   12  C20 UNL     1      -8.066   6.120  12.936  1.00  0.00     0.023 C 
HETATM   13  C21 UNL     1      -7.392   7.110  15.093  1.00  0.00     0.135 C 
HETATM   14  O1  UNL     1      -8.251   6.987  15.966  1.00  0.00    -0.297 OA
HETATM   15  C22 UNL     1      -6.679   8.419  14.899  1.00  0.00     0.080 C 
HETATM   16  C23 UNL     1      -5.176   8.256  15.058  1.00  0.00     0.017 C 
HETATM   17  C24 UNL     1      -4.584   6.908  14.530  1.00  0.00    -0.031 C 
HETATM   18  C25 UNL     1      -4.275   6.009  15.751  1.00  0.00     0.016 C 
HETATM   19  C26 UNL     1      -3.263   7.220  13.710  1.00  0.00     0.024 C 
HETATM   20  C27 UNL     1      -2.148   7.935  14.512  1.00  0.00     0.010 C 
HETATM   21  C28 UNL     1      -0.846   8.238  13.728  1.00  0.00     0.011 C 
HETATM   22  C29 UNL     1      -0.678   7.443  12.415  1.00  0.00    -0.029 C 
HETATM   23  C30 UNL     1      -1.382   8.222  11.259  1.00  0.00     0.016 C 
ENDROOT
BRANCH   1  24
HETATM   24  C7  UNL     1       1.640   8.255  11.277  1.00  0.00    -0.014 C 
HETATM   25  C8  UNL     1       1.666   8.064   9.749  1.00  0.00     0.010 C 
BRANCH  24  26
HETATM   26  C6  UNL     1       3.085   8.406  11.812  1.00  0.00     0.008 C 
BRANCH  26  27
HETATM   27  C5  UNL     1       4.185   8.379  10.749  1.00  0.00     0.028 C 
BRANCH  27  28
HETATM   28  C4  UNL     1       5.070   7.160  10.623  1.00  0.00    -0.025 C 
HETATM   29  C2  UNL     1       6.025   6.628  11.412  1.00  0.00    -0.091 C 
HETATM   30  C1  UNL     1       6.761   5.387  10.968  1.00  0.00     0.042 C 
HETATM   31  C3  UNL     1       6.452   7.151  12.751  1.00  0.00     0.042 C 
ENDBRANCH  27  28
ENDBRANCH  26  27
ENDBRANCH  24  26
ENDBRANCH   1  24
TORSDOF 4
ENDMDL
MODEL 5
REMARK minimizedAffinity -8.59139061
REMARK  4 active torsions:
REMARK  status: ('A' for Active; 'I' for Inactive)
REMARK    1  A    between atoms: C4_4  and  C5_5 
REMARK    2  A    between atoms: C5_5  and  C6_6 
REMARK    3  A    between atoms: C6_6  and  C7_7 
REMARK    4  A    between atoms: C7_7  and  C9_9 
ROOT
HETATM    1  C9  UNL     1      -1.710   5.824  12.230  1.00  0.00    -0.002 C 
HETATM    2  C10 UNL     1      -0.160   5.937  12.101  1.00  0.00     0.007 C 
HETATM    3  C11 UNL     1       0.298   7.108  12.990  1.00  0.00     0.015 C 
HETATM    4  C12 UNL     1      -0.998   7.855  13.356  1.00  0.00    -0.013 C 
HETATM    5  C13 UNL     1      -1.308   8.804  12.153  1.00  0.00     0.021 C 
HETATM    6  C14 UNL     1      -0.983   8.744  14.597  1.00  0.00    -0.070 C 
HETATM    7  C15 UNL     1       0.118   9.407  14.988  1.00  0.00    -0.022 C 
HETATM    8  C16 UNL     1       0.166  10.379  16.125  1.00  0.00     0.034 C 
HETATM    9  C17 UNL     1      -1.095  10.397  17.017  1.00  0.00     0.013 C 
HETATM   10  C18 UNL     1      -1.085  11.577  18.058  1.00  0.00     0.018 C 
HETATM   11  C19 UNL     1      -0.498  12.901  17.532  1.00  0.00     0.023 C 
HETATM   12  C20 UNL     1      -0.245  11.167  19.289  1.00  0.00     0.023 C 
HETATM   13  C21 UNL     1      -2.509  11.828  18.564  1.00  0.00     0.135 C 
HETATM   14  O1  UNL     1      -2.868  12.905  19.040  1.00  0.00    -0.297 OA
HETATM   15  C22 UNL     1      -3.444  10.652  18.537  1.00  0.00     0.080 C 
HETATM   16  C23 UNL     1      -3.662  10.154  17.117  1.00  0.00     0.017 C 
HETATM   17  C24 UNL     1      -2.419  10.241  16.173  1.00  0.00    -0.031 C 
HETATM   18  C25 UNL     1      -2.625  11.441  15.218  1.00  0.00     0.016 C 
HETATM   19  C26 UNL     1      -2.303   8.885  15.360  1.00  0.00     0.024 C 
HETATM   20  C27 UNL     1      -3.530   8.542  14.481  1.00  0.00     0.010 C 
HETATM   21  C28 UNL     1      -3.430   7.224  13.671  1.00  0.00     0.011 C 
HETATM   22  C29 UNL     1      -2.001   6.658  13.527  1.00  0.00    -0.029 C 
HETATM   23  C30 UNL     1      -1.689   5.752  14.761  1.00  0.00     0.016 C 
ENDROOT
BRANCH   1  24
HETATM   24  C7  UNL     1      -2.191   4.345  12.134  1.00  0.00    -0.014 C 
HETATM   25  C8  UNL     1      -1.275   3.523  11.208  1.00  0.00     0.010 C 
BRANCH  24  26
HETATM   26  C6  UNL     1      -3.668   4.165  11.707  1.00  0.00     0.008 C 
BRANCH  26  27
HETATM   27  C5  UNL     1      -4.645   3.847  12.842  1.00  0.00     0.028 C 
BRANCH  27  28
HETATM   28  C4  UNL     1      -6.013   4.489  12.849  1.00  0.00    -0.025 C 
HETATM   29  C2  UNL     1      -7.266   3.991  12.825  1.00  0.00    -0.091 C 
HETATM   30  C1  UNL     1      -8.448   4.930  12.809  1.00  0.00     0.042 C 
HETATM   31  C3  UNL     1      -7.635   2.537  12.822  1.00  0.00     0.042 C 
ENDBRANCH  27  28
ENDBRANCH  26  27
ENDBRANCH  24  26
ENDBRANCH   1  24
TORSDOF 4
ENDMDL
MODEL 6
REMARK minimizedAffinity -8.58135319
REMARK  4 active torsions:
REMARK  status: ('A' for Active; 'I' for Inactive)
REMARK    1  A    between atoms: C4_4  and  C5_5 
REMARK    2  A    between atoms: C5_5  and  C6_6 
REMARK    3  A    between atoms: C6_6  and  C7_7 
REMARK    4  A    between atoms: C7_7  and  C9_9 
ROOT
HETATM    1  C9  UNL     1      -4.826   5.280  14.175  1.00  0.00    -0.002 C 
HETATM    2  C10 UNL     1      -5.562   4.221  13.298  1.00  0.00     0.007 C 
HETATM    3  C11 UNL     1      -7.045   4.626  13.223  1.00  0.00     0.015 C 
HETATM    4  C12 UNL     1      -7.214   5.706  14.308  1.00  0.00    -0.013 C 
HETATM    5  C13 UNL     1      -7.423   4.941  15.655  1.00  0.00     0.021 C 
HETATM    6  C14 UNL     1      -8.395   6.665  14.183  1.00  0.00    -0.070 C 
HETATM    7  C15 UNL     1      -9.569   6.286  13.651  1.00  0.00    -0.022 C 
HETATM    8  C16 UNL     1     -10.796   7.142  13.604  1.00  0.00     0.034 C 
HETATM    9  C17 UNL     1     -10.570   8.622  13.985  1.00  0.00     0.013 C 
HETATM   10  C18 UNL     1     -11.917   9.423  14.130  1.00  0.00     0.018 C 
HETATM   11  C19 UNL     1     -13.076   8.634  14.769  1.00  0.00     0.023 C 
HETATM   12  C20 UNL     1     -12.395   9.878  12.733  1.00  0.00     0.023 C 
HETATM   13  C21 UNL     1     -11.671  10.698  14.944  1.00  0.00     0.135 C 
HETATM   14  O1  UNL     1     -12.566  11.283  15.554  1.00  0.00    -0.297 OA
HETATM   15  C22 UNL     1     -10.281  11.265  14.893  1.00  0.00     0.080 C 
HETATM   16  C23 UNL     1      -9.266  10.287  15.463  1.00  0.00     0.017 C 
HETATM   17  C24 UNL     1      -9.551   8.776  15.180  1.00  0.00    -0.031 C 
HETATM   18  C25 UNL     1     -10.101   8.140  16.478  1.00  0.00     0.016 C 
HETATM   19  C26 UNL     1      -8.198   8.078  14.737  1.00  0.00     0.024 C 
HETATM   20  C27 UNL     1      -7.055   8.147  15.780  1.00  0.00     0.010 C 
HETATM   21  C28 UNL     1      -5.728   7.461  15.369  1.00  0.00     0.011 C 
HETATM   22  C29 UNL     1      -5.847   6.471  14.189  1.00  0.00    -0.029 C 
HETATM   23  C30 UNL     1      -5.684   7.259  12.850  1.00  0.00     0.016 C 
ENDROOT
BRANCH   1  24
HETATM   24  C7  UNL     1      -3.364   5.515  13.691  1.00  0.00    -0.014 C 
HETATM   25  C8  UNL     1      -2.961   6.994  13.838  1.00  0.00     0.010 C 
BRANCH  24  26
HETATM   26  C6  UNL     1      -3.067   5.030  12.251  1.00  0.00     0.008 C 
BRANCH  26  27
HETATM   27  C5  UNL     1      -1.590   4.776  11.935  1.00  0.00     0.028 C 
BRANCH  27  28
HETATM   28  C4  UNL     1      -1.167   3.438  11.376  1.00  0.00    -0.025 C 
HETATM   29  C2  UNL     1      -1.778   2.239  11.292  1.00  0.00    -0.091 C 
HETATM   30  C1  UNL     1      -1.048   1.064  10.688  1.00  0.00     0.042 C 
HETATM   31  C3  UNL     1      -3.175   1.928  11.745  1.00  0.00     0.042 C 
ENDBRANCH  27  28
ENDBRANCH  26  27
ENDBRANCH  24  26
ENDBRANCH   1  24
TORSDOF 4
ENDMDL
MODEL 7
REMARK minimizedAffinity -8.56927586
REMARK  4 active torsions:
REMARK  status: ('A' for Active; 'I' for Inactive)
REMARK    1  A    between atoms: C4_4  and  C5_5 
REMARK    2  A    between atoms: C5_5  and  C6_6 
REMARK    3  A    between atoms: C6_6  and  C7_7 
REMARK    4  A    between atoms: C7_7  and  C9_9 
ROOT
HETATM    1  C9  UNL     1      -5.669   7.018  15.458  1.00  0.00    -0.002 C 
HETATM    2  C10 UNL     1      -6.057   8.388  14.822  1.00  0.00     0.007 C 
HETATM    3  C11 UNL     1      -4.866   8.861  13.969  1.00  0.00     0.015 C 
HETATM    4  C12 UNL     1      -3.699   7.942  14.377  1.00  0.00    -0.013 C 
HETATM    5  C13 UNL     1      -3.095   8.559  15.679  1.00  0.00     0.021 C 
HETATM    6  C14 UNL     1      -2.534   7.793  13.403  1.00  0.00    -0.070 C 
HETATM    7  C15 UNL     1      -2.138   8.799  12.603  1.00  0.00    -0.022 C 
HETATM    8  C16 UNL     1      -0.936   8.753  11.713  1.00  0.00     0.034 C 
HETATM    9  C17 UNL     1      -0.291   7.357  11.563  1.00  0.00     0.013 C 
HETATM   10  C18 UNL     1       1.083   7.403  10.798  1.00  0.00     0.018 C 
HETATM   11  C19 UNL     1       1.965   8.626  11.121  1.00  0.00     0.023 C 
HETATM   12  C20 UNL     1       0.822   7.423   9.276  1.00  0.00     0.023 C 
HETATM   13  C21 UNL     1       1.876   6.125  11.089  1.00  0.00     0.135 C 
HETATM   14  O1  UNL     1       3.100   6.059  10.982  1.00  0.00    -0.297 OA
HETATM   15  C22 UNL     1       1.070   4.903  11.432  1.00  0.00     0.080 C 
HETATM   16  C23 UNL     1       0.268   5.113  12.707  1.00  0.00     0.017 C 
HETATM   17  C24 UNL     1      -0.291   6.557  12.923  1.00  0.00    -0.031 C 
HETATM   18  C25 UNL     1       0.584   7.256  13.990  1.00  0.00     0.016 C 
HETATM   19  C26 UNL     1      -1.797   6.451  13.407  1.00  0.00     0.024 C 
HETATM   20  C27 UNL     1      -2.006   5.670  14.728  1.00  0.00     0.010 C 
HETATM   21  C28 UNL     1      -3.471   5.566  15.223  1.00  0.00     0.011 C 
HETATM   22  C29 UNL     1      -4.447   6.575  14.579  1.00  0.00    -0.029 C 
HETATM   23  C30 UNL     1      -5.005   5.964  13.255  1.00  0.00     0.016 C 
ENDROOT
BRANCH   1  24
HETATM   24  C7  UNL     1      -6.903   6.079  15.603  1.00  0.00    -0.014 C 
HETATM   25  C8  UNL     1      -7.472   5.692  14.225  1.00  0.00     0.010 C 
BRANCH  24  26
HETATM   26  C6  UNL     1      -8.038   6.625  16.504  1.00  0.00     0.008 C 
BRANCH  26  27
HETATM   27  C5  UNL     1      -9.351   6.946  15.785  1.00  0.00     0.028 C 
BRANCH  27  28
HETATM   28  C4  UNL     1      -9.684   8.381  15.448  1.00  0.00    -0.025 C 
HETATM   29  C2  UNL     1     -10.698   8.958  14.771  1.00  0.00    -0.091 C 
HETATM   30  C1  UNL     1     -10.718  10.455  14.581  1.00  0.00     0.042 C 
HETATM   31  C3  UNL     1     -11.870   8.245  14.165  1.00  0.00     0.042 C 
ENDBRANCH  27  28
ENDBRANCH  26  27
ENDBRANCH  24  26
ENDBRANCH   1  24
TORSDOF 4
ENDMDL
MODEL 8
REMARK minimizedAffinity -8.40604591
REMARK  4 active torsions:
REMARK  status: ('A' for Active; 'I' for Inactive)
REMARK    1  A    between atoms: C4_4  and  C5_5 
REMARK    2  A    between atoms: C5_5  and  C6_6 
REMARK    3  A    between atoms: C6_6  and  C7_7 
REMARK    4  A    between atoms: C7_7  and  C9_9 
ROOT
HETATM    1  C9  UNL     1      -4.310   5.788  14.247  1.00  0.00    -0.002 C 
HETATM    2  C10 UNL     1      -4.926   4.647  13.380  1.00  0.00     0.007 C 
HETATM    3  C11 UNL     1      -6.444   4.893  13.296  1.00  0.00     0.015 C 
HETATM    4  C12 UNL     1      -6.730   5.962  14.367  1.00  0.00    -0.013 C 
HETATM    5  C13 UNL     1      -6.864   5.195  15.722  1.00  0.00     0.021 C 
HETATM    6  C14 UNL     1      -8.005   6.790  14.226  1.00  0.00    -0.070 C 
HETATM    7  C15 UNL     1      -9.130   6.283  13.695  1.00  0.00    -0.022 C 
HETATM    8  C16 UNL     1     -10.440   7.005  13.633  1.00  0.00     0.034 C 
HETATM    9  C17 UNL     1     -10.373   8.505  13.997  1.00  0.00     0.013 C 
HETATM   10  C18 UNL     1     -11.797   9.162  14.128  1.00  0.00     0.018 C 
HETATM   11  C19 UNL     1     -12.869   8.262  14.773  1.00  0.00     0.023 C 
HETATM   12  C20 UNL     1     -12.314   9.547  12.723  1.00  0.00     0.023 C 
HETATM   13  C21 UNL     1     -11.690  10.465  14.926  1.00  0.00     0.135 C 
HETATM   14  O1  UNL     1     -12.645  10.960  15.526  1.00  0.00    -0.297 OA
HETATM   15  C22 UNL     1     -10.367  11.174  14.873  1.00  0.00     0.080 C 
HETATM   16  C23 UNL     1      -9.257  10.315  15.459  1.00  0.00     0.017 C 
HETATM   17  C24 UNL     1      -9.381   8.780  15.193  1.00  0.00    -0.031 C 
HETATM   18  C25 UNL     1      -9.867   8.104  16.497  1.00  0.00     0.016 C 
HETATM   19  C26 UNL     1      -7.960   8.222  14.763  1.00  0.00     0.024 C 
HETATM   20  C27 UNL     1      -6.835   8.424  15.809  1.00  0.00     0.010 C 
HETATM   21  C28 UNL     1      -5.442   7.876  15.410  1.00  0.00     0.011 C 
HETATM   22  C29 UNL     1      -5.450   6.865  14.243  1.00  0.00    -0.029 C 
HETATM   23  C30 UNL     1      -5.365   7.649  12.895  1.00  0.00     0.016 C 
ENDROOT
BRANCH   1  24
HETATM   24  C7  UNL     1      -2.879   6.169  13.765  1.00  0.00    -0.014 C 
HETATM   25  C8  UNL     1      -2.768   7.681  13.496  1.00  0.00     0.010 C 
BRANCH  24  26
HETATM   26  C6  UNL     1      -2.372   5.379  12.534  1.00  0.00     0.008 C 
BRANCH  26  27
HETATM   27  C5  UNL     1      -0.857   5.406  12.314  1.00  0.00     0.028 C 
BRANCH  27  28
HETATM   28  C4  UNL     1      -0.282   6.238  11.191  1.00  0.00    -0.025 C 
HETATM   29  C2  UNL     1       0.906   6.231  10.553  1.00  0.00    -0.091 C 
HETATM   30  C1  UNL     1       1.182   7.243   9.468  1.00  0.00     0.042 C 
HETATM   31  C3  UNL     1       2.036   5.277  10.807  1.00  0.00     0.042 C 
ENDBRANCH  27  28
ENDBRANCH  26  27
ENDBRANCH  24  26
ENDBRANCH   1  24
TORSDOF 4
ENDMDL
MODEL 9
REMARK minimizedAffinity -8.27787685
REMARK  4 active torsions:
REMARK  status: ('A' for Active; 'I' for Inactive)
REMARK    1  A    between atoms: C4_4  and  C5_5 
REMARK    2  A    between atoms: C5_5  and  C6_6 
REMARK    3  A    between atoms: C6_6  and  C7_7 
REMARK    4  A    between atoms: C7_7  and  C9_9 
ROOT
HETATM    1  C9  UNL     1      -2.660   8.644  15.528  1.00  0.00    -0.002 C 
HETATM    2  C10 UNL     1      -1.527   8.872  16.574  1.00  0.00     0.007 C 
HETATM    3  C11 UNL     1      -0.192   8.496  15.905  1.00  0.00     0.015 C 
HETATM    4  C12 UNL     1      -0.592   7.754  14.616  1.00  0.00    -0.013 C 
HETATM    5  C13 UNL     1      -0.873   6.275  15.036  1.00  0.00     0.021 C 
HETATM    6  C14 UNL     1       0.433   7.682  13.487  1.00  0.00    -0.070 C 
HETATM    7  C15 UNL     1       1.754   7.621  13.724  1.00  0.00    -0.022 C 
HETATM    8  C16 UNL     1       2.799   7.435  12.669  1.00  0.00     0.034 C 
HETATM    9  C17 UNL     1       2.287   7.571  11.217  1.00  0.00     0.013 C 
HETATM   10  C18 UNL     1       3.368   7.156  10.152  1.00  0.00     0.018 C 
HETATM   11  C19 UNL     1       4.239   5.948  10.549  1.00  0.00     0.023 C 
HETATM   12  C20 UNL     1       4.325   8.343   9.904  1.00  0.00     0.023 C 
HETATM   13  C21 UNL     1       2.683   6.860   8.814  1.00  0.00     0.135 C 
HETATM   14  O1  UNL     1       3.186   6.141   7.951  1.00  0.00    -0.297 OA
HETATM   15  C22 UNL     1       1.384   7.571   8.557  1.00  0.00     0.080 C 
HETATM   16  C23 UNL     1       0.330   7.180   9.582  1.00  0.00     0.017 C 
HETATM   17  C24 UNL     1       0.859   6.927  11.031  1.00  0.00    -0.031 C 
HETATM   18  C25 UNL     1       0.894   5.398  11.268  1.00  0.00     0.016 C 
HETATM   19  C26 UNL     1      -0.117   7.637  12.059  1.00  0.00     0.024 C 
HETATM   20  C27 UNL     1      -1.586   7.150  12.009  1.00  0.00     0.010 C 
HETATM   21  C28 UNL     1      -2.552   7.826  13.015  1.00  0.00     0.011 C 
HETATM   22  C29 UNL     1      -1.862   8.569  14.179  1.00  0.00    -0.029 C 
HETATM   23  C30 UNL     1      -1.544  10.031  13.728  1.00  0.00     0.016 C 
ENDROOT
BRANCH   1  24
HETATM   24  C7  UNL     1      -3.813   9.679  15.692  1.00  0.00    -0.014 C 
HETATM   25  C8  UNL     1      -3.750  10.368  17.067  1.00  0.00     0.010 C 
BRANCH  24  26
HETATM   26  C6  UNL     1      -5.235   9.117  15.451  1.00  0.00     0.008 C 
BRANCH  26  27
HETATM   27  C5  UNL     1      -5.323   7.596  15.300  1.00  0.00     0.028 C 
BRANCH  27  28
HETATM   28  C4  UNL     1      -6.392   6.995  14.417  1.00  0.00    -0.025 C 
HETATM   29  C2  UNL     1      -6.393   5.976  13.534  1.00  0.00    -0.091 C 
HETATM   30  C1  UNL     1      -7.654   5.643  12.772  1.00  0.00     0.042 C 
HETATM   31  C3  UNL     1      -5.228   5.087  13.213  1.00  0.00     0.042 C 
ENDBRANCH  27  28
ENDBRANCH  26  27
ENDBRANCH  24  26
ENDBRANCH   1  24
TORSDOF 4
ENDMDL
