MODEL 1
REMARK minimizedAffinity -7.02316761
REMARK CNNscore 0.533443332
REMARK CNNaffinity 6.47194672
REMARK  6 active torsions:
REMARK  status: ('A' for Active; 'I' for Inactive)
REMARK    1  A    between atoms: C2_2  and  C30_31 
REMARK    2  A    between atoms: C3_3  and  C4_4 
REMARK    3  A    between atoms: C4_4  and  C5_5 
REMARK    4  A    between atoms: C5_5  and  C6_6 
REMARK    5  A    between atoms: C6_6  and  C8_8 
REMARK    6  A    between atoms: C30_31  and  O3_33 
ROOT
HETATM    1  C8  UNL     1     -10.860  44.294 -35.072  1.00  0.00    -0.002 C 
HETATM    2  C9  UNL     1     -11.330  43.166 -34.099  1.00  0.00     0.007 C 
HETATM    3  C10 UNL     1     -10.370  43.156 -32.895  1.00  0.00     0.015 C 
HETATM    4  C11 UNL     1      -9.165  43.996 -33.354  1.00  0.00    -0.013 C 
HETATM    5  C12 UNL     1      -8.266  43.038 -34.204  1.00  0.00     0.021 C 
HETATM    6  C13 UNL     1      -8.229  44.587 -32.301  1.00  0.00    -0.070 C 
HETATM    7  C14 UNL     1      -8.075  44.014 -31.097  1.00  0.00    -0.022 C 
HETATM    8  C15 UNL     1      -6.955  44.387 -30.191  1.00  0.00     0.034 C 
HETATM    9  C16 UNL     1      -6.715  45.903 -30.140  1.00  0.00     0.013 C 
HETATM   10  C17 UNL     1      -7.741  46.702 -29.240  1.00  0.00     0.018 C 
HETATM   11  C18 UNL     1      -6.977  47.674 -28.304  1.00  0.00     0.023 C 
HETATM   12  C19 UNL     1      -8.600  45.826 -28.299  1.00  0.00     0.023 C 
HETATM   13  C20 UNL     1      -8.675  47.545 -30.104  1.00  0.00     0.135 C 
HETATM   14  O1  UNL     1      -9.900  47.541 -29.952  1.00  0.00    -0.297 OA
HETATM   15  C21 UNL     1      -8.046  48.499 -31.084  1.00  0.00     0.080 C 
HETATM   16  C22 UNL     1      -6.695  48.019 -31.597  1.00  0.00     0.017 C 
HETATM   17  C23 UNL     1      -6.482  46.480 -31.608  1.00  0.00    -0.031 C 
HETATM   18  C24 UNL     1      -4.966  46.284 -31.941  1.00  0.00     0.016 C 
HETATM   19  C25 UNL     1      -7.276  45.690 -32.768  1.00  0.00     0.024 C 
HETATM   20  C26 UNL     1      -7.837  46.599 -33.899  1.00  0.00     0.010 C 
HETATM   21  C27 UNL     1      -8.799  45.937 -34.900  1.00  0.00     0.011 C 
HETATM   22  C28 UNL     1      -9.888  45.125 -34.173  1.00  0.00    -0.029 C 
HETATM   23  C29 UNL     1     -10.720  46.079 -33.261  1.00  0.00     0.016 C 
ENDROOT
BRANCH   1  24
HETATM   24  C6  UNL     1     -12.068  44.993 -35.774  1.00  0.00    -0.014 C 
HETATM   25  C7  UNL     1     -12.578  46.190 -34.964  1.00  0.00     0.010 C 
BRANCH  24  26
HETATM   26  C5  UNL     1     -11.672  45.458 -37.205  1.00  0.00     0.008 C 
BRANCH  26  27
HETATM   27  C4  UNL     1     -11.375  46.961 -37.341  1.00  0.00     0.028 C 
BRANCH  27  28
HETATM   28  C3  UNL     1     -11.142  47.444 -38.746  1.00  0.00    -0.013 C 
HETATM   29  C2  UNL     1     -11.926  48.245 -39.499  1.00  0.00     0.008 C 
HETATM   30  C1  UNL     1     -11.519  48.638 -40.892  1.00  0.00     0.055 C 
BRANCH  29  31
HETATM   31  C30 UNL     1     -13.243  48.736 -39.018  1.00  0.00     0.171 C 
HETATM   32  O2  UNL     1     -13.509  49.836 -38.566  1.00  0.00    -0.646 OA
BRANCH  31  33
HETATM   33  O3  UNL     1     -14.194  47.789 -39.109  1.00  0.00    -0.773 OA
HETATM   34  H46 UNL     1     -14.988  48.238 -38.749  1.00  0.00     0.167 HD
ENDBRANCH  31  33
ENDBRANCH  29  31
ENDBRANCH  27  28
ENDBRANCH  26  27
ENDBRANCH  24  26
ENDBRANCH   1  24
TORSDOF 6
ENDMDL
MODEL 2
REMARK minimizedAffinity -7.30618572
REMARK CNNscore 0.49669534
REMARK CNNaffinity 6.67798376
REMARK  6 active torsions:
REMARK  status: ('A' for Active; 'I' for Inactive)
REMARK    1  A    between atoms: C2_2  and  C30_31 
REMARK    2  A    between atoms: C3_3  and  C4_4 
REMARK    3  A    between atoms: C4_4  and  C5_5 
REMARK    4  A    between atoms: C5_5  and  C6_6 
REMARK    5  A    between atoms: C6_6  and  C8_8 
REMARK    6  A    between atoms: C30_31  and  O3_33 
ROOT
HETATM    1  C8  UNL     1       1.059  54.776 -10.484  1.00  0.00    -0.002 C 
HETATM    2  C9  UNL     1       1.938  53.905 -11.437  1.00  0.00     0.007 C 
HETATM    3  C10 UNL     1       3.390  53.979 -10.932  1.00  0.00     0.015 C 
HETATM    4  C11 UNL     1       3.399  55.164  -9.950  1.00  0.00    -0.013 C 
HETATM    5  C12 UNL     1       3.534  56.453 -10.826  1.00  0.00     0.021 C 
HETATM    6  C13 UNL     1       4.522  55.264  -8.920  1.00  0.00    -0.070 C 
HETATM    7  C14 UNL     1       5.731  54.725  -9.144  1.00  0.00    -0.022 C 
HETATM    8  C15 UNL     1       6.910  55.076  -8.307  1.00  0.00     0.034 C 
HETATM    9  C16 UNL     1       6.577  55.136  -6.809  1.00  0.00     0.013 C 
HETATM   10  C17 UNL     1       6.466  53.725  -6.103  1.00  0.00     0.018 C 
HETATM   11  C18 UNL     1       7.281  53.730  -4.783  1.00  0.00     0.023 C 
HETATM   12  C19 UNL     1       7.029  52.541  -6.923  1.00  0.00     0.023 C 
HETATM   13  C20 UNL     1       5.016  53.416  -5.739  1.00  0.00     0.135 C 
HETATM   14  O1  UNL     1       4.482  52.338  -6.010  1.00  0.00    -0.297 OA
HETATM   15  C21 UNL     1       4.274  54.433  -4.912  1.00  0.00     0.080 C 
HETATM   16  C22 UNL     1       4.754  55.858  -5.148  1.00  0.00     0.017 C 
HETATM   17  C23 UNL     1       5.369  56.142  -6.547  1.00  0.00    -0.031 C 
HETATM   18  C24 UNL     1       5.984  57.576  -6.434  1.00  0.00     0.016 C 
HETATM   19  C25 UNL     1       4.303  56.232  -7.754  1.00  0.00     0.024 C 
HETATM   20  C26 UNL     1       2.823  56.376  -7.298  1.00  0.00     0.010 C 
HETATM   21  C27 UNL     1       1.749  56.229  -8.389  1.00  0.00     0.011 C 
HETATM   22  C28 UNL     1       2.003  54.979  -9.255  1.00  0.00    -0.029 C 
HETATM   23  C29 UNL     1       1.952  53.708  -8.352  1.00  0.00     0.016 C 
ENDROOT
BRANCH   1  24
HETATM   24  C6  UNL     1      -0.364  54.160 -10.286  1.00  0.00    -0.014 C 
HETATM   25  C7  UNL     1      -1.434  55.248 -10.134  1.00  0.00     0.010 C 
BRANCH  24  26
HETATM   26  C5  UNL     1      -0.726  53.231 -11.481  1.00  0.00     0.008 C 
BRANCH  26  27
HETATM   27  C4  UNL     1      -0.880  51.743 -11.123  1.00  0.00     0.028 C 
BRANCH  27  28
HETATM   28  C3  UNL     1      -2.202  51.362 -10.515  1.00  0.00    -0.013 C 
HETATM   29  C2  UNL     1      -3.442  51.570 -11.006  1.00  0.00     0.008 C 
HETATM   30  C1  UNL     1      -4.660  51.103 -10.257  1.00  0.00     0.055 C 
BRANCH  29  31
HETATM   31  C30 UNL     1      -3.674  52.307 -12.276  1.00  0.00     0.171 C 
HETATM   32  O2  UNL     1      -4.149  53.419 -12.416  1.00  0.00    -0.646 OA
BRANCH  31  33
HETATM   33  O3  UNL     1      -3.305  51.583 -13.348  1.00  0.00    -0.773 OA
HETATM   34  H46 UNL     1      -3.525  52.174 -14.099  1.00  0.00     0.167 HD
ENDBRANCH  31  33
ENDBRANCH  29  31
ENDBRANCH  27  28
ENDBRANCH  26  27
ENDBRANCH  24  26
ENDBRANCH   1  24
TORSDOF 6
ENDMDL
MODEL 3
REMARK minimizedAffinity -8.01242161
REMARK CNNscore 0.406915158
REMARK CNNaffinity 6.72685051
REMARK  6 active torsions:
REMARK  status: ('A' for Active; 'I' for Inactive)
REMARK    1  A    between atoms: C2_2  and  C30_31 
REMARK    2  A    between atoms: C3_3  and  C4_4 
REMARK    3  A    between atoms: C4_4  and  C5_5 
REMARK    4  A    between atoms: C5_5  and  C6_6 
REMARK    5  A    between atoms: C6_6  and  C8_8 
REMARK    6  A    between atoms: C30_31  and  O3_33 
ROOT
HETATM    1  C8  UNL     1       0.251  51.109 -18.472  1.00  0.00    -0.002 C 
HETATM    2  C9  UNL     1       0.127  52.646 -18.721  1.00  0.00     0.007 C 
HETATM    3  C10 UNL     1      -0.594  52.846 -20.067  1.00  0.00     0.015 C 
HETATM    4  C11 UNL     1      -0.538  51.465 -20.744  1.00  0.00    -0.013 C 
HETATM    5  C12 UNL     1       0.876  51.363 -21.405  1.00  0.00     0.021 C 
HETATM    6  C13 UNL     1      -1.525  51.150 -21.868  1.00  0.00    -0.070 C 
HETATM    7  C14 UNL     1      -2.049  52.120 -22.634  1.00  0.00    -0.022 C 
HETATM    8  C15 UNL     1      -2.753  51.813 -23.909  1.00  0.00     0.034 C 
HETATM    9  C16 UNL     1      -3.691  50.603 -23.791  1.00  0.00     0.013 C 
HETATM   10  C17 UNL     1      -5.069  50.904 -23.076  1.00  0.00     0.018 C 
HETATM   11  C18 UNL     1      -6.237  50.320 -23.913  1.00  0.00     0.023 C 
HETATM   12  C19 UNL     1      -5.401  52.406 -22.911  1.00  0.00     0.023 C 
HETATM   13  C20 UNL     1      -5.120  50.243 -21.702  1.00  0.00     0.135 C 
HETATM   14  O1  UNL     1      -5.468  50.853 -20.687  1.00  0.00    -0.297 OA
HETATM   15  C21 UNL     1      -4.851  48.763 -21.630  1.00  0.00     0.080 C 
HETATM   16  C22 UNL     1      -3.903  48.278 -22.718  1.00  0.00     0.017 C 
HETATM   17  C23 UNL     1      -2.894  49.330 -23.257  1.00  0.00    -0.031 C 
HETATM   18  C24 UNL     1      -2.227  48.652 -24.499  1.00  0.00     0.016 C 
HETATM   19  C25 UNL     1      -1.675  49.678 -22.259  1.00  0.00     0.024 C 
HETATM   20  C26 UNL     1      -1.493  48.671 -21.087  1.00  0.00     0.010 C 
HETATM   21  C27 UNL     1      -0.507  49.077 -19.979  1.00  0.00     0.011 C 
HETATM   22  C28 UNL     1      -0.761  50.522 -19.509  1.00  0.00    -0.029 C 
HETATM   23  C29 UNL     1      -2.207  50.630 -18.933  1.00  0.00     0.016 C 
ENDROOT
BRANCH   1  24
HETATM   24  C6  UNL     1       0.114  50.756 -16.956  1.00  0.00    -0.014 C 
HETATM   25  C7  UNL     1       0.032  49.241 -16.733  1.00  0.00     0.010 C 
BRANCH  24  26
HETATM   26  C5  UNL     1       1.311  51.340 -16.151  1.00  0.00     0.008 C 
BRANCH  26  27
HETATM   27  C4  UNL     1       1.790  50.470 -14.976  1.00  0.00     0.028 C 
BRANCH  27  28
HETATM   28  C3  UNL     1       2.083  51.216 -13.703  1.00  0.00    -0.013 C 
HETATM   29  C2  UNL     1       3.047  50.970 -12.790  1.00  0.00     0.008 C 
HETATM   30  C1  UNL     1       3.199  51.839 -11.572  1.00  0.00     0.055 C 
BRANCH  29  31
HETATM   31  C30 UNL     1       3.969  49.811 -12.910  1.00  0.00     0.171 C 
HETATM   32  O2  UNL     1       5.006  49.746 -13.546  1.00  0.00    -0.646 OA
BRANCH  31  33
HETATM   33  O3  UNL     1       3.525  48.745 -12.220  1.00  0.00    -0.773 OA
HETATM   34  H46 UNL     1       4.209  48.066 -12.400  1.00  0.00     0.167 HD
ENDBRANCH  31  33
ENDBRANCH  29  31
ENDBRANCH  27  28
ENDBRANCH  26  27
ENDBRANCH  24  26
ENDBRANCH   1  24
TORSDOF 6
ENDMDL
MODEL 4
REMARK minimizedAffinity -7.21174288
REMARK CNNscore 0.403624713
REMARK CNNaffinity 6.6485424
REMARK  6 active torsions:
REMARK  status: ('A' for Active; 'I' for Inactive)
REMARK    1  A    between atoms: C2_2  and  C30_31 
REMARK    2  A    between atoms: C3_3  and  C4_4 
REMARK    3  A    between atoms: C4_4  and  C5_5 
REMARK    4  A    between atoms: C5_5  and  C6_6 
REMARK    5  A    between atoms: C6_6  and  C8_8 
REMARK    6  A    between atoms: C30_31  and  O3_33 
ROOT
HETATM    1  C8  UNL     1       1.099  54.227 -10.577  1.00  0.00    -0.002 C 
HETATM    2  C9  UNL     1       2.074  53.316 -11.389  1.00  0.00     0.007 C 
HETATM    3  C10 UNL     1       3.496  53.556 -10.850  1.00  0.00     0.015 C 
HETATM    4  C11 UNL     1       3.383  54.847 -10.020  1.00  0.00    -0.013 C 
HETATM    5  C12 UNL     1       3.463  56.030 -11.041  1.00  0.00     0.021 C 
HETATM    6  C13 UNL     1       4.454  55.152  -8.974  1.00  0.00    -0.070 C 
HETATM    7  C14 UNL     1       5.706  54.681  -9.093  1.00  0.00    -0.022 C 
HETATM    8  C15 UNL     1       6.823  55.215  -8.268  1.00  0.00     0.034 C 
HETATM    9  C16 UNL     1       6.426  55.427  -6.800  1.00  0.00     0.013 C 
HETATM   10  C17 UNL     1       6.384  54.106  -5.931  1.00  0.00     0.018 C 
HETATM   11  C18 UNL     1       7.144  54.328  -4.597  1.00  0.00     0.023 C 
HETATM   12  C19 UNL     1       7.061  52.878  -6.583  1.00  0.00     0.023 C 
HETATM   13  C20 UNL     1       4.946  53.737  -5.579  1.00  0.00     0.135 C 
HETATM   14  O1  UNL     1       4.499  52.597  -5.733  1.00  0.00    -0.297 OA
HETATM   15  C21 UNL     1       4.103  54.787  -4.905  1.00  0.00     0.080 C 
HETATM   16  C22 UNL     1       4.492  56.205  -5.298  1.00  0.00     0.017 C 
HETATM   17  C23 UNL     1       5.142  56.366  -6.700  1.00  0.00    -0.031 C 
HETATM   18  C24 UNL     1       5.651  57.844  -6.743  1.00  0.00     0.016 C 
HETATM   19  C25 UNL     1       4.122  56.233  -7.942  1.00  0.00     0.024 C 
HETATM   20  C26 UNL     1       2.618  56.321  -7.554  1.00  0.00     0.010 C 
HETATM   21  C27 UNL     1       1.602  55.966  -8.653  1.00  0.00     0.011 C 
HETATM   22  C28 UNL     1       1.976  54.645  -9.352  1.00  0.00    -0.029 C 
HETATM   23  C29 UNL     1       1.977  53.490  -8.303  1.00  0.00     0.016 C 
ENDROOT
BRANCH   1  24
HETATM   24  C6  UNL     1      -0.285  53.537 -10.351  1.00  0.00    -0.014 C 
HETATM   25  C7  UNL     1      -1.305  54.502  -9.735  1.00  0.00     0.010 C 
BRANCH  24  26
HETATM   26  C5  UNL     1      -0.838  52.975 -11.692  1.00  0.00     0.008 C 
BRANCH  26  27
HETATM   27  C4  UNL     1       0.219  52.744 -12.786  1.00  0.00     0.028 C 
BRANCH  27  28
HETATM   28  C3  UNL     1      -0.183  51.790 -13.877  1.00  0.00    -0.013 C 
HETATM   29  C2  UNL     1       0.457  51.523 -15.035  1.00  0.00     0.008 C 
HETATM   30  C1  UNL     1      -0.094  50.519 -16.009  1.00  0.00     0.055 C 
BRANCH  29  31
HETATM   31  C30 UNL     1       1.700  52.234 -15.431  1.00  0.00     0.171 C 
HETATM   32  O2  UNL     1       2.849  51.929 -15.168  1.00  0.00    -0.646 OA
BRANCH  31  33
HETATM   33  O3  UNL     1       1.436  53.344 -16.145  1.00  0.00    -0.773 OA
HETATM   34  H46 UNL     1       2.328  53.711 -16.319  1.00  0.00     0.167 HD
ENDBRANCH  31  33
ENDBRANCH  29  31
ENDBRANCH  27  28
ENDBRANCH  26  27
ENDBRANCH  24  26
ENDBRANCH   1  24
TORSDOF 6
ENDMDL
MODEL 5
REMARK minimizedAffinity -7.75094271
REMARK CNNscore 0.362915367
REMARK CNNaffinity 5.84009981
REMARK  6 active torsions:
REMARK  status: ('A' for Active; 'I' for Inactive)
REMARK    1  A    between atoms: C2_2  and  C30_31 
REMARK    2  A    between atoms: C3_3  and  C4_4 
REMARK    3  A    between atoms: C4_4  and  C5_5 
REMARK    4  A    between atoms: C5_5  and  C6_6 
REMARK    5  A    between atoms: C6_6  and  C8_8 
REMARK    6  A    between atoms: C30_31  and  O3_33 
ROOT
HETATM    1  C8  UNL     1       6.828  67.025 -35.194  1.00  0.00    -0.002 C 
HETATM    2  C9  UNL     1       6.601  68.318 -34.348  1.00  0.00     0.007 C 
HETATM    3  C10 UNL     1       5.643  69.231 -35.135  1.00  0.00     0.015 C 
HETATM    4  C11 UNL     1       5.629  68.642 -36.558  1.00  0.00    -0.013 C 
HETATM    5  C12 UNL     1       6.905  69.201 -37.271  1.00  0.00     0.021 C 
HETATM    6  C13 UNL     1       4.470  68.987 -37.491  1.00  0.00    -0.070 C 
HETATM    7  C14 UNL     1       3.779  70.130 -37.361  1.00  0.00    -0.022 C 
HETATM    8  C15 UNL     1       2.870  70.620 -38.432  1.00  0.00     0.034 C 
HETATM    9  C16 UNL     1       2.016  69.499 -39.043  1.00  0.00     0.013 C 
HETATM   10  C17 UNL     1       0.778  69.060 -38.161  1.00  0.00     0.018 C 
HETATM   11  C18 UNL     1      -0.498  68.990 -39.040  1.00  0.00     0.023 C 
HETATM   12  C19 UNL     1       0.424  70.029 -37.009  1.00  0.00     0.023 C 
HETATM   13  C20 UNL     1       1.001  67.669 -37.573  1.00  0.00     0.135 C 
HETATM   14  O1  UNL     1       0.818  67.419 -36.379  1.00  0.00    -0.297 OA
HETATM   15  C21 UNL     1       1.336  66.554 -38.529  1.00  0.00     0.080 C 
HETATM   16  C22 UNL     1       2.090  67.034 -39.761  1.00  0.00     0.017 C 
HETATM   17  C23 UNL     1       2.945  68.319 -39.575  1.00  0.00    -0.031 C 
HETATM   18  C24 UNL     1       3.402  68.712 -41.018  1.00  0.00     0.016 C 
HETATM   19  C25 UNL     1       4.308  68.115 -38.739  1.00  0.00     0.024 C 
HETATM   20  C26 UNL     1       4.737  66.631 -38.556  1.00  0.00     0.010 C 
HETATM   21  C27 UNL     1       5.890  66.364 -37.573  1.00  0.00     0.011 C 
HETATM   22  C28 UNL     1       5.669  67.105 -36.240  1.00  0.00    -0.029 C 
HETATM   23  C29 UNL     1       4.348  66.600 -35.583  1.00  0.00     0.016 C 
ENDROOT
BRANCH   1  24
HETATM   24  C6  UNL     1       6.980  65.761 -34.288  1.00  0.00    -0.014 C 
HETATM   25  C7  UNL     1       6.016  65.799 -33.097  1.00  0.00     0.010 C 
BRANCH  24  26
HETATM   26  C5  UNL     1       6.741  64.465 -35.116  1.00  0.00     0.008 C 
BRANCH  26  27
HETATM   27  C4  UNL     1       7.573  63.249 -34.674  1.00  0.00     0.028 C 
BRANCH  27  28
HETATM   28  C3  UNL     1       9.017  63.273 -35.093  1.00  0.00    -0.013 C 
HETATM   29  C2  UNL     1      10.117  63.283 -34.311  1.00  0.00     0.008 C 
HETATM   30  C1  UNL     1      11.495  63.294 -34.913  1.00  0.00     0.055 C 
BRANCH  29  31
HETATM   31  C30 UNL     1      10.030  63.334 -32.828  1.00  0.00     0.171 C 
HETATM   32  O2  UNL     1      10.101  64.315 -32.111  1.00  0.00    -0.646 OA
BRANCH  31  33
HETATM   33  O3  UNL     1       9.871  62.109 -32.294  1.00  0.00    -0.773 OA
HETATM   34  H46 UNL     1       9.846  62.290 -31.331  1.00  0.00     0.167 HD
ENDBRANCH  31  33
ENDBRANCH  29  31
ENDBRANCH  27  28
ENDBRANCH  26  27
ENDBRANCH  24  26
ENDBRANCH   1  24
TORSDOF 6
ENDMDL
MODEL 6
REMARK minimizedAffinity -8.09404182
REMARK CNNscore 0.350395977
REMARK CNNaffinity 6.36005163
REMARK  6 active torsions:
REMARK  status: ('A' for Active; 'I' for Inactive)
REMARK    1  A    between atoms: C2_2  and  C30_31 
REMARK    2  A    between atoms: C3_3  and  C4_4 
REMARK    3  A    between atoms: C4_4  and  C5_5 
REMARK    4  A    between atoms: C5_5  and  C6_6 
REMARK    5  A    between atoms: C6_6  and  C8_8 
REMARK    6  A    between atoms: C30_31  and  O3_33 
ROOT
HETATM    1  C8  UNL     1      -7.679  47.042 -19.631  1.00  0.00    -0.002 C 
HETATM    2  C9  UNL     1      -6.637  46.402 -18.659  1.00  0.00     0.007 C 
HETATM    3  C10 UNL     1      -5.246  46.547 -19.302  1.00  0.00     0.015 C 
HETATM    4  C11 UNL     1      -5.534  46.915 -20.769  1.00  0.00    -0.013 C 
HETATM    5  C12 UNL     1      -5.840  45.567 -21.502  1.00  0.00     0.021 C 
HETATM    6  C13 UNL     1      -4.433  47.576 -21.597  1.00  0.00    -0.070 C 
HETATM    7  C14 UNL     1      -3.134  47.380 -21.323  1.00  0.00    -0.022 C 
HETATM    8  C15 UNL     1      -2.067  47.753 -22.290  1.00  0.00     0.034 C 
HETATM    9  C16 UNL     1      -2.315  49.118 -22.949  1.00  0.00     0.013 C 
HETATM   10  C17 UNL     1      -1.960  50.363 -22.040  1.00  0.00     0.018 C 
HETATM   11  C18 UNL     1      -1.108  51.378 -22.845  1.00  0.00     0.023 C 
HETATM   12  C19 UNL     1      -1.118  50.032 -20.786  1.00  0.00     0.023 C 
HETATM   13  C20 UNL     1      -3.228  51.086 -21.595  1.00  0.00     0.135 C 
HETATM   14  O1  UNL     1      -3.431  51.402 -20.420  1.00  0.00    -0.297 OA
HETATM   15  C21 UNL     1      -4.190  51.527 -22.667  1.00  0.00     0.080 C 
HETATM   16  C22 UNL     1      -4.171  50.624 -23.892  1.00  0.00     0.017 C 
HETATM   17  C23 UNL     1      -3.751  49.149 -23.641  1.00  0.00    -0.031 C 
HETATM   18  C24 UNL     1      -3.586  48.527 -25.066  1.00  0.00     0.016 C 
HETATM   19  C25 UNL     1      -4.863  48.240 -22.908  1.00  0.00     0.024 C 
HETATM   20  C26 UNL     1      -6.290  48.859 -22.886  1.00  0.00     0.010 C 
HETATM   21  C27 UNL     1      -7.332  48.154 -22.001  1.00  0.00     0.011 C 
HETATM   22  C28 UNL     1      -6.769  47.869 -20.596  1.00  0.00    -0.029 C 
HETATM   23  C29 UNL     1      -6.386  49.217 -19.911  1.00  0.00     0.016 C 
ENDROOT
BRANCH   1  24
HETATM   24  C6  UNL     1      -8.840  47.743 -18.855  1.00  0.00    -0.014 C 
HETATM   25  C7  UNL     1      -8.366  49.031 -18.171  1.00  0.00     0.010 C 
BRANCH  24  26
HETATM   26  C5  UNL     1     -10.022  48.062 -19.814  1.00  0.00     0.008 C 
BRANCH  26  27
HETATM   27  C4  UNL     1     -11.423  47.878 -19.204  1.00  0.00     0.028 C 
BRANCH  27  28
HETATM   28  C3  UNL     1     -12.495  47.462 -20.173  1.00  0.00    -0.013 C 
HETATM   29  C2  UNL     1     -13.704  48.027 -20.378  1.00  0.00     0.008 C 
HETATM   30  C1  UNL     1     -14.650  47.477 -21.410  1.00  0.00     0.055 C 
BRANCH  29  31
HETATM   31  C30 UNL     1     -14.183  49.180 -19.572  1.00  0.00     0.171 C 
HETATM   32  O2  UNL     1     -14.906  49.155 -18.592  1.00  0.00    -0.646 OA
BRANCH  31  33
HETATM   33  O3  UNL     1     -13.735  50.351 -20.059  1.00  0.00    -0.773 OA
HETATM   34  H46 UNL     1     -14.134  51.009 -19.452  1.00  0.00     0.167 HD
ENDBRANCH  31  33
ENDBRANCH  29  31
ENDBRANCH  27  28
ENDBRANCH  26  27
ENDBRANCH  24  26
ENDBRANCH   1  24
TORSDOF 6
ENDMDL
MODEL 7
REMARK minimizedAffinity -6.87904119
REMARK CNNscore 0.342085481
REMARK CNNaffinity 6.02558756
REMARK  6 active torsions:
REMARK  status: ('A' for Active; 'I' for Inactive)
REMARK    1  A    between atoms: C2_2  and  C30_31 
REMARK    2  A    between atoms: C3_3  and  C4_4 
REMARK    3  A    between atoms: C4_4  and  C5_5 
REMARK    4  A    between atoms: C5_5  and  C6_6 
REMARK    5  A    between atoms: C6_6  and  C8_8 
REMARK    6  A    between atoms: C30_31  and  O3_33 
ROOT
HETATM    1  C8  UNL     1       5.074  56.121  -8.271  1.00  0.00    -0.002 C 
HETATM    2  C9  UNL     1       3.937  57.190  -8.210  1.00  0.00     0.007 C 
HETATM    3  C10 UNL     1       2.734  56.639  -8.998  1.00  0.00     0.015 C 
HETATM    4  C11 UNL     1       3.307  55.460  -9.805  1.00  0.00    -0.013 C 
HETATM    5  C12 UNL     1       3.977  56.087 -11.073  1.00  0.00     0.021 C 
HETATM    6  C13 UNL     1       2.351  54.398 -10.344  1.00  0.00    -0.070 C 
HETATM    7  C14 UNL     1       1.068  54.681 -10.618  1.00  0.00    -0.022 C 
HETATM    8  C15 UNL     1       0.220  53.762 -11.424  1.00  0.00     0.034 C 
HETATM    9  C16 UNL     1       0.413  52.288 -11.040  1.00  0.00     0.013 C 
HETATM   10  C17 UNL     1      -0.330  51.849  -9.715  1.00  0.00     0.018 C 
HETATM   11  C18 UNL     1      -1.106  50.528  -9.957  1.00  0.00     0.023 C 
HETATM   12  C19 UNL     1      -1.389  52.852  -9.201  1.00  0.00     0.023 C 
HETATM   13  C20 UNL     1       0.673  51.588  -8.595  1.00  0.00     0.135 C 
HETATM   14  O1  UNL     1       0.540  52.063  -7.464  1.00  0.00    -0.297 OA
HETATM   15  C21 UNL     1       1.787  50.613  -8.871  1.00  0.00     0.080 C 
HETATM   16  C22 UNL     1       2.196  50.576 -10.336  1.00  0.00     0.017 C 
HETATM   17  C23 UNL     1       1.952  51.883 -11.141  1.00  0.00    -0.031 C 
HETATM   18  C24 UNL     1       2.227  51.498 -12.632  1.00  0.00     0.016 C 
HETATM   19  C25 UNL     1       2.978  53.084 -10.817  1.00  0.00     0.024 C 
HETATM   20  C26 UNL     1       4.250  52.651 -10.033  1.00  0.00     0.010 C 
HETATM   21  C27 UNL     1       5.144  53.781  -9.493  1.00  0.00     0.011 C 
HETATM   22  C28 UNL     1       4.309  54.849  -8.761  1.00  0.00    -0.029 C 
HETATM   23  C29 UNL     1       3.577  54.191  -7.551  1.00  0.00     0.016 C 
ENDROOT
BRANCH   1  24
HETATM   24  C6  UNL     1       5.898  56.077  -6.943  1.00  0.00    -0.014 C 
HETATM   25  C7  UNL     1       7.332  55.590  -7.184  1.00  0.00     0.010 C 
BRANCH  24  26
HETATM   26  C5  UNL     1       5.926  57.481  -6.273  1.00  0.00     0.008 C 
BRANCH  26  27
HETATM   27  C4  UNL     1       6.826  57.590  -5.031  1.00  0.00     0.028 C 
BRANCH  27  28
HETATM   28  C3  UNL     1       7.850  58.690  -5.075  1.00  0.00    -0.013 C 
HETATM   29  C2  UNL     1       9.192  58.593  -4.964  1.00  0.00     0.008 C 
HETATM   30  C1  UNL     1      10.067  59.813  -5.046  1.00  0.00     0.055 C 
BRANCH  29  31
HETATM   31  C30 UNL     1       9.869  57.295  -4.708  1.00  0.00     0.171 C 
HETATM   32  O2  UNL     1      10.343  56.527  -5.527  1.00  0.00    -0.646 OA
BRANCH  31  33
HETATM   33  O3  UNL     1       9.906  56.999  -3.396  1.00  0.00    -0.773 OA
HETATM   34  H46 UNL     1      10.355  56.129  -3.379  1.00  0.00     0.167 HD
ENDBRANCH  31  33
ENDBRANCH  29  31
ENDBRANCH  27  28
ENDBRANCH  26  27
ENDBRANCH  24  26
ENDBRANCH   1  24
TORSDOF 6
ENDMDL
MODEL 8
REMARK minimizedAffinity -6.63310194
REMARK CNNscore 0.3212578
REMARK CNNaffinity 6.12108612
REMARK  6 active torsions:
REMARK  status: ('A' for Active; 'I' for Inactive)
REMARK    1  A    between atoms: C2_2  and  C30_31 
REMARK    2  A    between atoms: C3_3  and  C4_4 
REMARK    3  A    between atoms: C4_4  and  C5_5 
REMARK    4  A    between atoms: C5_5  and  C6_6 
REMARK    5  A    between atoms: C6_6  and  C8_8 
REMARK    6  A    between atoms: C30_31  and  O3_33 
ROOT
HETATM    1  C8  UNL     1       0.867  57.035  -5.308  1.00  0.00    -0.002 C 
HETATM    2  C9  UNL     1       0.082  55.698  -5.115  1.00  0.00     0.007 C 
HETATM    3  C10 UNL     1       0.588  54.701  -6.174  1.00  0.00     0.015 C 
HETATM    4  C11 UNL     1       1.361  55.569  -7.184  1.00  0.00    -0.013 C 
HETATM    5  C12 UNL     1       0.286  56.188  -8.137  1.00  0.00     0.021 C 
HETATM    6  C13 UNL     1       2.376  54.901  -8.110  1.00  0.00    -0.070 C 
HETATM    7  C14 UNL     1       2.260  53.611  -8.466  1.00  0.00    -0.022 C 
HETATM    8  C15 UNL     1       3.043  53.039  -9.594  1.00  0.00     0.034 C 
HETATM    9  C16 UNL     1       4.506  53.506  -9.597  1.00  0.00     0.013 C 
HETATM   10  C17 UNL     1       5.434  52.771  -8.548  1.00  0.00     0.018 C 
HETATM   11  C18 UNL     1       6.745  52.310  -9.236  1.00  0.00     0.023 C 
HETATM   12  C19 UNL     1       4.828  51.489  -7.930  1.00  0.00     0.023 C 
HETATM   13  C20 UNL     1       5.824  53.717  -7.416  1.00  0.00     0.135 C 
HETATM   14  O1  UNL     1       5.727  53.400  -6.227  1.00  0.00    -0.297 OA
HETATM   15  C21 UNL     1       6.462  55.028  -7.792  1.00  0.00     0.080 C 
HETATM   16  C22 UNL     1       6.000  55.547  -9.146  1.00  0.00     0.017 C 
HETATM   17  C23 UNL     1       4.582  55.098  -9.597  1.00  0.00    -0.031 C 
HETATM   18  C24 UNL     1       4.465  55.562 -11.086  1.00  0.00     0.016 C 
HETATM   19  C25 UNL     1       3.362  55.823  -8.830  1.00  0.00     0.024 C 
HETATM   20  C26 UNL     1       3.769  57.093  -8.028  1.00  0.00     0.010 C 
HETATM   21  C27 UNL     1       2.702  57.686  -7.092  1.00  0.00     0.011 C 
HETATM   22  C28 UNL     1       2.058  56.593  -6.218  1.00  0.00    -0.029 C 
HETATM   23  C29 UNL     1       3.157  55.924  -5.337  1.00  0.00     0.016 C 
ENDROOT
BRANCH   1  24
HETATM   24  C6  UNL     1       1.144  57.745  -3.944  1.00  0.00    -0.014 C 
HETATM   25  C7  UNL     1       2.423  58.589  -3.995  1.00  0.00     0.010 C 
BRANCH  24  26
HETATM   26  C5  UNL     1      -0.062  58.643  -3.542  1.00  0.00     0.008 C 
BRANCH  26  27
HETATM   27  C4  UNL     1      -1.088  57.975  -2.612  1.00  0.00     0.028 C 
BRANCH  27  28
HETATM   28  C3  UNL     1      -0.948  58.313  -1.153  1.00  0.00    -0.013 C 
HETATM   29  C2  UNL     1      -1.338  59.434  -0.510  1.00  0.00     0.008 C 
HETATM   30  C1  UNL     1      -1.125  59.592   0.970  1.00  0.00     0.055 C 
BRANCH  29  31
HETATM   31  C30 UNL     1      -1.948  60.583  -1.229  1.00  0.00     0.171 C 
HETATM   32  O2  UNL     1      -1.405  61.353  -2.001  1.00  0.00    -0.646 OA
BRANCH  31  33
HETATM   33  O3  UNL     1      -3.250  60.730  -0.923  1.00  0.00    -0.773 OA
HETATM   34  H46 UNL     1      -3.511  61.518  -1.445  1.00  0.00     0.167 HD
ENDBRANCH  31  33
ENDBRANCH  29  31
ENDBRANCH  27  28
ENDBRANCH  26  27
ENDBRANCH  24  26
ENDBRANCH   1  24
TORSDOF 6
ENDMDL
MODEL 9
REMARK minimizedAffinity -7.30026579
REMARK CNNscore 0.320076913
REMARK CNNaffinity 5.67279053
REMARK  6 active torsions:
REMARK  status: ('A' for Active; 'I' for Inactive)
REMARK    1  A    between atoms: C2_2  and  C30_31 
REMARK    2  A    between atoms: C3_3  and  C4_4 
REMARK    3  A    between atoms: C4_4  and  C5_5 
REMARK    4  A    between atoms: C5_5  and  C6_6 
REMARK    5  A    between atoms: C6_6  and  C8_8 
REMARK    6  A    between atoms: C30_31  and  O3_33 
ROOT
HETATM    1  C8  UNL     1     -13.123  44.975 -27.079  1.00  0.00    -0.002 C 
HETATM    2  C9  UNL     1     -12.281  44.762 -25.781  1.00  0.00     0.007 C 
HETATM    3  C10 UNL     1     -10.798  44.701 -26.190  1.00  0.00     0.015 C 
HETATM    4  C11 UNL     1     -10.825  44.500 -27.716  1.00  0.00    -0.013 C 
HETATM    5  C12 UNL     1     -11.055  42.969 -27.948  1.00  0.00     0.021 C 
HETATM    6  C13 UNL     1      -9.580  44.843 -28.531  1.00  0.00    -0.070 C 
HETATM    7  C14 UNL     1      -8.351  44.795 -27.991  1.00  0.00    -0.022 C 
HETATM    8  C15 UNL     1      -7.126  44.819 -28.834  1.00  0.00     0.034 C 
HETATM    9  C16 UNL     1      -7.212  45.842 -29.976  1.00  0.00     0.013 C 
HETATM   10  C17 UNL     1      -6.967  47.342 -29.537  1.00  0.00     0.018 C 
HETATM   11  C18 UNL     1      -5.957  48.016 -30.501  1.00  0.00     0.023 C 
HETATM   12  C19 UNL     1      -6.357  47.515 -28.126  1.00  0.00     0.023 C 
HETATM   13  C20 UNL     1      -8.264  48.143 -29.605  1.00  0.00     0.135 C 
HETATM   14  O1  UNL     1      -8.648  48.860 -28.677  1.00  0.00    -0.297 OA
HETATM   15  C21 UNL     1      -9.019  48.137 -30.908  1.00  0.00     0.080 C 
HETATM   16  C22 UNL     1      -8.829  46.850 -31.699  1.00  0.00     0.017 C 
HETATM   17  C23 UNL     1      -8.511  45.580 -30.862  1.00  0.00    -0.031 C 
HETATM   18  C24 UNL     1      -8.135  44.486 -31.914  1.00  0.00     0.016 C 
HETATM   19  C25 UNL     1      -9.761  44.971 -30.046  1.00  0.00     0.024 C 
HETATM   20  C26 UNL     1     -11.149  45.517 -30.490  1.00  0.00     0.010 C 
HETATM   21  C27 UNL     1     -12.348  45.155 -29.598  1.00  0.00     0.011 C 
HETATM   22  C28 UNL     1     -12.036  45.418 -28.112  1.00  0.00    -0.029 C 
HETATM   23  C29 UNL     1     -11.724  46.933 -27.911  1.00  0.00     0.016 C 
ENDROOT
BRANCH   1  24
HETATM   24  C6  UNL     1     -14.371  45.879 -26.817  1.00  0.00    -0.014 C 
HETATM   25  C7  UNL     1     -15.616  45.348 -27.537  1.00  0.00     0.010 C 
BRANCH  24  26
HETATM   26  C5  UNL     1     -14.654  45.988 -25.291  1.00  0.00     0.008 C 
BRANCH  26  27
HETATM   27  C4  UNL     1     -15.851  46.877 -24.914  1.00  0.00     0.028 C 
BRANCH  27  28
HETATM   28  C3  UNL     1     -16.541  46.514 -23.628  1.00  0.00    -0.013 C 
HETATM   29  C2  UNL     1     -17.854  46.285 -23.416  1.00  0.00     0.008 C 
HETATM   30  C1  UNL     1     -18.365  45.916 -22.051  1.00  0.00     0.055 C 
BRANCH  29  31
HETATM   31  C30 UNL     1     -18.864  46.433 -24.496  1.00  0.00     0.171 C 
HETATM   32  O2  UNL     1     -19.445  45.548 -25.099  1.00  0.00    -0.646 OA
BRANCH  31  33
HETATM   33  O3  UNL     1     -19.092  47.724 -24.795  1.00  0.00    -0.773 OA
HETATM   34  H46 UNL     1     -19.751  47.670 -25.519  1.00  0.00     0.167 HD
ENDBRANCH  31  33
ENDBRANCH  29  31
ENDBRANCH  27  28
ENDBRANCH  26  27
ENDBRANCH  24  26
ENDBRANCH   1  24
TORSDOF 6
ENDMDL
