MODEL 1
REMARK minimizedAffinity -8.16797256
REMARK CNNscore 0.70045054
REMARK CNNaffinity 6.67229843
REMARK  13 active torsions:
REMARK  status: ('A' for Active; 'I' for Inactive)
REMARK    1  A    between atoms: C4_4  and  C5_5 
REMARK    2  A    between atoms: C5_5  and  C6_6 
REMARK    3  A    between atoms: C6_6  and  C7_7 
REMARK    4  A    between atoms: C7_7  and  C9_9 
REMARK    5  A    between atoms: C18_18  and  C20_20 
REMARK    6  A    between atoms: C20_20  and  O2_22 
REMARK    7  A    between atoms: C21_23  and  O3_24 
REMARK    8  A    between atoms: O3_24  and  C22_25 
REMARK    9  A    between atoms: C23_27  and  C24_28 
REMARK   10  A    between atoms: C24_28  and  O5_29 
REMARK   11  A    between atoms: C25_30  and  O6_31 
REMARK   12  A    between atoms: C26_32  and  O7_33 
REMARK   13  A    between atoms: C28_35  and  O8_36 
ROOT
HETATM    1  C9  UNL     1       4.224  56.875  -6.411  1.00  0.00    -0.002 C 
HETATM    2  C10 UNL     1       3.253  58.056  -6.142  1.00  0.00     0.006 C 
HETATM    3  C11 UNL     1       1.924  57.745  -6.851  1.00  0.00     0.011 C 
HETATM    4  C12 UNL     1       2.043  56.279  -7.303  1.00  0.00    -0.032 C 
HETATM    5  C13 UNL     1       1.601  55.411  -6.081  1.00  0.00     0.016 C 
HETATM    6  C14 UNL     1       1.198  55.924  -8.560  1.00  0.00     0.004 C 
HETATM    7  C15 UNL     1      -0.305  55.837  -8.291  1.00  0.00     0.007 C 
HETATM    8  C16 UNL     1      -1.086  55.623  -9.581  1.00  0.00     0.007 C 
HETATM    9  C17 UNL     1      -0.749  54.335 -10.370  1.00  0.00     0.018 C 
HETATM   10  C18 UNL     1      -1.830  53.191 -10.315  1.00  0.00     0.072 C 
HETATM   11  C19 UNL     1      -3.231  53.753 -10.687  1.00  0.00     0.030 C 
HETATM   12  C21 UNL     1      -1.440  52.044 -11.323  1.00  0.00     0.146 C 
HETATM   13  C27 UNL     1       0.066  51.925 -11.592  1.00  0.00     0.066 C 
HETATM   14  C28 UNL     1       0.916  52.368 -10.421  1.00  0.00     0.130 C 
HETATM   15  C29 UNL     1       0.711  53.852 -10.160  1.00  0.00    -0.001 A 
HETATM   16  C30 UNL     1       1.772  54.741 -10.780  1.00  0.00     0.024 A 
HETATM   17  C31 UNL     1       1.708  54.654  -9.272  1.00  0.00    -0.025 A 
HETATM   18  C32 UNL     1       2.831  53.882  -8.582  1.00  0.00     0.011 C 
HETATM   19  C33 UNL     1       3.923  54.710  -7.879  1.00  0.00     0.011 C 
HETATM   20  C34 UNL     1       3.574  56.186  -7.655  1.00  0.00    -0.032 C 
HETATM   21  C35 UNL     1       3.976  56.979  -8.935  1.00  0.00     0.016 C 
ENDROOT
BRANCH  12  22
HETATM   22  O3  UNL     1      -2.107  52.263 -12.588  1.00  0.00    -0.352 OA
BRANCH  22  23
HETATM   23  C22 UNL     1      -2.934  51.176 -13.006  1.00  0.00     0.292 C 
HETATM   24  O4  UNL     1      -2.580  49.955 -12.338  1.00  0.00    -0.348 OA
HETATM   25  C23 UNL     1      -2.011  49.046 -13.307  1.00  0.00     0.179 C 
HETATM   26  C25 UNL     1      -2.683  49.438 -14.614  1.00  0.00     0.182 C 
HETATM   27  C26 UNL     1      -2.712  50.952 -14.513  1.00  0.00     0.204 C 
BRANCH  25  28
HETATM   28  C24 UNL     1      -0.479  49.165 -13.320  1.00  0.00     0.198 C 
BRANCH  28  29
HETATM   29  O5  UNL     1      -0.051  49.845 -14.502  1.00  0.00    -0.398 OA
HETATM   30  H39 UNL     1       0.921  49.880 -14.467  1.00  0.00     0.209 HD
ENDBRANCH  28  29
ENDBRANCH  25  28
BRANCH  26  31
HETATM   31  O6  UNL     1      -2.018  48.990 -15.788  1.00  0.00    -0.390 OA
HETATM   32  H41 UNL     1      -2.432  49.479 -16.532  1.00  0.00     0.210 HD
ENDBRANCH  26  31
BRANCH  27  33
HETATM   33  O7  UNL     1      -3.716  51.489 -15.384  1.00  0.00    -0.388 OA
HETATM   34  H43 UNL     1      -4.554  51.556 -14.899  1.00  0.00     0.210 HD
ENDBRANCH  27  33
ENDBRANCH  22  23
ENDBRANCH  12  22
BRANCH  10  35
HETATM   35  C20 UNL     1      -2.022  52.607  -8.914  1.00  0.00     0.151 C 
HETATM   36  O1  UNL     1      -2.391  51.486  -8.604  1.00  0.00    -0.649 OA
BRANCH  35  37
HETATM   37  O2  UNL     1      -1.619  53.431  -7.922  1.00  0.00    -0.776 OA
HETATM   38  H33 UNL     1      -1.819  52.906  -7.120  1.00  0.00     0.167 HD
ENDBRANCH  35  37
ENDBRANCH  10  35
BRANCH  14  39
HETATM   39  O8  UNL     1       0.565  51.613  -9.272  1.00  0.00    -0.395 OA
HETATM   40  H47 UNL     1       1.391  51.423  -8.789  1.00  0.00     0.210 HD
ENDBRANCH  14  39
BRANCH   1  41
HETATM   41  C7  UNL     1       5.718  57.315  -6.439  1.00  0.00    -0.014 C 
HETATM   42  C8  UNL     1       6.652  56.140  -6.763  1.00  0.00     0.010 C 
BRANCH  41  43
HETATM   43  C6  UNL     1       6.164  57.914  -5.074  1.00  0.00     0.008 C 
BRANCH  43  44
HETATM   44  C5  UNL     1       7.246  58.989  -5.201  1.00  0.00     0.028 C 
BRANCH  44  45
HETATM   45  C4  UNL     1       8.605  58.431  -4.877  1.00  0.00    -0.025 C 
HETATM   46  C2  UNL     1       9.793  59.062  -4.964  1.00  0.00    -0.091 C 
HETATM   47  C1  UNL     1       9.976  60.499  -5.364  1.00  0.00     0.042 C 
HETATM   48  C3  UNL     1      11.073  58.338  -4.639  1.00  0.00     0.042 C 
ENDBRANCH  44  45
ENDBRANCH  43  44
ENDBRANCH  41  43
ENDBRANCH   1  41
TORSDOF 13
ENDMDL
MODEL 2
REMARK minimizedAffinity -9.91785526
REMARK CNNscore 0.419511557
REMARK CNNaffinity 7.28983259
REMARK  13 active torsions:
REMARK  status: ('A' for Active; 'I' for Inactive)
REMARK    1  A    between atoms: C4_4  and  C5_5 
REMARK    2  A    between atoms: C5_5  and  C6_6 
REMARK    3  A    between atoms: C6_6  and  C7_7 
REMARK    4  A    between atoms: C7_7  and  C9_9 
REMARK    5  A    between atoms: C18_18  and  C20_20 
REMARK    6  A    between atoms: C20_20  and  O2_22 
REMARK    7  A    between atoms: C21_23  and  O3_24 
REMARK    8  A    between atoms: O3_24  and  C22_25 
REMARK    9  A    between atoms: C23_27  and  C24_28 
REMARK   10  A    between atoms: C24_28  and  O5_29 
REMARK   11  A    between atoms: C25_30  and  O6_31 
REMARK   12  A    between atoms: C26_32  and  O7_33 
REMARK   13  A    between atoms: C28_35  and  O8_36 
ROOT
HETATM    1  C9  UNL     1      -3.609  50.634 -25.237  1.00  0.00    -0.002 C 
HETATM    2  C10 UNL     1      -3.934  49.116 -25.277  1.00  0.00     0.006 C 
HETATM    3  C11 UNL     1      -3.530  48.512 -23.922  1.00  0.00     0.011 C 
HETATM    4  C12 UNL     1      -3.221  49.719 -23.019  1.00  0.00    -0.032 C 
HETATM    5  C13 UNL     1      -4.589  50.173 -22.417  1.00  0.00     0.016 C 
HETATM    6  C14 UNL     1      -2.194  49.428 -21.888  1.00  0.00     0.004 C 
HETATM    7  C15 UNL     1      -2.754  48.577 -20.747  1.00  0.00     0.007 C 
HETATM    8  C16 UNL     1      -1.667  48.214 -19.744  1.00  0.00     0.007 C 
HETATM    9  C17 UNL     1      -0.968  49.404 -19.044  1.00  0.00     0.018 C 
HETATM   10  C18 UNL     1      -1.350  49.635 -17.533  1.00  0.00     0.072 C 
HETATM   11  C19 UNL     1      -1.196  48.314 -16.728  1.00  0.00     0.030 C 
HETATM   12  C21 UNL     1      -0.411  50.739 -16.912  1.00  0.00     0.146 C 
HETATM   13  C27 UNL     1       0.128  51.754 -17.930  1.00  0.00     0.066 C 
HETATM   14  C28 UNL     1      -0.805  51.976 -19.100  1.00  0.00     0.130 C 
HETATM   15  C29 UNL     1      -0.942  50.694 -19.907  1.00  0.00    -0.001 A 
HETATM   16  C30 UNL     1      -0.041  50.628 -21.124  1.00  0.00     0.024 A 
HETATM   17  C31 UNL     1      -1.534  50.714 -21.348  1.00  0.00    -0.025 A 
HETATM   18  C32 UNL     1      -2.072  52.041 -21.881  1.00  0.00     0.011 C 
HETATM   19  C33 UNL     1      -2.461  52.093 -23.370  1.00  0.00     0.011 C 
HETATM   20  C34 UNL     1      -2.593  50.726 -24.053  1.00  0.00    -0.032 C 
HETATM   21  C35 UNL     1      -1.183  50.304 -24.568  1.00  0.00     0.016 C 
ENDROOT
BRANCH  12  22
HETATM   22  O3  UNL     1       0.718  50.108 -16.265  1.00  0.00    -0.352 OA
BRANCH  22  23
HETATM   23  C22 UNL     1       0.847  50.426 -14.878  1.00  0.00     0.292 C 
HETATM   24  O4  UNL     1       1.296  51.776 -14.685  1.00  0.00    -0.348 OA
HETATM   25  C23 UNL     1       2.632  51.744 -14.136  1.00  0.00     0.179 C 
HETATM   26  C25 UNL     1       2.676  50.440 -13.354  1.00  0.00     0.182 C 
HETATM   27  C26 UNL     1       1.914  49.498 -14.268  1.00  0.00     0.204 C 
BRANCH  25  28
HETATM   28  C24 UNL     1       3.676  51.847 -15.260  1.00  0.00     0.198 C 
BRANCH  28  29
HETATM   29  O5  UNL     1       3.739  53.190 -15.746  1.00  0.00    -0.398 OA
HETATM   30  H39 UNL     1       4.399  53.197 -16.461  1.00  0.00     0.209 HD
ENDBRANCH  28  29
ENDBRANCH  25  28
BRANCH  26  31
HETATM   31  O6  UNL     1       3.982  49.963 -13.058  1.00  0.00    -0.390 OA
HETATM   32  H41 UNL     1       3.864  49.039 -12.747  1.00  0.00     0.210 HD
ENDBRANCH  26  31
BRANCH  27  33
HETATM   33  O7  UNL     1       1.422  48.376 -13.525  1.00  0.00    -0.388 OA
HETATM   34  H43 UNL     1       0.535  48.582 -13.188  1.00  0.00     0.210 HD
ENDBRANCH  27  33
ENDBRANCH  22  23
ENDBRANCH  12  22
BRANCH  10  35
HETATM   35  C20 UNL     1      -2.815  50.028 -17.332  1.00  0.00     0.151 C 
HETATM   36  O1  UNL     1      -3.812  49.488 -17.780  1.00  0.00    -0.649 OA
BRANCH  35  37
HETATM   37  O2  UNL     1      -2.990  51.042 -16.456  1.00  0.00    -0.776 OA
HETATM   38  H33 UNL     1      -3.962  51.157 -16.462  1.00  0.00     0.167 HD
ENDBRANCH  35  37
ENDBRANCH  10  35
BRANCH  14  39
HETATM   39  O8  UNL     1      -2.072  52.395 -18.619  1.00  0.00    -0.395 OA
HETATM   40  H47 UNL     1      -2.405  53.072 -19.237  1.00  0.00     0.210 HD
ENDBRANCH  14  39
BRANCH   1  41
HETATM   41  C7  UNL     1      -3.249  51.211 -26.639  1.00  0.00    -0.014 C 
HETATM   42  C8  UNL     1      -3.023  50.097 -27.672  1.00  0.00     0.010 C 
BRANCH  41  43
HETATM   43  C6  UNL     1      -1.959  52.078 -26.586  1.00  0.00     0.008 C 
BRANCH  43  44
HETATM   44  C5  UNL     1      -1.127  52.020 -27.870  1.00  0.00     0.028 C 
BRANCH  44  45
HETATM   45  C4  UNL     1       0.263  51.516 -27.593  1.00  0.00    -0.025 C 
HETATM   46  C2  UNL     1       1.131  51.970 -26.666  1.00  0.00    -0.091 C 
HETATM   47  C1  UNL     1       0.838  53.062 -25.676  1.00  0.00     0.042 C 
HETATM   48  C3  UNL     1       2.509  51.375 -26.548  1.00  0.00     0.042 C 
ENDBRANCH  44  45
ENDBRANCH  43  44
ENDBRANCH  41  43
ENDBRANCH   1  41
TORSDOF 13
ENDMDL
MODEL 3
REMARK minimizedAffinity -9.93970394
REMARK CNNscore 0.3806701
REMARK CNNaffinity 7.24582434
REMARK  13 active torsions:
REMARK  status: ('A' for Active; 'I' for Inactive)
REMARK    1  A    between atoms: C4_4  and  C5_5 
REMARK    2  A    between atoms: C5_5  and  C6_6 
REMARK    3  A    between atoms: C6_6  and  C7_7 
REMARK    4  A    between atoms: C7_7  and  C9_9 
REMARK    5  A    between atoms: C18_18  and  C20_20 
REMARK    6  A    between atoms: C20_20  and  O2_22 
REMARK    7  A    between atoms: C21_23  and  O3_24 
REMARK    8  A    between atoms: O3_24  and  C22_25 
REMARK    9  A    between atoms: C23_27  and  C24_28 
REMARK   10  A    between atoms: C24_28  and  O5_29 
REMARK   11  A    between atoms: C25_30  and  O6_31 
REMARK   12  A    between atoms: C26_32  and  O7_33 
REMARK   13  A    between atoms: C28_35  and  O8_36 
ROOT
HETATM    1  C9  UNL     1      -3.656  50.430 -25.020  1.00  0.00    -0.002 C 
HETATM    2  C10 UNL     1      -3.957  48.912 -24.894  1.00  0.00     0.006 C 
HETATM    3  C11 UNL     1      -3.451  48.443 -23.520  1.00  0.00     0.011 C 
HETATM    4  C12 UNL     1      -3.101  49.734 -22.758  1.00  0.00    -0.032 C 
HETATM    5  C13 UNL     1      -4.433  50.228 -22.107  1.00  0.00     0.016 C 
HETATM    6  C14 UNL     1      -1.995  49.562 -21.679  1.00  0.00     0.004 C 
HETATM    7  C15 UNL     1      -2.461  48.817 -20.427  1.00  0.00     0.007 C 
HETATM    8  C16 UNL     1      -1.302  48.562 -19.472  1.00  0.00     0.007 C 
HETATM    9  C17 UNL     1      -0.578  49.820 -18.937  1.00  0.00     0.018 C 
HETATM   10  C18 UNL     1      -0.859  50.189 -17.432  1.00  0.00     0.072 C 
HETATM   11  C19 UNL     1      -0.629  48.952 -16.519  1.00  0.00     0.030 C 
HETATM   12  C21 UNL     1       0.101  51.357 -16.984  1.00  0.00     0.146 C 
HETATM   13  C27 UNL     1       0.552  52.277 -18.127  1.00  0.00     0.066 C 
HETATM   14  C28 UNL     1      -0.463  52.377 -19.245  1.00  0.00     0.130 C 
HETATM   15  C29 UNL     1      -0.633  51.023 -19.916  1.00  0.00    -0.001 A 
HETATM   16  C30 UNL     1       0.184  50.852 -21.182  1.00  0.00     0.024 A 
HETATM   17  C31 UNL     1      -1.322  50.900 -21.308  1.00  0.00    -0.025 A 
HETATM   18  C32 UNL     1      -1.918  52.165 -21.924  1.00  0.00     0.011 C 
HETATM   19  C33 UNL     1      -2.409  52.071 -23.381  1.00  0.00     0.011 C 
HETATM   20  C34 UNL     1      -2.563  50.645 -23.923  1.00  0.00    -0.032 C 
HETATM   21  C35 UNL     1      -1.185  50.191 -24.493  1.00  0.00     0.016 C 
ENDROOT
BRANCH  12  22
HETATM   22  O3  UNL     1       1.282  50.802 -16.360  1.00  0.00    -0.352 OA
BRANCH  22  23
HETATM   23  C22 UNL     1       1.950  51.701 -15.474  1.00  0.00     0.292 C 
HETATM   24  O4  UNL     1       3.304  51.293 -15.228  1.00  0.00    -0.348 OA
HETATM   25  C23 UNL     1       3.418  50.875 -13.849  1.00  0.00     0.179 C 
HETATM   26  C25 UNL     1       2.362  51.700 -13.129  1.00  0.00     0.182 C 
HETATM   27  C26 UNL     1       1.214  51.680 -14.121  1.00  0.00     0.204 C 
BRANCH  25  28
HETATM   28  C24 UNL     1       3.227  49.355 -13.731  1.00  0.00     0.198 C 
BRANCH  28  29
HETATM   29  O5  UNL     1       3.783  48.886 -12.501  1.00  0.00    -0.398 OA
HETATM   30  H39 UNL     1       3.650  47.922 -12.483  1.00  0.00     0.209 HD
ENDBRANCH  28  29
ENDBRANCH  25  28
BRANCH  26  31
HETATM   31  O6  UNL     1       1.980  51.202 -11.854  1.00  0.00    -0.390 OA
HETATM   32  H41 UNL     1       1.168  51.696 -11.607  1.00  0.00     0.210 HD
ENDBRANCH  26  31
BRANCH  27  33
HETATM   33  O7  UNL     1       0.323  52.774 -13.872  1.00  0.00    -0.388 OA
HETATM   34  H43 UNL     1       0.608  53.541 -14.394  1.00  0.00     0.210 HD
ENDBRANCH  27  33
ENDBRANCH  22  23
ENDBRANCH  12  22
BRANCH  10  35
HETATM   35  C20 UNL     1      -2.314  50.584 -17.167  1.00  0.00     0.151 C 
HETATM   36  O1  UNL     1      -2.765  51.240 -16.243  1.00  0.00    -0.649 OA
BRANCH  35  37
HETATM   37  O2  UNL     1      -3.160  50.235 -18.161  1.00  0.00    -0.776 OA
HETATM   38  H33 UNL     1      -4.022  50.552 -17.822  1.00  0.00     0.167 HD
ENDBRANCH  35  37
ENDBRANCH  10  35
BRANCH  14  39
HETATM   39  O8  UNL     1      -1.702  52.826 -18.719  1.00  0.00    -0.395 OA
HETATM   40  H47 UNL     1      -2.087  53.438 -19.373  1.00  0.00     0.210 HD
ENDBRANCH  14  39
BRANCH   1  41
HETATM   41  C7  UNL     1      -3.402  50.876 -26.491  1.00  0.00    -0.014 C 
HETATM   42  C8  UNL     1      -3.093  49.679 -27.403  1.00  0.00     0.010 C 
BRANCH  41  43
HETATM   43  C6  UNL     1      -2.209  51.869 -26.589  1.00  0.00     0.008 C 
BRANCH  43  44
HETATM   44  C5  UNL     1      -1.387  51.715 -27.872  1.00  0.00     0.028 C 
BRANCH  44  45
HETATM   45  C4  UNL     1       0.044  51.373 -27.559  1.00  0.00    -0.025 C 
HETATM   46  C2  UNL     1       0.879  52.022 -26.722  1.00  0.00    -0.091 C 
HETATM   47  C1  UNL     1       0.503  53.211 -25.885  1.00  0.00     0.042 C 
HETATM   48  C3  UNL     1       2.305  51.568 -26.556  1.00  0.00     0.042 C 
ENDBRANCH  44  45
ENDBRANCH  43  44
ENDBRANCH  41  43
ENDBRANCH   1  41
TORSDOF 13
ENDMDL
MODEL 4
REMARK minimizedAffinity -8.26553059
REMARK CNNscore 0.316605717
REMARK CNNaffinity 6.41136026
REMARK  13 active torsions:
REMARK  status: ('A' for Active; 'I' for Inactive)
REMARK    1  A    between atoms: C4_4  and  C5_5 
REMARK    2  A    between atoms: C5_5  and  C6_6 
REMARK    3  A    between atoms: C6_6  and  C7_7 
REMARK    4  A    between atoms: C7_7  and  C9_9 
REMARK    5  A    between atoms: C18_18  and  C20_20 
REMARK    6  A    between atoms: C20_20  and  O2_22 
REMARK    7  A    between atoms: C21_23  and  O3_24 
REMARK    8  A    between atoms: O3_24  and  C22_25 
REMARK    9  A    between atoms: C23_27  and  C24_28 
REMARK   10  A    between atoms: C24_28  and  O5_29 
REMARK   11  A    between atoms: C25_30  and  O6_31 
REMARK   12  A    between atoms: C26_32  and  O7_33 
REMARK   13  A    between atoms: C28_35  and  O8_36 
ROOT
HETATM    1  C9  UNL     1      -1.004  51.508 -20.328  1.00  0.00    -0.002 C 
HETATM    2  C10 UNL     1      -0.060  50.307 -20.609  1.00  0.00     0.006 C 
HETATM    3  C11 UNL     1      -0.935  49.086 -20.939  1.00  0.00     0.011 C 
HETATM    4  C12 UNL     1      -2.359  49.645 -21.105  1.00  0.00    -0.032 C 
HETATM    5  C13 UNL     1      -2.465  50.131 -22.586  1.00  0.00     0.016 C 
HETATM    6  C14 UNL     1      -3.490  48.628 -20.780  1.00  0.00     0.004 C 
HETATM    7  C15 UNL     1      -3.671  47.543 -21.843  1.00  0.00     0.007 C 
HETATM    8  C16 UNL     1      -4.694  46.504 -21.403  1.00  0.00     0.007 C 
HETATM    9  C17 UNL     1      -6.122  47.035 -21.131  1.00  0.00     0.018 C 
HETATM   10  C18 UNL     1      -7.210  46.671 -22.210  1.00  0.00     0.072 C 
HETATM   11  C19 UNL     1      -7.200  45.142 -22.493  1.00  0.00     0.030 C 
HETATM   12  C21 UNL     1      -8.636  47.099 -21.691  1.00  0.00     0.146 C 
HETATM   13  C27 UNL     1      -8.622  48.275 -20.705  1.00  0.00     0.066 C 
HETATM   14  C28 UNL     1      -7.466  49.226 -20.930  1.00  0.00     0.130 C 
HETATM   15  C29 UNL     1      -6.148  48.515 -20.664  1.00  0.00    -0.001 A 
HETATM   16  C30 UNL     1      -5.583  48.756 -19.278  1.00  0.00     0.024 A 
HETATM   17  C31 UNL     1      -4.831  49.321 -20.460  1.00  0.00    -0.025 A 
HETATM   18  C32 UNL     1      -4.884  50.836 -20.646  1.00  0.00     0.011 C 
HETATM   19  C33 UNL     1      -3.632  51.638 -20.243  1.00  0.00     0.011 C 
HETATM   20  C34 UNL     1      -2.365  50.799 -20.034  1.00  0.00    -0.032 C 
HETATM   21  C35 UNL     1      -2.359  50.291 -18.560  1.00  0.00     0.016 C 
ENDROOT
BRANCH  12  22
HETATM   22  O3  UNL     1      -9.273  45.974 -21.041  1.00  0.00    -0.352 OA
BRANCH  22  23
HETATM   23  C22 UNL     1     -10.539  45.619 -21.600  1.00  0.00     0.292 C 
HETATM   24  O4  UNL     1     -11.317  46.781 -21.926  1.00  0.00    -0.348 OA
HETATM   25  C23 UNL     1     -12.456  46.838 -21.037  1.00  0.00     0.179 C 
HETATM   26  C25 UNL     1     -12.730  45.381 -20.699  1.00  0.00     0.182 C 
HETATM   27  C26 UNL     1     -11.326  44.823 -20.543  1.00  0.00     0.204 C 
BRANCH  25  28
HETATM   28  C24 UNL     1     -12.143  47.725 -19.821  1.00  0.00     0.198 C 
BRANCH  28  29
HETATM   29  O5  UNL     1     -13.344  48.003 -19.098  1.00  0.00    -0.398 OA
HETATM   30  H39 UNL     1     -13.094  48.576 -18.352  1.00  0.00     0.209 HD
ENDBRANCH  28  29
ENDBRANCH  25  28
BRANCH  26  31
HETATM   31  O6  UNL     1     -13.523  45.174 -19.538  1.00  0.00    -0.390 OA
HETATM   32  H41 UNL     1     -13.443  44.218 -19.327  1.00  0.00     0.210 HD
ENDBRANCH  26  31
BRANCH  27  33
HETATM   33  O7  UNL     1     -11.337  43.399 -20.706  1.00  0.00    -0.388 OA
HETATM   34  H43 UNL     1     -11.194  43.186 -21.642  1.00  0.00     0.210 HD
ENDBRANCH  27  33
ENDBRANCH  22  23
ENDBRANCH  12  22
BRANCH  10  35
HETATM   35  C20 UNL     1      -6.944  47.306 -23.576  1.00  0.00     0.151 C 
HETATM   36  O1  UNL     1      -7.731  47.501 -24.487  1.00  0.00    -0.649 OA
BRANCH  35  37
HETATM   37  O2  UNL     1      -5.692  47.797 -23.712  1.00  0.00    -0.776 OA
HETATM   38  H33 UNL     1      -5.703  48.148 -24.626  1.00  0.00     0.167 HD
ENDBRANCH  35  37
ENDBRANCH  10  35
BRANCH  14  39
HETATM   39  O8  UNL     1      -7.505  49.708 -22.264  1.00  0.00    -0.395 OA
HETATM   40  H47 UNL     1      -7.250  50.649 -22.237  1.00  0.00     0.210 HD
ENDBRANCH  14  39
BRANCH   1  41
HETATM   41  C7  UNL     1      -0.402  52.524 -19.312  1.00  0.00    -0.014 C 
HETATM   42  C8  UNL     1       0.619  53.458 -19.977  1.00  0.00     0.010 C 
BRANCH  41  43
HETATM   43  C6  UNL     1       0.312  51.800 -18.134  1.00  0.00     0.008 C 
BRANCH  43  44
HETATM   44  C5  UNL     1       1.490  52.588 -17.555  1.00  0.00     0.028 C 
BRANCH  44  45
HETATM   45  C4  UNL     1       1.823  52.120 -16.165  1.00  0.00    -0.025 C 
HETATM   46  C2  UNL     1       3.036  52.093 -15.576  1.00  0.00    -0.091 C 
HETATM   47  C1  UNL     1       4.307  52.590 -16.205  1.00  0.00     0.042 C 
HETATM   48  C3  UNL     1       3.201  51.550 -14.181  1.00  0.00     0.042 C 
ENDBRANCH  44  45
ENDBRANCH  43  44
ENDBRANCH  41  43
ENDBRANCH   1  41
TORSDOF 13
ENDMDL
MODEL 5
REMARK minimizedAffinity -8.96297932
REMARK CNNscore 0.316099942
REMARK CNNaffinity 5.95926666
REMARK  13 active torsions:
REMARK  status: ('A' for Active; 'I' for Inactive)
REMARK    1  A    between atoms: C4_4  and  C5_5 
REMARK    2  A    between atoms: C5_5  and  C6_6 
REMARK    3  A    between atoms: C6_6  and  C7_7 
REMARK    4  A    between atoms: C7_7  and  C9_9 
REMARK    5  A    between atoms: C18_18  and  C20_20 
REMARK    6  A    between atoms: C20_20  and  O2_22 
REMARK    7  A    between atoms: C21_23  and  O3_24 
REMARK    8  A    between atoms: O3_24  and  C22_25 
REMARK    9  A    between atoms: C23_27  and  C24_28 
REMARK   10  A    between atoms: C24_28  and  O5_29 
REMARK   11  A    between atoms: C25_30  and  O6_31 
REMARK   12  A    between atoms: C26_32  and  O7_33 
REMARK   13  A    between atoms: C28_35  and  O8_36 
ROOT
HETATM    1  C9  UNL     1     -16.092  43.820 -26.563  1.00  0.00    -0.002 C 
HETATM    2  C10 UNL     1     -15.471  43.093 -25.339  1.00  0.00     0.006 C 
HETATM    3  C11 UNL     1     -13.983  43.474 -25.270  1.00  0.00     0.011 C 
HETATM    4  C12 UNL     1     -13.811  44.616 -26.287  1.00  0.00    -0.032 C 
HETATM    5  C13 UNL     1     -14.190  45.930 -25.533  1.00  0.00     0.016 C 
HETATM    6  C14 UNL     1     -12.384  44.725 -26.895  1.00  0.00     0.004 C 
HETATM    7  C15 UNL     1     -11.339  45.282 -25.926  1.00  0.00     0.007 C 
HETATM    8  C16 UNL     1      -9.943  45.236 -26.532  1.00  0.00     0.007 C 
HETATM    9  C17 UNL     1      -9.745  46.046 -27.837  1.00  0.00     0.018 C 
HETATM   10  C18 UNL     1      -8.915  47.377 -27.701  1.00  0.00     0.072 C 
HETATM   11  C19 UNL     1      -7.567  47.102 -26.976  1.00  0.00     0.030 C 
HETATM   12  C21 UNL     1      -8.627  47.970 -29.133  1.00  0.00     0.146 C 
HETATM   13  C27 UNL     1      -9.675  47.599 -30.192  1.00  0.00     0.066 C 
HETATM   14  C28 UNL     1     -11.055  47.379 -29.612  1.00  0.00     0.130 C 
HETATM   15  C29 UNL     1     -11.042  46.178 -28.679  1.00  0.00    -0.001 A 
HETATM   16  C30 UNL     1     -11.520  44.891 -29.320  1.00  0.00     0.024 A 
HETATM   17  C31 UNL     1     -12.370  45.499 -28.229  1.00  0.00    -0.025 A 
HETATM   18  C32 UNL     1     -13.685  46.144 -28.665  1.00  0.00     0.011 C 
HETATM   19  C33 UNL     1     -14.979  45.355 -28.391  1.00  0.00     0.011 C 
HETATM   20  C34 UNL     1     -14.829  44.186 -27.409  1.00  0.00    -0.032 C 
HETATM   21  C35 UNL     1     -14.384  42.929 -28.216  1.00  0.00     0.016 C 
ENDROOT
BRANCH  12  22
HETATM   22  O3  UNL     1      -7.336  47.513 -29.598  1.00  0.00    -0.352 OA
BRANCH  22  23
HETATM   23  C22 UNL     1      -6.924  48.093 -30.836  1.00  0.00     0.292 C 
HETATM   24  O4  UNL     1      -7.294  47.271 -31.954  1.00  0.00    -0.348 OA
HETATM   25  C23 UNL     1      -6.093  46.734 -32.551  1.00  0.00     0.179 C 
HETATM   26  C25 UNL     1      -5.034  47.785 -32.252  1.00  0.00     0.182 C 
HETATM   27  C26 UNL     1      -5.387  48.194 -30.834  1.00  0.00     0.204 C 
BRANCH  25  28
HETATM   28  C24 UNL     1      -5.786  45.341 -31.979  1.00  0.00     0.198 C 
BRANCH  28  29
HETATM   29  O5  UNL     1      -5.828  44.364 -33.021  1.00  0.00    -0.398 OA
HETATM   30  H39 UNL     1      -5.643  43.505 -32.606  1.00  0.00     0.209 HD
ENDBRANCH  28  29
ENDBRANCH  25  28
BRANCH  26  31
HETATM   31  O6  UNL     1      -3.692  47.331 -32.363  1.00  0.00    -0.390 OA
HETATM   32  H41 UNL     1      -3.139  48.030 -31.950  1.00  0.00     0.210 HD
ENDBRANCH  26  31
BRANCH  27  33
HETATM   33  O7  UNL     1      -4.842  49.486 -30.540  1.00  0.00    -0.388 OA
HETATM   34  H43 UNL     1      -5.493  50.167 -30.775  1.00  0.00     0.210 HD
ENDBRANCH  27  33
ENDBRANCH  22  23
ENDBRANCH  12  22
BRANCH  10  35
HETATM   35  C20 UNL     1      -9.600  48.432 -26.831  1.00  0.00     0.151 C 
HETATM   36  O1  UNL     1     -10.365  48.263 -25.897  1.00  0.00    -0.649 OA
BRANCH  35  37
HETATM   37  O2  UNL     1      -9.198  49.696 -27.093  1.00  0.00    -0.776 OA
HETATM   38  H33 UNL     1      -9.734  50.220 -26.463  1.00  0.00     0.167 HD
ENDBRANCH  35  37
ENDBRANCH  10  35
BRANCH  14  39
HETATM   39  O8  UNL     1     -11.462  48.544 -28.911  1.00  0.00    -0.395 OA
HETATM   40  H47 UNL     1     -12.414  48.667 -29.087  1.00  0.00     0.210 HD
ENDBRANCH  14  39
BRANCH   1  41
HETATM   41  C7  UNL     1     -17.272  43.028 -27.201  1.00  0.00    -0.014 C 
HETATM   42  C8  UNL     1     -17.788  43.707 -28.479  1.00  0.00     0.010 C 
BRANCH  41  43
HETATM   43  C6  UNL     1     -18.469  42.894 -26.218  1.00  0.00     0.008 C 
BRANCH  43  44
HETATM   44  C5  UNL     1     -19.587  43.908 -26.472  1.00  0.00     0.028 C 
BRANCH  44  45
HETATM   45  C4  UNL     1     -19.244  45.251 -25.886  1.00  0.00    -0.025 C 
HETATM   46  C2  UNL     1     -19.440  45.667 -24.619  1.00  0.00    -0.091 C 
HETATM   47  C1  UNL     1     -20.006  44.822 -23.514  1.00  0.00     0.042 C 
HETATM   48  C3  UNL     1     -19.074  47.069 -24.206  1.00  0.00     0.042 C 
ENDBRANCH  44  45
ENDBRANCH  43  44
ENDBRANCH  41  43
ENDBRANCH   1  41
TORSDOF 13
ENDMDL
MODEL 6
REMARK minimizedAffinity -8.22572136
REMARK CNNscore 0.314154834
REMARK CNNaffinity 6.17362976
REMARK  13 active torsions:
REMARK  status: ('A' for Active; 'I' for Inactive)
REMARK    1  A    between atoms: C4_4  and  C5_5 
REMARK    2  A    between atoms: C5_5  and  C6_6 
REMARK    3  A    between atoms: C6_6  and  C7_7 
REMARK    4  A    between atoms: C7_7  and  C9_9 
REMARK    5  A    between atoms: C18_18  and  C20_20 
REMARK    6  A    between atoms: C20_20  and  O2_22 
REMARK    7  A    between atoms: C21_23  and  O3_24 
REMARK    8  A    between atoms: O3_24  and  C22_25 
REMARK    9  A    between atoms: C23_27  and  C24_28 
REMARK   10  A    between atoms: C24_28  and  O5_29 
REMARK   11  A    between atoms: C25_30  and  O6_31 
REMARK   12  A    between atoms: C26_32  and  O7_33 
REMARK   13  A    between atoms: C28_35  and  O8_36 
ROOT
HETATM    1  C9  UNL     1      -7.301  46.812 -26.527  1.00  0.00    -0.002 C 
HETATM    2  C10 UNL     1      -8.559  46.041 -26.042  1.00  0.00     0.006 C 
HETATM    3  C11 UNL     1      -9.368  45.630 -27.284  1.00  0.00     0.011 C 
HETATM    4  C12 UNL     1      -8.449  45.933 -28.481  1.00  0.00    -0.032 C 
HETATM    5  C13 UNL     1      -7.534  44.679 -28.654  1.00  0.00     0.016 C 
HETATM    6  C14 UNL     1      -9.203  46.248 -29.805  1.00  0.00     0.004 C 
HETATM    7  C15 UNL     1      -9.840  45.022 -30.461  1.00  0.00     0.007 C 
HETATM    8  C16 UNL     1     -10.674  45.415 -31.673  1.00  0.00     0.007 C 
HETATM    9  C17 UNL     1      -9.912  46.125 -32.817  1.00  0.00     0.018 C 
HETATM   10  C18 UNL     1      -9.655  45.266 -34.111  1.00  0.00     0.072 C 
HETATM   11  C19 UNL     1     -10.983  44.624 -34.606  1.00  0.00     0.030 C 
HETATM   12  C21 UNL     1      -9.061  46.182 -35.248  1.00  0.00     0.146 C 
HETATM   13  C27 UNL     1      -8.274  47.396 -34.733  1.00  0.00     0.066 C 
HETATM   14  C28 UNL     1      -7.618  47.153 -33.391  1.00  0.00     0.130 C 
HETATM   15  C29 UNL     1      -8.680  46.932 -32.325  1.00  0.00    -0.001 A 
HETATM   16  C30 UNL     1      -9.011  48.170 -31.515  1.00  0.00     0.024 A 
HETATM   17  C31 UNL     1      -8.326  47.022 -30.811  1.00  0.00    -0.025 A 
HETATM   18  C32 UNL     1      -6.860  47.228 -30.431  1.00  0.00     0.011 C 
HETATM   19  C33 UNL     1      -6.553  47.519 -28.950  1.00  0.00     0.011 C 
HETATM   20  C34 UNL     1      -7.704  47.225 -27.980  1.00  0.00    -0.032 C 
HETATM   21  C35 UNL     1      -8.612  48.490 -27.908  1.00  0.00     0.016 C 
ENDROOT
BRANCH  12  22
HETATM   22  O3  UNL     1     -10.133  46.666 -36.091  1.00  0.00    -0.352 OA
BRANCH  22  23
HETATM   23  C22 UNL     1      -9.699  47.146 -37.365  1.00  0.00     0.292 C 
HETATM   24  O4  UNL     1     -10.279  48.424 -37.673  1.00  0.00    -0.348 OA
HETATM   25  C23 UNL     1     -11.201  48.258 -38.774  1.00  0.00     0.179 C 
HETATM   26  C25 UNL     1     -10.633  47.083 -39.554  1.00  0.00     0.182 C 
HETATM   27  C26 UNL     1     -10.178  46.155 -38.442  1.00  0.00     0.204 C 
BRANCH  25  28
HETATM   28  C24 UNL     1     -12.630  48.042 -38.249  1.00  0.00     0.198 C 
BRANCH  28  29
HETATM   29  O5  UNL     1     -13.021  49.146 -37.429  1.00  0.00    -0.398 OA
HETATM   30  H39 UNL     1     -13.921  48.954 -37.113  1.00  0.00     0.209 HD
ENDBRANCH  28  29
ENDBRANCH  25  28
BRANCH  26  31
HETATM   31  O6  UNL     1     -11.549  46.452 -40.439  1.00  0.00    -0.390 OA
HETATM   32  H41 UNL     1     -11.123  45.609 -40.708  1.00  0.00     0.210 HD
ENDBRANCH  26  31
BRANCH  27  33
HETATM   33  O7  UNL     1      -9.194  45.236 -38.933  1.00  0.00    -0.388 OA
HETATM   34  H43 UNL     1      -8.311  45.623 -38.816  1.00  0.00     0.210 HD
ENDBRANCH  27  33
ENDBRANCH  22  23
ENDBRANCH  12  22
BRANCH  10  35
HETATM   35  C20 UNL     1      -8.729  44.072 -33.871  1.00  0.00     0.151 C 
HETATM   36  O1  UNL     1      -8.582  43.419 -32.851  1.00  0.00    -0.649 OA
BRANCH  35  37
HETATM   37  O2  UNL     1      -8.088  43.650 -34.984  1.00  0.00    -0.776 OA
HETATM   38  H33 UNL     1      -7.549  42.906 -34.645  1.00  0.00     0.167 HD
ENDBRANCH  35  37
ENDBRANCH  10  35
BRANCH  14  39
HETATM   39  O8  UNL     1      -6.767  46.022 -33.480  1.00  0.00    -0.395 OA
HETATM   40  H47 UNL     1      -5.971  46.218 -32.951  1.00  0.00     0.210 HD
ENDBRANCH  14  39
BRANCH   1  41
HETATM   41  C7  UNL     1      -6.817  47.882 -25.503  1.00  0.00    -0.014 C 
HETATM   42  C8  UNL     1      -5.325  48.203 -25.678  1.00  0.00     0.010 C 
BRANCH  41  43
HETATM   43  C6  UNL     1      -7.034  47.410 -24.037  1.00  0.00     0.008 C 
BRANCH  43  44
HETATM   44  C5  UNL     1      -6.135  48.124 -23.024  1.00  0.00     0.028 C 
BRANCH  44  45
HETATM   45  C4  UNL     1      -5.290  47.140 -22.262  1.00  0.00    -0.025 C 
HETATM   46  C2  UNL     1      -4.637  47.346 -21.100  1.00  0.00    -0.091 C 
HETATM   47  C1  UNL     1      -4.679  48.620 -20.305  1.00  0.00     0.042 C 
HETATM   48  C3  UNL     1      -3.795  46.257 -20.488  1.00  0.00     0.042 C 
ENDBRANCH  44  45
ENDBRANCH  43  44
ENDBRANCH  41  43
ENDBRANCH   1  41
TORSDOF 13
ENDMDL
MODEL 7
REMARK minimizedAffinity -9.35076332
REMARK CNNscore 0.264166355
REMARK CNNaffinity 6.47893572
REMARK  13 active torsions:
REMARK  status: ('A' for Active; 'I' for Inactive)
REMARK    1  A    between atoms: C4_4  and  C5_5 
REMARK    2  A    between atoms: C5_5  and  C6_6 
REMARK    3  A    between atoms: C6_6  and  C7_7 
REMARK    4  A    between atoms: C7_7  and  C9_9 
REMARK    5  A    between atoms: C18_18  and  C20_20 
REMARK    6  A    between atoms: C20_20  and  O2_22 
REMARK    7  A    between atoms: C21_23  and  O3_24 
REMARK    8  A    between atoms: O3_24  and  C22_25 
REMARK    9  A    between atoms: C23_27  and  C24_28 
REMARK   10  A    between atoms: C24_28  and  O5_29 
REMARK   11  A    between atoms: C25_30  and  O6_31 
REMARK   12  A    between atoms: C26_32  and  O7_33 
REMARK   13  A    between atoms: C28_35  and  O8_36 
ROOT
HETATM    1  C9  UNL     1      -1.149  52.296 -21.823  1.00  0.00    -0.002 C 
HETATM    2  C10 UNL     1      -0.621  52.326 -23.283  1.00  0.00     0.006 C 
HETATM    3  C11 UNL     1      -1.531  51.424 -24.132  1.00  0.00     0.011 C 
HETATM    4  C12 UNL     1      -2.726  51.087 -23.222  1.00  0.00    -0.032 C 
HETATM    5  C13 UNL     1      -3.738  52.267 -23.380  1.00  0.00     0.016 C 
HETATM    6  C14 UNL     1      -3.414  49.729 -23.543  1.00  0.00     0.004 C 
HETATM    7  C15 UNL     1      -4.251  49.746 -24.823  1.00  0.00     0.007 C 
HETATM    8  C16 UNL     1      -4.784  48.358 -25.153  1.00  0.00     0.007 C 
HETATM    9  C17 UNL     1      -5.704  47.716 -24.087  1.00  0.00     0.018 C 
HETATM   10  C18 UNL     1      -7.236  47.657 -24.445  1.00  0.00     0.072 C 
HETATM   11  C19 UNL     1      -7.439  47.021 -25.850  1.00  0.00     0.030 C 
HETATM   12  C21 UNL     1      -8.001  46.799 -23.366  1.00  0.00     0.146 C 
HETATM   13  C27 UNL     1      -7.340  46.795 -21.980  1.00  0.00     0.066 C 
HETATM   14  C28 UNL     1      -6.571  48.064 -21.684  1.00  0.00     0.130 C 
HETATM   15  C29 UNL     1      -5.398  48.197 -22.643  1.00  0.00    -0.001 A 
HETATM   16  C30 UNL     1      -4.077  47.713 -22.077  1.00  0.00     0.024 A 
HETATM   17  C31 UNL     1      -4.234  49.190 -22.352  1.00  0.00    -0.025 A 
HETATM   18  C32 UNL     1      -4.363  50.104 -21.135  1.00  0.00     0.011 C 
HETATM   19  C33 UNL     1      -3.124  50.930 -20.743  1.00  0.00     0.011 C 
HETATM   20  C34 UNL     1      -2.029  51.004 -21.814  1.00  0.00    -0.032 C 
HETATM   21  C35 UNL     1      -1.099  49.765 -21.643  1.00  0.00     0.016 C 
ENDROOT
BRANCH  12  22
HETATM   22  O3  UNL     1      -8.103  45.429 -23.819  1.00  0.00    -0.352 OA
BRANCH  22  23
HETATM   23  C22 UNL     1      -9.332  44.790 -23.469  1.00  0.00     0.292 C 
HETATM   24  O4  UNL     1      -9.153  43.382 -23.254  1.00  0.00    -0.348 OA
HETATM   25  C23 UNL     1      -9.832  42.664 -24.308  1.00  0.00     0.179 C 
HETATM   26  C25 UNL     1     -10.975  43.587 -24.703  1.00  0.00     0.182 C 
HETATM   27  C26 UNL     1     -10.312  44.952 -24.645  1.00  0.00     0.204 C 
BRANCH  25  28
HETATM   28  C24 UNL     1      -8.856  42.336 -25.449  1.00  0.00     0.198 C 
BRANCH  28  29
HETATM   29  O5  UNL     1      -7.509  42.523 -25.008  1.00  0.00    -0.398 OA
HETATM   30  H39 UNL     1      -6.936  42.319 -25.767  1.00  0.00     0.209 HD
ENDBRANCH  28  29
ENDBRANCH  25  28
BRANCH  26  31
HETATM   31  O6  UNL     1     -11.547  43.321 -25.977  1.00  0.00    -0.390 OA
HETATM   32  H41 UNL     1     -12.110  44.099 -26.184  1.00  0.00     0.210 HD
ENDBRANCH  26  31
BRANCH  27  33
HETATM   33  O7  UNL     1     -11.302  45.979 -24.504  1.00  0.00    -0.388 OA
HETATM   34  H43 UNL     1     -11.458  46.142 -23.559  1.00  0.00     0.210 HD
ENDBRANCH  27  33
ENDBRANCH  22  23
ENDBRANCH  12  22
BRANCH  10  35
HETATM   35  C20 UNL     1      -7.884  49.038 -24.563  1.00  0.00     0.151 C 
HETATM   36  O1  UNL     1      -9.064  49.312 -24.701  1.00  0.00    -0.649 OA
BRANCH  35  37
HETATM   37  O2  UNL     1      -7.020  50.061 -24.379  1.00  0.00    -0.776 OA
HETATM   38  H33 UNL     1      -7.595  50.844 -24.495  1.00  0.00     0.167 HD
ENDBRANCH  35  37
ENDBRANCH  10  35
BRANCH  14  39
HETATM   39  O8  UNL     1      -7.438  49.181 -21.809  1.00  0.00    -0.395 OA
HETATM   40  H47 UNL     1      -7.204  49.806 -21.097  1.00  0.00     0.210 HD
ENDBRANCH  14  39
BRANCH   1  41
HETATM   41  C7  UNL     1      -0.019  52.493 -20.769  1.00  0.00    -0.014 C 
HETATM   42  C8  UNL     1       1.375  52.459 -21.414  1.00  0.00     0.010 C 
BRANCH  41  43
HETATM   43  C6  UNL     1      -0.062  51.392 -19.671  1.00  0.00     0.008 C 
BRANCH  43  44
HETATM   44  C5  UNL     1      -0.120  51.948 -18.246  1.00  0.00     0.028 C 
BRANCH  44  45
HETATM   45  C4  UNL     1       1.227  52.452 -17.806  1.00  0.00    -0.025 C 
HETATM   46  C2  UNL     1       1.879  52.159 -16.662  1.00  0.00    -0.091 C 
HETATM   47  C1  UNL     1       1.385  51.207 -15.611  1.00  0.00     0.042 C 
HETATM   48  C3  UNL     1       3.213  52.788 -16.356  1.00  0.00     0.042 C 
ENDBRANCH  44  45
ENDBRANCH  43  44
ENDBRANCH  41  43
ENDBRANCH   1  41
TORSDOF 13
ENDMDL
MODEL 8
REMARK minimizedAffinity -8.92839622
REMARK CNNscore 0.233682156
REMARK CNNaffinity 6.08478212
REMARK  13 active torsions:
REMARK  status: ('A' for Active; 'I' for Inactive)
REMARK    1  A    between atoms: C4_4  and  C5_5 
REMARK    2  A    between atoms: C5_5  and  C6_6 
REMARK    3  A    between atoms: C6_6  and  C7_7 
REMARK    4  A    between atoms: C7_7  and  C9_9 
REMARK    5  A    between atoms: C18_18  and  C20_20 
REMARK    6  A    between atoms: C20_20  and  O2_22 
REMARK    7  A    between atoms: C21_23  and  O3_24 
REMARK    8  A    between atoms: O3_24  and  C22_25 
REMARK    9  A    between atoms: C23_27  and  C24_28 
REMARK   10  A    between atoms: C24_28  and  O5_29 
REMARK   11  A    between atoms: C25_30  and  O6_31 
REMARK   12  A    between atoms: C26_32  and  O7_33 
REMARK   13  A    between atoms: C28_35  and  O8_36 
ROOT
HETATM    1  C9  UNL     1      -7.785  46.438 -26.413  1.00  0.00    -0.002 C 
HETATM    2  C10 UNL     1      -9.199  45.892 -26.076  1.00  0.00     0.006 C 
HETATM    3  C11 UNL     1      -9.948  45.674 -27.401  1.00  0.00     0.011 C 
HETATM    4  C12 UNL     1      -8.882  45.842 -28.499  1.00  0.00    -0.032 C 
HETATM    5  C13 UNL     1      -8.192  44.449 -28.651  1.00  0.00     0.016 C 
HETATM    6  C14 UNL     1      -9.441  46.329 -29.866  1.00  0.00     0.004 C 
HETATM    7  C15 UNL     1     -10.221  45.260 -30.633  1.00  0.00     0.007 C 
HETATM    8  C16 UNL     1     -10.855  45.835 -31.892  1.00  0.00     0.007 C 
HETATM    9  C17 UNL     1      -9.874  46.431 -32.931  1.00  0.00     0.018 C 
HETATM   10  C18 UNL     1      -9.654  45.580 -34.238  1.00  0.00     0.072 C 
HETATM   11  C19 UNL     1     -11.022  45.205 -34.875  1.00  0.00     0.030 C 
HETATM   12  C21 UNL     1      -8.803  46.409 -35.274  1.00  0.00     0.146 C 
HETATM   13  C27 UNL     1      -7.865  47.443 -34.636  1.00  0.00     0.066 C 
HETATM   14  C28 UNL     1      -7.391  47.044 -33.255  1.00  0.00     0.130 C 
HETATM   15  C29 UNL     1      -8.571  46.986 -32.297  1.00  0.00    -0.001 A 
HETATM   16  C30 UNL     1      -8.752  48.238 -31.460  1.00  0.00     0.024 A 
HETATM   17  C31 UNL     1      -8.350  46.963 -30.755  1.00  0.00    -0.025 A 
HETATM   18  C32 UNL     1      -6.913  46.889 -30.240  1.00  0.00     0.011 C 
HETATM   19  C33 UNL     1      -6.699  47.074 -28.726  1.00  0.00     0.011 C 
HETATM   20  C34 UNL     1      -7.969  46.962 -27.874  1.00  0.00    -0.032 C 
HETATM   21  C35 UNL     1      -8.642  48.367 -27.821  1.00  0.00     0.016 C 
ENDROOT
BRANCH  12  22
HETATM   22  O3  UNL     1      -9.688  47.105 -36.183  1.00  0.00    -0.352 OA
BRANCH  22  23
HETATM   23  C22 UNL     1      -9.523  46.735 -37.552  1.00  0.00     0.292 C 
HETATM   24  O4  UNL     1      -8.213  47.071 -38.037  1.00  0.00    -0.348 OA
HETATM   25  C23 UNL     1      -8.339  48.130 -39.011  1.00  0.00     0.179 C 
HETATM   26  C25 UNL     1      -9.719  47.914 -39.612  1.00  0.00     0.182 C 
HETATM   27  C26 UNL     1     -10.539  47.531 -38.393  1.00  0.00     0.204 C 
BRANCH  25  28
HETATM   28  C24 UNL     1      -8.145  49.500 -38.342  1.00  0.00     0.198 C 
BRANCH  28  29
HETATM   29  O5  UNL     1      -9.406  50.019 -37.917  1.00  0.00    -0.398 OA
HETATM   30  H39 UNL     1      -9.230  50.888 -37.516  1.00  0.00     0.209 HD
ENDBRANCH  28  29
ENDBRANCH  25  28
BRANCH  26  31
HETATM   31  O6  UNL     1     -10.260  49.038 -40.292  1.00  0.00    -0.390 OA
HETATM   32  H41 UNL     1     -11.208  48.830 -40.439  1.00  0.00     0.210 HD
ENDBRANCH  26  31
BRANCH  27  33
HETATM   33  O7  UNL     1     -11.720  46.824 -38.790  1.00  0.00    -0.388 OA
HETATM   34  H43 UNL     1     -11.527  45.873 -38.815  1.00  0.00     0.210 HD
ENDBRANCH  27  33
ENDBRANCH  22  23
ENDBRANCH  12  22
BRANCH  10  35
HETATM   35  C20 UNL     1      -8.981  44.231 -33.975  1.00  0.00     0.151 C 
HETATM   36  O1  UNL     1      -9.234  43.414 -33.106  1.00  0.00    -0.649 OA
BRANCH  35  37
HETATM   37  O2  UNL     1      -8.067  43.890 -34.910  1.00  0.00    -0.776 OA
HETATM   38  H33 UNL     1      -7.744  43.026 -34.581  1.00  0.00     0.167 HD
ENDBRANCH  35  37
ENDBRANCH  10  35
BRANCH  14  39
HETATM   39  O8  UNL     1      -6.749  45.781 -33.324  1.00  0.00    -0.395 OA
HETATM   40  H47 UNL     1      -5.984  45.814 -32.719  1.00  0.00     0.210 HD
ENDBRANCH  14  39
BRANCH   1  41
HETATM   41  C7  UNL     1      -7.217  47.370 -25.302  1.00  0.00    -0.014 C 
HETATM   42  C8  UNL     1      -8.200  48.495 -24.945  1.00  0.00     0.010 C 
BRANCH  41  43
HETATM   43  C6  UNL     1      -5.878  48.030 -25.738  1.00  0.00     0.008 C 
BRANCH  43  44
HETATM   44  C5  UNL     1      -4.940  48.344 -24.569  1.00  0.00     0.028 C 
BRANCH  44  45
HETATM   45  C4  UNL     1      -3.777  49.187 -25.019  1.00  0.00    -0.025 C 
HETATM   46  C2  UNL     1      -3.156  49.156 -26.216  1.00  0.00    -0.091 C 
HETATM   47  C1  UNL     1      -3.557  48.282 -27.370  1.00  0.00     0.042 C 
HETATM   48  C3  UNL     1      -1.971  50.045 -26.489  1.00  0.00     0.042 C 
ENDBRANCH  44  45
ENDBRANCH  43  44
ENDBRANCH  41  43
ENDBRANCH   1  41
TORSDOF 13
ENDMDL
MODEL 9
REMARK minimizedAffinity -8.13777733
REMARK CNNscore 0.210898563
REMARK CNNaffinity 5.16778851
REMARK  13 active torsions:
REMARK  status: ('A' for Active; 'I' for Inactive)
REMARK    1  A    between atoms: C4_4  and  C5_5 
REMARK    2  A    between atoms: C5_5  and  C6_6 
REMARK    3  A    between atoms: C6_6  and  C7_7 
REMARK    4  A    between atoms: C7_7  and  C9_9 
REMARK    5  A    between atoms: C18_18  and  C20_20 
REMARK    6  A    between atoms: C20_20  and  O2_22 
REMARK    7  A    between atoms: C21_23  and  O3_24 
REMARK    8  A    between atoms: O3_24  and  C22_25 
REMARK    9  A    between atoms: C23_27  and  C24_28 
REMARK   10  A    between atoms: C24_28  and  O5_29 
REMARK   11  A    between atoms: C25_30  and  O6_31 
REMARK   12  A    between atoms: C26_32  and  O7_33 
REMARK   13  A    between atoms: C28_35  and  O8_36 
ROOT
HETATM    1  C9  UNL     1     -17.901  44.482 -24.297  1.00  0.00    -0.002 C 
HETATM    2  C10 UNL     1     -17.772  42.949 -24.513  1.00  0.00     0.006 C 
HETATM    3  C11 UNL     1     -16.429  42.683 -25.214  1.00  0.00     0.011 C 
HETATM    4  C12 UNL     1     -15.676  44.025 -25.165  1.00  0.00    -0.032 C 
HETATM    5  C13 UNL     1     -14.953  44.066 -23.781  1.00  0.00     0.016 C 
HETATM    6  C14 UNL     1     -14.658  44.232 -26.322  1.00  0.00     0.004 C 
HETATM    7  C15 UNL     1     -13.390  43.387 -26.189  1.00  0.00     0.007 C 
HETATM    8  C16 UNL     1     -12.498  43.531 -27.415  1.00  0.00     0.007 C 
HETATM    9  C17 UNL     1     -11.992  44.962 -27.719  1.00  0.00     0.018 C 
HETATM   10  C18 UNL     1     -10.471  45.234 -27.411  1.00  0.00     0.072 C 
HETATM   11  C19 UNL     1      -9.582  44.147 -28.078  1.00  0.00     0.030 C 
HETATM   12  C21 UNL     1     -10.065  46.654 -27.962  1.00  0.00     0.146 C 
HETATM   13  C27 UNL     1     -11.223  47.659 -28.030  1.00  0.00     0.066 C 
HETATM   14  C28 UNL     1     -12.286  47.414 -26.981  1.00  0.00     0.130 C 
HETATM   15  C29 UNL     1     -12.958  46.072 -27.225  1.00  0.00    -0.001 A 
HETATM   16  C30 UNL     1     -14.266  46.163 -27.986  1.00  0.00     0.024 A 
HETATM   17  C31 UNL     1     -14.313  45.719 -26.542  1.00  0.00    -0.025 A 
HETATM   18  C32 UNL     1     -14.887  46.716 -25.537  1.00  0.00     0.011 C 
HETATM   19  C33 UNL     1     -16.317  46.454 -25.028  1.00  0.00     0.011 C 
HETATM   20  C34 UNL     1     -16.861  45.050 -25.317  1.00  0.00    -0.032 C 
HETATM   21  C35 UNL     1     -17.506  45.063 -26.736  1.00  0.00     0.016 C 
ENDROOT
BRANCH  12  22
HETATM   22  O3  UNL     1      -9.508  46.518 -29.291  1.00  0.00    -0.352 OA
BRANCH  22  23
HETATM   23  C22 UNL     1      -8.122  46.851 -29.377  1.00  0.00     0.292 C 
HETATM   24  O4  UNL     1      -7.894  48.243 -29.107  1.00  0.00    -0.348 OA
HETATM   25  C23 UNL     1      -7.459  48.885 -30.327  1.00  0.00     0.179 C 
HETATM   26  C25 UNL     1      -6.754  47.776 -31.093  1.00  0.00     0.182 C 
HETATM   27  C26 UNL     1      -7.651  46.582 -30.819  1.00  0.00     0.204 C 
BRANCH  25  28
HETATM   28  C24 UNL     1      -8.657  49.504 -31.064  1.00  0.00     0.198 C 
BRANCH  28  29
HETATM   29  O5  UNL     1      -8.717  50.909 -30.806  1.00  0.00    -0.398 OA
HETATM   30  H39 UNL     1      -9.495  51.247 -31.280  1.00  0.00     0.209 HD
ENDBRANCH  28  29
ENDBRANCH  25  28
BRANCH  26  31
HETATM   31  O6  UNL     1      -6.591  48.018 -32.484  1.00  0.00    -0.390 OA
HETATM   32  H41 UNL     1      -6.322  47.159 -32.875  1.00  0.00     0.210 HD
ENDBRANCH  26  31
BRANCH  27  33
HETATM   33  O7  UNL     1      -6.931  45.361 -31.029  1.00  0.00    -0.388 OA
HETATM   34  H43 UNL     1      -6.513  45.092 -30.196  1.00  0.00     0.210 HD
ENDBRANCH  27  33
ENDBRANCH  22  23
ENDBRANCH  12  22
BRANCH  10  35
HETATM   35  C20 UNL     1     -10.128  45.138 -25.923  1.00  0.00     0.151 C 
HETATM   36  O1  UNL     1     -10.850  44.803 -24.999  1.00  0.00    -0.649 OA
BRANCH  35  37
HETATM   37  O2  UNL     1      -8.822  45.355 -25.652  1.00  0.00    -0.776 OA
HETATM   38  H33 UNL     1      -8.793  45.263 -24.678  1.00  0.00     0.167 HD
ENDBRANCH  35  37
ENDBRANCH  10  35
BRANCH  14  39
HETATM   39  O8  UNL     1     -11.692  47.441 -25.693  1.00  0.00    -0.395 OA
HETATM   40  H47 UNL     1     -12.320  47.889 -25.096  1.00  0.00     0.210 HD
ENDBRANCH  14  39
BRANCH   1  41
HETATM   41  C7  UNL     1     -19.380  44.972 -24.316  1.00  0.00    -0.014 C 
HETATM   42  C8  UNL     1     -19.475  46.484 -24.569  1.00  0.00     0.010 C 
BRANCH  41  43
HETATM   43  C6  UNL     1     -20.100  44.668 -22.972  1.00  0.00     0.008 C 
BRANCH  43  44
HETATM   44  C5  UNL     1     -19.148  44.560 -21.777  1.00  0.00     0.028 C 
BRANCH  44  45
HETATM   45  C4  UNL     1     -18.935  45.902 -21.131  1.00  0.00    -0.025 C 
HETATM   46  C2  UNL     1     -19.150  46.235 -19.842  1.00  0.00    -0.091 C 
HETATM   47  C1  UNL     1     -19.607  45.284 -18.773  1.00  0.00     0.042 C 
HETATM   48  C3  UNL     1     -18.923  47.646 -19.366  1.00  0.00     0.042 C 
ENDBRANCH  44  45
ENDBRANCH  43  44
ENDBRANCH  41  43
ENDBRANCH   1  41
TORSDOF 13
ENDMDL
