MODEL 1
REMARK minimizedAffinity -8.4940567
REMARK CNNscore 0.433794826
REMARK CNNaffinity 7.3693738
REMARK  9 active torsions:
REMARK  status: ('A' for Active; 'I' for Inactive)
REMARK    1  A    between atoms: C13_13  and  S1_14 
REMARK    2  A    between atoms: C22_26  and  C23_27 
REMARK    3  A    between atoms: C23_27  and  O4_28 
REMARK    4  A    between atoms: C29_34  and  O5_35 
REMARK    5  A    between atoms: C41_48  and  C42_49 
REMARK    6  A    between atoms: C41_48  and  N1_53 
REMARK    7  A    between atoms: C42_49  and  C43_50 
REMARK    8  A    between atoms: C43_50  and  C44_51 
REMARK    9  A    between atoms: C44_51  and  O7_52 
REMARK       I    between atoms: C45_55  and  N2_56 
REMARK       I    between atoms: C45_55  and  N3_57 
ROOT
HETATM    1  C1  UNL     1       2.967  13.865  18.865  1.00  0.00     0.010 C 
HETATM    2  C2  UNL     1       1.765  14.127  19.784  1.00  0.00    -0.010 C 
HETATM    3  C3  UNL     1       1.572  12.977  20.794  1.00  0.00     0.009 C 
HETATM    4  C4  UNL     1       0.700  11.802  20.320  1.00  0.00     0.039 C 
HETATM    5  C5  UNL     1       0.210  11.887  18.900  1.00  0.00    -0.049 C 
HETATM    6  C6  UNL     1      -0.157  10.716  18.210  1.00  0.00     0.044 C 
HETATM    7  C7  UNL     1      -0.580  10.773  16.879  1.00  0.00     0.072 C 
HETATM    8  C8  UNL     1      -0.488  11.977  16.194  1.00  0.00     0.037 C 
HETATM    9  C9  UNL     1      -0.185  13.150  16.887  1.00  0.00     0.011 C 
HETATM   10  C10 UNL     1       0.107  13.128  18.253  1.00  0.00    -0.047 C 
HETATM   11  C11 UNL     1       0.456  14.412  18.979  1.00  0.00     0.024 C 
HETATM   12  C12 UNL     1      -0.628  14.948  19.957  1.00  0.00     0.033 C 
HETATM   13  C13 UNL     1      -1.942  15.637  19.472  1.00  0.00     0.139 C 
HETATM   14  C14 UNL     1      -3.235  14.771  19.672  1.00  0.00     0.038 C 
HETATM   15  C15 UNL     1      -3.965  15.242  20.945  1.00  0.00    -0.014 C 
HETATM   16  C16 UNL     1      -5.166  15.860  20.902  1.00  0.00    -0.050 C 
HETATM   17  C17 UNL     1      -5.775  16.138  19.560  1.00  0.00     0.042 C 
HETATM   18  C18 UNL     1      -5.761  14.786  18.854  1.00  0.00     0.001 C 
HETATM   19  C19 UNL     1      -6.474  13.664  19.700  1.00  0.00     0.037 C 
HETATM   20  C20 UNL     1      -7.444  14.133  20.829  1.00  0.00     0.123 C 
HETATM   21  C21 UNL     1      -8.366  12.964  21.257  1.00  0.00     0.039 C 
HETATM   22  C22 UNL     1      -9.546  13.384  22.192  1.00  0.00     0.023 C 
HETATM   23  C24 UNL     1      -9.273  13.149  23.697  1.00  0.00     0.101 C 
HETATM   24  C25 UNL     1      -8.327  14.121  24.257  1.00  0.00    -0.101 C 
HETATM   25  C26 UNL     1      -7.468  14.913  24.533  1.00  0.00    -0.066 C 
HETATM   26  C27 UNL     1      -6.359  15.822  24.598  1.00  0.00     0.029 A 
HETATM   27  C28 UNL     1      -5.949  16.282  25.856  1.00  0.00     0.057 A 
HETATM   28  C29 UNL     1      -4.908  17.196  25.953  1.00  0.00     0.067 A 
HETATM   29  C30 UNL     1      -4.265  17.666  24.815  1.00  0.00     0.037 A 
HETATM   30  C31 UNL     1      -4.670  17.208  23.559  1.00  0.00     0.014 A 
HETATM   31  C32 UNL     1      -5.704  16.258  23.419  1.00  0.00    -0.006 A 
HETATM   32  C33 UNL     1      -6.177  15.848  22.019  1.00  0.00     0.185 C 
HETATM   33  O6  UNL     1      -6.698  14.507  21.998  1.00  0.00    -0.371 OA
HETATM   34  C34 UNL     1      -4.256  14.519  18.480  1.00  0.00     0.030 C 
HETATM   35  C35 UNL     1      -4.081  13.178  17.773  1.00  0.00    -0.050 C 
HETATM   36  C36 UNL     1      -3.903  11.975  18.462  1.00  0.00     0.133 A 
HETATM   37  C37 UNL     1      -3.534  10.811  17.785  1.00  0.00     0.138 A 
HETATM   38  C38 UNL     1      -3.307  10.825  16.396  1.00  0.00    -0.000 C 
HETATM   39  C39 UNL     1      -3.674  11.981  15.690  1.00  0.00     0.010 C 
HETATM   40  C40 UNL     1      -4.036  13.146  16.374  1.00  0.00     0.006 C 
HETATM   41  C41 UNL     1      -2.469   9.670  15.771  1.00  0.00     0.169 C 
HETATM   42  O8  UNL     1      -1.099   9.623  16.331  1.00  0.00    -0.316 OA
HETATM   43 NA1  UNL     1      -3.543  12.955  19.353  1.00  0.00    -0.401 Na
ATOM     44  HA1 UNL     1      -3.409  13.740  19.992  1.00  0.00     0.154 HD
ENDROOT
BRANCH  41  45
HETATM   45  C42 UNL     1      -2.306   9.791  14.218  1.00  0.00     0.069 C 
BRANCH  45  46
HETATM   46  C43 UNL     1      -0.896   9.560  13.645  1.00  0.00     0.031 C 
BRANCH  46  47
HETATM   47  C44 UNL     1      -0.788   8.648  12.430  1.00  0.00     0.164 C 
BRANCH  47  48
HETATM   48  O7  UNL     1      -1.440   9.214  11.301  1.00  0.00    -0.401 OA
HETATM   49  H48 UNL     1      -2.397   9.127  11.496  1.00  0.00     0.209 HD
ENDBRANCH  47  48
ENDBRANCH  46  47
ENDBRANCH  45  46
ENDBRANCH  41  45
BRANCH  41  50
HETATM   50  N1  UNL     1      -3.290   8.436  15.950  1.00  0.00    -0.336 N 
HETATM   51  C45 UNL     1      -2.767   7.273  16.041  1.00  0.00     0.124 C 
HETATM   52  N2  UNL     1      -1.484   6.883  15.887  1.00  0.00    -0.279 NA
HETATM   53  N3  UNL     1      -3.576   6.214  16.263  1.00  0.00    -0.279 NA
HETATM   54  H49 UNL     1      -0.854   7.668  15.738  1.00  0.00     0.126 HD
HETATM   55  H50 UNL     1      -1.126   6.243  16.580  1.00  0.00     0.126 HD
HETATM   56  H51 UNL     1      -3.191   5.457  16.805  1.00  0.00     0.126 HD
HETATM   57  H52 UNL     1      -4.498   6.496  16.575  1.00  0.00     0.126 HD
ATOM     58  H1  UNL     1      -4.304   8.523  16.001  1.00  0.00     0.165 HD
ENDBRANCH  41  50
BRANCH  13  59
HETATM   59  S1  UNL     1      -1.796  16.696  18.050  1.00  0.00     0.106 S 
HETATM   60  O1  UNL     1      -0.496  17.340  18.226  1.00  0.00    -0.595 OA
HETATM   61  O2  UNL     1      -2.933  17.605  18.121  1.00  0.00    -0.595 OA
HETATM   62  O3  UNL     1      -1.837  15.759  16.928  1.00  0.00    -0.595 OA
ENDBRANCH  13  59
BRANCH  22  63
HETATM   63  C23 UNL     1     -10.812  12.594  21.811  1.00  0.00     0.169 C 
BRANCH  63  64
HETATM   64  O4  UNL     1     -10.544  11.196  21.834  1.00  0.00    -0.400 OA
HETATM   65  H29 UNL     1     -11.383  10.742  21.655  1.00  0.00     0.209 HD
ENDBRANCH  63  64
ENDBRANCH  22  63
BRANCH  28  66
HETATM   66  O5  UNL     1      -4.551  17.629  27.197  1.00  0.00    -0.361 OA
HETATM   67  H33 UNL     1      -3.835  18.277  27.098  1.00  0.00     0.217 HD
ENDBRANCH  28  66
TORSDOF 9
ENDMDL
MODEL 2
REMARK minimizedAffinity -7.40165424
REMARK CNNscore 0.424371868
REMARK CNNaffinity 7.24509811
REMARK  9 active torsions:
REMARK  status: ('A' for Active; 'I' for Inactive)
REMARK    1  A    between atoms: C13_13  and  S1_14 
REMARK    2  A    between atoms: C22_26  and  C23_27 
REMARK    3  A    between atoms: C23_27  and  O4_28 
REMARK    4  A    between atoms: C29_34  and  O5_35 
REMARK    5  A    between atoms: C41_48  and  C42_49 
REMARK    6  A    between atoms: C41_48  and  N1_53 
REMARK    7  A    between atoms: C42_49  and  C43_50 
REMARK    8  A    between atoms: C43_50  and  C44_51 
REMARK    9  A    between atoms: C44_51  and  O7_52 
REMARK       I    between atoms: C45_55  and  N2_56 
REMARK       I    between atoms: C45_55  and  N3_57 
ROOT
HETATM    1  C1  UNL     1       3.992   9.439  22.348  1.00  0.00     0.010 C 
HETATM    2  C2  UNL     1       4.395  10.762  23.017  1.00  0.00    -0.010 C 
HETATM    3  C3  UNL     1       3.178  11.695  23.186  1.00  0.00     0.009 C 
HETATM    4  C4  UNL     1       2.868  12.620  21.996  1.00  0.00     0.039 C 
HETATM    5  C5  UNL     1       3.744  12.441  20.786  1.00  0.00    -0.049 C 
HETATM    6  C6  UNL     1       3.285  12.844  19.518  1.00  0.00     0.044 C 
HETATM    7  C7  UNL     1       4.071  12.651  18.378  1.00  0.00     0.072 C 
HETATM    8  C8  UNL     1       5.245  11.919  18.486  1.00  0.00     0.037 C 
HETATM    9  C9  UNL     1       5.736  11.571  19.746  1.00  0.00     0.011 C 
HETATM   10  C10 UNL     1       5.024  11.880  20.909  1.00  0.00    -0.047 C 
HETATM   11  C11 UNL     1       5.566  11.471  22.264  1.00  0.00     0.024 C 
HETATM   12  C12 UNL     1       6.102  12.632  23.152  1.00  0.00     0.033 C 
HETATM   13  C13 UNL     1       7.461  13.350  22.879  1.00  0.00     0.139 C 
HETATM   14  C14 UNL     1       7.318  14.813  22.330  1.00  0.00     0.038 C 
HETATM   15  C15 UNL     1       7.515  15.808  23.491  1.00  0.00    -0.014 C 
HETATM   16  C16 UNL     1       8.586  16.629  23.563  1.00  0.00    -0.050 C 
HETATM   17  C17 UNL     1       9.638  16.523  22.499  1.00  0.00     0.042 C 
HETATM   18  C18 UNL     1       8.862  16.648  21.192  1.00  0.00     0.001 C 
HETATM   19  C19 UNL     1       7.981  17.953  21.143  1.00  0.00     0.037 C 
HETATM   20  C20 UNL     1       8.350  19.098  22.139  1.00  0.00     0.123 C 
HETATM   21  C21 UNL     1       7.701  20.428  21.683  1.00  0.00     0.039 C 
HETATM   22  C22 UNL     1       8.210  21.689  22.454  1.00  0.00     0.023 C 
HETATM   23  C24 UNL     1       7.285  22.137  23.611  1.00  0.00     0.101 C 
HETATM   24  C25 UNL     1       7.367  21.246  24.775  1.00  0.00    -0.101 C 
HETATM   25  C26 UNL     1       7.465  20.372  25.592  1.00  0.00    -0.066 C 
HETATM   26  C27 UNL     1       7.622  19.161  26.346  1.00  0.00     0.029 A 
HETATM   27  C28 UNL     1       7.275  19.174  27.703  1.00  0.00     0.057 A 
HETATM   28  C29 UNL     1       7.454  18.033  28.474  1.00  0.00     0.067 A 
HETATM   29  C30 UNL     1       7.978  16.873  27.917  1.00  0.00     0.037 A 
HETATM   30  C31 UNL     1       8.323  16.856  26.563  1.00  0.00     0.014 A 
HETATM   31  C32 UNL     1       8.129  17.985  25.739  1.00  0.00    -0.006 A 
HETATM   32  C33 UNL     1       8.603  17.954  24.281  1.00  0.00     0.185 C 
HETATM   33  O6  UNL     1       7.812  18.812  23.439  1.00  0.00    -0.371 OA
HETATM   34  C34 UNL     1       8.090  15.286  21.025  1.00  0.00     0.030 C 
HETATM   35  C35 UNL     1       7.248  15.270  19.752  1.00  0.00    -0.050 C 
HETATM   36  C36 UNL     1       5.944  15.771  19.699  1.00  0.00     0.133 A 
HETATM   37  C37 UNL     1       5.136  15.545  18.584  1.00  0.00     0.138 A 
HETATM   38  C38 UNL     1       5.603  14.783  17.496  1.00  0.00    -0.000 C 
HETATM   39  C39 UNL     1       6.966  14.451  17.474  1.00  0.00     0.010 C 
HETATM   40  C40 UNL     1       7.770  14.675  18.597  1.00  0.00     0.006 C 
HETATM   41  C41 UNL     1       4.557  14.171  16.517  1.00  0.00     0.169 C 
HETATM   42  O8  UNL     1       3.643  13.235  17.209  1.00  0.00    -0.316 OA
HETATM   43 NA1  UNL     1       6.177  15.516  21.028  1.00  0.00    -0.401 Na
ATOM     44  HA1 UNL     1       6.466  15.414  22.001  1.00  0.00     0.154 HD
ENDROOT
BRANCH  41  45
HETATM   45  C42 UNL     1       5.205  13.365  15.340  1.00  0.00     0.069 C 
BRANCH  45  46
HETATM   46  C43 UNL     1       4.277  12.433  14.540  1.00  0.00     0.031 C 
BRANCH  46  47
HETATM   47  C44 UNL     1       3.894  12.884  13.137  1.00  0.00     0.164 C 
BRANCH  47  48
HETATM   48  O7  UNL     1       4.828  12.421  12.172  1.00  0.00    -0.401 OA
HETATM   49  H48 UNL     1       5.628  12.969  12.316  1.00  0.00     0.209 HD
ENDBRANCH  47  48
ENDBRANCH  46  47
ENDBRANCH  45  46
ENDBRANCH  41  45
BRANCH  41  50
HETATM   50  N1  UNL     1       3.911  15.334  15.841  1.00  0.00    -0.336 N 
HETATM   51  C45 UNL     1       4.525  16.054  14.981  1.00  0.00     0.124 C 
HETATM   52  N2  UNL     1       5.818  16.033  14.595  1.00  0.00    -0.279 NA
HETATM   53  N3  UNL     1       3.849  17.053  14.370  1.00  0.00    -0.279 NA
HETATM   54  H49 UNL     1       6.342  15.277  15.029  1.00  0.00     0.126 HD
HETATM   55  H50 UNL     1       5.989  16.084  13.602  1.00  0.00     0.126 HD
HETATM   56  H51 UNL     1       4.115  17.263  13.421  1.00  0.00     0.126 HD
HETATM   57  H52 UNL     1       2.846  16.964  14.490  1.00  0.00     0.126 HD
ATOM     58  H1  UNL     1       2.945  15.564  16.073  1.00  0.00     0.165 HD
ENDBRANCH  41  50
BRANCH  13  59
HETATM   59  S1  UNL     1       8.796  12.318  22.315  1.00  0.00     0.106 S 
HETATM   60  O1  UNL     1       9.980  13.159  22.475  1.00  0.00    -0.595 OA
HETATM   61  O2  UNL     1       8.476  11.984  20.933  1.00  0.00    -0.595 OA
HETATM   62  O3  UNL     1       8.756  11.183  23.237  1.00  0.00    -0.595 OA
ENDBRANCH  13  59
BRANCH  22  63
HETATM   63  C23 UNL     1       8.349  22.870  21.475  1.00  0.00     0.169 C 
BRANCH  63  64
HETATM   64  O4  UNL     1       8.845  22.412  20.221  1.00  0.00    -0.400 OA
HETATM   65  H29 UNL     1       8.851  23.176  19.621  1.00  0.00     0.209 HD
ENDBRANCH  63  64
ENDBRANCH  22  63
BRANCH  28  66
HETATM   66  O5  UNL     1       7.117  18.093  29.795  1.00  0.00    -0.361 OA
HETATM   67  H33 UNL     1       7.323  17.235  30.199  1.00  0.00     0.217 HD
ENDBRANCH  28  66
TORSDOF 9
ENDMDL
MODEL 3
REMARK minimizedAffinity -6.87193251
REMARK CNNscore 0.224570736
REMARK CNNaffinity 6.89966202
REMARK  9 active torsions:
REMARK  status: ('A' for Active; 'I' for Inactive)
REMARK    1  A    between atoms: C13_13  and  S1_14 
REMARK    2  A    between atoms: C22_26  and  C23_27 
REMARK    3  A    between atoms: C23_27  and  O4_28 
REMARK    4  A    between atoms: C29_34  and  O5_35 
REMARK    5  A    between atoms: C41_48  and  C42_49 
REMARK    6  A    between atoms: C41_48  and  N1_53 
REMARK    7  A    between atoms: C42_49  and  C43_50 
REMARK    8  A    between atoms: C43_50  and  C44_51 
REMARK    9  A    between atoms: C44_51  and  O7_52 
REMARK       I    between atoms: C45_55  and  N2_56 
REMARK       I    between atoms: C45_55  and  N3_57 
ROOT
HETATM    1  C1  UNL     1       5.322  12.906  21.321  1.00  0.00     0.010 C 
HETATM    2  C2  UNL     1       3.889  13.289  21.720  1.00  0.00    -0.010 C 
HETATM    3  C3  UNL     1       3.169  12.113  22.410  1.00  0.00     0.009 C 
HETATM    4  C4  UNL     1       2.436  11.131  21.480  1.00  0.00     0.039 C 
HETATM    5  C5  UNL     1       2.581  11.399  20.006  1.00  0.00    -0.049 C 
HETATM    6  C6  UNL     1       2.393  10.357  19.079  1.00  0.00     0.044 C 
HETATM    7  C7  UNL     1       2.560  10.580  17.709  1.00  0.00     0.072 C 
HETATM    8  C8  UNL     1       3.063  11.801  17.282  1.00  0.00     0.037 C 
HETATM    9  C9  UNL     1       3.192  12.856  18.187  1.00  0.00     0.011 C 
HETATM   10  C10 UNL     1       2.897  12.685  19.543  1.00  0.00    -0.047 C 
HETATM   11  C11 UNL     1       3.067  13.839  20.511  1.00  0.00     0.024 C 
HETATM   12  C12 UNL     1       1.748  14.468  21.046  1.00  0.00     0.033 C 
HETATM   13  C13 UNL     1       0.836  15.392  20.180  1.00  0.00     0.139 C 
HETATM   14  C14 UNL     1      -0.517  14.733  19.739  1.00  0.00     0.038 C 
HETATM   15  C15 UNL     1      -1.642  15.219  20.673  1.00  0.00    -0.014 C 
HETATM   16  C16 UNL     1      -2.640  16.023  20.244  1.00  0.00    -0.050 C 
HETATM   17  C17 UNL     1      -2.612  16.495  18.821  1.00  0.00     0.042 C 
HETATM   18  C18 UNL     1      -2.469  15.214  18.004  1.00  0.00     0.001 C 
HETATM   19  C19 UNL     1      -3.590  14.161  18.345  1.00  0.00     0.037 C 
HETATM   20  C20 UNL     1      -4.875  14.694  19.053  1.00  0.00     0.123 C 
HETATM   21  C21 UNL     1      -6.020  13.660  18.925  1.00  0.00     0.039 C 
HETATM   22  C22 UNL     1      -7.421  14.193  19.368  1.00  0.00     0.023 C 
HETATM   23  C24 UNL     1      -7.816  13.805  20.814  1.00  0.00     0.101 C 
HETATM   24  C25 UNL     1      -7.074  14.569  21.824  1.00  0.00    -0.101 C 
HETATM   25  C26 UNL     1      -6.316  15.190  22.518  1.00  0.00    -0.066 C 
HETATM   26  C27 UNL     1      -5.233  15.902  23.133  1.00  0.00     0.029 A 
HETATM   27  C28 UNL     1      -5.321  16.195  24.500  1.00  0.00     0.057 A 
HETATM   28  C29 UNL     1      -4.312  16.920  25.119  1.00  0.00     0.067 A 
HETATM   29  C30 UNL     1      -3.210  17.364  24.399  1.00  0.00     0.037 A 
HETATM   30  C31 UNL     1      -3.118  17.072  23.036  1.00  0.00     0.014 A 
HETATM   31  C32 UNL     1      -4.107  16.313  22.376  1.00  0.00    -0.006 A 
HETATM   32  C33 UNL     1      -4.013  16.091  20.862  1.00  0.00     0.185 C 
HETATM   33  O6  UNL     1      -4.632  14.855  20.459  1.00  0.00    -0.371 OA
HETATM   34  C34 UNL     1      -0.984  14.737  18.220  1.00  0.00     0.030 C 
HETATM   35  C35 UNL     1      -0.694  13.442  17.467  1.00  0.00    -0.050 C 
HETATM   36  C36 UNL     1      -0.954  12.178  18.004  1.00  0.00     0.133 A 
HETATM   37  C37 UNL     1      -0.480  11.024  17.378  1.00  0.00     0.138 A 
HETATM   38  C38 UNL     1       0.294  11.104  16.205  1.00  0.00    -0.000 C 
HETATM   39  C39 UNL     1       0.385  12.354  15.572  1.00  0.00     0.010 C 
HETATM   40  C40 UNL     1      -0.086  13.508  16.207  1.00  0.00     0.006 C 
HETATM   41  C41 UNL     1       1.173   9.880  15.812  1.00  0.00     0.169 C 
HETATM   42  O8  UNL     1       2.180   9.573  16.854  1.00  0.00    -0.316 OA
HETATM   43 NA1  UNL     1      -0.877  13.019  19.086  1.00  0.00    -0.401 Na
ATOM     44  HA1 UNL     1      -0.925  13.722  19.824  1.00  0.00     0.154 HD
ENDROOT
BRANCH  41  45
HETATM   45  C42 UNL     1       1.969  10.088  14.479  1.00  0.00     0.069 C 
BRANCH  45  46
HETATM   46  C43 UNL     1       1.597   9.176  13.296  1.00  0.00     0.031 C 
BRANCH  46  47
HETATM   47  C44 UNL     1       2.643   8.162  12.855  1.00  0.00     0.164 C 
BRANCH  47  48
HETATM   48  O7  UNL     1       3.284   7.562  13.973  1.00  0.00    -0.401 OA
HETATM   49  H48 UNL     1       3.867   8.264  14.332  1.00  0.00     0.209 HD
ENDBRANCH  47  48
ENDBRANCH  46  47
ENDBRANCH  45  46
ENDBRANCH  41  45
BRANCH  41  50
HETATM   50  N1  UNL     1       0.213   8.784  15.488  1.00  0.00    -0.336 N 
HETATM   51  C45 UNL     1       0.381   7.584  15.896  1.00  0.00     0.124 C 
HETATM   52  N2  UNL     1       1.423   7.026  16.547  1.00  0.00    -0.279 NA
HETATM   53  N3  UNL     1      -0.567   6.663  15.610  1.00  0.00    -0.279 NA
HETATM   54  H49 UNL     1       2.140   7.705  16.789  1.00  0.00     0.126 HD
HETATM   55  H50 UNL     1       1.194   6.430  17.329  1.00  0.00     0.126 HD
HETATM   56  H51 UNL     1      -0.705   5.932  16.290  1.00  0.00     0.126 HD
HETATM   57  H52 UNL     1      -1.434   7.090  15.304  1.00  0.00     0.126 HD
ATOM     58  H1  UNL     1      -0.607   8.999  14.921  1.00  0.00     0.165 HD
ENDBRANCH  41  50
BRANCH  13  59
HETATM   59  S1  UNL     1       1.673  16.518  19.084  1.00  0.00     0.106 S 
HETATM   60  O1  UNL     1       2.852  16.931  19.842  1.00  0.00    -0.595 OA
HETATM   61  O2  UNL     1       0.720  17.588  18.821  1.00  0.00    -0.595 OA
HETATM   62  O3  UNL     1       1.986  15.685  17.923  1.00  0.00    -0.595 OA
ENDBRANCH  13  59
BRANCH  22  63
HETATM   63  C23 UNL     1      -8.504  13.647  18.419  1.00  0.00     0.169 C 
BRANCH  63  64
HETATM   64  O4  UNL     1      -8.042  13.685  17.073  1.00  0.00    -0.400 OA
HETATM   65  H29 UNL     1      -8.727  13.270  16.524  1.00  0.00     0.209 HD
ENDBRANCH  63  64
ENDBRANCH  22  63
BRANCH  28  66
HETATM   66  O5  UNL     1      -4.445  17.197  26.449  1.00  0.00    -0.361 OA
HETATM   67  H33 UNL     1      -3.681  17.727  26.726  1.00  0.00     0.217 HD
ENDBRANCH  28  66
TORSDOF 9
ENDMDL
MODEL 4
REMARK minimizedAffinity -7.39463472
REMARK CNNscore 0.158973768
REMARK CNNaffinity 6.78458071
REMARK  9 active torsions:
REMARK  status: ('A' for Active; 'I' for Inactive)
REMARK    1  A    between atoms: C13_13  and  S1_14 
REMARK    2  A    between atoms: C22_26  and  C23_27 
REMARK    3  A    between atoms: C23_27  and  O4_28 
REMARK    4  A    between atoms: C29_34  and  O5_35 
REMARK    5  A    between atoms: C41_48  and  C42_49 
REMARK    6  A    between atoms: C41_48  and  N1_53 
REMARK    7  A    between atoms: C42_49  and  C43_50 
REMARK    8  A    between atoms: C43_50  and  C44_51 
REMARK    9  A    between atoms: C44_51  and  O7_52 
REMARK       I    between atoms: C45_55  and  N2_56 
REMARK       I    between atoms: C45_55  and  N3_57 
ROOT
HETATM    1  C1  UNL     1      -4.930  12.336  16.193  1.00  0.00     0.010 C 
HETATM    2  C2  UNL     1      -3.824  12.091  17.231  1.00  0.00    -0.010 C 
HETATM    3  C3  UNL     1      -3.856  13.158  18.344  1.00  0.00     0.009 C 
HETATM    4  C4  UNL     1      -3.044  14.437  18.074  1.00  0.00     0.039 C 
HETATM    5  C5  UNL     1      -2.385  14.517  16.723  1.00  0.00    -0.049 C 
HETATM    6  C6  UNL     1      -2.047  15.770  16.178  1.00  0.00     0.044 C 
HETATM    7  C7  UNL     1      -1.469  15.865  14.909  1.00  0.00     0.072 C 
HETATM    8  C8  UNL     1      -1.371  14.723  14.126  1.00  0.00     0.037 C 
HETATM    9  C9  UNL     1      -1.646  13.472  14.682  1.00  0.00     0.011 C 
HETATM   10  C10 UNL     1      -2.097  13.350  16.000  1.00  0.00    -0.047 C 
HETATM   11  C11 UNL     1      -2.411  11.984  16.574  1.00  0.00     0.024 C 
HETATM   12  C12 UNL     1      -1.404  11.451  17.634  1.00  0.00     0.033 C 
HETATM   13  C13 UNL     1       0.014  10.916  17.264  1.00  0.00     0.139 C 
HETATM   14  C14 UNL     1       1.192  11.862  17.689  1.00  0.00     0.038 C 
HETATM   15  C15 UNL     1       1.808  11.340  19.002  1.00  0.00    -0.014 C 
HETATM   16  C16 UNL     1       3.056  10.826  19.059  1.00  0.00    -0.050 C 
HETATM   17  C17 UNL     1       3.840  10.717  17.786  1.00  0.00     0.042 C 
HETATM   18  C18 UNL     1       3.787  12.121  17.191  1.00  0.00     0.001 C 
HETATM   19  C19 UNL     1       4.292  13.217  18.204  1.00  0.00     0.037 C 
HETATM   20  C20 UNL     1       5.163  12.730  19.404  1.00  0.00     0.123 C 
HETATM   21  C21 UNL     1       5.919  13.926  20.032  1.00  0.00     0.039 C 
HETATM   22  C22 UNL     1       7.014  13.521  21.071  1.00  0.00     0.023 C 
HETATM   23  C24 UNL     1       6.548  13.600  22.545  1.00  0.00     0.101 C 
HETATM   24  C25 UNL     1       5.635  12.509  22.906  1.00  0.00    -0.101 C 
HETATM   25  C26 UNL     1       4.824  11.630  23.010  1.00  0.00    -0.066 C 
HETATM   26  C27 UNL     1       3.802  10.633  22.866  1.00  0.00     0.029 A 
HETATM   27  C28 UNL     1       3.291  10.032  24.024  1.00  0.00     0.057 A 
HETATM   28  C29 UNL     1       2.333   9.033  23.920  1.00  0.00     0.067 A 
HETATM   29  C30 UNL     1       1.871   8.615  22.678  1.00  0.00     0.037 A 
HETATM   30  C31 UNL     1       2.377   9.214  21.521  1.00  0.00     0.014 A 
HETATM   31  C32 UNL     1       3.330  10.252  21.585  1.00  0.00    -0.006 A 
HETATM   32  C33 UNL     1       3.925  10.820  20.291  1.00  0.00     0.185 C 
HETATM   33  O6  UNL     1       4.322  12.196  20.439  1.00  0.00    -0.371 OA
HETATM   34  C34 UNL     1       2.317  12.299  16.656  1.00  0.00     0.030 C 
HETATM   35  C35 UNL     1       2.107  13.678  16.039  1.00  0.00    -0.050 C 
HETATM   36  C36 UNL     1       1.741  14.798  16.793  1.00  0.00     0.133 A 
HETATM   37  C37 UNL     1       1.351  15.984  16.168  1.00  0.00     0.138 A 
HETATM   38  C38 UNL     1       1.289  16.075  14.764  1.00  0.00    -0.000 C 
HETATM   39  C39 UNL     1       1.839  15.018  14.021  1.00  0.00     0.010 C 
HETATM   40  C40 UNL     1       2.223  13.830  14.652  1.00  0.00     0.006 C 
HETATM   41  C41 UNL     1       0.430  17.209  14.132  1.00  0.00     0.169 C 
HETATM   42  O8  UNL     1      -0.995  17.096  14.520  1.00  0.00    -0.316 OA
HETATM   43 NA1  UNL     1       1.370  13.717  17.553  1.00  0.00    -0.401 Na
ATOM     44  HA1 UNL     1       1.234  12.871  18.107  1.00  0.00     0.154 HD
ENDROOT
BRANCH  41  45
HETATM   45  C42 UNL     1       0.460  17.214  12.567  1.00  0.00     0.069 C 
BRANCH  45  46
HETATM   46  C43 UNL     1      -0.534  18.147  11.853  1.00  0.00     0.031 C 
BRANCH  46  47
HETATM   47  C44 UNL     1      -1.244  17.587  10.627  1.00  0.00     0.164 C 
BRANCH  47  48
HETATM   48  O7  UNL     1      -2.642  17.839  10.680  1.00  0.00    -0.401 OA
HETATM   49  H48 UNL     1      -2.980  17.228  11.368  1.00  0.00     0.209 HD
ENDBRANCH  47  48
ENDBRANCH  46  47
ENDBRANCH  45  46
ENDBRANCH  41  45
BRANCH  41  50
HETATM   50  N1  UNL     1       1.109  18.485  14.507  1.00  0.00    -0.336 N 
HETATM   51  C45 UNL     1       0.542  19.377  15.226  1.00  0.00     0.124 C 
HETATM   52  N2  UNL     1      -0.727  19.451  15.677  1.00  0.00    -0.279 NA
HETATM   53  N3  UNL     1       1.249  20.477  15.570  1.00  0.00    -0.279 NA
HETATM   54  H49 UNL     1      -1.272  18.624  15.445  1.00  0.00     0.126 HD
HETATM   55  H50 UNL     1      -0.842  19.715  16.645  1.00  0.00     0.126 HD
HETATM   56  H51 UNL     1       1.035  20.888  16.465  1.00  0.00     0.126 HD
HETATM   57  H52 UNL     1       2.243  20.356  15.417  1.00  0.00     0.126 HD
ATOM     58  H1  UNL     1       2.060  18.650  14.179  1.00  0.00     0.165 HD
ENDBRANCH  41  50
BRANCH  13  59
HETATM   59  S1  UNL     1       0.131   9.978  15.756  1.00  0.00     0.106 S 
HETATM   60  O1  UNL     1       1.333   9.167  15.941  1.00  0.00    -0.595 OA
HETATM   61  O2  UNL     1       0.227  10.964  14.688  1.00  0.00    -0.595 OA
HETATM   62  O3  UNL     1      -1.106   9.197  15.750  1.00  0.00    -0.595 OA
ENDBRANCH  13  59
BRANCH  22  63
HETATM   63  C23 UNL     1       8.240  14.440  20.912  1.00  0.00     0.169 C 
BRANCH  63  64
HETATM   64  O4  UNL     1       9.384  13.842  21.512  1.00  0.00    -0.400 OA
HETATM   65  H29 UNL     1      10.140  14.423  21.327  1.00  0.00     0.209 HD
ENDBRANCH  63  64
ENDBRANCH  22  63
BRANCH  28  66
HETATM   66  O5  UNL     1       1.873   8.465  25.073  1.00  0.00    -0.361 OA
HETATM   67  H33 UNL     1       1.235   7.773  24.835  1.00  0.00     0.217 HD
ENDBRANCH  28  66
TORSDOF 9
ENDMDL
MODEL 5
REMARK minimizedAffinity -6.63596964
REMARK CNNscore 0.13607052
REMARK CNNaffinity 5.63596201
REMARK  9 active torsions:
REMARK  status: ('A' for Active; 'I' for Inactive)
REMARK    1  A    between atoms: C13_13  and  S1_14 
REMARK    2  A    between atoms: C22_26  and  C23_27 
REMARK    3  A    between atoms: C23_27  and  O4_28 
REMARK    4  A    between atoms: C29_34  and  O5_35 
REMARK    5  A    between atoms: C41_48  and  C42_49 
REMARK    6  A    between atoms: C41_48  and  N1_53 
REMARK    7  A    between atoms: C42_49  and  C43_50 
REMARK    8  A    between atoms: C43_50  and  C44_51 
REMARK    9  A    between atoms: C44_51  and  O7_52 
REMARK       I    between atoms: C45_55  and  N2_56 
REMARK       I    between atoms: C45_55  and  N3_57 
ROOT
HETATM    1  C1  UNL     1       7.332  12.213  14.585  1.00  0.00     0.010 C 
HETATM    2  C2  UNL     1       5.952  12.881  14.676  1.00  0.00    -0.010 C 
HETATM    3  C3  UNL     1       6.082  14.408  14.855  1.00  0.00     0.009 C 
HETATM    4  C4  UNL     1       6.200  14.909  16.305  1.00  0.00     0.039 C 
HETATM    5  C5  UNL     1       6.254  13.839  17.361  1.00  0.00    -0.049 C 
HETATM    6  C6  UNL     1       6.832  14.115  18.614  1.00  0.00     0.044 C 
HETATM    7  C7  UNL     1       6.924  13.121  19.594  1.00  0.00     0.072 C 
HETATM    8  C8  UNL     1       6.577  11.818  19.265  1.00  0.00     0.037 C 
HETATM    9  C9  UNL     1       5.948  11.550  18.049  1.00  0.00     0.011 C 
HETATM   10  C10 UNL     1       5.725  12.563  17.112  1.00  0.00    -0.047 C 
HETATM   11  C11 UNL     1       5.060  12.244  15.788  1.00  0.00     0.024 C 
HETATM   12  C12 UNL     1       3.603  12.767  15.624  1.00  0.00     0.033 C 
HETATM   13  C13 UNL     1       2.381  12.112  16.340  1.00  0.00     0.139 C 
HETATM   14  C14 UNL     1       1.780  12.974  17.506  1.00  0.00     0.038 C 
HETATM   15  C15 UNL     1       0.534  13.719  16.990  1.00  0.00    -0.014 C 
HETATM   16  C16 UNL     1      -0.712  13.430  17.427  1.00  0.00    -0.050 C 
HETATM   17  C17 UNL     1      -0.880  12.309  18.408  1.00  0.00     0.042 C 
HETATM   18  C18 UNL     1       0.096  12.644  19.532  1.00  0.00     0.001 C 
HETATM   19  C19 UNL     1      -0.137  14.090  20.112  1.00  0.00     0.037 C 
HETATM   20  C20 UNL     1      -1.519  14.757  19.829  1.00  0.00     0.123 C 
HETATM   21  C21 UNL     1      -1.747  15.941  20.800  1.00  0.00     0.039 C 
HETATM   22  C22 UNL     1      -3.200  16.518  20.782  1.00  0.00     0.023 C 
HETATM   23  C24 UNL     1      -3.370  17.775  19.896  1.00  0.00     0.101 C 
HETATM   24  C25 UNL     1      -3.351  17.460  18.463  1.00  0.00    -0.101 C 
HETATM   25  C26 UNL     1      -3.206  17.057  17.341  1.00  0.00    -0.066 C 
HETATM   26  C27 UNL     1      -2.860  16.390  16.119  1.00  0.00     0.029 A 
HETATM   27  C28 UNL     1      -3.214  16.997  14.907  1.00  0.00     0.057 A 
HETATM   28  C29 UNL     1      -2.934  16.359  13.705  1.00  0.00     0.067 A 
HETATM   29  C30 UNL     1      -2.306  15.120  13.687  1.00  0.00     0.037 A 
HETATM   30  C31 UNL     1      -1.949  14.513  14.894  1.00  0.00     0.014 A 
HETATM   31  C32 UNL     1      -2.190  15.141  16.134  1.00  0.00    -0.006 A 
HETATM   32  C33 UNL     1      -1.864  14.402  17.438  1.00  0.00     0.185 C 
HETATM   33  O6  UNL     1      -1.538  15.311  18.505  1.00  0.00    -0.371 OA
HETATM   34  C34 UNL     1       1.529  12.355  18.948  1.00  0.00     0.030 C 
HETATM   35  C35 UNL     1       2.623  12.663  19.966  1.00  0.00    -0.050 C 
HETATM   36  C36 UNL     1       3.176  13.938  20.123  1.00  0.00     0.133 A 
HETATM   37  C37 UNL     1       4.314  14.131  20.907  1.00  0.00     0.138 A 
HETATM   38  C38 UNL     1       4.951  13.045  21.537  1.00  0.00    -0.000 C 
HETATM   39  C39 UNL     1       4.284  11.810  21.532  1.00  0.00     0.010 C 
HETATM   40  C40 UNL     1       3.146  11.620  20.741  1.00  0.00     0.006 C 
HETATM   41  C41 UNL     1       6.431  13.217  21.994  1.00  0.00     0.169 C 
HETATM   42  O8  UNL     1       7.325  13.508  20.851  1.00  0.00    -0.316 OA
HETATM   43 NA1  UNL     1       2.626  13.937  18.865  1.00  0.00    -0.401 Na
ATOM     44  HA1 UNL     1       2.093  13.900  17.997  1.00  0.00     0.154 HD
ENDROOT
BRANCH  41  45
HETATM   45  C42 UNL     1       7.015  11.946  22.698  1.00  0.00     0.069 C 
BRANCH  45  46
HETATM   46  C43 UNL     1       8.453  12.048  23.239  1.00  0.00     0.031 C 
BRANCH  46  47
HETATM   47  C44 UNL     1       9.532  12.463  22.248  1.00  0.00     0.164 C 
BRANCH  47  48
HETATM   48  O7  UNL     1       9.642  11.529  21.182  1.00  0.00    -0.401 OA
HETATM   49  H48 UNL     1      10.071  10.743  21.583  1.00  0.00     0.209 HD
ENDBRANCH  47  48
ENDBRANCH  46  47
ENDBRANCH  45  46
ENDBRANCH  41  45
BRANCH  41  50
HETATM   50  N1  UNL     1       6.400  14.244  23.077  1.00  0.00    -0.336 N 
HETATM   51  C45 UNL     1       6.968  15.382  22.958  1.00  0.00     0.124 C 
HETATM   52  N2  UNL     1       7.768  15.855  21.979  1.00  0.00    -0.279 NA
HETATM   53  N3  UNL     1       6.842  16.278  23.962  1.00  0.00    -0.279 NA
HETATM   54  H49 UNL     1       7.862  15.203  21.204  1.00  0.00     0.126 HD
HETATM   55  H50 UNL     1       7.575  16.792  21.658  1.00  0.00     0.126 HD
HETATM   56  H51 UNL     1       6.828  17.251  23.699  1.00  0.00     0.126 HD
HETATM   57  H52 UNL     1       6.098  16.031  24.604  1.00  0.00     0.126 HD
ATOM     58  H1  UNL     1       5.907  14.029  23.944  1.00  0.00     0.165 HD
ENDBRANCH  41  50
BRANCH  13  59
HETATM   59  S1  UNL     1       2.404  10.338  16.470  1.00  0.00     0.106 S 
HETATM   60  O1  UNL     1       3.191  10.085  17.675  1.00  0.00    -0.595 OA
HETATM   61  O2  UNL     1       3.018   9.863  15.237  1.00  0.00    -0.595 OA
HETATM   62  O3  UNL     1       0.989   9.994  16.614  1.00  0.00    -0.595 OA
ENDBRANCH  13  59
BRANCH  22  63
HETATM   63  C23 UNL     1      -3.625  16.887  22.216  1.00  0.00     0.169 C 
BRANCH  63  64
HETATM   64  O4  UNL     1      -2.959  16.051  23.157  1.00  0.00    -0.400 OA
HETATM   65  H29 UNL     1      -3.205  16.366  24.042  1.00  0.00     0.209 HD
ENDBRANCH  63  64
ENDBRANCH  22  63
BRANCH  28  66
HETATM   66  O5  UNL     1      -3.310  16.979  12.549  1.00  0.00    -0.361 OA
HETATM   67  H33 UNL     1      -3.072  16.402  11.806  1.00  0.00     0.217 HD
ENDBRANCH  28  66
TORSDOF 9
ENDMDL
MODEL 6
REMARK minimizedAffinity -6.9307003
REMARK CNNscore 0.133127451
REMARK CNNaffinity 5.4852562
REMARK  9 active torsions:
REMARK  status: ('A' for Active; 'I' for Inactive)
REMARK    1  A    between atoms: C13_13  and  S1_14 
REMARK    2  A    between atoms: C22_26  and  C23_27 
REMARK    3  A    between atoms: C23_27  and  O4_28 
REMARK    4  A    between atoms: C29_34  and  O5_35 
REMARK    5  A    between atoms: C41_48  and  C42_49 
REMARK    6  A    between atoms: C41_48  and  N1_53 
REMARK    7  A    between atoms: C42_49  and  C43_50 
REMARK    8  A    between atoms: C43_50  and  C44_51 
REMARK    9  A    between atoms: C44_51  and  O7_52 
REMARK       I    between atoms: C45_55  and  N2_56 
REMARK       I    between atoms: C45_55  and  N3_57 
ROOT
HETATM    1  C1  UNL     1      -6.421  13.719  19.159  1.00  0.00     0.010 C 
HETATM    2  C2  UNL     1      -4.984  13.386  19.588  1.00  0.00    -0.010 C 
HETATM    3  C3  UNL     1      -4.373  14.527  20.428  1.00  0.00     0.009 C 
HETATM    4  C4  UNL     1      -3.667  15.643  19.637  1.00  0.00     0.039 C 
HETATM    5  C5  UNL     1      -3.731  15.520  18.139  1.00  0.00    -0.049 C 
HETATM    6  C6  UNL     1      -3.573  16.661  17.332  1.00  0.00     0.044 C 
HETATM    7  C7  UNL     1      -3.667  16.571  15.939  1.00  0.00     0.072 C 
HETATM    8  C8  UNL     1      -4.069  15.372  15.368  1.00  0.00     0.037 C 
HETATM    9  C9  UNL     1      -4.167  14.224  16.156  1.00  0.00     0.011 C 
HETATM   10  C10 UNL     1      -3.941  14.271  17.534  1.00  0.00    -0.047 C 
HETATM   11  C11 UNL     1      -4.076  13.016  18.372  1.00  0.00     0.024 C 
HETATM   12  C12 UNL     1      -2.742  12.417  18.906  1.00  0.00     0.033 C 
HETATM   13  C13 UNL     1      -1.735  11.645  17.998  1.00  0.00     0.139 C 
HETATM   14  C14 UNL     1      -0.411  12.428  17.692  1.00  0.00     0.038 C 
HETATM   15  C15 UNL     1       0.703  11.919  18.627  1.00  0.00    -0.014 C 
HETATM   16  C16 UNL     1       1.769  11.226  18.169  1.00  0.00    -0.050 C 
HETATM   17  C17 UNL     1       1.833  10.903  16.706  1.00  0.00     0.042 C 
HETATM   18  C18 UNL     1       1.641  12.249  16.016  1.00  0.00     0.001 C 
HETATM   19  C19 UNL     1       2.674  13.329  16.515  1.00  0.00     0.037 C 
HETATM   20  C20 UNL     1       3.960  12.806  17.229  1.00  0.00     0.123 C 
HETATM   21  C21 UNL     1       5.039  13.916  17.261  1.00  0.00     0.039 C 
HETATM   22  C22 UNL     1       6.452  13.428  17.718  1.00  0.00     0.023 C 
HETATM   23  C24 UNL     1       6.758  13.687  19.212  1.00  0.00     0.101 C 
HETATM   24  C25 UNL     1       6.026  12.779  20.103  1.00  0.00    -0.101 C 
HETATM   25  C26 UNL     1       5.282  12.044  20.693  1.00  0.00    -0.066 C 
HETATM   26  C27 UNL     1       4.223  11.208  21.180  1.00  0.00     0.029 A 
HETATM   27  C28 UNL     1       4.272  10.781  22.513  1.00  0.00     0.057 A 
HETATM   28  C29 UNL     1       3.287   9.935  23.006  1.00  0.00     0.067 A 
HETATM   29  C30 UNL     1       2.249   9.501  22.192  1.00  0.00     0.037 A 
HETATM   30  C31 UNL     1       2.196   9.926  20.862  1.00  0.00     0.014 A 
HETATM   31  C32 UNL     1       3.160  10.808  20.331  1.00  0.00    -0.006 A 
HETATM   32  C33 UNL     1       3.116  11.180  18.844  1.00  0.00     0.185 C 
HETATM   33  O6  UNL     1       3.669  12.486  18.598  1.00  0.00    -0.371 OA
HETATM   34  C34 UNL     1       0.120  12.609  16.205  1.00  0.00     0.030 C 
HETATM   35  C35 UNL     1      -0.223  13.955  15.572  1.00  0.00    -0.050 C 
HETATM   36  C36 UNL     1      -0.070  15.171  16.246  1.00  0.00     0.133 A 
HETATM   37  C37 UNL     1      -0.592  16.352  15.716  1.00  0.00     0.138 A 
HETATM   38  C38 UNL     1      -1.309  16.345  14.504  1.00  0.00    -0.000 C 
HETATM   39  C39 UNL     1      -1.290  15.164  13.745  1.00  0.00     0.010 C 
HETATM   40  C40 UNL     1      -0.770  13.982  14.284  1.00  0.00     0.006 C 
HETATM   41  C41 UNL     1      -2.249  17.547  14.193  1.00  0.00     0.169 C 
HETATM   42  O8  UNL     1      -3.318  17.683  15.209  1.00  0.00    -0.316 OA
HETATM   43 NA1  UNL     1      -0.137  14.219  17.233  1.00  0.00    -0.401 Na
ATOM     44  HA1 UNL     1      -0.074  13.448  17.898  1.00  0.00     0.154 HD
ENDROOT
BRANCH  41  45
HETATM   45  C42 UNL     1      -2.972  17.429  12.808  1.00  0.00     0.069 C 
BRANCH  45  46
HETATM   46  C43 UNL     1      -4.272  18.233  12.629  1.00  0.00     0.031 C 
BRANCH  46  47
HETATM   47  C44 UNL     1      -4.424  19.014  11.331  1.00  0.00     0.164 C 
BRANCH  47  48
HETATM   48  O7  UNL     1      -3.977  18.255  10.216  1.00  0.00    -0.401 OA
HETATM   49  H48 UNL     1      -3.000  18.244  10.297  1.00  0.00     0.209 HD
ENDBRANCH  47  48
ENDBRANCH  46  47
ENDBRANCH  45  46
ENDBRANCH  41  45
BRANCH  41  50
HETATM   50  N1  UNL     1      -1.351  18.728  14.028  1.00  0.00    -0.336 N 
HETATM   51  C45 UNL     1      -0.623  18.895  12.991  1.00  0.00     0.124 C 
HETATM   52  N2  UNL     1      -0.402  18.073  11.944  1.00  0.00    -0.279 NA
HETATM   53  N3  UNL     1       0.117  20.022  12.893  1.00  0.00    -0.279 NA
HETATM   54  H49 UNL     1      -0.963  17.227  11.988  1.00  0.00     0.126 HD
HETATM   55  H50 UNL     1      -0.435  18.497  11.029  1.00  0.00     0.126 HD
HETATM   56  H51 UNL     1       0.265  20.386  11.965  1.00  0.00     0.126 HD
HETATM   57  H52 UNL     1      -0.177  20.732  13.554  1.00  0.00     0.126 HD
ATOM     58  H1  UNL     1      -1.317  19.427  14.770  1.00  0.00     0.165 HD
ENDBRANCH  41  50
BRANCH  13  59
HETATM   59  S1  UNL     1      -2.448  10.589  16.755  1.00  0.00     0.106 S 
HETATM   60  O1  UNL     1      -1.410   9.591  16.507  1.00  0.00    -0.595 OA
HETATM   61  O2  UNL     1      -2.732  11.458  15.620  1.00  0.00    -0.595 OA
HETATM   62  O3  UNL     1      -3.635  10.047  17.416  1.00  0.00    -0.595 OA
ENDBRANCH  13  59
BRANCH  22  63
HETATM   63  C23 UNL     1       7.536  14.134  16.882  1.00  0.00     0.169 C 
BRANCH  63  64
HETATM   64  O4  UNL     1       6.968  15.222  16.160  1.00  0.00    -0.400 OA
HETATM   65  H29 UNL     1       7.698  15.675  15.706  1.00  0.00     0.209 HD
ENDBRANCH  63  64
ENDBRANCH  22  63
BRANCH  28  66
HETATM   66  O5  UNL     1       3.382   9.532  24.307  1.00  0.00    -0.361 OA
HETATM   67  H33 UNL     1       2.643   8.930  24.491  1.00  0.00     0.217 HD
ENDBRANCH  28  66
TORSDOF 9
ENDMDL
MODEL 7
REMARK minimizedAffinity -6.86281824
REMARK CNNscore 0.12712796
REMARK CNNaffinity 6.34328079
REMARK  9 active torsions:
REMARK  status: ('A' for Active; 'I' for Inactive)
REMARK    1  A    between atoms: C13_13  and  S1_14 
REMARK    2  A    between atoms: C22_26  and  C23_27 
REMARK    3  A    between atoms: C23_27  and  O4_28 
REMARK    4  A    between atoms: C29_34  and  O5_35 
REMARK    5  A    between atoms: C41_48  and  C42_49 
REMARK    6  A    between atoms: C41_48  and  N1_53 
REMARK    7  A    between atoms: C42_49  and  C43_50 
REMARK    8  A    between atoms: C43_50  and  C44_51 
REMARK    9  A    between atoms: C44_51  and  O7_52 
REMARK       I    between atoms: C45_55  and  N2_56 
REMARK       I    between atoms: C45_55  and  N3_57 
ROOT
HETATM    1  C1  UNL     1     -13.778  17.998  19.741  1.00  0.00     0.010 C 
HETATM    2  C2  UNL     1     -12.484  17.656  18.987  1.00  0.00    -0.010 C 
HETATM    3  C3  UNL     1     -12.731  16.570  17.919  1.00  0.00     0.009 C 
HETATM    4  C4  UNL     1     -12.603  15.113  18.398  1.00  0.00     0.039 C 
HETATM    5  C5  UNL     1     -12.331  14.932  19.866  1.00  0.00    -0.049 C 
HETATM    6  C6  UNL     1     -12.668  13.721  20.501  1.00  0.00     0.044 C 
HETATM    7  C7  UNL     1     -12.456  13.549  21.872  1.00  0.00     0.072 C 
HETATM    8  C8  UNL     1     -12.052  14.638  22.633  1.00  0.00     0.037 C 
HETATM    9  C9  UNL     1     -11.658  15.820  22.003  1.00  0.00     0.011 C 
HETATM   10  C10 UNL     1     -11.735  15.959  20.614  1.00  0.00    -0.047 C 
HETATM   11  C11 UNL     1     -11.324  17.260  19.955  1.00  0.00     0.024 C 
HETATM   12  C12 UNL     1      -9.992  17.215  19.150  1.00  0.00     0.033 C 
HETATM   13  C13 UNL     1      -8.590  17.173  19.832  1.00  0.00     0.139 C 
HETATM   14  C14 UNL     1      -7.856  15.791  19.714  1.00  0.00     0.038 C 
HETATM   15  C15 UNL     1      -6.824  15.865  18.572  1.00  0.00    -0.014 C 
HETATM   16  C16 UNL     1      -5.493  15.822  18.799  1.00  0.00    -0.050 C 
HETATM   17  C17 UNL     1      -5.014  15.753  20.219  1.00  0.00     0.042 C 
HETATM   18  C18 UNL     1      -5.771  14.568  20.812  1.00  0.00     0.001 C 
HETATM   19  C19 UNL     1      -5.575  13.252  19.968  1.00  0.00     0.037 C 
HETATM   20  C20 UNL     1      -4.355  13.205  18.996  1.00  0.00     0.123 C 
HETATM   21  C21 UNL     1      -4.058  11.741  18.587  1.00  0.00     0.039 C 
HETATM   22  C22 UNL     1      -2.706  11.548  17.827  1.00  0.00     0.023 C 
HETATM   23  C24 UNL     1      -2.850  11.493  16.287  1.00  0.00     0.101 C 
HETATM   24  C25 UNL     1      -3.127  12.809  15.700  1.00  0.00    -0.101 C 
HETATM   25  C26 UNL     1      -3.455  13.922  15.390  1.00  0.00    -0.066 C 
HETATM   26  C27 UNL     1      -3.972  15.256  15.271  1.00  0.00     0.029 A 
HETATM   27  C28 UNL     1      -3.935  15.872  14.013  1.00  0.00     0.057 A 
HETATM   28  C29 UNL     1      -4.386  17.178  13.869  1.00  0.00     0.067 A 
HETATM   29  C30 UNL     1      -4.874  17.886  14.960  1.00  0.00     0.037 A 
HETATM   30  C31 UNL     1      -4.914  17.274  16.215  1.00  0.00     0.014 A 
HETATM   31  C32 UNL     1      -4.492  15.940  16.397  1.00  0.00    -0.006 A 
HETATM   32  C33 UNL     1      -4.469  15.335  17.806  1.00  0.00     0.185 C 
HETATM   33  O6  UNL     1      -4.663  13.908  17.783  1.00  0.00    -0.371 OA
HETATM   34  C34 UNL     1      -7.255  15.061  20.991  1.00  0.00     0.030 C 
HETATM   35  C35 UNL     1      -8.146  13.964  21.569  1.00  0.00    -0.050 C 
HETATM   36  C36 UNL     1      -8.783  13.007  20.773  1.00  0.00     0.133 A 
HETATM   37  C37 UNL     1      -9.752  12.160  21.312  1.00  0.00     0.138 A 
HETATM   38  C38 UNL     1     -10.133  12.265  22.664  1.00  0.00    -0.000 C 
HETATM   39  C39 UNL     1      -9.357  13.089  23.494  1.00  0.00     0.010 C 
HETATM   40  C40 UNL     1      -8.391  13.941  22.947  1.00  0.00     0.006 C 
HETATM   41  C41 UNL     1     -11.498  11.655  23.099  1.00  0.00     0.169 C 
HETATM   42  O8  UNL     1     -12.632  12.286  22.385  1.00  0.00    -0.316 OA
HETATM   43 NA1  UNL     1      -8.503  14.050  19.925  1.00  0.00    -0.401 Na
ATOM     44  HA1 UNL     1      -8.156  14.809  19.338  1.00  0.00     0.154 HD
ENDROOT
BRANCH  41  45
HETATM   45  C42 UNL     1     -11.794  11.820  24.628  1.00  0.00     0.069 C 
BRANCH  45  46
HETATM   46  C43 UNL     1     -13.252  12.108  25.029  1.00  0.00     0.031 C 
BRANCH  46  47
HETATM   47  C44 UNL     1     -13.473  13.162  26.105  1.00  0.00     0.164 C 
BRANCH  47  48
HETATM   48  O7  UNL     1     -13.764  12.565  27.361  1.00  0.00    -0.401 OA
HETATM   49  H48 UNL     1     -14.677  12.221  27.268  1.00  0.00     0.209 HD
ENDBRANCH  47  48
ENDBRANCH  46  47
ENDBRANCH  45  46
ENDBRANCH  41  45
BRANCH  41  50
HETATM   50  N1  UNL     1     -11.354  10.180  22.920  1.00  0.00    -0.336 N 
HETATM   51  C45 UNL     1     -11.027   9.402  23.880  1.00  0.00     0.124 C 
HETATM   52  N2  UNL     1     -10.644   9.692  25.141  1.00  0.00    -0.279 NA
HETATM   53  N3  UNL     1     -10.977   8.071  23.648  1.00  0.00    -0.279 NA
HETATM   54  H49 UNL     1     -10.692  10.688  25.343  1.00  0.00     0.126 HD
HETATM   55  H50 UNL     1     -11.064   9.141  25.874  1.00  0.00     0.126 HD
HETATM   56  H51 UNL     1     -11.217   7.469  24.420  1.00  0.00     0.126 HD
HETATM   57  H52 UNL     1     -11.444   7.815  22.786  1.00  0.00     0.126 HD
ATOM     58  H1  UNL     1     -11.521   9.778  21.997  1.00  0.00     0.165 HD
ENDBRANCH  41  50
BRANCH  13  59
HETATM   59  S1  UNL     1      -8.403  18.153  21.306  1.00  0.00     0.106 S 
HETATM   60  O1  UNL     1      -8.928  17.294  22.365  1.00  0.00    -0.595 OA
HETATM   61  O2  UNL     1      -9.178  19.364  21.071  1.00  0.00    -0.595 OA
HETATM   62  O3  UNL     1      -6.958  18.364  21.387  1.00  0.00    -0.595 OA
ENDBRANCH  13  59
BRANCH  22  63
HETATM   63  C23 UNL     1      -2.039  10.238  18.287  1.00  0.00     0.169 C 
BRANCH  63  64
HETATM   64  O4  UNL     1      -2.931   9.497  19.113  1.00  0.00    -0.400 OA
HETATM   65  H29 UNL     1      -2.494   8.654  19.320  1.00  0.00     0.209 HD
ENDBRANCH  63  64
ENDBRANCH  22  63
BRANCH  28  66
HETATM   66  O5  UNL     1      -4.318  17.745  12.630  1.00  0.00    -0.361 OA
HETATM   67  H33 UNL     1      -4.642  18.657  12.697  1.00  0.00     0.217 HD
ENDBRANCH  28  66
TORSDOF 9
ENDMDL
MODEL 8
REMARK minimizedAffinity -7.32427692
REMARK CNNscore 0.126696542
REMARK CNNaffinity 6.88727236
REMARK  9 active torsions:
REMARK  status: ('A' for Active; 'I' for Inactive)
REMARK    1  A    between atoms: C13_13  and  S1_14 
REMARK    2  A    between atoms: C22_26  and  C23_27 
REMARK    3  A    between atoms: C23_27  and  O4_28 
REMARK    4  A    between atoms: C29_34  and  O5_35 
REMARK    5  A    between atoms: C41_48  and  C42_49 
REMARK    6  A    between atoms: C41_48  and  N1_53 
REMARK    7  A    between atoms: C42_49  and  C43_50 
REMARK    8  A    between atoms: C43_50  and  C44_51 
REMARK    9  A    between atoms: C44_51  and  O7_52 
REMARK       I    between atoms: C45_55  and  N2_56 
REMARK       I    between atoms: C45_55  and  N3_57 
ROOT
HETATM    1  C1  UNL     1       5.159  13.001  18.214  1.00  0.00     0.010 C 
HETATM    2  C2  UNL     1       3.981  13.496  19.068  1.00  0.00    -0.010 C 
HETATM    3  C3  UNL     1       3.739  12.568  20.276  1.00  0.00     0.009 C 
HETATM    4  C4  UNL     1       2.801  11.373  20.031  1.00  0.00     0.039 C 
HETATM    5  C5  UNL     1       2.302  11.216  18.620  1.00  0.00    -0.049 C 
HETATM    6  C6  UNL     1       1.866   9.958  18.164  1.00  0.00     0.044 C 
HETATM    7  C7  UNL     1       1.434   9.786  16.845  1.00  0.00     0.072 C 
HETATM    8  C8  UNL     1       1.582  10.834  15.946  1.00  0.00     0.037 C 
HETATM    9  C9  UNL     1       1.954  12.098  16.406  1.00  0.00     0.011 C 
HETATM   10  C10 UNL     1       2.258  12.317  17.752  1.00  0.00    -0.047 C 
HETATM   11  C11 UNL     1       2.682  13.694  18.223  1.00  0.00     0.024 C 
HETATM   12  C12 UNL     1       1.637  14.462  19.083  1.00  0.00     0.033 C 
HETATM   13  C13 UNL     1       0.357  15.117  18.477  1.00  0.00     0.139 C 
HETATM   14  C14 UNL     1      -0.978  14.375  18.836  1.00  0.00     0.038 C 
HETATM   15  C15 UNL     1      -1.669  15.116  19.998  1.00  0.00    -0.014 C 
HETATM   16  C16 UNL     1      -2.836  15.778  19.838  1.00  0.00    -0.050 C 
HETATM   17  C17 UNL     1      -3.443  15.832  18.468  1.00  0.00     0.042 C 
HETATM   18  C18 UNL     1      -3.508  14.372  18.029  1.00  0.00     0.001 C 
HETATM   19  C19 UNL     1      -4.270  13.469  19.071  1.00  0.00     0.037 C 
HETATM   20  C20 UNL     1      -5.204  14.193  20.091  1.00  0.00     0.123 C 
HETATM   21  C21 UNL     1      -6.181  13.177  20.731  1.00  0.00     0.039 C 
HETATM   22  C22 UNL     1      -7.328  13.828  21.571  1.00  0.00     0.023 C 
HETATM   23  C24 UNL     1      -7.053  13.865  23.093  1.00  0.00     0.101 C 
HETATM   24  C25 UNL     1      -6.052  14.873  23.460  1.00  0.00    -0.101 C 
HETATM   25  C26 UNL     1      -5.149  15.656  23.582  1.00  0.00    -0.066 C 
HETATM   26  C27 UNL     1      -3.993  16.499  23.475  1.00  0.00     0.029 A 
HETATM   27  C28 UNL     1      -3.547  17.165  24.624  1.00  0.00     0.057 A 
HETATM   28  C29 UNL     1      -2.458  18.023  24.548  1.00  0.00     0.067 A 
HETATM   29  C30 UNL     1      -1.802  18.236  23.342  1.00  0.00     0.037 A 
HETATM   30  C31 UNL     1      -2.243  17.572  22.194  1.00  0.00     0.014 A 
HETATM   31  C32 UNL     1      -3.327  16.670  22.236  1.00  0.00    -0.006 A 
HETATM   32  C33 UNL     1      -3.836  16.031  20.938  1.00  0.00     0.185 C 
HETATM   33  O6  UNL     1      -4.427  14.739  21.169  1.00  0.00    -0.371 OA
HETATM   34  C34 UNL     1      -2.022  13.959  17.712  1.00  0.00     0.030 C 
HETATM   35  C35 UNL     1      -1.926  12.502  17.270  1.00  0.00    -0.050 C 
HETATM   36  C36 UNL     1      -1.805  11.441  18.174  1.00  0.00     0.133 A 
HETATM   37  C37 UNL     1      -1.505  10.153  17.727  1.00  0.00     0.138 A 
HETATM   38  C38 UNL     1      -1.291   9.893  16.360  1.00  0.00    -0.000 C 
HETATM   39  C39 UNL     1      -1.603  10.915  15.449  1.00  0.00     0.010 C 
HETATM   40  C40 UNL     1      -1.897  12.205  15.902  1.00  0.00     0.006 C 
HETATM   41  C41 UNL     1      -0.522   8.598  15.964  1.00  0.00     0.169 C 
HETATM   42  O8  UNL     1       0.849   8.584  16.523  1.00  0.00    -0.316 OA
HETATM   43 NA1  UNL     1      -1.385  12.551  18.864  1.00  0.00    -0.401 Na
ATOM     44  HA1 UNL     1      -1.203  13.433  19.344  1.00  0.00     0.154 HD
ENDROOT
BRANCH  41  45
HETATM   45  C42 UNL     1      -0.368   8.416  14.416  1.00  0.00     0.069 C 
BRANCH  45  46
HETATM   46  C43 UNL     1      -0.861   9.571  13.526  1.00  0.00     0.031 C 
BRANCH  46  47
HETATM   47  C44 UNL     1      -1.499   9.189  12.197  1.00  0.00     0.164 C 
BRANCH  47  48
HETATM   48  O7  UNL     1      -2.856   8.802  12.367  1.00  0.00    -0.401 OA
HETATM   49  H48 UNL     1      -2.812   7.921  12.795  1.00  0.00     0.209 HD
ENDBRANCH  47  48
ENDBRANCH  46  47
ENDBRANCH  45  46
ENDBRANCH  41  45
BRANCH  41  50
HETATM   50  N1  UNL     1      -1.405   7.466  16.372  1.00  0.00    -0.336 N 
HETATM   51  C45 UNL     1      -2.602   7.342  15.941  1.00  0.00     0.124 C 
HETATM   52  N2  UNL     1      -3.345   8.179  15.188  1.00  0.00    -0.279 NA
HETATM   53  N3  UNL     1      -3.315   6.254  16.312  1.00  0.00    -0.279 NA
HETATM   54  H49 UNL     1      -2.822   8.996  14.882  1.00  0.00     0.126 HD
HETATM   55  H50 UNL     1      -3.860   7.760  14.429  1.00  0.00     0.126 HD
HETATM   56  H51 UNL     1      -3.983   5.904  15.644  1.00  0.00     0.126 HD
HETATM   57  H52 UNL     1      -2.727   5.527  16.703  1.00  0.00     0.126 HD
ATOM     58  H1  UNL     1      -1.040   6.766  17.017  1.00  0.00     0.165 HD
ENDBRANCH  41  50
BRANCH  13  59
HETATM   59  S1  UNL     1       0.545  15.881  16.881  1.00  0.00     0.106 S 
HETATM   60  O1  UNL     1      -0.549  16.849  16.826  1.00  0.00    -0.595 OA
HETATM   61  O2  UNL     1       0.439  14.797  15.913  1.00  0.00    -0.595 OA
HETATM   62  O3  UNL     1       1.869  16.498  16.958  1.00  0.00    -0.595 OA
ENDBRANCH  13  59
BRANCH  22  63
HETATM   63  C23 UNL     1      -8.638  13.050  21.344  1.00  0.00     0.169 C 
BRANCH  63  64
HETATM   64  O4  UNL     1      -9.022  13.122  19.975  1.00  0.00    -0.400 OA
HETATM   65  H29 UNL     1      -9.809  12.564  19.870  1.00  0.00     0.209 HD
ENDBRANCH  63  64
ENDBRANCH  22  63
BRANCH  28  66
HETATM   66  O5  UNL     1      -2.066  18.663  25.689  1.00  0.00    -0.361 OA
HETATM   67  H33 UNL     1      -1.318  19.240  25.469  1.00  0.00     0.217 HD
ENDBRANCH  28  66
TORSDOF 9
ENDMDL
MODEL 9
REMARK minimizedAffinity -7.66759491
REMARK CNNscore 0.110122614
REMARK CNNaffinity 6.36094093
REMARK  9 active torsions:
REMARK  status: ('A' for Active; 'I' for Inactive)
REMARK    1  A    between atoms: C13_13  and  S1_14 
REMARK    2  A    between atoms: C22_26  and  C23_27 
REMARK    3  A    between atoms: C23_27  and  O4_28 
REMARK    4  A    between atoms: C29_34  and  O5_35 
REMARK    5  A    between atoms: C41_48  and  C42_49 
REMARK    6  A    between atoms: C41_48  and  N1_53 
REMARK    7  A    between atoms: C42_49  and  C43_50 
REMARK    8  A    between atoms: C43_50  and  C44_51 
REMARK    9  A    between atoms: C44_51  and  O7_52 
REMARK       I    between atoms: C45_55  and  N2_56 
REMARK       I    between atoms: C45_55  and  N3_57 
ROOT
HETATM    1  C1  UNL     1      -1.164  18.158  -2.667  1.00  0.00     0.010 C 
HETATM    2  C2  UNL     1      -1.395  18.435  -1.174  1.00  0.00    -0.010 C 
HETATM    3  C3  UNL     1      -0.641  19.700  -0.717  1.00  0.00     0.009 C 
HETATM    4  C4  UNL     1       0.810  19.488  -0.249  1.00  0.00     0.039 C 
HETATM    5  C5  UNL     1       1.334  18.083  -0.372  1.00  0.00    -0.049 C 
HETATM    6  C6  UNL     1       2.721  17.853  -0.448  1.00  0.00     0.044 C 
HETATM    7  C7  UNL     1       3.224  16.558  -0.600  1.00  0.00     0.072 C 
HETATM    8  C8  UNL     1       2.337  15.513  -0.827  1.00  0.00     0.037 C 
HETATM    9  C9  UNL     1       0.964  15.724  -0.691  1.00  0.00     0.011 C 
HETATM   10  C10 UNL     1       0.452  16.992  -0.403  1.00  0.00    -0.047 C 
HETATM   11  C11 UNL     1      -1.044  17.201  -0.283  1.00  0.00     0.024 C 
HETATM   12  C12 UNL     1      -1.574  17.455   1.158  1.00  0.00     0.033 C 
HETATM   13  C13 UNL     1      -1.694  16.327   2.230  1.00  0.00     0.139 C 
HETATM   14  C14 UNL     1      -0.640  16.423   3.388  1.00  0.00     0.038 C 
HETATM   15  C15 UNL     1      -1.301  17.072   4.619  1.00  0.00    -0.014 C 
HETATM   16  C16 UNL     1      -1.534  16.385   5.759  1.00  0.00    -0.050 C 
HETATM   17  C17 UNL     1      -1.180  14.928   5.798  1.00  0.00     0.042 C 
HETATM   18  C18 UNL     1       0.277  14.885   5.348  1.00  0.00     0.001 C 
HETATM   19  C19 UNL     1       1.197  15.827   6.213  1.00  0.00     0.037 C 
HETATM   20  C20 UNL     1       0.648  16.275   7.604  1.00  0.00     0.123 C 
HETATM   21  C21 UNL     1       1.804  16.811   8.484  1.00  0.00     0.039 C 
HETATM   22  C22 UNL     1       1.419  17.045   9.981  1.00  0.00     0.023 C 
HETATM   23  C24 UNL     1       1.059  18.512  10.318  1.00  0.00     0.101 C 
HETATM   24  C25 UNL     1      -0.255  18.904   9.796  1.00  0.00    -0.101 C 
HETATM   25  C26 UNL     1      -1.289  19.100   9.216  1.00  0.00    -0.066 C 
HETATM   26  C27 UNL     1      -2.422  19.150   8.338  1.00  0.00     0.029 A 
HETATM   27  C28 UNL     1      -3.366  20.168   8.528  1.00  0.00     0.057 A 
HETATM   28  C29 UNL     1      -4.497  20.222   7.725  1.00  0.00     0.067 A 
HETATM   29  C30 UNL     1      -4.711  19.275   6.731  1.00  0.00     0.037 A 
HETATM   30  C31 UNL     1      -3.771  18.259   6.538  1.00  0.00     0.014 A 
HETATM   31  C32 UNL     1      -2.594  18.186   7.313  1.00  0.00    -0.006 A 
HETATM   32  C33 UNL     1      -1.633  17.006   7.129  1.00  0.00     0.185 C 
HETATM   33  O6  UNL     1      -0.275  17.363   7.443  1.00  0.00    -0.371 OA
HETATM   34  C34 UNL     1       0.252  15.174   3.801  1.00  0.00     0.030 C 
HETATM   35  C35 UNL     1       1.657  15.178   3.207  1.00  0.00    -0.050 C 
HETATM   36  C36 UNL     1       2.471  16.315   3.191  1.00  0.00     0.133 A 
HETATM   37  C37 UNL     1       3.656  16.336   2.453  1.00  0.00     0.138 A 
HETATM   38  C38 UNL     1       4.048  15.223   1.683  1.00  0.00    -0.000 C 
HETATM   39  C39 UNL     1       3.331  14.029   1.858  1.00  0.00     0.010 C 
HETATM   40  C40 UNL     1       2.142  14.015   2.594  1.00  0.00     0.006 C 
HETATM   41  C41 UNL     1       5.084  15.440   0.541  1.00  0.00     0.169 C 
HETATM   42  O8  UNL     1       4.583  16.389  -0.479  1.00  0.00    -0.316 OA
HETATM   43 NA1  UNL     1       1.192  16.791   3.335  1.00  0.00    -0.401 Na
ATOM     44  HA1 UNL     1       0.233  17.058   3.560  1.00  0.00     0.154 HD
ENDROOT
BRANCH  41  45
HETATM   45  C42 UNL     1       5.451  14.124  -0.224  1.00  0.00     0.069 C 
BRANCH  45  46
HETATM   46  C43 UNL     1       5.049  14.045  -1.708  1.00  0.00     0.031 C 
BRANCH  46  47
HETATM   47  C44 UNL     1       4.979  12.656  -2.328  1.00  0.00     0.164 C 
BRANCH  47  48
HETATM   48  O7  UNL     1       5.904  11.769  -1.713  1.00  0.00    -0.401 OA
HETATM   49  H48 UNL     1       6.782  12.058  -2.039  1.00  0.00     0.209 HD
ENDBRANCH  47  48
ENDBRANCH  46  47
ENDBRANCH  45  46
ENDBRANCH  41  45
BRANCH  41  50
HETATM   50  N1  UNL     1       6.356  15.825   1.221  1.00  0.00    -0.336 N 
HETATM   51  C45 UNL     1       6.845  17.004   1.144  1.00  0.00     0.124 C 
HETATM   52  N2  UNL     1       6.450  18.060   0.402  1.00  0.00    -0.279 NA
HETATM   53  N3  UNL     1       7.969  17.287   1.839  1.00  0.00    -0.279 NA
HETATM   54  H49 UNL     1       5.595  17.875  -0.115  1.00  0.00     0.126 HD
HETATM   55  H50 UNL     1       6.416  18.950   0.876  1.00  0.00     0.126 HD
HETATM   56  H51 UNL     1       8.063  18.230   2.181  1.00  0.00     0.126 HD
HETATM   57  H52 UNL     1       8.168  16.588   2.545  1.00  0.00     0.126 HD
ATOM     58  H1  UNL     1       6.854  15.122   1.768  1.00  0.00     0.165 HD
ENDBRANCH  41  50
BRANCH  13  59
HETATM   59  S1  UNL     1      -2.218  14.733   1.637  1.00  0.00     0.106 S 
HETATM   60  O1  UNL     1      -2.639  14.031   2.847  1.00  0.00    -0.595 OA
HETATM   61  O2  UNL     1      -1.050  14.156   0.982  1.00  0.00    -0.595 OA
HETATM   62  O3  UNL     1      -3.322  15.056   0.734  1.00  0.00    -0.595 OA
ENDBRANCH  13  59
BRANCH  22  63
HETATM   63  C23 UNL     1       2.592  16.625  10.886  1.00  0.00     0.169 C 
BRANCH  63  64
HETATM   64  O4  UNL     1       2.657  15.205  10.978  1.00  0.00    -0.400 OA
HETATM   65  H29 UNL     1       3.447  14.989  11.499  1.00  0.00     0.209 HD
ENDBRANCH  63  64
ENDBRANCH  22  63
BRANCH  28  66
HETATM   66  O5  UNL     1      -5.398  21.222   7.954  1.00  0.00    -0.361 OA
HETATM   67  H33 UNL     1      -6.138  21.109   7.336  1.00  0.00     0.217 HD
ENDBRANCH  28  66
TORSDOF 9
ENDMDL
