MODEL 1
REMARK minimizedAffinity -8.04796696
REMARK CNNscore 0.494788736
REMARK CNNaffinity 6.9971385
REMARK  17 active torsions:
REMARK  status: ('A' for Active; 'I' for Inactive)
REMARK    1  A    between atoms: C2_2  and  C3_3 
REMARK    2  A    between atoms: C2_2  and  C26_32 
REMARK    3  A    between atoms: C4_4  and  C5_5 
REMARK    4  A    between atoms: C6_6  and  C7_7 
REMARK    5  A    between atoms: C6_6  and  C9_11 
REMARK    6  A    between atoms: C7_7  and  O1_8 
REMARK    7  A    between atoms: O1_8  and  C8_9 
REMARK    8  A    between atoms: C8_9  and  O2_10 
REMARK    9  A    between atoms: C13_15  and  O3_16 
REMARK   10  A    between atoms: C14_17  and  C15_18 
REMARK   11  A    between atoms: C15_18  and  C16_19 
REMARK   12  A    between atoms: C16_19  and  C17_20 
REMARK   13  A    between atoms: C17_20  and  O4_21 
REMARK   14  A    between atoms: C19_23  and  C21_25 
REMARK   15  A    between atoms: C24_29  and  O6_31 
REMARK   16  A    between atoms: C26_32  and  C27_33 
REMARK   17  A    between atoms: C27_33  and  C28_34 
ROOT
HETATM    1  C9  UNL     1      -1.725  49.625 -21.018  1.00  0.00     0.046 C 
HETATM    2  C10 UNL     1      -1.241  50.133 -22.385  1.00  0.00     0.013 C 
HETATM    3  C11 UNL     1      -2.461  50.773 -23.042  1.00  0.00     0.017 C 
HETATM    4  C12 UNL     1      -3.703  49.991 -22.514  1.00  0.00     0.024 C 
HETATM    5  C13 UNL     1      -3.270  49.837 -21.010  1.00  0.00     0.138 C 
HETATM    6  C14 UNL     1      -3.774  48.554 -23.251  1.00  0.00     0.029 C 
HETATM    7  C18 UNL     1      -4.719  48.605 -24.457  1.00  0.00    -0.066 C 
HETATM    8  C19 UNL     1      -4.367  48.425 -25.757  1.00  0.00    -0.021 C 
HETATM    9  C20 UNL     1      -5.330  48.385 -26.920  1.00  0.00     0.052 C 
HETATM   10  C22 UNL     1      -6.155  48.935 -24.055  1.00  0.00     0.038 C 
HETATM   11  C23 UNL     1      -6.238  49.892 -22.859  1.00  0.00     0.042 C 
HETATM   12  C24 UNL     1      -5.031  50.835 -22.779  1.00  0.00     0.065 C 
HETATM   13  C25 UNL     1      -4.984  51.722 -24.045  1.00  0.00     0.047 C 
ENDROOT
BRANCH   1  14
HETATM   14  C6  UNL     1      -1.023  50.095 -19.744  1.00  0.00    -0.050 C 
HETATM   15  C5  UNL     1      -0.305  51.219 -19.521  1.00  0.00     0.005 C 
BRANCH  15  16
HETATM   16  C4  UNL     1      -0.117  52.376 -20.370  1.00  0.00     0.001 C 
HETATM   17  C3  UNL     1       0.795  52.410 -21.356  1.00  0.00     0.006 C 
BRANCH  17  18
HETATM   18  C2  UNL     1       1.089  53.544 -22.236  1.00  0.00    -0.067 C 
HETATM   19  C1  UNL     1       1.689  54.621 -21.699  1.00  0.00     0.019 C 
BRANCH  18  20
HETATM   20  C26 UNL     1       0.688  53.444 -23.702  1.00  0.00     0.041 C 
BRANCH  20  21
HETATM   21  C27 UNL     1       0.562  52.051 -24.356  1.00  0.00     0.032 C 
BRANCH  21  22
HETATM   22  C28 UNL     1       0.304  52.105 -25.841  1.00  0.00    -0.024 C 
HETATM   23  C29 UNL     1       1.159  51.814 -26.840  1.00  0.00    -0.091 C 
HETATM   24  C30 UNL     1       2.592  51.394 -26.665  1.00  0.00     0.042 C 
HETATM   25  C31 UNL     1       0.715  51.900 -28.278  1.00  0.00     0.042 C 
ENDBRANCH  21  22
ENDBRANCH  20  21
ENDBRANCH  18  20
ENDBRANCH  17  18
ENDBRANCH  15  16
BRANCH  14  26
HETATM   26  C7  UNL     1      -1.229  49.111 -18.591  1.00  0.00     0.205 C 
BRANCH  26  27
HETATM   27  O1  UNL     1      -0.798  49.597 -17.322  1.00  0.00    -0.363 OA
BRANCH  27  28
HETATM   28  C8  UNL     1      -1.453  49.009 -16.204  1.00  0.00     0.334 C 
BRANCH  28  29
HETATM   29  O2  UNL     1      -1.500  47.595 -16.254  1.00  0.00    -0.377 OA
HETATM   30  H10 UNL     1      -2.401  47.387 -16.576  1.00  0.00     0.212 HD
ENDBRANCH  28  29
ENDBRANCH  27  28
ENDBRANCH  26  27
ENDBRANCH  14  26
ENDBRANCH   1  14
BRANCH   5  31
HETATM   31  O3  UNL     1      -3.622  50.957 -20.189  1.00  0.00    -0.394 OA
HETATM   32  H17 UNL     1      -3.089  51.721 -20.486  1.00  0.00     0.210 HD
ENDBRANCH   5  31
BRANCH   6  33
HETATM   33  C15 UNL     1      -4.156  47.344 -22.341  1.00  0.00     0.012 C 
BRANCH  33  34
HETATM   34  C16 UNL     1      -5.660  47.034 -22.210  1.00  0.00     0.027 C 
BRANCH  34  35
HETATM   35  C17 UNL     1      -6.154  46.910 -20.773  1.00  0.00     0.164 C 
BRANCH  35  36
HETATM   36  O4  UNL     1      -7.554  46.669 -20.746  1.00  0.00    -0.401 OA
HETATM   37  H25 UNL     1      -7.695  45.761 -21.068  1.00  0.00     0.209 HD
ENDBRANCH  35  36
ENDBRANCH  34  35
ENDBRANCH  33  34
ENDBRANCH   6  33
BRANCH  12  38
HETATM   38  O6  UNL     1      -5.309  51.786 -21.746  1.00  0.00    -0.389 OA
HETATM   39  H37 UNL     1      -5.146  51.362 -20.878  1.00  0.00     0.210 HD
ENDBRANCH  12  38
BRANCH   8  40
HETATM   40  C21 UNL     1      -2.946  48.245 -26.201  1.00  0.00     0.265 C 
HETATM   41  O5  UNL     1      -2.186  49.187 -26.388  1.00  0.00    -0.302 OA
ENDBRANCH   8  40
TORSDOF 17
ENDMDL
MODEL 2
REMARK minimizedAffinity -8.73388004
REMARK CNNscore 0.476983666
REMARK CNNaffinity 7.12709284
REMARK  17 active torsions:
REMARK  status: ('A' for Active; 'I' for Inactive)
REMARK    1  A    between atoms: C2_2  and  C3_3 
REMARK    2  A    between atoms: C2_2  and  C26_32 
REMARK    3  A    between atoms: C4_4  and  C5_5 
REMARK    4  A    between atoms: C6_6  and  C7_7 
REMARK    5  A    between atoms: C6_6  and  C9_11 
REMARK    6  A    between atoms: C7_7  and  O1_8 
REMARK    7  A    between atoms: O1_8  and  C8_9 
REMARK    8  A    between atoms: C8_9  and  O2_10 
REMARK    9  A    between atoms: C13_15  and  O3_16 
REMARK   10  A    between atoms: C14_17  and  C15_18 
REMARK   11  A    between atoms: C15_18  and  C16_19 
REMARK   12  A    between atoms: C16_19  and  C17_20 
REMARK   13  A    between atoms: C17_20  and  O4_21 
REMARK   14  A    between atoms: C19_23  and  C21_25 
REMARK   15  A    between atoms: C24_29  and  O6_31 
REMARK   16  A    between atoms: C26_32  and  C27_33 
REMARK   17  A    between atoms: C27_33  and  C28_34 
ROOT
HETATM    1  C9  UNL     1      -3.654  49.052 -25.705  1.00  0.00     0.046 C 
HETATM    2  C10 UNL     1      -4.806  48.056 -25.504  1.00  0.00     0.013 C 
HETATM    3  C11 UNL     1      -5.718  48.686 -24.455  1.00  0.00     0.017 C 
HETATM    4  C12 UNL     1      -4.795  49.532 -23.525  1.00  0.00     0.024 C 
HETATM    5  C13 UNL     1      -3.854  50.155 -24.620  1.00  0.00     0.138 C 
HETATM    6  C14 UNL     1      -3.977  48.538 -22.548  1.00  0.00     0.029 C 
HETATM    7  C18 UNL     1      -4.680  48.403 -21.193  1.00  0.00    -0.066 C 
HETATM    8  C19 UNL     1      -5.218  47.265 -20.681  1.00  0.00    -0.021 C 
HETATM    9  C20 UNL     1      -5.822  47.134 -19.303  1.00  0.00     0.052 C 
HETATM   10  C22 UNL     1      -4.767  49.734 -20.450  1.00  0.00     0.038 C 
HETATM   11  C23 UNL     1      -4.937  50.935 -21.388  1.00  0.00     0.042 C 
HETATM   12  C24 UNL     1      -5.671  50.567 -22.683  1.00  0.00     0.065 C 
HETATM   13  C25 UNL     1      -7.097  50.072 -22.345  1.00  0.00     0.047 C 
ENDROOT
BRANCH   1  14
HETATM   14  C6  UNL     1      -3.357  49.595 -27.102  1.00  0.00    -0.050 C 
HETATM   15  C5  UNL     1      -2.475  50.545 -27.487  1.00  0.00     0.005 C 
BRANCH  15  16
HETATM   16  C4  UNL     1      -1.449  51.216 -26.717  1.00  0.00     0.001 C 
HETATM   17  C3  UNL     1      -0.137  50.991 -26.906  1.00  0.00     0.006 C 
BRANCH  17  18
HETATM   18  C2  UNL     1       0.969  51.585 -26.151  1.00  0.00    -0.067 C 
HETATM   19  C1  UNL     1       2.223  51.235 -26.490  1.00  0.00     0.019 C 
BRANCH  18  20
HETATM   20  C26 UNL     1       0.637  52.552 -25.023  1.00  0.00     0.041 C 
BRANCH  20  21
HETATM   21  C27 UNL     1       0.229  51.992 -23.644  1.00  0.00     0.032 C 
BRANCH  21  22
HETATM   22  C28 UNL     1       0.699  52.837 -22.488  1.00  0.00    -0.024 C 
HETATM   23  C29 UNL     1       0.243  52.834 -21.221  1.00  0.00    -0.091 C 
HETATM   24  C30 UNL     1      -0.881  51.981 -20.703  1.00  0.00     0.042 C 
HETATM   25  C31 UNL     1       0.857  53.739 -20.183  1.00  0.00     0.042 C 
ENDBRANCH  21  22
ENDBRANCH  20  21
ENDBRANCH  18  20
ENDBRANCH  17  18
ENDBRANCH  15  16
BRANCH  14  26
HETATM   26  C7  UNL     1      -4.201  48.898 -28.170  1.00  0.00     0.205 C 
BRANCH  26  27
HETATM   27  O1  UNL     1      -4.165  49.527 -29.449  1.00  0.00    -0.363 OA
BRANCH  27  28
HETATM   28  C8  UNL     1      -5.076  48.993 -30.402  1.00  0.00     0.334 C 
BRANCH  28  29
HETATM   29  O2  UNL     1      -4.616  47.807 -31.024  1.00  0.00    -0.377 OA
HETATM   30  H10 UNL     1      -4.267  48.100 -31.891  1.00  0.00     0.212 HD
ENDBRANCH  28  29
ENDBRANCH  27  28
ENDBRANCH  26  27
ENDBRANCH  14  26
ENDBRANCH   1  14
BRANCH   5  31
HETATM   31  O3  UNL     1      -4.366  51.355 -25.210  1.00  0.00    -0.394 OA
HETATM   32  H17 UNL     1      -5.162  51.116 -25.725  1.00  0.00     0.210 HD
ENDBRANCH   5  31
BRANCH   6  33
HETATM   33  C15 UNL     1      -2.474  48.896 -22.322  1.00  0.00     0.012 C 
BRANCH  33  34
HETATM   34  C16 UNL     1      -1.629  47.854 -21.563  1.00  0.00     0.027 C 
BRANCH  34  35
HETATM   35  C17 UNL     1      -1.165  48.304 -20.183  1.00  0.00     0.164 C 
BRANCH  35  36
HETATM   36  O4  UNL     1      -1.785  47.525 -19.169  1.00  0.00    -0.401 OA
HETATM   37  H25 UNL     1      -1.393  46.635 -19.213  1.00  0.00     0.209 HD
ENDBRANCH  35  36
ENDBRANCH  34  35
ENDBRANCH  33  34
ENDBRANCH   6  33
BRANCH  12  38
HETATM   38  O6  UNL     1      -5.927  51.788 -23.384  1.00  0.00    -0.389 OA
HETATM   39  H37 UNL     1      -5.102  52.072 -23.829  1.00  0.00     0.210 HD
ENDBRANCH  12  38
BRANCH   8  40
HETATM   40  C21 UNL     1      -5.280  45.975 -21.445  1.00  0.00     0.265 C 
HETATM   41  O5  UNL     1      -4.769  44.939 -21.038  1.00  0.00    -0.302 OA
ENDBRANCH   8  40
TORSDOF 17
ENDMDL
MODEL 3
REMARK minimizedAffinity -6.71398878
REMARK CNNscore 0.473767549
REMARK CNNaffinity 6.61749887
REMARK  17 active torsions:
REMARK  status: ('A' for Active; 'I' for Inactive)
REMARK    1  A    between atoms: C2_2  and  C3_3 
REMARK    2  A    between atoms: C2_2  and  C26_32 
REMARK    3  A    between atoms: C4_4  and  C5_5 
REMARK    4  A    between atoms: C6_6  and  C7_7 
REMARK    5  A    between atoms: C6_6  and  C9_11 
REMARK    6  A    between atoms: C7_7  and  O1_8 
REMARK    7  A    between atoms: O1_8  and  C8_9 
REMARK    8  A    between atoms: C8_9  and  O2_10 
REMARK    9  A    between atoms: C13_15  and  O3_16 
REMARK   10  A    between atoms: C14_17  and  C15_18 
REMARK   11  A    between atoms: C15_18  and  C16_19 
REMARK   12  A    between atoms: C16_19  and  C17_20 
REMARK   13  A    between atoms: C17_20  and  O4_21 
REMARK   14  A    between atoms: C19_23  and  C21_25 
REMARK   15  A    between atoms: C24_29  and  O6_31 
REMARK   16  A    between atoms: C26_32  and  C27_33 
REMARK   17  A    between atoms: C27_33  and  C28_34 
ROOT
HETATM    1  C9  UNL     1      -6.588  46.985 -28.376  1.00  0.00     0.046 C 
HETATM    2  C10 UNL     1      -7.165  45.678 -28.939  1.00  0.00     0.013 C 
HETATM    3  C11 UNL     1      -8.681  45.819 -28.840  1.00  0.00     0.017 C 
HETATM    4  C12 UNL     1      -8.955  46.719 -27.596  1.00  0.00     0.024 C 
HETATM    5  C13 UNL     1      -7.805  47.772 -27.802  1.00  0.00     0.138 C 
HETATM    6  C14 UNL     1      -8.719  45.851 -26.254  1.00  0.00     0.029 C 
HETATM    7  C18 UNL     1     -10.043  45.280 -25.733  1.00  0.00    -0.066 C 
HETATM    8  C19 UNL     1     -10.365  43.963 -25.641  1.00  0.00    -0.021 C 
HETATM    9  C20 UNL     1     -11.639  43.420 -25.037  1.00  0.00     0.052 C 
HETATM   10  C22 UNL     1     -11.036  46.375 -25.348  1.00  0.00     0.038 C 
HETATM   11  C23 UNL     1     -10.929  47.620 -26.236  1.00  0.00     0.042 C 
HETATM   12  C24 UNL     1     -10.445  47.288 -27.653  1.00  0.00     0.065 C 
HETATM   13  C25 UNL     1     -11.464  46.348 -28.340  1.00  0.00     0.047 C 
ENDROOT
BRANCH   1  14
HETATM   14  C6  UNL     1      -5.645  47.829 -29.234  1.00  0.00    -0.050 C 
HETATM   15  C5  UNL     1      -4.534  48.510 -28.876  1.00  0.00     0.005 C 
BRANCH  15  16
HETATM   16  C4  UNL     1      -3.824  48.519 -27.614  1.00  0.00     0.001 C 
HETATM   17  C3  UNL     1      -4.455  48.580 -26.429  1.00  0.00     0.006 C 
BRANCH  17  18
HETATM   18  C2  UNL     1      -3.826  48.638 -25.107  1.00  0.00    -0.067 C 
HETATM   19  C1  UNL     1      -2.550  49.053 -25.033  1.00  0.00     0.019 C 
BRANCH  18  20
HETATM   20  C26 UNL     1      -4.649  48.214 -23.897  1.00  0.00     0.041 C 
BRANCH  20  21
HETATM   21  C27 UNL     1      -4.431  48.931 -22.547  1.00  0.00     0.032 C 
BRANCH  21  22
HETATM   22  C28 UNL     1      -3.023  48.806 -22.022  1.00  0.00    -0.024 C 
HETATM   23  C29 UNL     1      -2.483  47.780 -21.337  1.00  0.00    -0.091 C 
HETATM   24  C30 UNL     1      -3.212  46.532 -20.923  1.00  0.00     0.042 C 
HETATM   25  C31 UNL     1      -1.038  47.819 -20.911  1.00  0.00     0.042 C 
ENDBRANCH  21  22
ENDBRANCH  20  21
ENDBRANCH  18  20
ENDBRANCH  17  18
ENDBRANCH  15  16
BRANCH  14  26
HETATM   26  C7  UNL     1      -6.073  47.835 -30.702  1.00  0.00     0.205 C 
BRANCH  26  27
HETATM   27  O1  UNL     1      -5.176  47.155 -31.577  1.00  0.00    -0.363 OA
BRANCH  27  28
HETATM   28  C8  UNL     1      -4.790  47.894 -32.729  1.00  0.00     0.334 C 
BRANCH  28  29
HETATM   29  O2  UNL     1      -5.017  47.206 -33.945  1.00  0.00    -0.377 OA
HETATM   30  H10 UNL     1      -4.142  46.842 -34.193  1.00  0.00     0.212 HD
ENDBRANCH  28  29
ENDBRANCH  27  28
ENDBRANCH  26  27
ENDBRANCH  14  26
ENDBRANCH   1  14
BRANCH   5  31
HETATM   31  O3  UNL     1      -8.160  48.856 -28.668  1.00  0.00    -0.394 OA
HETATM   32  H17 UNL     1      -8.276  48.490 -29.568  1.00  0.00     0.210 HD
ENDBRANCH   5  31
BRANCH   6  33
HETATM   33  C15 UNL     1      -7.977  46.585 -25.093  1.00  0.00     0.012 C 
BRANCH  33  34
HETATM   34  C16 UNL     1      -8.068  48.124 -25.089  1.00  0.00     0.027 C 
BRANCH  34  35
HETATM   35  C17 UNL     1      -8.173  48.744 -23.701  1.00  0.00     0.164 C 
BRANCH  35  36
HETATM   36  O4  UNL     1      -8.652  47.789 -22.763  1.00  0.00    -0.401 OA
HETATM   37  H25 UNL     1      -7.937  47.144 -22.622  1.00  0.00     0.209 HD
ENDBRANCH  35  36
ENDBRANCH  34  35
ENDBRANCH  33  34
ENDBRANCH   6  33
BRANCH  12  38
HETATM   38  O6  UNL     1     -10.561  48.486 -28.429  1.00  0.00    -0.389 OA
HETATM   39  H37 UNL     1      -9.806  49.072 -28.214  1.00  0.00     0.210 HD
ENDBRANCH  12  38
BRANCH   8  40
HETATM   40  C21 UNL     1      -9.474  42.867 -26.146  1.00  0.00     0.265 C 
HETATM   41  O5  UNL     1      -9.526  41.721 -25.718  1.00  0.00    -0.302 OA
ENDBRANCH   8  40
TORSDOF 17
ENDMDL
MODEL 4
REMARK minimizedAffinity -6.79081964
REMARK CNNscore 0.409293056
REMARK CNNaffinity 6.30518341
REMARK  17 active torsions:
REMARK  status: ('A' for Active; 'I' for Inactive)
REMARK    1  A    between atoms: C2_2  and  C3_3 
REMARK    2  A    between atoms: C2_2  and  C26_32 
REMARK    3  A    between atoms: C4_4  and  C5_5 
REMARK    4  A    between atoms: C6_6  and  C7_7 
REMARK    5  A    between atoms: C6_6  and  C9_11 
REMARK    6  A    between atoms: C7_7  and  O1_8 
REMARK    7  A    between atoms: O1_8  and  C8_9 
REMARK    8  A    between atoms: C8_9  and  O2_10 
REMARK    9  A    between atoms: C13_15  and  O3_16 
REMARK   10  A    between atoms: C14_17  and  C15_18 
REMARK   11  A    between atoms: C15_18  and  C16_19 
REMARK   12  A    between atoms: C16_19  and  C17_20 
REMARK   13  A    between atoms: C17_20  and  O4_21 
REMARK   14  A    between atoms: C19_23  and  C21_25 
REMARK   15  A    between atoms: C24_29  and  O6_31 
REMARK   16  A    between atoms: C26_32  and  C27_33 
REMARK   17  A    between atoms: C27_33  and  C28_34 
ROOT
HETATM    1  C9  UNL     1      -7.267  46.523 -27.455  1.00  0.00     0.046 C 
HETATM    2  C10 UNL     1      -7.886  45.143 -27.720  1.00  0.00     0.013 C 
HETATM    3  C11 UNL     1      -9.254  45.168 -27.044  1.00  0.00     0.017 C 
HETATM    4  C12 UNL     1      -9.116  46.115 -25.813  1.00  0.00     0.024 C 
HETATM    5  C13 UNL     1      -8.240  47.243 -26.473  1.00  0.00     0.138 C 
HETATM    6  C14 UNL     1      -8.300  45.349 -24.647  1.00  0.00     0.029 C 
HETATM    7  C18 UNL     1      -9.260  44.705 -23.641  1.00  0.00    -0.066 C 
HETATM    8  C19 UNL     1      -9.393  43.374 -23.400  1.00  0.00    -0.021 C 
HETATM    9  C20 UNL     1     -10.277  42.768 -22.337  1.00  0.00     0.052 C 
HETATM   10  C22 UNL     1     -10.130  45.738 -22.927  1.00  0.00     0.038 C 
HETATM   11  C23 UNL     1     -10.494  46.933 -23.815  1.00  0.00     0.042 C 
HETATM   12  C24 UNL     1     -10.561  46.558 -25.301  1.00  0.00     0.065 C 
HETATM   13  C25 UNL     1     -11.669  45.500 -25.517  1.00  0.00     0.047 C 
ENDROOT
BRANCH   1  14
HETATM   14  C6  UNL     1      -6.813  47.389 -28.631  1.00  0.00    -0.050 C 
HETATM   15  C5  UNL     1      -5.690  48.129 -28.772  1.00  0.00     0.005 C 
BRANCH  15  16
HETATM   16  C4  UNL     1      -4.521  48.202 -27.921  1.00  0.00     0.001 C 
HETATM   17  C3  UNL     1      -4.583  48.599 -26.638  1.00  0.00     0.006 C 
BRANCH  17  18
HETATM   18  C2  UNL     1      -3.455  48.747 -25.714  1.00  0.00    -0.067 C 
HETATM   19  C1  UNL     1      -3.689  48.572 -24.401  1.00  0.00     0.019 C 
BRANCH  18  20
HETATM   20  C26 UNL     1      -2.091  49.100 -26.290  1.00  0.00     0.041 C 
BRANCH  20  21
HETATM   21  C27 UNL     1      -1.583  50.554 -26.189  1.00  0.00     0.032 C 
BRANCH  21  22
HETATM   22  C28 UNL     1      -0.143  50.718 -26.606  1.00  0.00    -0.024 C 
HETATM   23  C29 UNL     1       0.821  51.426 -25.989  1.00  0.00    -0.091 C 
HETATM   24  C30 UNL     1       0.637  52.242 -24.739  1.00  0.00     0.042 C 
HETATM   25  C31 UNL     1       2.224  51.456 -26.541  1.00  0.00     0.042 C 
ENDBRANCH  21  22
ENDBRANCH  20  21
ENDBRANCH  18  20
ENDBRANCH  17  18
ENDBRANCH  15  16
BRANCH  14  26
HETATM   26  C7  UNL     1      -7.812  47.338 -29.787  1.00  0.00     0.205 C 
BRANCH  26  27
HETATM   27  O1  UNL     1      -7.247  47.629 -31.063  1.00  0.00    -0.363 OA
BRANCH  27  28
HETATM   28  C8  UNL     1      -8.047  48.461 -31.895  1.00  0.00     0.334 C 
BRANCH  28  29
HETATM   29  O2  UNL     1      -8.675  47.766 -32.956  1.00  0.00    -0.377 OA
HETATM   30  H10 UNL     1      -8.114  47.947 -33.738  1.00  0.00     0.212 HD
ENDBRANCH  28  29
ENDBRANCH  27  28
ENDBRANCH  26  27
ENDBRANCH  14  26
ENDBRANCH   1  14
BRANCH   5  31
HETATM   31  O3  UNL     1      -9.004  48.241 -27.159  1.00  0.00    -0.394 OA
HETATM   32  H17 UNL     1      -9.420  47.815 -27.935  1.00  0.00     0.210 HD
ENDBRANCH   5  31
BRANCH   6  33
HETATM   33  C15 UNL     1      -7.243  46.208 -23.883  1.00  0.00     0.012 C 
BRANCH  33  34
HETATM   34  C16 UNL     1      -7.280  47.727 -24.143  1.00  0.00     0.027 C 
BRANCH  34  35
HETATM   35  C17 UNL     1      -7.389  48.578 -22.883  1.00  0.00     0.164 C 
BRANCH  35  36
HETATM   36  O4  UNL     1      -7.637  49.937 -23.218  1.00  0.00    -0.401 OA
HETATM   37  H25 UNL     1      -8.550  49.986 -23.553  1.00  0.00     0.209 HD
ENDBRANCH  35  36
ENDBRANCH  34  35
ENDBRANCH  33  34
ENDBRANCH   6  33
BRANCH  12  38
HETATM   38  O6  UNL     1     -11.081  47.695 -25.999  1.00  0.00    -0.389 OA
HETATM   39  H37 UNL     1     -10.362  48.351 -26.107  1.00  0.00     0.210 HD
ENDBRANCH  12  38
BRANCH   8  40
HETATM   40  C21 UNL     1      -8.662  42.326 -24.186  1.00  0.00     0.265 C 
HETATM   41  O5  UNL     1      -7.569  42.525 -24.700  1.00  0.00    -0.302 OA
ENDBRANCH   8  40
TORSDOF 17
ENDMDL
MODEL 5
REMARK minimizedAffinity -6.3500638
REMARK CNNscore 0.35546273
REMARK CNNaffinity 6.26192617
REMARK  17 active torsions:
REMARK  status: ('A' for Active; 'I' for Inactive)
REMARK    1  A    between atoms: C2_2  and  C3_3 
REMARK    2  A    between atoms: C2_2  and  C26_32 
REMARK    3  A    between atoms: C4_4  and  C5_5 
REMARK    4  A    between atoms: C6_6  and  C7_7 
REMARK    5  A    between atoms: C6_6  and  C9_11 
REMARK    6  A    between atoms: C7_7  and  O1_8 
REMARK    7  A    between atoms: O1_8  and  C8_9 
REMARK    8  A    between atoms: C8_9  and  O2_10 
REMARK    9  A    between atoms: C13_15  and  O3_16 
REMARK   10  A    between atoms: C14_17  and  C15_18 
REMARK   11  A    between atoms: C15_18  and  C16_19 
REMARK   12  A    between atoms: C16_19  and  C17_20 
REMARK   13  A    between atoms: C17_20  and  O4_21 
REMARK   14  A    between atoms: C19_23  and  C21_25 
REMARK   15  A    between atoms: C24_29  and  O6_31 
REMARK   16  A    between atoms: C26_32  and  C27_33 
REMARK   17  A    between atoms: C27_33  and  C28_34 
ROOT
HETATM    1  C9  UNL     1       0.859  54.199  -9.181  1.00  0.00     0.046 C 
HETATM    2  C10 UNL     1       1.705  53.372  -8.202  1.00  0.00     0.013 C 
HETATM    3  C11 UNL     1       1.997  54.298  -7.024  1.00  0.00     0.017 C 
HETATM    4  C12 UNL     1       2.052  55.743  -7.608  1.00  0.00     0.024 C 
HETATM    5  C13 UNL     1       0.839  55.648  -8.605  1.00  0.00     0.138 C 
HETATM    6  C14 UNL     1       3.447  55.938  -8.401  1.00  0.00     0.029 C 
HETATM    7  C18 UNL     1       4.496  56.603  -7.504  1.00  0.00    -0.066 C 
HETATM    8  C19 UNL     1       5.664  56.046  -7.090  1.00  0.00    -0.021 C 
HETATM    9  C20 UNL     1       6.728  56.754  -6.284  1.00  0.00     0.052 C 
HETATM   10  C22 UNL     1       4.075  58.002  -7.057  1.00  0.00     0.038 C 
HETATM   11  C23 UNL     1       2.562  58.135  -6.849  1.00  0.00     0.042 C 
HETATM   12  C24 UNL     1       1.910  56.811  -6.431  1.00  0.00     0.065 C 
HETATM   13  C25 UNL     1       2.498  56.352  -5.075  1.00  0.00     0.047 C 
ENDROOT
BRANCH   1  14
HETATM   14  C6  UNL     1      -0.512  53.683  -9.621  1.00  0.00    -0.050 C 
HETATM   15  C5  UNL     1      -0.922  53.260 -10.838  1.00  0.00     0.005 C 
BRANCH  15  16
HETATM   16  C4  UNL     1      -0.152  53.028 -12.041  1.00  0.00     0.001 C 
HETATM   17  C3  UNL     1       0.365  51.826 -12.350  1.00  0.00     0.006 C 
BRANCH  17  18
HETATM   18  C2  UNL     1       1.191  51.504 -13.517  1.00  0.00    -0.067 C 
HETATM   19  C1  UNL     1       2.298  50.765 -13.321  1.00  0.00     0.019 C 
BRANCH  18  20
HETATM   20  C26 UNL     1       0.758  52.033 -14.878  1.00  0.00     0.041 C 
BRANCH  20  21
HETATM   21  C27 UNL     1       1.531  51.593 -16.139  1.00  0.00     0.032 C 
BRANCH  21  22
HETATM   22  C28 UNL     1       1.292  52.484 -17.331  1.00  0.00    -0.024 C 
HETATM   23  C29 UNL     1       0.490  52.255 -18.388  1.00  0.00    -0.091 C 
HETATM   24  C30 UNL     1      -0.327  51.012 -18.607  1.00  0.00     0.042 C 
HETATM   25  C31 UNL     1       0.354  53.281 -19.485  1.00  0.00     0.042 C 
ENDBRANCH  21  22
ENDBRANCH  20  21
ENDBRANCH  18  20
ENDBRANCH  17  18
ENDBRANCH  15  16
BRANCH  14  26
HETATM   26  C7  UNL     1      -1.500  53.644  -8.455  1.00  0.00     0.205 C 
BRANCH  26  27
HETATM   27  O1  UNL     1      -1.074  52.850  -7.351  1.00  0.00    -0.363 OA
BRANCH  27  28
HETATM   28  C8  UNL     1      -1.538  53.294  -6.081  1.00  0.00     0.334 C 
BRANCH  28  29
HETATM   29  O2  UNL     1      -1.106  54.599  -5.745  1.00  0.00    -0.377 OA
HETATM   30  H10 UNL     1      -0.346  54.462  -5.141  1.00  0.00     0.212 HD
ENDBRANCH  28  29
ENDBRANCH  27  28
ENDBRANCH  26  27
ENDBRANCH  14  26
ENDBRANCH   1  14
BRANCH   5  31
HETATM   31  O3  UNL     1      -0.428  55.936  -8.004  1.00  0.00    -0.394 OA
HETATM   32  H17 UNL     1      -0.622  55.221  -7.365  1.00  0.00     0.210 HD
ENDBRANCH   5  31
BRANCH   6  33
HETATM   33  C15 UNL     1       3.354  56.711  -9.755  1.00  0.00     0.012 C 
BRANCH  33  34
HETATM   34  C16 UNL     1       3.913  55.986 -10.995  1.00  0.00     0.027 C 
BRANCH  34  35
HETATM   35  C17 UNL     1       4.137  54.491 -10.802  1.00  0.00     0.164 C 
BRANCH  35  36
HETATM   36  O4  UNL     1       3.260  53.743 -11.634  1.00  0.00    -0.401 OA
HETATM   37  H25 UNL     1       3.569  53.859 -12.551  1.00  0.00     0.209 HD
ENDBRANCH  35  36
ENDBRANCH  34  35
ENDBRANCH  33  34
ENDBRANCH   6  33
BRANCH  12  38
HETATM   38  O6  UNL     1       0.549  57.100  -6.094  1.00  0.00    -0.389 OA
HETATM   39  H37 UNL     1       0.035  57.193  -6.923  1.00  0.00     0.210 HD
ENDBRANCH  12  38
BRANCH   8  40
HETATM   40  C21 UNL     1       6.041  54.625  -7.388  1.00  0.00     0.265 C 
HETATM   41  O5  UNL     1       6.733  54.310  -8.348  1.00  0.00    -0.302 OA
ENDBRANCH   8  40
TORSDOF 17
ENDMDL
MODEL 6
REMARK minimizedAffinity -8.55095577
REMARK CNNscore 0.304696381
REMARK CNNaffinity 6.00464678
REMARK  17 active torsions:
REMARK  status: ('A' for Active; 'I' for Inactive)
REMARK    1  A    between atoms: C2_2  and  C3_3 
REMARK    2  A    between atoms: C2_2  and  C26_32 
REMARK    3  A    between atoms: C4_4  and  C5_5 
REMARK    4  A    between atoms: C6_6  and  C7_7 
REMARK    5  A    between atoms: C6_6  and  C9_11 
REMARK    6  A    between atoms: C7_7  and  O1_8 
REMARK    7  A    between atoms: O1_8  and  C8_9 
REMARK    8  A    between atoms: C8_9  and  O2_10 
REMARK    9  A    between atoms: C13_15  and  O3_16 
REMARK   10  A    between atoms: C14_17  and  C15_18 
REMARK   11  A    between atoms: C15_18  and  C16_19 
REMARK   12  A    between atoms: C16_19  and  C17_20 
REMARK   13  A    between atoms: C17_20  and  O4_21 
REMARK   14  A    between atoms: C19_23  and  C21_25 
REMARK   15  A    between atoms: C24_29  and  O6_31 
REMARK   16  A    between atoms: C26_32  and  C27_33 
REMARK   17  A    between atoms: C27_33  and  C28_34 
ROOT
HETATM    1  C9  UNL     1      -6.825  46.739 -28.925  1.00  0.00     0.046 C 
HETATM    2  C10 UNL     1      -7.377  45.495 -29.638  1.00  0.00     0.013 C 
HETATM    3  C11 UNL     1      -8.843  45.804 -29.932  1.00  0.00     0.017 C 
HETATM    4  C12 UNL     1      -9.328  46.746 -28.788  1.00  0.00     0.024 C 
HETATM    5  C13 UNL     1      -8.055  47.663 -28.673  1.00  0.00     0.138 C 
HETATM    6  C14 UNL     1      -9.543  45.876 -27.443  1.00  0.00     0.029 C 
HETATM    7  C18 UNL     1     -11.011  45.461 -27.290  1.00  0.00    -0.066 C 
HETATM    8  C19 UNL     1     -11.489  44.189 -27.304  1.00  0.00    -0.021 C 
HETATM    9  C20 UNL     1     -12.926  43.798 -27.057  1.00  0.00     0.052 C 
HETATM   10  C22 UNL     1     -11.943  46.663 -27.159  1.00  0.00     0.038 C 
HETATM   11  C23 UNL     1     -11.475  47.877 -27.971  1.00  0.00     0.042 C 
HETATM   12  C24 UNL     1     -10.681  47.474 -29.219  1.00  0.00     0.065 C 
HETATM   13  C25 UNL     1     -11.584  46.642 -30.160  1.00  0.00     0.047 C 
ENDROOT
BRANCH   1  14
HETATM   14  C6  UNL     1      -5.606  47.462 -29.499  1.00  0.00    -0.050 C 
HETATM   15  C5  UNL     1      -4.700  48.248 -28.875  1.00  0.00     0.005 C 
BRANCH  15  16
HETATM   16  C4  UNL     1      -4.527  48.514 -27.462  1.00  0.00     0.001 C 
HETATM   17  C3  UNL     1      -3.335  48.823 -26.924  1.00  0.00     0.006 C 
BRANCH  17  18
HETATM   18  C2  UNL     1      -3.053  49.064 -25.506  1.00  0.00    -0.067 C 
HETATM   19  C1  UNL     1      -3.803  48.420 -24.595  1.00  0.00     0.019 C 
BRANCH  18  20
HETATM   20  C26 UNL     1      -1.937  50.037 -25.147  1.00  0.00     0.041 C 
BRANCH  20  21
HETATM   21  C27 UNL     1      -1.265  50.860 -26.267  1.00  0.00     0.032 C 
BRANCH  21  22
HETATM   22  C28 UNL     1       0.234  50.946 -26.133  1.00  0.00    -0.024 C 
HETATM   23  C29 UNL     1       1.113  51.479 -27.002  1.00  0.00    -0.091 C 
HETATM   24  C30 UNL     1       0.763  52.086 -28.333  1.00  0.00     0.042 C 
HETATM   25  C31 UNL     1       2.588  51.500 -26.687  1.00  0.00     0.042 C 
ENDBRANCH  21  22
ENDBRANCH  20  21
ENDBRANCH  18  20
ENDBRANCH  17  18
ENDBRANCH  15  16
BRANCH  14  26
HETATM   26  C7  UNL     1      -5.439  47.189 -30.994  1.00  0.00     0.205 C 
BRANCH  26  27
HETATM   27  O1  UNL     1      -4.740  48.209 -31.702  1.00  0.00    -0.363 OA
BRANCH  27  28
HETATM   28  C8  UNL     1      -4.400  47.879 -33.043  1.00  0.00     0.334 C 
BRANCH  28  29
HETATM   29  O2  UNL     1      -3.045  48.136 -33.364  1.00  0.00    -0.377 OA
HETATM   30  H10 UNL     1      -3.060  48.992 -33.841  1.00  0.00     0.212 HD
ENDBRANCH  28  29
ENDBRANCH  27  28
ENDBRANCH  26  27
ENDBRANCH  14  26
ENDBRANCH   1  14
BRANCH   5  31
HETATM   31  O3  UNL     1      -8.053  48.767 -29.586  1.00  0.00    -0.394 OA
HETATM   32  H17 UNL     1      -7.972  48.403 -30.491  1.00  0.00     0.210 HD
ENDBRANCH   5  31
BRANCH   6  33
HETATM   33  C15 UNL     1      -9.050  46.541 -26.119  1.00  0.00     0.012 C 
BRANCH  33  34
HETATM   34  C16 UNL     1      -9.883  47.727 -25.598  1.00  0.00     0.027 C 
BRANCH  34  35
HETATM   35  C17 UNL     1      -9.068  48.971 -25.265  1.00  0.00     0.164 C 
BRANCH  35  36
HETATM   36  O4  UNL     1      -9.557  50.096 -25.983  1.00  0.00    -0.401 OA
HETATM   37  H25 UNL     1     -10.417  50.331 -25.594  1.00  0.00     0.209 HD
ENDBRANCH  35  36
ENDBRANCH  34  35
ENDBRANCH  33  34
ENDBRANCH   6  33
BRANCH  12  38
HETATM   38  O6  UNL     1     -10.460  48.666 -29.981  1.00  0.00    -0.389 OA
HETATM   39  H37 UNL     1      -9.727  49.169 -29.569  1.00  0.00     0.210 HD
ENDBRANCH  12  38
BRANCH   8  40
HETATM   40  C21 UNL     1     -10.623  42.995 -27.578  1.00  0.00     0.265 C 
HETATM   41  O5  UNL     1     -10.206  42.721 -28.697  1.00  0.00    -0.302 OA
ENDBRANCH   8  40
TORSDOF 17
ENDMDL
MODEL 7
REMARK minimizedAffinity -6.8973093
REMARK CNNscore 0.292055875
REMARK CNNaffinity 6.01185608
REMARK  17 active torsions:
REMARK  status: ('A' for Active; 'I' for Inactive)
REMARK    1  A    between atoms: C2_2  and  C3_3 
REMARK    2  A    between atoms: C2_2  and  C26_32 
REMARK    3  A    between atoms: C4_4  and  C5_5 
REMARK    4  A    between atoms: C6_6  and  C7_7 
REMARK    5  A    between atoms: C6_6  and  C9_11 
REMARK    6  A    between atoms: C7_7  and  O1_8 
REMARK    7  A    between atoms: O1_8  and  C8_9 
REMARK    8  A    between atoms: C8_9  and  O2_10 
REMARK    9  A    between atoms: C13_15  and  O3_16 
REMARK   10  A    between atoms: C14_17  and  C15_18 
REMARK   11  A    between atoms: C15_18  and  C16_19 
REMARK   12  A    between atoms: C16_19  and  C17_20 
REMARK   13  A    between atoms: C17_20  and  O4_21 
REMARK   14  A    between atoms: C19_23  and  C21_25 
REMARK   15  A    between atoms: C24_29  and  O6_31 
REMARK   16  A    between atoms: C26_32  and  C27_33 
REMARK   17  A    between atoms: C27_33  and  C28_34 
ROOT
HETATM    1  C9  UNL     1      -9.267  46.595 -26.125  1.00  0.00     0.046 C 
HETATM    2  C10 UNL     1      -7.864  46.095 -26.499  1.00  0.00     0.013 C 
HETATM    3  C11 UNL     1      -7.472  46.869 -27.755  1.00  0.00     0.017 C 
HETATM    4  C12 UNL     1      -8.798  47.159 -28.521  1.00  0.00     0.024 C 
HETATM    5  C13 UNL     1      -9.712  47.525 -27.295  1.00  0.00     0.138 C 
HETATM    6  C14 UNL     1      -9.300  45.800 -29.239  1.00  0.00     0.029 C 
HETATM    7  C18 UNL     1      -8.840  45.753 -30.700  1.00  0.00    -0.066 C 
HETATM    8  C19 UNL     1      -7.985  44.845 -31.241  1.00  0.00    -0.021 C 
HETATM    9  C20 UNL     1      -7.619  44.760 -32.704  1.00  0.00     0.052 C 
HETATM   10  C22 UNL     1      -9.420  46.897 -31.529  1.00  0.00     0.038 C 
HETATM   11  C23 UNL     1      -9.592  48.192 -30.726  1.00  0.00     0.042 C 
HETATM   12  C24 UNL     1      -8.566  48.318 -29.593  1.00  0.00     0.065 C 
HETATM   13  C25 UNL     1      -7.140  48.361 -30.191  1.00  0.00     0.047 C 
ENDROOT
BRANCH   1  14
HETATM   14  C6  UNL     1      -9.518  47.177 -24.733  1.00  0.00    -0.050 C 
HETATM   15  C5  UNL     1      -8.695  47.903 -23.943  1.00  0.00     0.005 C 
BRANCH  15  16
HETATM   16  C4  UNL     1      -7.397  48.470 -24.240  1.00  0.00     0.001 C 
HETATM   17  C3  UNL     1      -6.247  47.879 -23.873  1.00  0.00     0.006 C 
BRANCH  17  18
HETATM   18  C2  UNL     1      -4.892  48.394 -24.087  1.00  0.00    -0.067 C 
HETATM   19  C1  UNL     1      -4.464  48.536 -25.354  1.00  0.00     0.019 C 
BRANCH  18  20
HETATM   20  C26 UNL     1      -4.045  48.727 -22.866  1.00  0.00     0.041 C 
BRANCH  20  21
HETATM   21  C27 UNL     1      -2.510  48.585 -22.951  1.00  0.00     0.032 C 
BRANCH  21  22
HETATM   22  C28 UNL     1      -1.797  49.893 -23.183  1.00  0.00    -0.024 C 
HETATM   23  C29 UNL     1      -1.392  50.788 -22.262  1.00  0.00    -0.091 C 
HETATM   24  C30 UNL     1      -1.605  50.668 -20.779  1.00  0.00     0.042 C 
HETATM   25  C31 UNL     1      -0.663  52.041 -22.680  1.00  0.00     0.042 C 
ENDBRANCH  21  22
ENDBRANCH  20  21
ENDBRANCH  18  20
ENDBRANCH  17  18
ENDBRANCH  15  16
BRANCH  14  26
HETATM   26  C7  UNL     1     -10.934  46.875 -24.242  1.00  0.00     0.205 C 
BRANCH  26  27
HETATM   27  O1  UNL     1     -11.964  47.514 -24.993  1.00  0.00    -0.363 OA
BRANCH  27  28
HETATM   28  C8  UNL     1     -13.104  46.704 -25.252  1.00  0.00     0.334 C 
BRANCH  28  29
HETATM   29  O2  UNL     1     -14.328  47.412 -25.186  1.00  0.00    -0.377 OA
HETATM   30  H10 UNL     1     -14.690  47.202 -24.300  1.00  0.00     0.212 HD
ENDBRANCH  28  29
ENDBRANCH  27  28
ENDBRANCH  26  27
ENDBRANCH  14  26
ENDBRANCH   1  14
BRANCH   5  31
HETATM   31  O3  UNL     1      -9.634  48.900 -26.904  1.00  0.00    -0.394 OA
HETATM   32  H17 UNL     1      -8.734  49.058 -26.554  1.00  0.00     0.210 HD
ENDBRANCH   5  31
BRANCH   6  33
HETATM   33  C15 UNL     1     -10.835  45.523 -29.167  1.00  0.00     0.012 C 
BRANCH  33  34
HETATM   34  C16 UNL     1     -11.699  46.626 -28.525  1.00  0.00     0.027 C 
BRANCH  34  35
HETATM   35  C17 UNL     1     -13.060  46.822 -29.184  1.00  0.00     0.164 C 
BRANCH  35  36
HETATM   36  O4  UNL     1     -12.908  47.320 -30.506  1.00  0.00    -0.401 OA
HETATM   37  H25 UNL     1     -12.546  46.595 -31.045  1.00  0.00     0.209 HD
ENDBRANCH  35  36
ENDBRANCH  34  35
ENDBRANCH  33  34
ENDBRANCH   6  33
BRANCH  12  38
HETATM   38  O6  UNL     1      -8.708  49.632 -29.041  1.00  0.00    -0.389 OA
HETATM   39  H37 UNL     1      -9.490  49.640 -28.452  1.00  0.00     0.210 HD
ENDBRANCH  12  38
BRANCH   8  40
HETATM   40  C21 UNL     1      -7.283  43.799 -30.426  1.00  0.00     0.265 C 
HETATM   41  O5  UNL     1      -6.543  42.959 -30.923  1.00  0.00    -0.302 OA
ENDBRANCH   8  40
TORSDOF 17
ENDMDL
MODEL 8
REMARK minimizedAffinity -6.28801632
REMARK CNNscore 0.289713979
REMARK CNNaffinity 6.00414848
REMARK  17 active torsions:
REMARK  status: ('A' for Active; 'I' for Inactive)
REMARK    1  A    between atoms: C2_2  and  C3_3 
REMARK    2  A    between atoms: C2_2  and  C26_32 
REMARK    3  A    between atoms: C4_4  and  C5_5 
REMARK    4  A    between atoms: C6_6  and  C7_7 
REMARK    5  A    between atoms: C6_6  and  C9_11 
REMARK    6  A    between atoms: C7_7  and  O1_8 
REMARK    7  A    between atoms: O1_8  and  C8_9 
REMARK    8  A    between atoms: C8_9  and  O2_10 
REMARK    9  A    between atoms: C13_15  and  O3_16 
REMARK   10  A    between atoms: C14_17  and  C15_18 
REMARK   11  A    between atoms: C15_18  and  C16_19 
REMARK   12  A    between atoms: C16_19  and  C17_20 
REMARK   13  A    between atoms: C17_20  and  O4_21 
REMARK   14  A    between atoms: C19_23  and  C21_25 
REMARK   15  A    between atoms: C24_29  and  O6_31 
REMARK   16  A    between atoms: C26_32  and  C27_33 
REMARK   17  A    between atoms: C27_33  and  C28_34 
ROOT
HETATM    1  C9  UNL     1      -5.159  48.702 -22.661  1.00  0.00     0.046 C 
HETATM    2  C10 UNL     1      -3.916  48.160 -23.383  1.00  0.00     0.013 C 
HETATM    3  C11 UNL     1      -2.744  48.424 -22.443  1.00  0.00     0.017 C 
HETATM    4  C12 UNL     1      -3.102  49.719 -21.651  1.00  0.00     0.024 C 
HETATM    5  C13 UNL     1      -4.625  49.428 -21.388  1.00  0.00     0.138 C 
HETATM    6  C14 UNL     1      -2.910  50.999 -22.618  1.00  0.00     0.029 C 
HETATM    7  C18 UNL     1      -1.532  51.638 -22.413  1.00  0.00    -0.066 C 
HETATM    8  C19 UNL     1      -0.542  51.720 -23.339  1.00  0.00    -0.021 C 
HETATM    9  C20 UNL     1       0.773  52.437 -23.145  1.00  0.00     0.052 C 
HETATM   10  C22 UNL     1      -1.342  52.162 -20.991  1.00  0.00     0.038 C 
HETATM   11  C23 UNL     1      -2.059  51.309 -19.936  1.00  0.00     0.042 C 
HETATM   12  C24 UNL     1      -2.177  49.839 -20.356  1.00  0.00     0.065 C 
HETATM   13  C25 UNL     1      -0.764  49.233 -20.520  1.00  0.00     0.047 C 
ENDROOT
BRANCH   1  14
HETATM   14  C6  UNL     1      -6.348  47.778 -22.401  1.00  0.00    -0.050 C 
HETATM   15  C5  UNL     1      -6.375  46.546 -21.843  1.00  0.00     0.005 C 
BRANCH  15  16
HETATM   16  C4  UNL     1      -5.315  45.807 -21.191  1.00  0.00     0.001 C 
HETATM   17  C3  UNL     1      -5.447  45.283 -19.961  1.00  0.00     0.006 C 
BRANCH  17  18
HETATM   18  C2  UNL     1      -4.422  44.560 -19.204  1.00  0.00    -0.067 C 
HETATM   19  C1  UNL     1      -3.500  45.281 -18.542  1.00  0.00     0.019 C 
BRANCH  18  20
HETATM   20  C26 UNL     1      -4.453  43.037 -19.219  1.00  0.00     0.041 C 
BRANCH  20  21
HETATM   21  C27 UNL     1      -3.985  42.260 -17.969  1.00  0.00     0.032 C 
BRANCH  21  22
HETATM   22  C28 UNL     1      -2.678  41.534 -18.168  1.00  0.00    -0.024 C 
HETATM   23  C29 UNL     1      -1.513  41.737 -17.526  1.00  0.00    -0.091 C 
HETATM   24  C30 UNL     1      -1.271  42.783 -16.472  1.00  0.00     0.042 C 
HETATM   25  C31 UNL     1      -0.306  40.890 -17.840  1.00  0.00     0.042 C 
ENDBRANCH  21  22
ENDBRANCH  20  21
ENDBRANCH  18  20
ENDBRANCH  17  18
ENDBRANCH  15  16
BRANCH  14  26
HETATM   26  C7  UNL     1      -7.666  48.417 -22.839  1.00  0.00     0.205 C 
BRANCH  26  27
HETATM   27  O1  UNL     1      -7.608  49.072 -24.103  1.00  0.00    -0.363 OA
BRANCH  27  28
HETATM   28  C8  UNL     1      -8.723  48.830 -24.953  1.00  0.00     0.334 C 
BRANCH  28  29
HETATM   29  O2  UNL     1      -9.319  50.012 -25.456  1.00  0.00    -0.377 OA
HETATM   30  H10 UNL     1     -10.102  50.158 -24.886  1.00  0.00     0.212 HD
ENDBRANCH  28  29
ENDBRANCH  27  28
ENDBRANCH  26  27
ENDBRANCH  14  26
ENDBRANCH   1  14
BRANCH   5  31
HETATM   31  O3  UNL     1      -4.871  48.640 -20.217  1.00  0.00    -0.394 OA
HETATM   32  H17 UNL     1      -4.509  47.746 -20.381  1.00  0.00     0.210 HD
ENDBRANCH   5  31
BRANCH   6  33
HETATM   33  C15 UNL     1      -4.015  52.098 -22.515  1.00  0.00     0.012 C 
BRANCH  33  34
HETATM   34  C16 UNL     1      -4.909  52.288 -23.755  1.00  0.00     0.027 C 
BRANCH  34  35
HETATM   35  C17 UNL     1      -4.292  51.791 -25.057  1.00  0.00     0.164 C 
BRANCH  35  36
HETATM   36  O4  UNL     1      -3.444  52.784 -25.619  1.00  0.00    -0.401 OA
HETATM   37  H25 UNL     1      -2.655  52.840 -25.051  1.00  0.00     0.209 HD
ENDBRANCH  35  36
ENDBRANCH  34  35
ENDBRANCH  33  34
ENDBRANCH   6  33
BRANCH  12  38
HETATM   38  O6  UNL     1      -2.691  49.120 -19.229  1.00  0.00    -0.389 OA
HETATM   39  H37 UNL     1      -3.657  49.274 -19.174  1.00  0.00     0.210 HD
ENDBRANCH  12  38
BRANCH   8  40
HETATM   40  C21 UNL     1      -0.639  51.087 -24.696  1.00  0.00     0.265 C 
HETATM   41  O5  UNL     1      -1.579  50.376 -25.030  1.00  0.00    -0.302 OA
ENDBRANCH   8  40
TORSDOF 17
ENDMDL
MODEL 9
REMARK minimizedAffinity -7.71010733
REMARK CNNscore 0.269979477
REMARK CNNaffinity 6.58942986
REMARK  17 active torsions:
REMARK  status: ('A' for Active; 'I' for Inactive)
REMARK    1  A    between atoms: C2_2  and  C3_3 
REMARK    2  A    between atoms: C2_2  and  C26_32 
REMARK    3  A    between atoms: C4_4  and  C5_5 
REMARK    4  A    between atoms: C6_6  and  C7_7 
REMARK    5  A    between atoms: C6_6  and  C9_11 
REMARK    6  A    between atoms: C7_7  and  O1_8 
REMARK    7  A    between atoms: O1_8  and  C8_9 
REMARK    8  A    between atoms: C8_9  and  O2_10 
REMARK    9  A    between atoms: C13_15  and  O3_16 
REMARK   10  A    between atoms: C14_17  and  C15_18 
REMARK   11  A    between atoms: C15_18  and  C16_19 
REMARK   12  A    between atoms: C16_19  and  C17_20 
REMARK   13  A    between atoms: C17_20  and  O4_21 
REMARK   14  A    between atoms: C19_23  and  C21_25 
REMARK   15  A    between atoms: C24_29  and  O6_31 
REMARK   16  A    between atoms: C26_32  and  C27_33 
REMARK   17  A    between atoms: C27_33  and  C28_34 
ROOT
HETATM    1  C9  UNL     1      -1.832  50.318 -20.414  1.00  0.00     0.046 C 
HETATM    2  C10 UNL     1      -3.190  50.789 -19.872  1.00  0.00     0.013 C 
HETATM    3  C11 UNL     1      -3.873  49.537 -19.327  1.00  0.00     0.017 C 
HETATM    4  C12 UNL     1      -3.368  48.349 -20.200  1.00  0.00     0.024 C 
HETATM    5  C13 UNL     1      -1.854  48.762 -20.320  1.00  0.00     0.138 C 
HETATM    6  C14 UNL     1      -4.103  48.401 -21.639  1.00  0.00     0.029 C 
HETATM    7  C18 UNL     1      -5.327  47.479 -21.660  1.00  0.00    -0.066 C 
HETATM    8  C19 UNL     1      -6.619  47.869 -21.814  1.00  0.00    -0.021 C 
HETATM    9  C20 UNL     1      -7.801  46.935 -21.927  1.00  0.00     0.052 C 
HETATM   10  C22 UNL     1      -4.954  46.015 -21.440  1.00  0.00     0.038 C 
HETATM   11  C23 UNL     1      -3.762  45.835 -20.492  1.00  0.00     0.042 C 
HETATM   12  C24 UNL     1      -3.660  46.966 -19.460  1.00  0.00     0.065 C 
HETATM   13  C25 UNL     1      -4.927  46.970 -18.572  1.00  0.00     0.047 C 
ENDROOT
BRANCH   1  14
HETATM   14  C6  UNL     1      -0.545  50.958 -19.892  1.00  0.00    -0.050 C 
HETATM   15  C5  UNL     1       0.284  51.840 -20.495  1.00  0.00     0.005 C 
BRANCH  15  16
HETATM   16  C4  UNL     1       0.120  52.553 -21.744  1.00  0.00     0.001 C 
HETATM   17  C3  UNL     1      -0.296  51.952 -22.872  1.00  0.00     0.006 C 
BRANCH  17  18
HETATM   18  C2  UNL     1      -0.450  52.575 -24.189  1.00  0.00    -0.067 C 
HETATM   19  C1  UNL     1       0.237  53.704 -24.437  1.00  0.00     0.019 C 
BRANCH  18  20
HETATM   20  C26 UNL     1      -1.386  51.917 -25.195  1.00  0.00     0.041 C 
BRANCH  20  21
HETATM   21  C27 UNL     1      -0.861  50.757 -26.067  1.00  0.00     0.032 C 
BRANCH  21  22
HETATM   22  C28 UNL     1       0.608  50.864 -26.388  1.00  0.00    -0.024 C 
HETATM   23  C29 UNL     1       1.199  51.648 -27.309  1.00  0.00    -0.091 C 
HETATM   24  C30 UNL     1       0.483  52.578 -28.249  1.00  0.00     0.042 C 
HETATM   25  C31 UNL     1       2.698  51.642 -27.474  1.00  0.00     0.042 C 
ENDBRANCH  21  22
ENDBRANCH  20  21
ENDBRANCH  18  20
ENDBRANCH  17  18
ENDBRANCH  15  16
BRANCH  14  26
HETATM   26  C7  UNL     1      -0.228  50.505 -18.466  1.00  0.00     0.205 C 
BRANCH  26  27
HETATM   27  O1  UNL     1      -0.737  51.367 -17.451  1.00  0.00    -0.363 OA
BRANCH  27  28
HETATM   28  C8  UNL     1      -1.508  50.717 -16.447  1.00  0.00     0.334 C 
BRANCH  28  29
HETATM   29  O2  UNL     1      -2.845  51.175 -16.374  1.00  0.00    -0.377 OA
HETATM   30  H10 UNL     1      -2.853  51.803 -15.622  1.00  0.00     0.212 HD
ENDBRANCH  28  29
ENDBRANCH  27  28
ENDBRANCH  26  27
ENDBRANCH  14  26
ENDBRANCH   1  14
BRANCH   5  31
HETATM   31  O3  UNL     1      -1.043  48.310 -19.230  1.00  0.00    -0.394 OA
HETATM   32  H17 UNL     1      -1.332  48.790 -18.427  1.00  0.00     0.210 HD
ENDBRANCH   5  31
BRANCH   6  33
HETATM   33  C15 UNL     1      -3.198  48.094 -22.874  1.00  0.00     0.012 C 
BRANCH  33  34
HETATM   34  C16 UNL     1      -3.392  49.000 -24.105  1.00  0.00     0.027 C 
BRANCH  34  35
HETATM   35  C17 UNL     1      -4.389  48.466 -25.128  1.00  0.00     0.164 C 
BRANCH  35  36
HETATM   36  O4  UNL     1      -3.804  48.427 -26.422  1.00  0.00    -0.401 OA
HETATM   37  H25 UNL     1      -3.145  47.710 -26.417  1.00  0.00     0.209 HD
ENDBRANCH  35  36
ENDBRANCH  34  35
ENDBRANCH  33  34
ENDBRANCH   6  33
BRANCH  12  38
HETATM   38  O6  UNL     1      -2.635  46.597 -18.531  1.00  0.00    -0.389 OA
HETATM   39  H37 UNL     1      -1.763  46.774 -18.941  1.00  0.00     0.210 HD
ENDBRANCH  12  38
BRANCH   8  40
HETATM   40  C21 UNL     1      -7.035  49.309 -21.886  1.00  0.00     0.265 C 
HETATM   41  O5  UNL     1      -7.799  49.736 -22.743  1.00  0.00    -0.302 OA
ENDBRANCH   8  40
TORSDOF 17
ENDMDL
