MODEL 1
REMARK minimizedAffinity -8.6528616
REMARK  10 active torsions:
REMARK  status: ('A' for Active; 'I' for Inactive)
REMARK    1  A    between atoms: C2_2  and  C3_3 
REMARK    2  A    between atoms: C5_5  and  C6_6 
REMARK    3  A    between atoms: C6_6  and  C7_7 
REMARK    4  A    between atoms: C13_13  and  C15_15 
REMARK    5  A    between atoms: C15_15  and  O1_16 
REMARK    6  A    between atoms: O1_16  and  C16_17 
REMARK    7  A    between atoms: C17_19  and  C18_20 
REMARK    8  A    between atoms: C18_20  and  O3_21 
REMARK    9  A    between atoms: C19_22  and  O4_23 
REMARK   10  A    between atoms: C20_24  and  O5_25 
ROOT
HETATM    1  C7  UNL     1      -4.617   6.208  13.049  1.00  0.00     0.025 C 
HETATM    2  C8  UNL     1      -4.776   4.686  12.949  1.00  0.00    -0.084 C 
HETATM    3  C9  UNL     1      -5.937   4.007  12.934  1.00  0.00     0.015 C 
HETATM    4  C10 UNL     1      -3.492   3.907  12.790  1.00  0.00     0.034 C 
HETATM    5  C11 UNL     1      -2.295   4.808  12.500  1.00  0.00     0.010 C 
HETATM    6  C12 UNL     1      -2.088   5.828  13.639  1.00  0.00     0.005 C 
HETATM    7  C13 UNL     1      -0.796   6.705  13.454  1.00  0.00    -0.018 C 
HETATM    8  C14 UNL     1       0.466   5.821  13.650  1.00  0.00     0.018 C 
HETATM    9  C21 UNL     1      -0.768   7.763  14.579  1.00  0.00     0.012 C 
HETATM   10  C22 UNL     1      -1.954   8.716  14.570  1.00  0.00     0.002 C 
HETATM   11  C23 UNL     1      -3.223   8.162  13.931  1.00  0.00     0.010 C 
HETATM   12  C24 UNL     1      -3.421   6.625  14.016  1.00  0.00    -0.032 C 
HETATM   13  C25 UNL     1      -3.749   6.282  15.496  1.00  0.00     0.016 C 
ENDROOT
BRANCH   7  14
HETATM   14  C15 UNL     1      -0.689   7.355  12.048  1.00  0.00     0.180 C 
BRANCH  14  15
HETATM   15  O1  UNL     1       0.623   7.160  11.518  1.00  0.00    -0.358 OA
BRANCH  15  16
HETATM   16  C16 UNL     1       0.612   6.906  10.115  1.00  0.00     0.291 C 
HETATM   17  O2  UNL     1       1.572   5.890   9.758  1.00  0.00    -0.348 OA
HETATM   18  C17 UNL     1       2.511   6.487   8.853  1.00  0.00     0.179 C 
HETATM   19  C19 UNL     1       1.771   7.637   8.189  1.00  0.00     0.182 C 
HETATM   20  C20 UNL     1       0.999   8.190   9.366  1.00  0.00     0.204 C 
BRANCH  18  21
HETATM   21  C18 UNL     1       3.020   5.461   7.845  1.00  0.00     0.198 C 
BRANCH  21  22
HETATM   22  O3  UNL     1       3.336   4.233   8.498  1.00  0.00    -0.398 OA
HETATM   23  H27 UNL     1       3.663   3.628   7.807  1.00  0.00     0.209 HD
ENDBRANCH  21  22
ENDBRANCH  18  21
BRANCH  19  24
HETATM   24  O4  UNL     1       2.628   8.614   7.612  1.00  0.00    -0.390 OA
HETATM   25  H29 UNL     1       3.265   8.116   7.056  1.00  0.00     0.210 HD
ENDBRANCH  19  24
BRANCH  20  26
HETATM   26  O5  UNL     1      -0.123   8.955   8.930  1.00  0.00    -0.388 OA
HETATM   27  H31 UNL     1       0.244   9.672   8.376  1.00  0.00     0.210 HD
ENDBRANCH  20  26
ENDBRANCH  15  16
ENDBRANCH  14  15
ENDBRANCH   7  14
BRANCH   1  28
HETATM   28  C6  UNL     1      -5.946   7.025  13.188  1.00  0.00     0.037 C 
BRANCH  28  29
HETATM   29  C5  UNL     1      -6.715   6.896  14.479  1.00  0.00    -0.019 C 
HETATM   30  C3  UNL     1      -8.006   6.533  14.641  1.00  0.00    -0.067 C 
HETATM   31  C4  UNL     1      -8.916   6.130  13.509  1.00  0.00     0.048 C 
BRANCH  30  32
HETATM   32  C2  UNL     1      -8.556   6.514  15.995  1.00  0.00    -0.004 C 
HETATM   33  C1  UNL     1      -8.936   7.575  16.720  1.00  0.00     0.012 C 
ENDBRANCH  30  32
ENDBRANCH  28  29
ENDBRANCH   1  28
TORSDOF 10
ENDMDL
MODEL 2
REMARK minimizedAffinity -8.50729275
REMARK  10 active torsions:
REMARK  status: ('A' for Active; 'I' for Inactive)
REMARK    1  A    between atoms: C2_2  and  C3_3 
REMARK    2  A    between atoms: C5_5  and  C6_6 
REMARK    3  A    between atoms: C6_6  and  C7_7 
REMARK    4  A    between atoms: C13_13  and  C15_15 
REMARK    5  A    between atoms: C15_15  and  O1_16 
REMARK    6  A    between atoms: O1_16  and  C16_17 
REMARK    7  A    between atoms: C17_19  and  C18_20 
REMARK    8  A    between atoms: C18_20  and  O3_21 
REMARK    9  A    between atoms: C19_22  and  O4_23 
REMARK   10  A    between atoms: C20_24  and  O5_25 
ROOT
HETATM    1  C7  UNL     1      -3.340   5.651  12.756  1.00  0.00     0.025 C 
HETATM    2  C8  UNL     1      -2.958   4.221  12.353  1.00  0.00    -0.084 C 
HETATM    3  C9  UNL     1      -3.810   3.200  12.149  1.00  0.00     0.015 C 
HETATM    4  C10 UNL     1      -1.487   3.984  12.109  1.00  0.00     0.034 C 
HETATM    5  C11 UNL     1      -0.687   5.282  12.060  1.00  0.00     0.010 C 
HETATM    6  C12 UNL     1      -0.825   6.062  13.384  1.00  0.00     0.005 C 
HETATM    7  C13 UNL     1       0.075   7.349  13.438  1.00  0.00    -0.018 C 
HETATM    8  C14 UNL     1       1.571   6.938  13.519  1.00  0.00     0.018 C 
HETATM    9  C21 UNL     1      -0.243   8.104  14.747  1.00  0.00     0.012 C 
HETATM   10  C22 UNL     1      -1.687   8.568  14.866  1.00  0.00     0.002 C 
HETATM   11  C23 UNL     1      -2.696   7.748  14.070  1.00  0.00     0.010 C 
HETATM   12  C24 UNL     1      -2.343   6.255  13.844  1.00  0.00    -0.032 C 
HETATM   13  C25 UNL     1      -2.497   5.531  15.210  1.00  0.00     0.016 C 
ENDROOT
BRANCH   7  14
HETATM   14  C15 UNL     1      -0.083   8.263  12.192  1.00  0.00     0.180 C 
BRANCH  14  15
HETATM   15  O1  UNL     1       1.097   8.203  11.389  1.00  0.00    -0.358 OA
BRANCH  15  16
HETATM   16  C16 UNL     1       0.884   7.513  10.159  1.00  0.00     0.291 C 
HETATM   17  O2  UNL     1       1.831   6.438   9.989  1.00  0.00    -0.348 OA
HETATM   18  C17 UNL     1       2.586   6.716   8.802  1.00  0.00     0.179 C 
HETATM   19  C19 UNL     1       1.692   7.592   7.939  1.00  0.00     0.182 C 
HETATM   20  C20 UNL     1       1.082   8.491   8.991  1.00  0.00     0.204 C 
BRANCH  18  21
HETATM   21  C18 UNL     1       2.988   5.423   8.100  1.00  0.00     0.198 C 
BRANCH  21  22
HETATM   22  O3  UNL     1       3.962   4.720   8.868  1.00  0.00    -0.398 OA
HETATM   23  H27 UNL     1       4.183   3.914   8.364  1.00  0.00     0.209 HD
ENDBRANCH  21  22
ENDBRANCH  18  21
BRANCH  19  24
HETATM   24  O4  UNL     1       2.396   8.335   6.952  1.00  0.00    -0.390 OA
HETATM   25  H29 UNL     1       2.966   7.686   6.485  1.00  0.00     0.210 HD
ENDBRANCH  19  24
BRANCH  20  26
HETATM   26  O5  UNL     1      -0.134   9.075   8.525  1.00  0.00    -0.388 OA
HETATM   27  H31 UNL     1       0.105   9.578   7.722  1.00  0.00     0.210 HD
ENDBRANCH  20  26
ENDBRANCH  15  16
ENDBRANCH  14  15
ENDBRANCH   7  14
BRANCH   1  28
HETATM   28  C6  UNL     1      -4.867   5.911  12.985  1.00  0.00     0.037 C 
BRANCH  28  29
HETATM   29  C5  UNL     1      -5.747   4.717  13.256  1.00  0.00    -0.019 C 
HETATM   30  C3  UNL     1      -7.078   4.607  13.059  1.00  0.00    -0.067 C 
HETATM   31  C4  UNL     1      -7.933   5.696  12.461  1.00  0.00     0.048 C 
BRANCH  30  32
HETATM   32  C2  UNL     1      -7.735   3.357  13.433  1.00  0.00    -0.004 C 
HETATM   33  C1  UNL     1      -7.628   2.177  12.808  1.00  0.00     0.012 C 
ENDBRANCH  30  32
ENDBRANCH  28  29
ENDBRANCH   1  28
TORSDOF 10
ENDMDL
MODEL 3
REMARK minimizedAffinity -8.30703545
REMARK  10 active torsions:
REMARK  status: ('A' for Active; 'I' for Inactive)
REMARK    1  A    between atoms: C2_2  and  C3_3 
REMARK    2  A    between atoms: C5_5  and  C6_6 
REMARK    3  A    between atoms: C6_6  and  C7_7 
REMARK    4  A    between atoms: C13_13  and  C15_15 
REMARK    5  A    between atoms: C15_15  and  O1_16 
REMARK    6  A    between atoms: O1_16  and  C16_17 
REMARK    7  A    between atoms: C17_19  and  C18_20 
REMARK    8  A    between atoms: C18_20  and  O3_21 
REMARK    9  A    between atoms: C19_22  and  O4_23 
REMARK   10  A    between atoms: C20_24  and  O5_25 
ROOT
HETATM    1  C7  UNL     1      -4.898   6.051  13.096  1.00  0.00     0.025 C 
HETATM    2  C8  UNL     1      -5.169   4.543  13.009  1.00  0.00    -0.084 C 
HETATM    3  C9  UNL     1      -6.377   3.954  12.986  1.00  0.00     0.015 C 
HETATM    4  C10 UNL     1      -3.945   3.669  12.874  1.00  0.00     0.034 C 
HETATM    5  C11 UNL     1      -2.681   4.475  12.590  1.00  0.00     0.010 C 
HETATM    6  C12 UNL     1      -2.412   5.489  13.720  1.00  0.00     0.005 C 
HETATM    7  C13 UNL     1      -1.056   6.265  13.544  1.00  0.00    -0.018 C 
HETATM    8  C14 UNL     1       0.135   5.291  13.763  1.00  0.00     0.018 C 
HETATM    9  C21 UNL     1      -0.961   7.330  14.658  1.00  0.00     0.012 C 
HETATM   10  C22 UNL     1      -2.072   8.368  14.625  1.00  0.00     0.002 C 
HETATM   11  C23 UNL     1      -3.372   7.904  13.976  1.00  0.00     0.010 C 
HETATM   12  C24 UNL     1      -3.685   6.388  14.074  1.00  0.00    -0.032 C 
HETATM   13  C25 UNL     1      -4.055   6.086  15.552  1.00  0.00     0.016 C 
ENDROOT
BRANCH   7  14
HETATM   14  C15 UNL     1      -0.884   6.890  12.132  1.00  0.00     0.180 C 
BRANCH  14  15
HETATM   15  O1  UNL     1       0.097   6.161  11.391  1.00  0.00    -0.358 OA
BRANCH  15  16
HETATM   16  C16 UNL     1       1.125   7.003  10.874  1.00  0.00     0.291 C 
HETATM   17  O2  UNL     1       0.956   7.230   9.460  1.00  0.00    -0.348 OA
HETATM   18  C17 UNL     1       2.122   6.716   8.801  1.00  0.00     0.179 C 
HETATM   19  C19 UNL     1       3.235   6.762   9.836  1.00  0.00     0.182 C 
HETATM   20  C20 UNL     1       2.486   6.317  11.072  1.00  0.00     0.204 C 
BRANCH  18  21
HETATM   21  C18 UNL     1       2.448   7.538   7.558  1.00  0.00     0.198 C 
BRANCH  21  22
HETATM   22  O3  UNL     1       1.676   7.089   6.446  1.00  0.00    -0.398 OA
HETATM   23  H27 UNL     1       1.936   7.643   5.686  1.00  0.00     0.209 HD
ENDBRANCH  21  22
ENDBRANCH  18  21
BRANCH  19  24
HETATM   24  O4  UNL     1       4.328   5.901   9.541  1.00  0.00    -0.390 OA
HETATM   25  H29 UNL     1       4.578   6.094   8.612  1.00  0.00     0.210 HD
ENDBRANCH  19  24
BRANCH  20  26
HETATM   26  O5  UNL     1       3.164   6.729  12.258  1.00  0.00    -0.388 OA
HETATM   27  H31 UNL     1       4.050   6.319  12.212  1.00  0.00     0.210 HD
ENDBRANCH  20  26
ENDBRANCH  15  16
ENDBRANCH  14  15
ENDBRANCH   7  14
BRANCH   1  28
HETATM   28  C6  UNL     1      -6.164   6.966  13.210  1.00  0.00     0.037 C 
BRANCH  28  29
HETATM   29  C5  UNL     1      -6.947   6.919  14.498  1.00  0.00    -0.019 C 
HETATM   30  C3  UNL     1      -8.264   6.667  14.658  1.00  0.00    -0.067 C 
HETATM   31  C4  UNL     1      -9.199   6.326  13.525  1.00  0.00     0.048 C 
BRANCH  30  32
HETATM   32  C2  UNL     1      -8.821   6.713  16.008  1.00  0.00    -0.004 C 
HETATM   33  C1  UNL     1      -9.169   7.810  16.694  1.00  0.00     0.012 C 
ENDBRANCH  30  32
ENDBRANCH  28  29
ENDBRANCH   1  28
TORSDOF 10
ENDMDL
MODEL 4
REMARK minimizedAffinity -8.16676903
REMARK  10 active torsions:
REMARK  status: ('A' for Active; 'I' for Inactive)
REMARK    1  A    between atoms: C2_2  and  C3_3 
REMARK    2  A    between atoms: C5_5  and  C6_6 
REMARK    3  A    between atoms: C6_6  and  C7_7 
REMARK    4  A    between atoms: C13_13  and  C15_15 
REMARK    5  A    between atoms: C15_15  and  O1_16 
REMARK    6  A    between atoms: O1_16  and  C16_17 
REMARK    7  A    between atoms: C17_19  and  C18_20 
REMARK    8  A    between atoms: C18_20  and  O3_21 
REMARK    9  A    between atoms: C19_22  and  O4_23 
REMARK   10  A    between atoms: C20_24  and  O5_25 
ROOT
HETATM    1  C7  UNL     1       2.390   7.105   9.999  1.00  0.00     0.025 C 
HETATM    2  C8  UNL     1       2.070   8.054   8.837  1.00  0.00    -0.084 C 
HETATM    3  C9  UNL     1       2.902   8.391   7.835  1.00  0.00     0.015 C 
HETATM    4  C10 UNL     1       0.661   8.595   8.809  1.00  0.00     0.034 C 
HETATM    5  C11 UNL     1      -0.256   7.888   9.803  1.00  0.00     0.010 C 
HETATM    6  C12 UNL     1       0.277   8.039  11.243  1.00  0.00     0.005 C 
HETATM    7  C13 UNL     1      -0.691   7.435  12.324  1.00  0.00    -0.018 C 
HETATM    8  C14 UNL     1      -1.976   8.302  12.418  1.00  0.00     0.018 C 
HETATM    9  C21 UNL     1       0.004   7.532  13.700  1.00  0.00     0.012 C 
HETATM   10  C22 UNL     1       1.311   6.760  13.795  1.00  0.00     0.002 C 
HETATM   11  C23 UNL     1       2.036   6.550  12.470  1.00  0.00     0.010 C 
HETATM   12  C24 UNL     1       1.817   7.639  11.387  1.00  0.00    -0.032 C 
HETATM   13  C25 UNL     1       2.573   8.914  11.854  1.00  0.00     0.016 C 
ENDROOT
BRANCH   7  14
HETATM   14  C15 UNL     1      -1.139   5.982  12.006  1.00  0.00     0.180 C 
BRANCH  14  15
HETATM   15  O1  UNL     1      -2.471   5.767  12.477  1.00  0.00    -0.358 OA
BRANCH  15  16
HETATM   16  C16 UNL     1      -2.741   4.392  12.739  1.00  0.00     0.291 C 
HETATM   17  O2  UNL     1      -1.755   3.537  12.125  1.00  0.00    -0.348 OA
HETATM   18  C17 UNL     1      -2.442   2.689  11.195  1.00  0.00     0.179 C 
HETATM   19  C19 UNL     1      -3.873   2.596  11.700  1.00  0.00     0.182 C 
HETATM   20  C20 UNL     1      -4.107   4.023  12.142  1.00  0.00     0.204 C 
BRANCH  18  21
HETATM   21  C18 UNL     1      -1.766   1.325  11.102  1.00  0.00     0.198 C 
BRANCH  21  22
HETATM   22  O3  UNL     1      -1.207   1.131   9.805  1.00  0.00    -0.398 OA
HETATM   23  H27 UNL     1      -0.802   0.244   9.807  1.00  0.00     0.209 HD
ENDBRANCH  21  22
ENDBRANCH  18  21
BRANCH  19  24
HETATM   24  O4  UNL     1      -4.807   2.189  10.707  1.00  0.00    -0.390 OA
HETATM   25  H29 UNL     1      -4.427   1.382  10.298  1.00  0.00     0.210 HD
ENDBRANCH  19  24
BRANCH  20  26
HETATM   26  O5  UNL     1      -5.179   4.100  13.081  1.00  0.00    -0.388 OA
HETATM   27  H31 UNL     1      -5.961   3.737  12.620  1.00  0.00     0.210 HD
ENDBRANCH  20  26
ENDBRANCH  15  16
ENDBRANCH  14  15
ENDBRANCH   7  14
BRANCH   1  28
HETATM   28  C6  UNL     1       3.842   6.519  10.021  1.00  0.00     0.037 C 
BRANCH  28  29
HETATM   29  C5  UNL     1       4.872   7.230  10.863  1.00  0.00    -0.019 C 
HETATM   30  C3  UNL     1       6.075   6.769  11.266  1.00  0.00    -0.067 C 
HETATM   31  C4  UNL     1       6.632   5.422  10.879  1.00  0.00     0.048 C 
BRANCH  30  32
HETATM   32  C2  UNL     1       6.898   7.626  12.117  1.00  0.00    -0.004 C 
HETATM   33  C1  UNL     1       6.881   7.678  13.456  1.00  0.00     0.012 C 
ENDBRANCH  30  32
ENDBRANCH  28  29
ENDBRANCH   1  28
TORSDOF 10
ENDMDL
MODEL 5
REMARK minimizedAffinity -8.12299919
REMARK  10 active torsions:
REMARK  status: ('A' for Active; 'I' for Inactive)
REMARK    1  A    between atoms: C2_2  and  C3_3 
REMARK    2  A    between atoms: C5_5  and  C6_6 
REMARK    3  A    between atoms: C6_6  and  C7_7 
REMARK    4  A    between atoms: C13_13  and  C15_15 
REMARK    5  A    between atoms: C15_15  and  O1_16 
REMARK    6  A    between atoms: O1_16  and  C16_17 
REMARK    7  A    between atoms: C17_19  and  C18_20 
REMARK    8  A    between atoms: C18_20  and  O3_21 
REMARK    9  A    between atoms: C19_22  and  O4_23 
REMARK   10  A    between atoms: C20_24  and  O5_25 
ROOT
HETATM    1  C7  UNL     1      -3.355   5.655  12.884  1.00  0.00     0.025 C 
HETATM    2  C8  UNL     1      -2.918   4.203  12.653  1.00  0.00    -0.084 C 
HETATM    3  C9  UNL     1      -3.727   3.165  12.375  1.00  0.00     0.015 C 
HETATM    4  C10 UNL     1      -1.428   3.959  12.683  1.00  0.00     0.034 C 
HETATM    5  C11 UNL     1      -0.624   5.256  12.683  1.00  0.00     0.010 C 
HETATM    6  C12 UNL     1      -0.983   6.123  13.907  1.00  0.00     0.005 C 
HETATM    7  C13 UNL     1      -0.099   7.417  14.027  1.00  0.00    -0.018 C 
HETATM    8  C14 UNL     1       1.358   7.021  14.393  1.00  0.00     0.018 C 
HETATM    9  C21 UNL     1      -0.633   8.258  15.207  1.00  0.00     0.012 C 
HETATM   10  C22 UNL     1      -2.073   8.720  15.043  1.00  0.00     0.002 C 
HETATM   11  C23 UNL     1      -2.935   7.841  14.143  1.00  0.00     0.010 C 
HETATM   12  C24 UNL     1      -2.557   6.338  14.084  1.00  0.00    -0.032 C 
HETATM   13  C25 UNL     1      -2.948   5.708  15.450  1.00  0.00     0.016 C 
ENDROOT
BRANCH   7  14
HETATM   14  C15 UNL     1      -0.035   8.242  12.713  1.00  0.00     0.180 C 
BRANCH  14  15
HETATM   15  O1  UNL     1       0.243   7.380  11.608  1.00  0.00    -0.358 OA
BRANCH  15  16
HETATM   16  C16 UNL     1       1.409   7.775  10.889  1.00  0.00     0.291 C 
HETATM   17  O2  UNL     1       1.087   8.162   9.537  1.00  0.00    -0.348 OA
HETATM   18  C17 UNL     1       1.793   7.277   8.658  1.00  0.00     0.179 C 
HETATM   19  C19 UNL     1       2.999   6.788   9.444  1.00  0.00     0.182 C 
HETATM   20  C20 UNL     1       2.379   6.587  10.809  1.00  0.00     0.204 C 
BRANCH  18  21
HETATM   21  C18 UNL     1       2.189   7.993   7.370  1.00  0.00     0.198 C 
BRANCH  21  22
HETATM   22  O3  UNL     1       3.180   8.984   7.634  1.00  0.00    -0.398 OA
HETATM   23  H27 UNL     1       3.381   9.410   6.780  1.00  0.00     0.209 HD
ENDBRANCH  21  22
ENDBRANCH  18  21
BRANCH  19  24
HETATM   24  O4  UNL     1       3.566   5.587   8.938  1.00  0.00    -0.390 OA
HETATM   25  H29 UNL     1       3.695   5.736   7.976  1.00  0.00     0.210 HD
ENDBRANCH  19  24
BRANCH  20  26
HETATM   26  O5  UNL     1       3.376   6.595  11.831  1.00  0.00    -0.388 OA
HETATM   27  H31 UNL     1       3.989   5.868  11.607  1.00  0.00     0.210 HD
ENDBRANCH  20  26
ENDBRANCH  15  16
ENDBRANCH  14  15
ENDBRANCH   7  14
BRANCH   1  28
HETATM   28  C6  UNL     1      -4.897   5.920  12.829  1.00  0.00     0.037 C 
BRANCH  28  29
HETATM   29  C5  UNL     1      -5.817   4.737  12.996  1.00  0.00    -0.019 C 
HETATM   30  C3  UNL     1      -7.167   4.737  13.035  1.00  0.00    -0.067 C 
HETATM   31  C4  UNL     1      -8.014   5.972  12.860  1.00  0.00     0.048 C 
BRANCH  30  32
HETATM   32  C2  UNL     1      -7.855   3.466  13.246  1.00  0.00    -0.004 C 
HETATM   33  C1  UNL     1      -7.455   2.258  12.826  1.00  0.00     0.012 C 
ENDBRANCH  30  32
ENDBRANCH  28  29
ENDBRANCH   1  28
TORSDOF 10
ENDMDL
MODEL 6
REMARK minimizedAffinity -7.98082256
REMARK  10 active torsions:
REMARK  status: ('A' for Active; 'I' for Inactive)
REMARK    1  A    between atoms: C2_2  and  C3_3 
REMARK    2  A    between atoms: C5_5  and  C6_6 
REMARK    3  A    between atoms: C6_6  and  C7_7 
REMARK    4  A    between atoms: C13_13  and  C15_15 
REMARK    5  A    between atoms: C15_15  and  O1_16 
REMARK    6  A    between atoms: O1_16  and  C16_17 
REMARK    7  A    between atoms: C17_19  and  C18_20 
REMARK    8  A    between atoms: C18_20  and  O3_21 
REMARK    9  A    between atoms: C19_22  and  O4_23 
REMARK   10  A    between atoms: C20_24  and  O5_25 
ROOT
HETATM    1  C7  UNL     1      -1.202   6.144  11.989  1.00  0.00     0.025 C 
HETATM    2  C8  UNL     1      -0.346   7.166  11.230  1.00  0.00    -0.084 C 
HETATM    3  C9  UNL     1       0.667   6.885  10.390  1.00  0.00     0.015 C 
HETATM    4  C10 UNL     1      -0.741   8.611  11.413  1.00  0.00     0.034 C 
HETATM    5  C11 UNL     1      -2.085   8.763  12.120  1.00  0.00     0.010 C 
HETATM    6  C12 UNL     1      -2.048   8.105  13.515  1.00  0.00     0.005 C 
HETATM    7  C13 UNL     1      -3.366   8.335  14.340  1.00  0.00    -0.018 C 
HETATM    8  C14 UNL     1      -3.472   9.830  14.748  1.00  0.00     0.018 C 
HETATM    9  C21 UNL     1      -3.259   7.530  15.653  1.00  0.00     0.012 C 
HETATM   10  C22 UNL     1      -3.117   6.029  15.455  1.00  0.00     0.002 C 
HETATM   11  C23 UNL     1      -2.500   5.607  14.126  1.00  0.00     0.010 C 
HETATM   12  C24 UNL     1      -1.499   6.605  13.486  1.00  0.00    -0.032 C 
HETATM   13  C25 UNL     1      -0.207   6.581  14.349  1.00  0.00     0.016 C 
ENDROOT
BRANCH   7  14
HETATM   14  C15 UNL     1      -4.656   7.982  13.551  1.00  0.00     0.180 C 
BRANCH  14  15
HETATM   15  O1  UNL     1      -5.808   8.415  14.278  1.00  0.00    -0.358 OA
BRANCH  15  16
HETATM   16  C16 UNL     1      -6.524   7.329  14.860  1.00  0.00     0.291 C 
HETATM   17  O2  UNL     1      -6.237   6.087  14.185  1.00  0.00    -0.348 OA
HETATM   18  C17 UNL     1      -7.473   5.595  13.648  1.00  0.00     0.179 C 
HETATM   19  C19 UNL     1      -8.568   6.189  14.520  1.00  0.00     0.182 C 
HETATM   20  C20 UNL     1      -8.032   7.589  14.726  1.00  0.00     0.204 C 
BRANCH  18  21
HETATM   21  C18 UNL     1      -7.493   4.070  13.645  1.00  0.00     0.198 C 
BRANCH  21  22
HETATM   22  O3  UNL     1      -8.757   3.588  13.192  1.00  0.00    -0.398 OA
HETATM   23  H27 UNL     1      -8.709   2.614  13.222  1.00  0.00     0.209 HD
ENDBRANCH  21  22
ENDBRANCH  18  21
BRANCH  19  24
HETATM   24  O4  UNL     1      -9.850   6.198  13.906  1.00  0.00    -0.390 OA
HETATM   25  H29 UNL     1      -9.993   5.285  13.574  1.00  0.00     0.210 HD
ENDBRANCH  19  24
BRANCH  20  26
HETATM   26  O5  UNL     1      -8.612   8.195  15.881  1.00  0.00    -0.388 OA
HETATM   27  H31 UNL     1      -9.576   8.202  15.720  1.00  0.00     0.210 HD
ENDBRANCH  20  26
ENDBRANCH  15  16
ENDBRANCH  14  15
ENDBRANCH   7  14
BRANCH   1  28
HETATM   28  C6  UNL     1      -0.814   4.642  11.784  1.00  0.00     0.037 C 
BRANCH  28  29
HETATM   29  C5  UNL     1      -1.868   3.601  12.070  1.00  0.00    -0.019 C 
HETATM   30  C3  UNL     1      -2.911   3.242  11.291  1.00  0.00    -0.067 C 
HETATM   31  C4  UNL     1      -3.176   3.817   9.923  1.00  0.00     0.048 C 
BRANCH  30  32
HETATM   32  C2  UNL     1      -3.835   2.228  11.794  1.00  0.00    -0.004 C 
HETATM   33  C1  UNL     1      -5.101   2.032  11.400  1.00  0.00     0.012 C 
ENDBRANCH  30  32
ENDBRANCH  28  29
ENDBRANCH   1  28
TORSDOF 10
ENDMDL
MODEL 7
REMARK minimizedAffinity -7.89684343
REMARK  10 active torsions:
REMARK  status: ('A' for Active; 'I' for Inactive)
REMARK    1  A    between atoms: C2_2  and  C3_3 
REMARK    2  A    between atoms: C5_5  and  C6_6 
REMARK    3  A    between atoms: C6_6  and  C7_7 
REMARK    4  A    between atoms: C13_13  and  C15_15 
REMARK    5  A    between atoms: C15_15  and  O1_16 
REMARK    6  A    between atoms: O1_16  and  C16_17 
REMARK    7  A    between atoms: C17_19  and  C18_20 
REMARK    8  A    between atoms: C18_20  and  O3_21 
REMARK    9  A    between atoms: C19_22  and  O4_23 
REMARK   10  A    between atoms: C20_24  and  O5_25 
ROOT
HETATM    1  C7  UNL     1      -3.396   7.033  13.218  1.00  0.00     0.025 C 
HETATM    2  C8  UNL     1      -3.435   5.506  13.086  1.00  0.00    -0.084 C 
HETATM    3  C9  UNL     1      -4.537   4.751  12.920  1.00  0.00     0.015 C 
HETATM    4  C10 UNL     1      -2.091   4.817  13.083  1.00  0.00     0.034 C 
HETATM    5  C11 UNL     1      -0.932   5.802  12.952  1.00  0.00     0.010 C 
HETATM    6  C12 UNL     1      -0.940   6.814  14.116  1.00  0.00     0.005 C 
HETATM    7  C13 UNL     1       0.302   7.778  14.102  1.00  0.00    -0.018 C 
HETATM    8  C14 UNL     1       1.588   6.978  14.446  1.00  0.00     0.018 C 
HETATM    9  C21 UNL     1       0.118   8.817  15.230  1.00  0.00     0.012 C 
HETATM   10  C22 UNL     1      -1.120   9.687  15.081  1.00  0.00     0.002 C 
HETATM   11  C23 UNL     1      -2.259   9.061  14.284  1.00  0.00     0.010 C 
HETATM   12  C24 UNL     1      -2.360   7.513  14.330  1.00  0.00    -0.032 C 
HETATM   13  C25 UNL     1      -2.845   7.124  15.755  1.00  0.00     0.016 C 
ENDROOT
BRANCH   7  14
HETATM   14  C15 UNL     1       0.538   8.458  12.726  1.00  0.00     0.180 C 
BRANCH  14  15
HETATM   15  O1  UNL     1       0.711   7.464  11.714  1.00  0.00    -0.358 OA
BRANCH  15  16
HETATM   16  C16 UNL     1       1.851   7.713  10.895  1.00  0.00     0.291 C 
HETATM   17  O2  UNL     1       1.464   8.142   9.572  1.00  0.00    -0.348 OA
HETATM   18  C17 UNL     1       1.977   7.179   8.642  1.00  0.00     0.179 C 
HETATM   19  C19 UNL     1       3.175   6.541   9.326  1.00  0.00     0.182 C 
HETATM   20  C20 UNL     1       2.655   6.413  10.740  1.00  0.00     0.204 C 
BRANCH  18  21
HETATM   21  C18 UNL     1       2.346   7.846   7.321  1.00  0.00     0.198 C 
BRANCH  21  22
HETATM   22  O3  UNL     1       3.108   9.029   7.553  1.00  0.00    -0.398 OA
HETATM   23  H27 UNL     1       3.302   9.410   6.676  1.00  0.00     0.209 HD
ENDBRANCH  21  22
ENDBRANCH  18  21
BRANCH  19  24
HETATM   24  O4  UNL     1       3.543   5.280   8.781  1.00  0.00    -0.390 OA
HETATM   25  H29 UNL     1       3.606   5.416   7.811  1.00  0.00     0.210 HD
ENDBRANCH  19  24
BRANCH  20  26
HETATM   26  O5  UNL     1       3.729   6.294  11.672  1.00  0.00    -0.388 OA
HETATM   27  H31 UNL     1       4.226   5.497  11.402  1.00  0.00     0.210 HD
ENDBRANCH  20  26
ENDBRANCH  15  16
ENDBRANCH  14  15
ENDBRANCH   7  14
BRANCH   1  28
HETATM   28  C6  UNL     1      -4.784   7.756  13.196  1.00  0.00     0.037 C 
BRANCH  28  29
HETATM   29  C5  UNL     1      -5.587   7.770  14.473  1.00  0.00    -0.019 C 
HETATM   30  C3  UNL     1      -6.797   7.214  14.697  1.00  0.00    -0.067 C 
HETATM   31  C4  UNL     1      -7.556   6.410  13.672  1.00  0.00     0.048 C 
BRANCH  30  32
HETATM   32  C2  UNL     1      -7.408   7.388  16.013  1.00  0.00    -0.004 C 
HETATM   33  C1  UNL     1      -8.687   7.694  16.269  1.00  0.00     0.012 C 
ENDBRANCH  30  32
ENDBRANCH  28  29
ENDBRANCH   1  28
TORSDOF 10
ENDMDL
MODEL 8
REMARK minimizedAffinity -7.86194658
REMARK  10 active torsions:
REMARK  status: ('A' for Active; 'I' for Inactive)
REMARK    1  A    between atoms: C2_2  and  C3_3 
REMARK    2  A    between atoms: C5_5  and  C6_6 
REMARK    3  A    between atoms: C6_6  and  C7_7 
REMARK    4  A    between atoms: C13_13  and  C15_15 
REMARK    5  A    between atoms: C15_15  and  O1_16 
REMARK    6  A    between atoms: O1_16  and  C16_17 
REMARK    7  A    between atoms: C17_19  and  C18_20 
REMARK    8  A    between atoms: C18_20  and  O3_21 
REMARK    9  A    between atoms: C19_22  and  O4_23 
REMARK   10  A    between atoms: C20_24  and  O5_25 
ROOT
HETATM    1  C7  UNL     1      -4.438   6.141  13.034  1.00  0.00     0.025 C 
HETATM    2  C8  UNL     1      -4.776   4.649  12.923  1.00  0.00    -0.084 C 
HETATM    3  C9  UNL     1      -6.009   4.118  12.837  1.00  0.00     0.015 C 
HETATM    4  C10 UNL     1      -3.591   3.717  12.842  1.00  0.00     0.034 C 
HETATM    5  C11 UNL     1      -2.277   4.463  12.626  1.00  0.00     0.010 C 
HETATM    6  C12 UNL     1      -2.015   5.458  13.775  1.00  0.00     0.005 C 
HETATM    7  C13 UNL     1      -0.616   6.168  13.670  1.00  0.00    -0.018 C 
HETATM    8  C14 UNL     1       0.514   5.137  13.941  1.00  0.00     0.018 C 
HETATM    9  C21 UNL     1      -0.526   7.221  14.795  1.00  0.00     0.012 C 
HETATM   10  C22 UNL     1      -1.583   8.312  14.716  1.00  0.00     0.002 C 
HETATM   11  C23 UNL     1      -2.870   7.914  14.001  1.00  0.00     0.010 C 
HETATM   12  C24 UNL     1      -3.260   6.415  14.072  1.00  0.00    -0.032 C 
HETATM   13  C25 UNL     1      -3.716   6.124  15.529  1.00  0.00     0.016 C 
ENDROOT
BRANCH   7  14
HETATM   14  C15 UNL     1      -0.346   6.790  12.274  1.00  0.00     0.180 C 
BRANCH  14  15
HETATM   15  O1  UNL     1       0.933   7.428  12.263  1.00  0.00    -0.358 OA
BRANCH  15  16
HETATM   16  C16 UNL     1       1.998   6.508  12.038  1.00  0.00     0.291 C 
HETATM   17  O2  UNL     1       3.283   7.156  12.142  1.00  0.00    -0.348 OA
HETATM   18  C17 UNL     1       3.936   7.020  10.873  1.00  0.00     0.179 C 
HETATM   19  C19 UNL     1       3.337   5.779  10.230  1.00  0.00     0.182 C 
HETATM   20  C20 UNL     1       1.883   5.940  10.615  1.00  0.00     0.204 C 
BRANCH  18  21
HETATM   21  C18 UNL     1       5.447   6.913  11.050  1.00  0.00     0.198 C 
BRANCH  21  22
HETATM   22  O3  UNL     1       5.762   6.213  12.253  1.00  0.00    -0.398 OA
HETATM   23  H27 UNL     1       6.735   6.188  12.313  1.00  0.00     0.209 HD
ENDBRANCH  21  22
ENDBRANCH  18  21
BRANCH  19  24
HETATM   24  O4  UNL     1       3.509   5.723   8.820  1.00  0.00    -0.390 OA
HETATM   25  H29 UNL     1       4.463   5.889   8.660  1.00  0.00     0.210 HD
ENDBRANCH  19  24
BRANCH  20  26
HETATM   26  O5  UNL     1       1.196   4.691  10.554  1.00  0.00    -0.388 OA
HETATM   27  H31 UNL     1       1.288   4.383   9.631  1.00  0.00     0.210 HD
ENDBRANCH  20  26
ENDBRANCH  15  16
ENDBRANCH  14  15
ENDBRANCH   7  14
BRANCH   1  28
HETATM   28  C6  UNL     1      -5.662   7.116  13.092  1.00  0.00     0.037 C 
BRANCH  28  29
HETATM   29  C5  UNL     1      -6.632   6.953  14.236  1.00  0.00    -0.019 C 
HETATM   30  C3  UNL     1      -6.794   7.760  15.306  1.00  0.00    -0.067 C 
HETATM   31  C4  UNL     1      -6.029   9.042  15.516  1.00  0.00     0.048 C 
BRANCH  30  32
HETATM   32  C2  UNL     1      -7.777   7.382  16.319  1.00  0.00    -0.004 C 
HETATM   33  C1  UNL     1      -9.097   7.237  16.141  1.00  0.00     0.012 C 
ENDBRANCH  30  32
ENDBRANCH  28  29
ENDBRANCH   1  28
TORSDOF 10
ENDMDL
MODEL 9
REMARK minimizedAffinity -7.81886148
REMARK  10 active torsions:
REMARK  status: ('A' for Active; 'I' for Inactive)
REMARK    1  A    between atoms: C2_2  and  C3_3 
REMARK    2  A    between atoms: C5_5  and  C6_6 
REMARK    3  A    between atoms: C6_6  and  C7_7 
REMARK    4  A    between atoms: C13_13  and  C15_15 
REMARK    5  A    between atoms: C15_15  and  O1_16 
REMARK    6  A    between atoms: O1_16  and  C16_17 
REMARK    7  A    between atoms: C17_19  and  C18_20 
REMARK    8  A    between atoms: C18_20  and  O3_21 
REMARK    9  A    between atoms: C19_22  and  O4_23 
REMARK   10  A    between atoms: C20_24  and  O5_25 
ROOT
HETATM    1  C7  UNL     1      -0.510   6.736  12.689  1.00  0.00     0.025 C 
HETATM    2  C8  UNL     1      -1.479   7.863  13.068  1.00  0.00    -0.084 C 
HETATM    3  C9  UNL     1      -2.821   7.782  13.094  1.00  0.00     0.015 C 
HETATM    4  C10 UNL     1      -0.833   9.155  13.510  1.00  0.00     0.034 C 
HETATM    5  C11 UNL     1       0.668   9.007  13.742  1.00  0.00     0.010 C 
HETATM    6  C12 UNL     1       1.379   8.543  12.454  1.00  0.00     0.005 C 
HETATM    7  C13 UNL     1       2.943   8.490  12.597  1.00  0.00    -0.018 C 
HETATM    8  C14 UNL     1       3.506   9.933  12.713  1.00  0.00     0.018 C 
HETATM    9  C21 UNL     1       3.526   7.896  11.297  1.00  0.00     0.012 C 
HETATM   10  C22 UNL     1       3.061   6.479  10.994  1.00  0.00     0.002 C 
HETATM   11  C23 UNL     1       1.710   6.101  11.591  1.00  0.00     0.010 C 
HETATM   12  C24 UNL     1       0.697   7.259  11.789  1.00  0.00    -0.032 C 
HETATM   13  C25 UNL     1       0.204   7.688  10.380  1.00  0.00     0.016 C 
ENDROOT
BRANCH   7  14
HETATM   14  C15 UNL     1       3.420   7.708  13.852  1.00  0.00     0.180 C 
BRANCH  14  15
HETATM   15  O1  UNL     1       4.387   8.478  14.569  1.00  0.00    -0.358 OA
BRANCH  15  16
HETATM   16  C16 UNL     1       5.566   7.734  14.864  1.00  0.00     0.291 C 
HETATM   17  O2  UNL     1       6.400   8.426  15.817  1.00  0.00    -0.348 OA
HETATM   18  C17 UNL     1       7.659   8.680  15.179  1.00  0.00     0.179 C 
HETATM   19  C19 UNL     1       7.802   7.611  14.107  1.00  0.00     0.182 C 
HETATM   20  C20 UNL     1       6.386   7.554  13.578  1.00  0.00     0.204 C 
BRANCH  18  21
HETATM   21  C18 UNL     1       8.797   8.644  16.193  1.00  0.00     0.198 C 
BRANCH  21  22
HETATM   22  O3  UNL     1       8.662   7.517  17.057  1.00  0.00    -0.398 OA
HETATM   23  H27 UNL     1       9.409   7.556  17.683  1.00  0.00     0.209 HD
ENDBRANCH  21  22
ENDBRANCH  18  21
BRANCH  19  24
HETATM   24  O4  UNL     1       8.735   7.942  13.087  1.00  0.00    -0.390 OA
HETATM   25  H29 UNL     1       9.555   8.216  13.552  1.00  0.00     0.210 HD
ENDBRANCH  19  24
BRANCH  20  26
HETATM   26  O5  UNL     1       6.137   6.317  12.911  1.00  0.00    -0.388 OA
HETATM   27  H31 UNL     1       6.790   6.272  12.186  1.00  0.00     0.210 HD
ENDBRANCH  20  26
ENDBRANCH  15  16
ENDBRANCH  14  15
ENDBRANCH   7  14
BRANCH   1  28
HETATM   28  C6  UNL     1      -1.173   5.385  12.254  1.00  0.00     0.037 C 
BRANCH  28  29
HETATM   29  C5  UNL     1      -2.615   5.159  12.633  1.00  0.00    -0.019 C 
HETATM   30  C3  UNL     1      -3.367   4.059  12.410  1.00  0.00    -0.067 C 
HETATM   31  C4  UNL     1      -2.848   2.803  11.759  1.00  0.00     0.048 C 
BRANCH  30  32
HETATM   32  C2  UNL     1      -4.765   4.078  12.834  1.00  0.00    -0.004 C 
HETATM   33  C1  UNL     1      -5.779   3.399  12.281  1.00  0.00     0.012 C 
ENDBRANCH  30  32
ENDBRANCH  28  29
ENDBRANCH   1  28
TORSDOF 10
ENDMDL
