MODEL 1
REMARK minimizedAffinity -9.76434898
REMARK  8 active torsions:
REMARK  status: ('A' for Active; 'I' for Inactive)
REMARK    1  A    between atoms: C2_2  and  C3_3 
REMARK    2  A    between atoms: C2_2  and  C9_12 
REMARK    3  A    between atoms: C3_3  and  C4_4 
REMARK    4  A    between atoms: C4_4  and  O1_5 
REMARK    5  A    between atoms: C4_4  and  C5_6 
REMARK    6  A    between atoms: C5_6  and  O2_7 
REMARK    7  A    between atoms: C5_6  and  C6_8 
REMARK    8  A    between atoms: C6_8  and  O3_11 
ROOT
HETATM    1  C9  UNL     1      -3.711  48.708 -26.062  1.00  0.00    -0.002 C 
HETATM    2  C10 UNL     1      -3.118  49.718 -27.047  1.00  0.00     0.007 C 
HETATM    3  C11 UNL     1      -2.134  50.494 -26.184  1.00  0.00     0.015 C 
HETATM    4  C12 UNL     1      -2.917  50.809 -24.888  1.00  0.00    -0.005 C 
HETATM    5  C13 UNL     1      -3.835  52.037 -25.159  1.00  0.00     0.021 C 
HETATM    6  C14 UNL     1      -1.979  51.166 -23.714  1.00  0.00    -0.000 C 
HETATM    7  C15 UNL     1      -1.911  50.503 -22.531  1.00  0.00    -0.060 C 
HETATM    8  C16 UNL     1      -2.786  49.280 -22.326  1.00  0.00     0.036 C 
HETATM    9  C17 UNL     1      -3.084  48.564 -23.633  1.00  0.00     0.015 C 
HETATM   10  C18 UNL     1      -3.782  49.472 -24.677  1.00  0.00    -0.028 C 
HETATM   11  C19 UNL     1      -5.204  49.767 -24.159  1.00  0.00     0.016 C 
HETATM   12  C20 UNL     1      -1.025  50.923 -21.320  1.00  0.00    -0.014 C 
HETATM   13  C21 UNL     1      -0.248  49.683 -20.797  1.00  0.00     0.020 C 
HETATM   14  C22 UNL     1      -1.986  51.460 -20.231  1.00  0.00     0.021 C 
HETATM   15  C23 UNL     1      -1.337  52.163 -19.048  1.00  0.00     0.080 C 
HETATM   16  C24 UNL     1       0.165  52.229 -19.134  1.00  0.00     0.135 C 
HETATM   17  O4  UNL     1       0.848  52.022 -18.130  1.00  0.00    -0.297 OA
HETATM   18  C25 UNL     1       0.778  52.678 -20.468  1.00  0.00     0.018 C 
HETATM   19  C26 UNL     1       0.760  54.220 -20.423  1.00  0.00     0.023 C 
HETATM   20  C27 UNL     1       2.266  52.251 -20.508  1.00  0.00     0.023 C 
HETATM   21  C28 UNL     1       0.025  52.028 -21.697  1.00  0.00     0.020 C 
HETATM   22  C29 UNL     1      -0.614  53.059 -22.624  1.00  0.00     0.090 C 
HETATM   23  C30 UNL     1      -1.130  52.393 -23.871  1.00  0.00     0.157 C 
HETATM   24  O5  UNL     1      -0.895  52.879 -24.975  1.00  0.00    -0.293 OA
ENDROOT
BRANCH   1  25
HETATM   25  C2  UNL     1      -4.885  47.881 -26.654  1.00  0.00    -0.011 C 
HETATM   26  C1  UNL     1      -6.073  47.822 -25.683  1.00  0.00     0.010 C 
BRANCH  25  27
HETATM   27  C3  UNL     1      -5.346  48.262 -28.076  1.00  0.00     0.039 C 
BRANCH  27  28
HETATM   28  C4  UNL     1      -6.717  47.675 -28.472  1.00  0.00     0.150 C 
BRANCH  28  29
HETATM   29  O1  UNL     1      -7.702  48.239 -27.581  1.00  0.00    -0.393 OA
HETATM   30  H8  UNL     1      -7.610  49.208 -27.651  1.00  0.00     0.210 HD
ENDBRANCH  28  29
BRANCH  28  31
HETATM   31  C5  UNL     1      -7.127  48.000 -29.937  1.00  0.00     0.180 C 
BRANCH  31  32
HETATM   32  O2  UNL     1      -6.141  48.870 -30.524  1.00  0.00    -0.390 OA
HETATM   33  H10 UNL     1      -5.978  49.561 -29.847  1.00  0.00     0.210 HD
ENDBRANCH  31  32
BRANCH  31  34
HETATM   34  C6  UNL     1      -8.549  48.621 -30.073  1.00  0.00     0.079 C 
HETATM   35  C7  UNL     1      -8.733  49.385 -31.389  1.00  0.00     0.048 C 
HETATM   36  C8  UNL     1      -9.618  47.522 -29.991  1.00  0.00     0.048 C 
BRANCH  34  37
HETATM   37  O3  UNL     1      -8.774  49.538 -28.994  1.00  0.00    -0.388 OA
HETATM   38  H17 UNL     1      -8.947  49.014 -28.191  1.00  0.00     0.210 HD
ENDBRANCH  34  37
ENDBRANCH  31  34
ENDBRANCH  28  31
ENDBRANCH  27  28
ENDBRANCH  25  27
ENDBRANCH   1  25
TORSDOF 8
ENDMDL
MODEL 2
REMARK minimizedAffinity -9.57998085
REMARK  8 active torsions:
REMARK  status: ('A' for Active; 'I' for Inactive)
REMARK    1  A    between atoms: C2_2  and  C3_3 
REMARK    2  A    between atoms: C2_2  and  C9_12 
REMARK    3  A    between atoms: C3_3  and  C4_4 
REMARK    4  A    between atoms: C4_4  and  O1_5 
REMARK    5  A    between atoms: C4_4  and  C5_6 
REMARK    6  A    between atoms: C5_6  and  O2_7 
REMARK    7  A    between atoms: C5_6  and  C6_8 
REMARK    8  A    between atoms: C6_8  and  O3_11 
ROOT
HETATM    1  C9  UNL     1      -0.372  50.830 -21.543  1.00  0.00    -0.002 C 
HETATM    2  C10 UNL     1       0.690  51.930 -21.632  1.00  0.00     0.007 C 
HETATM    3  C11 UNL     1       1.285  51.937 -20.232  1.00  0.00     0.015 C 
HETATM    4  C12 UNL     1       0.061  51.900 -19.288  1.00  0.00    -0.005 C 
HETATM    5  C13 UNL     1      -0.517  53.342 -19.181  1.00  0.00     0.021 C 
HETATM    6  C14 UNL     1       0.438  51.432 -17.864  1.00  0.00    -0.000 C 
HETATM    7  C15 UNL     1      -0.077  50.349 -17.230  1.00  0.00    -0.060 C 
HETATM    8  C16 UNL     1      -1.079  49.478 -17.965  1.00  0.00     0.036 C 
HETATM    9  C17 UNL     1      -0.863  49.501 -19.469  1.00  0.00     0.015 C 
HETATM   10  C18 UNL     1      -0.947  50.926 -20.072  1.00  0.00    -0.028 C 
HETATM   11  C19 UNL     1      -2.413  51.390 -19.966  1.00  0.00     0.016 C 
HETATM   12  C20 UNL     1       0.245  49.935 -15.762  1.00  0.00    -0.014 C 
HETATM   13  C21 UNL     1       0.587  48.419 -15.718  1.00  0.00     0.020 C 
HETATM   14  C22 UNL     1      -1.027  50.228 -14.929  1.00  0.00     0.021 C 
HETATM   15  C23 UNL     1      -0.876  50.140 -13.417  1.00  0.00     0.080 C 
HETATM   16  C24 UNL     1       0.516  49.781 -12.969  1.00  0.00     0.135 C 
HETATM   17  O4  UNL     1       0.677  48.978 -12.049  1.00  0.00    -0.297 OA
HETATM   18  C25 UNL     1       1.684  50.540 -13.613  1.00  0.00     0.018 C 
HETATM   19  C26 UNL     1       1.813  51.847 -12.804  1.00  0.00     0.023 C 
HETATM   20  C27 UNL     1       2.992  49.743 -13.380  1.00  0.00     0.023 C 
HETATM   21  C28 UNL     1       1.466  50.724 -15.168  1.00  0.00     0.020 C 
HETATM   22  C29 UNL     1       1.398  52.188 -15.597  1.00  0.00     0.090 C 
HETATM   23  C30 UNL     1       1.398  52.294 -17.098  1.00  0.00     0.157 C 
HETATM   24  O5  UNL     1       2.132  53.102 -17.661  1.00  0.00    -0.293 OA
ENDROOT
BRANCH   1  25
HETATM   25  C2  UNL     1      -1.259  50.722 -22.813  1.00  0.00    -0.011 C 
HETATM   26  C1  UNL     1      -2.406  49.721 -22.610  1.00  0.00     0.010 C 
BRANCH  25  27
HETATM   27  C3  UNL     1      -1.776  52.049 -23.407  1.00  0.00     0.039 C 
BRANCH  27  28
HETATM   28  C4  UNL     1      -1.531  52.199 -24.923  1.00  0.00     0.150 C 
BRANCH  28  29
HETATM   29  O1  UNL     1      -2.625  52.968 -25.463  1.00  0.00    -0.393 OA
HETATM   30  H8  UNL     1      -2.657  53.796 -24.947  1.00  0.00     0.210 HD
ENDBRANCH  28  29
BRANCH  28  31
HETATM   31  C5  UNL     1      -0.197  52.923 -25.263  1.00  0.00     0.180 C 
BRANCH  31  32
HETATM   32  O2  UNL     1      -0.474  54.294 -25.603  1.00  0.00    -0.390 OA
HETATM   33  H10 UNL     1      -1.234  54.253 -26.222  1.00  0.00     0.210 HD
ENDBRANCH  31  32
BRANCH  31  34
HETATM   34  C6  UNL     1       0.624  52.238 -26.396  1.00  0.00     0.079 C 
HETATM   35  C7  UNL     1       0.418  50.720 -26.436  1.00  0.00     0.048 C 
HETATM   36  C8  UNL     1       0.234  52.821 -27.762  1.00  0.00     0.048 C 
BRANCH  34  37
HETATM   37  O3  UNL     1       2.021  52.488 -26.190  1.00  0.00    -0.388 OA
HETATM   38  H17 UNL     1       2.198  53.410 -26.453  1.00  0.00     0.210 HD
ENDBRANCH  34  37
ENDBRANCH  31  34
ENDBRANCH  28  31
ENDBRANCH  27  28
ENDBRANCH  25  27
ENDBRANCH   1  25
TORSDOF 8
ENDMDL
MODEL 3
REMARK minimizedAffinity -9.50178432
REMARK  8 active torsions:
REMARK  status: ('A' for Active; 'I' for Inactive)
REMARK    1  A    between atoms: C2_2  and  C3_3 
REMARK    2  A    between atoms: C2_2  and  C9_12 
REMARK    3  A    between atoms: C3_3  and  C4_4 
REMARK    4  A    between atoms: C4_4  and  O1_5 
REMARK    5  A    between atoms: C4_4  and  C5_6 
REMARK    6  A    between atoms: C5_6  and  O2_7 
REMARK    7  A    between atoms: C5_6  and  C6_8 
REMARK    8  A    between atoms: C6_8  and  O3_11 
ROOT
HETATM    1  C9  UNL     1      -1.025  50.957 -22.729  1.00  0.00    -0.002 C 
HETATM    2  C10 UNL     1      -0.806  50.184 -21.426  1.00  0.00     0.007 C 
HETATM    3  C11 UNL     1      -1.961  49.194 -21.422  1.00  0.00     0.015 C 
HETATM    4  C12 UNL     1      -3.199  50.038 -21.807  1.00  0.00    -0.005 C 
HETATM    5  C13 UNL     1      -3.686  50.795 -20.536  1.00  0.00     0.021 C 
HETATM    6  C14 UNL     1      -4.366  49.162 -22.314  1.00  0.00    -0.000 C 
HETATM    7  C15 UNL     1      -4.948  49.257 -23.536  1.00  0.00    -0.060 C 
HETATM    8  C16 UNL     1      -4.406  50.270 -24.528  1.00  0.00     0.036 C 
HETATM    9  C17 UNL     1      -2.925  50.541 -24.319  1.00  0.00     0.015 C 
HETATM   10  C18 UNL     1      -2.597  51.053 -22.895  1.00  0.00    -0.028 C 
HETATM   11  C19 UNL     1      -3.187  52.472 -22.764  1.00  0.00     0.016 C 
HETATM   12  C20 UNL     1      -6.181  48.428 -24.007  1.00  0.00    -0.014 C 
HETATM   13  C21 UNL     1      -5.893  47.831 -25.413  1.00  0.00     0.020 C 
HETATM   14  C22 UNL     1      -7.378  49.410 -24.069  1.00  0.00     0.021 C 
HETATM   15  C23 UNL     1      -8.751  48.783 -24.264  1.00  0.00     0.080 C 
HETATM   16  C24 UNL     1      -8.722  47.281 -24.360  1.00  0.00     0.135 C 
HETATM   17  O4  UNL     1      -9.423  46.704 -25.192  1.00  0.00    -0.297 OA
HETATM   18  C25 UNL     1      -7.894  46.521 -23.314  1.00  0.00     0.018 C 
HETATM   19  C26 UNL     1      -8.822  46.377 -22.090  1.00  0.00     0.023 C 
HETATM   20  C27 UNL     1      -7.618  45.088 -23.833  1.00  0.00     0.023 C 
HETATM   21  C28 UNL     1      -6.514  47.240 -23.036  1.00  0.00     0.020 C 
HETATM   22  C29 UNL     1      -6.352  47.692 -21.587  1.00  0.00     0.090 C 
HETATM   23  C30 UNL     1      -4.948  48.177 -21.343  1.00  0.00     0.157 C 
HETATM   24  O5  UNL     1      -4.329  47.806 -20.349  1.00  0.00    -0.293 OA
ENDROOT
BRANCH   1  25
HETATM   25  C2  UNL     1      -0.061  52.162 -22.904  1.00  0.00    -0.011 C 
HETATM   26  C1  UNL     1       0.975  52.216 -21.772  1.00  0.00     0.010 C 
BRANCH  25  27
HETATM   27  C3  UNL     1       0.612  52.310 -24.283  1.00  0.00     0.039 C 
BRANCH  27  28
HETATM   28  C4  UNL     1       0.027  53.444 -25.151  1.00  0.00     0.150 C 
BRANCH  28  29
HETATM   29  O1  UNL     1       0.663  54.672 -24.744  1.00  0.00    -0.393 OA
HETATM   30  H8  UNL     1       1.625  54.521 -24.821  1.00  0.00     0.210 HD
ENDBRANCH  28  29
BRANCH  28  31
HETATM   31  C5  UNL     1       0.268  53.240 -26.675  1.00  0.00     0.180 C 
BRANCH  31  32
HETATM   32  O2  UNL     1      -0.946  53.532 -27.391  1.00  0.00    -0.390 OA
HETATM   33  H10 UNL     1      -1.651  53.065 -26.893  1.00  0.00     0.210 HD
ENDBRANCH  31  32
BRANCH  31  34
HETATM   34  C6  UNL     1       0.793  51.822 -27.049  1.00  0.00     0.079 C 
HETATM   35  C7  UNL     1       2.203  51.556 -26.511  1.00  0.00     0.048 C 
HETATM   36  C8  UNL     1      -0.152  50.744 -26.500  1.00  0.00     0.048 C 
BRANCH  34  37
HETATM   37  O3  UNL     1       0.833  51.691 -28.476  1.00  0.00    -0.388 OA
HETATM   38  H17 UNL     1      -0.082  51.566 -28.788  1.00  0.00     0.210 HD
ENDBRANCH  34  37
ENDBRANCH  31  34
ENDBRANCH  28  31
ENDBRANCH  27  28
ENDBRANCH  25  27
ENDBRANCH   1  25
TORSDOF 8
ENDMDL
MODEL 4
REMARK minimizedAffinity -9.18835735
REMARK  8 active torsions:
REMARK  status: ('A' for Active; 'I' for Inactive)
REMARK    1  A    between atoms: C2_2  and  C3_3 
REMARK    2  A    between atoms: C2_2  and  C9_12 
REMARK    3  A    between atoms: C3_3  and  C4_4 
REMARK    4  A    between atoms: C4_4  and  O1_5 
REMARK    5  A    between atoms: C4_4  and  C5_6 
REMARK    6  A    between atoms: C5_6  and  O2_7 
REMARK    7  A    between atoms: C5_6  and  C6_8 
REMARK    8  A    between atoms: C6_8  and  O3_11 
ROOT
HETATM    1  C9  UNL     1      -0.545  50.151 -18.101  1.00  0.00    -0.002 C 
HETATM    2  C10 UNL     1      -1.006  48.702 -17.927  1.00  0.00     0.007 C 
HETATM    3  C11 UNL     1      -1.445  48.317 -19.332  1.00  0.00     0.015 C 
HETATM    4  C12 UNL     1      -2.297  49.513 -19.816  1.00  0.00    -0.005 C 
HETATM    5  C13 UNL     1      -3.722  49.376 -19.203  1.00  0.00     0.021 C 
HETATM    6  C14 UNL     1      -2.443  49.540 -21.354  1.00  0.00    -0.000 C 
HETATM    7  C15 UNL     1      -2.049  50.555 -22.163  1.00  0.00    -0.060 C 
HETATM    8  C16 UNL     1      -1.369  51.763 -21.545  1.00  0.00     0.036 C 
HETATM    9  C17 UNL     1      -0.612  51.407 -20.277  1.00  0.00     0.015 C 
HETATM   10  C18 UNL     1      -1.513  50.767 -19.191  1.00  0.00    -0.028 C 
HETATM   11  C19 UNL     1      -2.470  51.862 -18.679  1.00  0.00     0.016 C 
HETATM   12  C20 UNL     1      -2.278  50.611 -23.704  1.00  0.00    -0.014 C 
HETATM   13  C21 UNL     1      -0.950  51.005 -24.408  1.00  0.00     0.020 C 
HETATM   14  C22 UNL     1      -3.364  51.687 -23.953  1.00  0.00     0.021 C 
HETATM   15  C23 UNL     1      -3.939  51.750 -25.360  1.00  0.00     0.080 C 
HETATM   16  C24 UNL     1      -3.351  50.730 -26.299  1.00  0.00     0.135 C 
HETATM   17  O4  UNL     1      -3.070  51.049 -27.455  1.00  0.00    -0.297 OA
HETATM   18  C25 UNL     1      -3.240  49.285 -25.794  1.00  0.00     0.018 C 
HETATM   19  C26 UNL     1      -4.625  48.658 -26.057  1.00  0.00     0.023 C 
HETATM   20  C27 UNL     1      -2.229  48.517 -26.682  1.00  0.00     0.023 C 
HETATM   21  C28 UNL     1      -2.747  49.234 -24.294  1.00  0.00     0.020 C 
HETATM   22  C29 UNL     1      -3.756  48.581 -23.351  1.00  0.00     0.090 C 
HETATM   23  C30 UNL     1      -3.146  48.377 -21.991  1.00  0.00     0.157 C 
HETATM   24  O5  UNL     1      -3.271  47.301 -21.411  1.00  0.00    -0.293 OA
ENDROOT
BRANCH   1  25
HETATM   25  C2  UNL     1      -0.191  50.853 -16.762  1.00  0.00    -0.011 C 
HETATM   26  C1  UNL     1      -1.158  50.440 -15.643  1.00  0.00     0.010 C 
BRANCH  25  27
HETATM   27  C3  UNL     1       1.276  50.750 -16.298  1.00  0.00     0.039 C 
BRANCH  27  28
HETATM   28  C4  UNL     1       1.745  51.933 -15.425  1.00  0.00     0.150 C 
BRANCH  28  29
HETATM   29  O1  UNL     1       1.256  53.144 -16.038  1.00  0.00    -0.393 OA
HETATM   30  H8  UNL     1       0.291  53.032 -16.132  1.00  0.00     0.210 HD
ENDBRANCH  28  29
BRANCH  28  31
HETATM   31  C5  UNL     1       1.216  51.868 -13.963  1.00  0.00     0.180 C 
BRANCH  31  32
HETATM   32  O2  UNL     1       0.351  52.992 -13.720  1.00  0.00    -0.390 OA
HETATM   33  H10 UNL     1       0.835  53.766 -14.080  1.00  0.00     0.210 HD
ENDBRANCH  31  32
BRANCH  31  34
HETATM   34  C6  UNL     1       2.340  51.804 -12.886  1.00  0.00     0.079 C 
HETATM   35  C7  UNL     1       1.831  52.154 -11.484  1.00  0.00     0.048 C 
HETATM   36  C8  UNL     1       2.957  50.398 -12.846  1.00  0.00     0.048 C 
BRANCH  34  37
HETATM   37  O3  UNL     1       3.378  52.734 -13.225  1.00  0.00    -0.388 OA
HETATM   38  H17 UNL     1       3.892  52.350 -13.958  1.00  0.00     0.210 HD
ENDBRANCH  34  37
ENDBRANCH  31  34
ENDBRANCH  28  31
ENDBRANCH  27  28
ENDBRANCH  25  27
ENDBRANCH   1  25
TORSDOF 8
ENDMDL
MODEL 5
REMARK minimizedAffinity -9.11076355
REMARK  8 active torsions:
REMARK  status: ('A' for Active; 'I' for Inactive)
REMARK    1  A    between atoms: C2_2  and  C3_3 
REMARK    2  A    between atoms: C2_2  and  C9_12 
REMARK    3  A    between atoms: C3_3  and  C4_4 
REMARK    4  A    between atoms: C4_4  and  O1_5 
REMARK    5  A    between atoms: C4_4  and  C5_6 
REMARK    6  A    between atoms: C5_6  and  O2_7 
REMARK    7  A    between atoms: C5_6  and  C6_8 
REMARK    8  A    between atoms: C6_8  and  O3_11 
ROOT
HETATM    1  C9  UNL     1      -2.295  51.889 -22.218  1.00  0.00    -0.002 C 
HETATM    2  C10 UNL     1      -3.270  52.529 -23.210  1.00  0.00     0.007 C 
HETATM    3  C11 UNL     1      -4.605  51.915 -22.816  1.00  0.00     0.015 C 
HETATM    4  C12 UNL     1      -4.305  50.407 -22.646  1.00  0.00    -0.005 C 
HETATM    5  C13 UNL     1      -4.284  49.752 -24.059  1.00  0.00     0.021 C 
HETATM    6  C14 UNL     1      -5.385  49.690 -21.806  1.00  0.00    -0.000 C 
HETATM    7  C15 UNL     1      -5.164  49.022 -20.646  1.00  0.00    -0.060 C 
HETATM    8  C16 UNL     1      -3.758  48.990 -20.075  1.00  0.00     0.036 C 
HETATM    9  C17 UNL     1      -2.957  50.224 -20.457  1.00  0.00     0.015 C 
HETATM   10  C18 UNL     1      -2.840  50.421 -21.989  1.00  0.00    -0.028 C 
HETATM   11  C19 UNL     1      -1.941  49.292 -22.535  1.00  0.00     0.016 C 
HETATM   12  C20 UNL     1      -6.244  48.228 -19.851  1.00  0.00    -0.014 C 
HETATM   13  C21 UNL     1      -6.173  48.623 -18.349  1.00  0.00     0.020 C 
HETATM   14  C22 UNL     1      -5.915  46.725 -20.032  1.00  0.00     0.021 C 
HETATM   15  C23 UNL     1      -6.974  45.742 -19.555  1.00  0.00     0.080 C 
HETATM   16  C24 UNL     1      -8.197  46.404 -18.978  1.00  0.00     0.135 C 
HETATM   17  O4  UNL     1      -8.719  45.950 -17.959  1.00  0.00    -0.297 OA
HETATM   18  C25 UNL     1      -8.815  47.563 -19.772  1.00  0.00     0.018 C 
HETATM   19  C26 UNL     1      -9.729  46.894 -20.819  1.00  0.00     0.023 C 
HETATM   20  C27 UNL     1      -9.737  48.382 -18.835  1.00  0.00     0.023 C 
HETATM   21  C28 UNL     1      -7.701  48.519 -20.359  1.00  0.00     0.020 C 
HETATM   22  C29 UNL     1      -7.715  48.595 -21.884  1.00  0.00     0.090 C 
HETATM   23  C30 UNL     1      -6.778  49.671 -22.363  1.00  0.00     0.157 C 
HETATM   24  O5  UNL     1      -7.142  50.471 -23.222  1.00  0.00    -0.293 OA
ENDROOT
BRANCH   1  25
HETATM   25  C2  UNL     1      -0.807  52.225 -22.508  1.00  0.00    -0.011 C 
HETATM   26  C1  UNL     1       0.129  51.501 -21.530  1.00  0.00     0.010 C 
BRANCH  25  27
HETATM   27  C3  UNL     1      -0.334  52.050 -23.966  1.00  0.00     0.039 C 
BRANCH  27  28
HETATM   28  C4  UNL     1      -0.117  53.378 -24.721  1.00  0.00     0.150 C 
BRANCH  28  29
HETATM   29  O1  UNL     1       1.189  53.872 -24.361  1.00  0.00    -0.393 OA
HETATM   30  H8  UNL     1       1.818  53.153 -24.562  1.00  0.00     0.210 HD
ENDBRANCH  28  29
BRANCH  28  31
HETATM   31  C5  UNL     1      -0.182  53.224 -26.268  1.00  0.00     0.180 C 
BRANCH  31  32
HETATM   32  O2  UNL     1      -1.548  53.012 -26.668  1.00  0.00    -0.390 OA
HETATM   33  H10 UNL     1      -1.890  52.333 -26.047  1.00  0.00     0.210 HD
ENDBRANCH  31  32
BRANCH  31  34
HETATM   34  C6  UNL     1       0.731  52.095 -26.831  1.00  0.00     0.079 C 
HETATM   35  C7  UNL     1       0.263  50.697 -26.412  1.00  0.00     0.048 C 
HETATM   36  C8  UNL     1       0.771  52.158 -28.364  1.00  0.00     0.048 C 
BRANCH  34  37
HETATM   37  O3  UNL     1       2.068  52.277 -26.345  1.00  0.00    -0.388 OA
HETATM   38  H17 UNL     1       2.467  53.013 -26.844  1.00  0.00     0.210 HD
ENDBRANCH  34  37
ENDBRANCH  31  34
ENDBRANCH  28  31
ENDBRANCH  27  28
ENDBRANCH  25  27
ENDBRANCH   1  25
TORSDOF 8
ENDMDL
MODEL 6
REMARK minimizedAffinity -9.06565285
REMARK  8 active torsions:
REMARK  status: ('A' for Active; 'I' for Inactive)
REMARK    1  A    between atoms: C2_2  and  C3_3 
REMARK    2  A    between atoms: C2_2  and  C9_12 
REMARK    3  A    between atoms: C3_3  and  C4_4 
REMARK    4  A    between atoms: C4_4  and  O1_5 
REMARK    5  A    between atoms: C4_4  and  C5_6 
REMARK    6  A    between atoms: C5_6  and  O2_7 
REMARK    7  A    between atoms: C5_6  and  C6_8 
REMARK    8  A    between atoms: C6_8  and  O3_11 
ROOT
HETATM    1  C9  UNL     1      -2.261  50.652 -22.994  1.00  0.00    -0.002 C 
HETATM    2  C10 UNL     1      -1.438  49.621 -22.218  1.00  0.00     0.007 C 
HETATM    3  C11 UNL     1      -2.343  48.398 -22.217  1.00  0.00     0.015 C 
HETATM    4  C12 UNL     1      -3.740  48.947 -21.842  1.00  0.00    -0.005 C 
HETATM    5  C13 UNL     1      -3.791  49.136 -20.297  1.00  0.00     0.021 C 
HETATM    6  C14 UNL     1      -4.873  47.976 -22.240  1.00  0.00    -0.000 C 
HETATM    7  C15 UNL     1      -5.896  48.264 -23.084  1.00  0.00    -0.060 C 
HETATM    8  C16 UNL     1      -5.940  49.630 -23.741  1.00  0.00     0.036 C 
HETATM    9  C17 UNL     1      -4.552  50.220 -23.931  1.00  0.00     0.015 C 
HETATM   10  C18 UNL     1      -3.767  50.361 -22.603  1.00  0.00    -0.028 C 
HETATM   11  C19 UNL     1      -4.456  51.462 -21.771  1.00  0.00     0.016 C 
HETATM   12  C20 UNL     1      -7.082  47.307 -23.411  1.00  0.00    -0.014 C 
HETATM   13  C21 UNL     1      -7.288  47.250 -24.951  1.00  0.00     0.020 C 
HETATM   14  C22 UNL     1      -8.334  47.898 -22.717  1.00  0.00     0.021 C 
HETATM   15  C23 UNL     1      -9.567  47.007 -22.684  1.00  0.00     0.080 C 
HETATM   16  C24 UNL     1      -9.363  45.667 -23.338  1.00  0.00     0.135 C 
HETATM   17  O4  UNL     1     -10.245  45.191 -24.055  1.00  0.00    -0.297 OA
HETATM   18  C25 UNL     1      -8.091  44.889 -22.974  1.00  0.00     0.018 C 
HETATM   19  C26 UNL     1      -8.431  44.145 -21.665  1.00  0.00     0.023 C 
HETATM   20  C27 UNL     1      -7.838  43.803 -24.049  1.00  0.00     0.023 C 
HETATM   21  C28 UNL     1      -6.832  45.842 -22.903  1.00  0.00     0.020 C 
HETATM   22  C29 UNL     1      -6.179  45.875 -21.523  1.00  0.00     0.090 C 
HETATM   23  C30 UNL     1      -4.878  46.630 -21.577  1.00  0.00     0.157 C 
HETATM   24  O5  UNL     1      -3.872  46.167 -21.046  1.00  0.00    -0.293 OA
ENDROOT
BRANCH   1  25
HETATM   25  C2  UNL     1      -1.628  52.070 -23.004  1.00  0.00    -0.011 C 
HETATM   26  C1  UNL     1      -0.099  51.999 -22.871  1.00  0.00     0.010 C 
BRANCH  25  27
HETATM   27  C3  UNL     1      -2.045  53.002 -24.159  1.00  0.00     0.039 C 
BRANCH  27  28
HETATM   28  C4  UNL     1      -1.683  52.468 -25.561  1.00  0.00     0.150 C 
BRANCH  28  29
HETATM   29  O1  UNL     1      -2.785  52.777 -26.439  1.00  0.00    -0.393 OA
HETATM   30  H8  UNL     1      -2.930  53.739 -26.368  1.00  0.00     0.210 HD
ENDBRANCH  28  29
BRANCH  28  31
HETATM   31  C5  UNL     1      -0.388  53.101 -26.147  1.00  0.00     0.180 C 
BRANCH  31  32
HETATM   32  O2  UNL     1      -0.746  54.101 -27.119  1.00  0.00    -0.390 OA
HETATM   33  H10 UNL     1      -1.434  53.678 -27.675  1.00  0.00     0.210 HD
ENDBRANCH  31  32
BRANCH  31  34
HETATM   34  C6  UNL     1       0.597  52.067 -26.768  1.00  0.00     0.079 C 
HETATM   35  C7  UNL     1       0.303  50.632 -26.319  1.00  0.00     0.048 C 
HETATM   36  C8  UNL     1       0.530  52.124 -28.301  1.00  0.00     0.048 C 
BRANCH  34  37
HETATM   37  O3  UNL     1       1.937  52.388 -26.371  1.00  0.00    -0.388 OA
HETATM   38  H17 UNL     1       2.225  53.158 -26.895  1.00  0.00     0.210 HD
ENDBRANCH  34  37
ENDBRANCH  31  34
ENDBRANCH  28  31
ENDBRANCH  27  28
ENDBRANCH  25  27
ENDBRANCH   1  25
TORSDOF 8
ENDMDL
MODEL 7
REMARK minimizedAffinity -8.89488983
REMARK  8 active torsions:
REMARK  status: ('A' for Active; 'I' for Inactive)
REMARK    1  A    between atoms: C2_2  and  C3_3 
REMARK    2  A    between atoms: C2_2  and  C9_12 
REMARK    3  A    between atoms: C3_3  and  C4_4 
REMARK    4  A    between atoms: C4_4  and  O1_5 
REMARK    5  A    between atoms: C4_4  and  C5_6 
REMARK    6  A    between atoms: C5_6  and  O2_7 
REMARK    7  A    between atoms: C5_6  and  C6_8 
REMARK    8  A    between atoms: C6_8  and  O3_11 
ROOT
HETATM    1  C9  UNL     1      -2.028  51.572 -21.486  1.00  0.00    -0.002 C 
HETATM    2  C10 UNL     1      -3.516  51.237 -21.365  1.00  0.00     0.007 C 
HETATM    3  C11 UNL     1      -3.661  50.868 -19.896  1.00  0.00     0.015 C 
HETATM    4  C12 UNL     1      -2.469  49.924 -19.612  1.00  0.00    -0.005 C 
HETATM    5  C13 UNL     1      -2.838  48.503 -20.131  1.00  0.00     0.021 C 
HETATM    6  C14 UNL     1      -2.160  49.813 -18.103  1.00  0.00    -0.000 C 
HETATM    7  C15 UNL     1      -0.979  50.134 -17.516  1.00  0.00    -0.060 C 
HETATM    8  C16 UNL     1       0.140  50.689 -18.378  1.00  0.00     0.036 C 
HETATM    9  C17 UNL     1      -0.389  51.445 -19.586  1.00  0.00     0.015 C 
HETATM   10  C18 UNL     1      -1.297  50.578 -20.494  1.00  0.00    -0.028 C 
HETATM   11  C19 UNL     1      -0.403  49.515 -21.165  1.00  0.00     0.016 C 
HETATM   12  C20 UNL     1      -0.648  49.937 -16.005  1.00  0.00    -0.014 C 
HETATM   13  C21 UNL     1      -0.017  51.241 -15.442  1.00  0.00     0.020 C 
HETATM   14  C22 UNL     1       0.362  48.765 -15.921  1.00  0.00     0.021 C 
HETATM   15  C23 UNL     1       0.645  48.221 -14.529  1.00  0.00     0.080 C 
HETATM   16  C24 UNL     1      -0.124  48.920 -13.439  1.00  0.00     0.135 C 
HETATM   17  O4  UNL     1       0.433  49.198 -12.376  1.00  0.00    -0.297 OA
HETATM   18  C25 UNL     1      -1.625  49.147 -13.665  1.00  0.00     0.018 C 
HETATM   19  C26 UNL     1      -2.303  47.830 -13.234  1.00  0.00     0.023 C 
HETATM   20  C27 UNL     1      -2.122  50.243 -12.690  1.00  0.00     0.023 C 
HETATM   21  C28 UNL     1      -1.921  49.607 -15.148  1.00  0.00     0.020 C 
HETATM   22  C29 UNL     1      -2.824  48.638 -15.909  1.00  0.00     0.090 C 
HETATM   23  C30 UNL     1      -3.233  49.232 -17.230  1.00  0.00     0.157 C 
HETATM   24  O5  UNL     1      -4.407  49.189 -17.591  1.00  0.00    -0.293 OA
ENDROOT
BRANCH   1  25
HETATM   25  C2  UNL     1      -1.568  51.829 -22.947  1.00  0.00    -0.011 C 
HETATM   26  C1  UNL     1      -2.665  52.529 -23.762  1.00  0.00     0.010 C 
BRANCH  25  27
HETATM   27  C3  UNL     1      -0.207  52.532 -23.126  1.00  0.00     0.039 C 
BRANCH  27  28
HETATM   28  C4  UNL     1      -0.000  53.159 -24.520  1.00  0.00     0.150 C 
BRANCH  28  29
HETATM   29  O1  UNL     1       0.945  54.238 -24.374  1.00  0.00    -0.393 OA
HETATM   30  H8  UNL     1       1.736  53.854 -23.952  1.00  0.00     0.210 HD
ENDBRANCH  28  29
BRANCH  28  31
HETATM   31  C5  UNL     1       0.552  52.154 -25.572  1.00  0.00     0.180 C 
BRANCH  31  32
HETATM   32  O2  UNL     1       1.862  52.579 -25.993  1.00  0.00    -0.390 OA
HETATM   33  H10 UNL     1       1.771  53.540 -26.167  1.00  0.00     0.210 HD
ENDBRANCH  31  32
BRANCH  31  34
HETATM   34  C6  UNL     1      -0.377  51.954 -26.806  1.00  0.00     0.079 C 
HETATM   35  C7  UNL     1       0.403  51.855 -28.120  1.00  0.00     0.048 C 
HETATM   36  C8  UNL     1      -1.216  50.678 -26.637  1.00  0.00     0.048 C 
BRANCH  34  37
HETATM   37  O3  UNL     1      -1.278  53.065 -26.909  1.00  0.00    -0.388 OA
HETATM   38  H17 UNL     1      -1.962  52.956 -26.223  1.00  0.00     0.210 HD
ENDBRANCH  34  37
ENDBRANCH  31  34
ENDBRANCH  28  31
ENDBRANCH  27  28
ENDBRANCH  25  27
ENDBRANCH   1  25
TORSDOF 8
ENDMDL
MODEL 8
REMARK minimizedAffinity -8.6428299
REMARK  8 active torsions:
REMARK  status: ('A' for Active; 'I' for Inactive)
REMARK    1  A    between atoms: C2_2  and  C3_3 
REMARK    2  A    between atoms: C2_2  and  C9_12 
REMARK    3  A    between atoms: C3_3  and  C4_4 
REMARK    4  A    between atoms: C4_4  and  O1_5 
REMARK    5  A    between atoms: C4_4  and  C5_6 
REMARK    6  A    between atoms: C5_6  and  O2_7 
REMARK    7  A    between atoms: C5_6  and  C6_8 
REMARK    8  A    between atoms: C6_8  and  O3_11 
ROOT
HETATM    1  C9  UNL     1      -2.992  51.489 -23.046  1.00  0.00    -0.002 C 
HETATM    2  C10 UNL     1      -3.867  51.725 -24.279  1.00  0.00     0.007 C 
HETATM    3  C11 UNL     1      -4.991  50.716 -24.094  1.00  0.00     0.015 C 
HETATM    4  C12 UNL     1      -4.275  49.403 -23.699  1.00  0.00    -0.005 C 
HETATM    5  C13 UNL     1      -3.727  48.738 -24.996  1.00  0.00     0.021 C 
HETATM    6  C14 UNL     1      -5.232  48.400 -23.018  1.00  0.00    -0.000 C 
HETATM    7  C15 UNL     1      -5.079  47.892 -21.769  1.00  0.00    -0.060 C 
HETATM    8  C16 UNL     1      -3.903  48.355 -20.928  1.00  0.00     0.036 C 
HETATM    9  C17 UNL     1      -3.471  49.769 -21.278  1.00  0.00     0.015 C 
HETATM   10  C18 UNL     1      -3.078  49.933 -22.768  1.00  0.00    -0.028 C 
HETATM   11  C19 UNL     1      -1.769  49.150 -22.991  1.00  0.00     0.016 C 
HETATM   12  C20 UNL     1      -6.001  46.814 -21.123  1.00  0.00    -0.014 C 
HETATM   13  C21 UNL     1      -6.401  47.270 -19.692  1.00  0.00     0.020 C 
HETATM   14  C22 UNL     1      -5.180  45.503 -21.064  1.00  0.00     0.021 C 
HETATM   15  C23 UNL     1      -5.951  44.242 -20.702  1.00  0.00     0.080 C 
HETATM   16  C24 UNL     1      -7.418  44.479 -20.460  1.00  0.00     0.135 C 
HETATM   17  O4  UNL     1      -7.985  43.917 -19.522  1.00  0.00    -0.297 OA
HETATM   18  C25 UNL     1      -8.175  45.332 -21.487  1.00  0.00     0.018 C 
HETATM   19  C26 UNL     1      -8.567  44.354 -22.614  1.00  0.00     0.023 C 
HETATM   20  C27 UNL     1      -9.497  45.831 -20.852  1.00  0.00     0.023 C 
HETATM   21  C28 UNL     1      -7.321  46.581 -21.942  1.00  0.00     0.020 C 
HETATM   22  C29 UNL     1      -7.012  46.587 -23.437  1.00  0.00     0.090 C 
HETATM   23  C30 UNL     1      -6.382  47.894 -23.837  1.00  0.00     0.157 C 
HETATM   24  O5  UNL     1      -6.777  48.492 -24.835  1.00  0.00    -0.293 OA
ENDROOT
BRANCH   1  25
HETATM   25  C2  UNL     1      -1.663  52.291 -23.068  1.00  0.00    -0.011 C 
HETATM   26  C1  UNL     1      -0.924  52.183 -21.726  1.00  0.00     0.010 C 
BRANCH  25  27
HETATM   27  C3  UNL     1      -0.712  52.017 -24.251  1.00  0.00     0.039 C 
BRANCH  27  28
HETATM   28  C4  UNL     1      -0.274  53.284 -25.014  1.00  0.00     0.150 C 
BRANCH  28  29
HETATM   29  O1  UNL     1       1.112  53.522 -24.697  1.00  0.00    -0.393 OA
HETATM   30  H8  UNL     1       1.589  52.699 -24.917  1.00  0.00     0.210 HD
ENDBRANCH  28  29
BRANCH  28  31
HETATM   31  C5  UNL     1      -0.415  53.153 -26.558  1.00  0.00     0.180 C 
BRANCH  31  32
HETATM   32  O2  UNL     1      -1.794  53.339 -26.926  1.00  0.00    -0.390 OA
HETATM   33  H10 UNL     1      -2.301  52.786 -26.293  1.00  0.00     0.210 HD
ENDBRANCH  31  32
BRANCH  31  34
HETATM   34  C6  UNL     1       0.125  51.810 -27.132  1.00  0.00     0.079 C 
HETATM   35  C7  UNL     1       1.624  51.622 -26.878  1.00  0.00     0.048 C 
HETATM   36  C8  UNL     1      -0.629  50.626 -26.510  1.00  0.00     0.048 C 
BRANCH  34  37
HETATM   37  O3  UNL     1      -0.090  51.776 -28.549  1.00  0.00    -0.388 OA
HETATM   38  H17 UNL     1      -1.037  51.600 -28.701  1.00  0.00     0.210 HD
ENDBRANCH  34  37
ENDBRANCH  31  34
ENDBRANCH  28  31
ENDBRANCH  27  28
ENDBRANCH  25  27
ENDBRANCH   1  25
TORSDOF 8
ENDMDL
MODEL 9
REMARK minimizedAffinity -8.6034565
REMARK  8 active torsions:
REMARK  status: ('A' for Active; 'I' for Inactive)
REMARK    1  A    between atoms: C2_2  and  C3_3 
REMARK    2  A    between atoms: C2_2  and  C9_12 
REMARK    3  A    between atoms: C3_3  and  C4_4 
REMARK    4  A    between atoms: C4_4  and  O1_5 
REMARK    5  A    between atoms: C4_4  and  C5_6 
REMARK    6  A    between atoms: C5_6  and  O2_7 
REMARK    7  A    between atoms: C5_6  and  C6_8 
REMARK    8  A    between atoms: C6_8  and  O3_11 
ROOT
HETATM    1  C9  UNL     1      -1.090  51.223 -21.686  1.00  0.00    -0.002 C 
HETATM    2  C10 UNL     1      -0.290  49.930 -21.512  1.00  0.00     0.007 C 
HETATM    3  C11 UNL     1      -1.345  48.851 -21.708  1.00  0.00     0.015 C 
HETATM    4  C12 UNL     1      -2.548  49.323 -20.857  1.00  0.00    -0.005 C 
HETATM    5  C13 UNL     1      -2.270  48.951 -19.371  1.00  0.00     0.021 C 
HETATM    6  C14 UNL     1      -3.865  48.636 -21.280  1.00  0.00    -0.000 C 
HETATM    7  C15 UNL     1      -4.980  49.275 -21.717  1.00  0.00    -0.060 C 
HETATM    8  C16 UNL     1      -4.953  50.786 -21.852  1.00  0.00     0.036 C 
HETATM    9  C17 UNL     1      -3.558  51.309 -22.152  1.00  0.00     0.015 C 
HETATM   10  C18 UNL     1      -2.517  50.914 -21.075  1.00  0.00    -0.028 C 
HETATM   11  C19 UNL     1      -2.864  51.689 -19.788  1.00  0.00     0.016 C 
HETATM   12  C20 UNL     1      -6.333  48.580 -22.059  1.00  0.00    -0.014 C 
HETATM   13  C21 UNL     1      -6.841  49.091 -23.436  1.00  0.00     0.020 C 
HETATM   14  C22 UNL     1      -7.327  48.968 -20.936  1.00  0.00     0.021 C 
HETATM   15  C23 UNL     1      -8.646  48.209 -20.915  1.00  0.00     0.080 C 
HETATM   16  C24 UNL     1      -8.769  47.180 -22.007  1.00  0.00     0.135 C 
HETATM   17  O4  UNL     1      -9.833  47.053 -22.615  1.00  0.00    -0.297 OA
HETATM   18  C25 UNL     1      -7.577  46.240 -22.230  1.00  0.00     0.018 C 
HETATM   19  C26 UNL     1      -7.761  45.103 -21.203  1.00  0.00     0.023 C 
HETATM   20  C27 UNL     1      -7.699  45.595 -23.633  1.00  0.00     0.023 C 
HETATM   21  C28 UNL     1      -6.204  47.017 -22.140  1.00  0.00     0.020 C 
HETATM   22  C29 UNL     1      -5.297  46.511 -21.021  1.00  0.00     0.090 C 
HETATM   23  C30 UNL     1      -3.936  47.146 -21.122  1.00  0.00     0.157 C 
HETATM   24  O5  UNL     1      -2.924  46.457 -21.025  1.00  0.00    -0.293 OA
ENDROOT
BRANCH   1  25
HETATM   25  C2  UNL     1      -0.272  52.504 -21.370  1.00  0.00    -0.011 C 
HETATM   26  C1  UNL     1       0.326  52.450 -19.957  1.00  0.00     0.010 C 
BRANCH  25  27
HETATM   27  C3  UNL     1       0.790  52.916 -22.409  1.00  0.00     0.039 C 
BRANCH  27  28
HETATM   28  C4  UNL     1       0.219  53.205 -23.813  1.00  0.00     0.150 C 
BRANCH  28  29
HETATM   29  O1  UNL     1       0.839  54.416 -24.292  1.00  0.00    -0.393 OA
HETATM   30  H8  UNL     1       1.803  54.268 -24.240  1.00  0.00     0.210 HD
ENDBRANCH  28  29
BRANCH  28  31
HETATM   31  C5  UNL     1       0.495  52.067 -24.837  1.00  0.00     0.180 C 
BRANCH  31  32
HETATM   32  O2  UNL     1       1.682  52.381 -25.588  1.00  0.00    -0.390 OA
HETATM   33  H10 UNL     1       1.575  53.321 -25.848  1.00  0.00     0.210 HD
ENDBRANCH  31  32
BRANCH  31  34
HETATM   34  C6  UNL     1      -0.696  51.778 -25.799  1.00  0.00     0.079 C 
HETATM   35  C7  UNL     1      -0.234  51.386 -27.206  1.00  0.00     0.048 C 
HETATM   36  C8  UNL     1      -1.570  50.647 -25.237  1.00  0.00     0.048 C 
BRANCH  34  37
HETATM   37  O3  UNL     1      -1.511  52.952 -25.913  1.00  0.00    -0.388 OA
HETATM   38  H17 UNL     1      -2.034  53.031 -25.094  1.00  0.00     0.210 HD
ENDBRANCH  34  37
ENDBRANCH  31  34
ENDBRANCH  28  31
ENDBRANCH  27  28
ENDBRANCH  25  27
ENDBRANCH   1  25
TORSDOF 8
ENDMDL
