MODEL 1
REMARK minimizedAffinity -8.82099438
REMARK CNNscore 0.0986525714
REMARK CNNaffinity 5.75237083
REMARK  11 active torsions:
REMARK  status: ('A' for Active; 'I' for Inactive)
REMARK    1  A    between atoms: C13_13  and  S1_14 
REMARK    2  A    between atoms: C22_26  and  C23_27 
REMARK    3  A    between atoms: C23_27  and  O4_28 
REMARK    4  A    between atoms: C29_34  and  O5_35 
REMARK    5  A    between atoms: C41_48  and  C42_49 
REMARK    6  A    between atoms: C41_48  and  N1_60 
REMARK    7  A    between atoms: C42_49  and  C43_50 
REMARK    8  A    between atoms: C43_50  and  C44_51 
REMARK    9  A    between atoms: C43_50  and  C45_53 
REMARK   10  A    between atoms: C44_51  and  O7_52 
REMARK   11  A    between atoms: C45_53  and  C46_54 
REMARK       I    between atoms: C52_62  and  N2_63 
REMARK       I    between atoms: C52_62  and  N3_64 
ROOT
HETATM    1  C1  UNL     1     -18.392  41.100 -17.302  1.00  0.00     0.010 C 
HETATM    2  C2  UNL     1     -18.220  41.362 -18.808  1.00  0.00    -0.010 C 
HETATM    3  C3  UNL     1     -17.300  40.310 -19.454  1.00  0.00     0.009 C 
HETATM    4  C4  UNL     1     -15.791  40.603 -19.373  1.00  0.00     0.039 C 
HETATM    5  C5  UNL     1     -15.406  41.884 -18.687  1.00  0.00    -0.049 C 
HETATM    6  C6  UNL     1     -14.099  42.042 -18.185  1.00  0.00     0.044 C 
HETATM    7  C7  UNL     1     -13.735  43.203 -17.502  1.00  0.00     0.073 C 
HETATM    8  C8  UNL     1     -14.711  44.143 -17.188  1.00  0.00     0.037 C 
HETATM    9  C9  UNL     1     -15.989  44.022 -17.737  1.00  0.00     0.011 C 
HETATM   10  C10 UNL     1     -16.332  42.928 -18.540  1.00  0.00    -0.047 C 
HETATM   11  C11 UNL     1     -17.732  42.812 -19.114  1.00  0.00     0.024 C 
HETATM   12  C12 UNL     1     -17.849  43.069 -20.649  1.00  0.00     0.033 C 
HETATM   13  C13 UNL     1     -17.890  44.495 -21.284  1.00  0.00     0.140 C 
HETATM   14  C14 UNL     1     -16.609  44.888 -22.103  1.00  0.00     0.050 C 
HETATM   15  C15 UNL     1     -16.895  44.829 -23.614  1.00  0.00    -0.013 C 
HETATM   16  C16 UNL     1     -16.882  45.931 -24.396  1.00  0.00    -0.050 C 
HETATM   17  C17 UNL     1     -16.677  47.265 -23.739  1.00  0.00     0.043 C 
HETATM   18  C18 UNL     1     -15.393  47.101 -22.935  1.00  0.00     0.013 C 
HETATM   19  C19 UNL     1     -14.190  46.617 -23.825  1.00  0.00     0.038 C 
HETATM   20  C20 UNL     1     -14.331  46.822 -25.362  1.00  0.00     0.123 C 
HETATM   21  C21 UNL     1     -12.944  46.724 -26.049  1.00  0.00     0.039 C 
HETATM   22  C22 UNL     1     -12.924  47.269 -27.513  1.00  0.00     0.023 C 
HETATM   23  C24 UNL     1     -13.041  46.167 -28.596  1.00  0.00     0.101 C 
HETATM   24  C25 UNL     1     -14.364  45.532 -28.629  1.00  0.00    -0.101 C 
HETATM   25  C26 UNL     1     -15.446  45.037 -28.466  1.00  0.00    -0.066 C 
HETATM   26  C27 UNL     1     -16.705  44.512 -28.017  1.00  0.00     0.029 A 
HETATM   27  C28 UNL     1     -17.372  43.594 -28.837  1.00  0.00     0.057 A 
HETATM   28  C29 UNL     1     -18.607  43.091 -28.447  1.00  0.00     0.067 A 
HETATM   29  C30 UNL     1     -19.199  43.509 -27.265  1.00  0.00     0.037 A 
HETATM   30  C31 UNL     1     -18.538  44.424 -26.442  1.00  0.00     0.014 A 
HETATM   31  C32 UNL     1     -17.258  44.916 -26.773  1.00  0.00    -0.006 A 
HETATM   32  C33 UNL     1     -16.563  45.941 -25.870  1.00  0.00     0.185 C 
HETATM   33  O6  UNL     1     -15.132  45.771 -25.922  1.00  0.00    -0.371 OA
HETATM   34  C34 UNL     1     -15.750  46.171 -21.716  1.00  0.00     0.102 A 
HETATM   35  C35 UNL     1     -14.515  45.880 -20.868  1.00  0.00     0.081 A 
HETATM   36  C36 UNL     1     -13.696  44.765 -21.080  1.00  0.00     0.006 C 
HETATM   37  C37 UNL     1     -12.709  44.421 -20.156  1.00  0.00     0.010 C 
HETATM   38  C38 UNL     1     -12.508  45.181 -18.992  1.00  0.00    -0.003 C 
HETATM   39  C39 UNL     1     -13.188  46.406 -18.895  1.00  0.00     0.010 C 
HETATM   40  C40 UNL     1     -14.194  46.737 -19.810  1.00  0.00     0.006 C 
HETATM   41  C41 UNL     1     -11.716  44.536 -17.809  1.00  0.00     0.171 C 
HETATM   42  O8  UNL     1     -12.407  43.380 -17.204  1.00  0.00    -0.316 OA
HETATM   43 NA1  UNL     1     -14.061  44.546 -20.771  1.00  0.00    -0.223 Na
ENDROOT
BRANCH  41  44
HETATM   44  C42 UNL     1     -11.505  45.538 -16.618  1.00  0.00     0.074 C 
BRANCH  44  45
HETATM   45  C43 UNL     1     -10.153  46.311 -16.551  1.00  0.00     0.018 C 
BRANCH  45  46
HETATM   46  C44 UNL     1      -9.620  46.244 -15.106  1.00  0.00     0.169 C 
BRANCH  46  47
HETATM   47  O7  UNL     1      -9.756  47.502 -14.455  1.00  0.00    -0.400 OA
HETATM   48  H47 UNL     1      -9.295  47.431 -13.599  1.00  0.00     0.209 HD
ENDBRANCH  46  47
ENDBRANCH  45  46
BRANCH  45  49
HETATM   49  C45 UNL     1     -10.288  47.770 -17.038  1.00  0.00     0.045 C 
BRANCH  49  50
HETATM   50  C46 UNL     1      -9.441  48.136 -18.239  1.00  0.00    -0.058 A 
HETATM   51  C47 UNL     1      -8.265  48.883 -18.089  1.00  0.00     0.007 A 
HETATM   52  C48 UNL     1      -7.481  49.197 -19.198  1.00  0.00     0.001 A 
HETATM   53  C49 UNL     1      -7.857  48.764 -20.469  1.00  0.00     0.000 A 
HETATM   54  C50 UNL     1      -9.025  48.018 -20.629  1.00  0.00     0.001 A 
HETATM   55  C51 UNL     1      -9.813  47.707 -19.522  1.00  0.00     0.007 A 
ENDBRANCH  49  50
ENDBRANCH  45  49
ENDBRANCH  44  45
ENDBRANCH  41  44
BRANCH  41  56
HETATM   56  N1  UNL     1     -10.342  44.301 -18.327  1.00  0.00    -0.336 N 
HETATM   57  C52 UNL     1      -9.634  43.311 -17.955  1.00  0.00     0.124 C 
HETATM   58  N2  UNL     1      -9.858  42.349 -17.025  1.00  0.00    -0.279 NA
HETATM   59  N3  UNL     1      -8.397  43.168 -18.486  1.00  0.00    -0.279 NA
HETATM   60  H55 UNL     1      -9.288  42.547 -16.209  1.00  0.00     0.126 HD
HETATM   61  H56 UNL     1      -9.521  41.447 -17.333  1.00  0.00     0.126 HD
HETATM   62  H57 UNL     1      -8.284  43.880 -19.209  1.00  0.00     0.126 HD
HETATM   63  H58 UNL     1      -8.234  42.257 -18.898  1.00  0.00     0.126 HD
ATOM     64  H1  UNL     1      -9.953  44.957 -19.004  1.00  0.00     0.165 HD
ENDBRANCH  41  56
BRANCH  13  65
HETATM   65  S1  UNL     1     -18.735  45.739 -20.331  1.00  0.00     0.106 S 
HETATM   66  O1  UNL     1     -19.008  46.800 -21.294  1.00  0.00    -0.595 OA
HETATM   67  O2  UNL     1     -19.936  45.046 -19.866  1.00  0.00    -0.595 OA
HETATM   68  O3  UNL     1     -17.808  46.112 -19.270  1.00  0.00    -0.595 OA
ENDBRANCH  13  65
BRANCH  22  69
HETATM   69  C23 UNL     1     -11.614  48.057 -27.726  1.00  0.00     0.169 C 
BRANCH  69  70
HETATM   70  O4  UNL     1     -11.467  49.099 -26.772  1.00  0.00    -0.400 OA
HETATM   71  H29 UNL     1     -11.986  49.863 -27.074  1.00  0.00     0.209 HD
ENDBRANCH  69  70
ENDBRANCH  22  69
BRANCH  28  72
HETATM   72  O5  UNL     1     -19.274  42.178 -29.207  1.00  0.00    -0.361 OA
HETATM   73  H33 UNL     1     -18.695  41.901 -29.935  1.00  0.00     0.217 HD
ENDBRANCH  28  72
TORSDOF 11
ENDMDL
MODEL 2
REMARK minimizedAffinity -8.09451199
REMARK CNNscore 0.0865611136
REMARK CNNaffinity 6.8058548
REMARK  11 active torsions:
REMARK  status: ('A' for Active; 'I' for Inactive)
REMARK    1  A    between atoms: C13_13  and  S1_14 
REMARK    2  A    between atoms: C22_26  and  C23_27 
REMARK    3  A    between atoms: C23_27  and  O4_28 
REMARK    4  A    between atoms: C29_34  and  O5_35 
REMARK    5  A    between atoms: C41_48  and  C42_49 
REMARK    6  A    between atoms: C41_48  and  N1_60 
REMARK    7  A    between atoms: C42_49  and  C43_50 
REMARK    8  A    between atoms: C43_50  and  C44_51 
REMARK    9  A    between atoms: C43_50  and  C45_53 
REMARK   10  A    between atoms: C44_51  and  O7_52 
REMARK   11  A    between atoms: C45_53  and  C46_54 
REMARK       I    between atoms: C52_62  and  N2_63 
REMARK       I    between atoms: C52_62  and  N3_64 
ROOT
HETATM    1  C1  UNL     1       3.617  56.630 -11.252  1.00  0.00     0.010 C 
HETATM    2  C2  UNL     1       3.771  55.975  -9.870  1.00  0.00    -0.010 C 
HETATM    3  C3  UNL     1       4.629  54.699  -9.951  1.00  0.00     0.009 C 
HETATM    4  C4  UNL     1       3.875  53.410 -10.324  1.00  0.00     0.039 C 
HETATM    5  C5  UNL     1       2.395  53.555 -10.547  1.00  0.00    -0.049 C 
HETATM    6  C6  UNL     1       1.701  52.579 -11.287  1.00  0.00     0.044 C 
HETATM    7  C7  UNL     1       0.337  52.719 -11.547  1.00  0.00     0.073 C 
HETATM    8  C8  UNL     1      -0.304  53.903 -11.199  1.00  0.00     0.037 C 
HETATM    9  C9  UNL     1       0.361  54.843 -10.411  1.00  0.00     0.011 C 
HETATM   10  C10 UNL     1       1.693  54.653 -10.025  1.00  0.00    -0.047 C 
HETATM   11  C11 UNL     1       2.400  55.697  -9.180  1.00  0.00     0.024 C 
HETATM   12  C12 UNL     1       2.656  55.292  -7.694  1.00  0.00     0.033 C 
HETATM   13  C13 UNL     1       1.566  55.372  -6.578  1.00  0.00     0.140 C 
HETATM   14  C14 UNL     1       1.056  53.981  -6.056  1.00  0.00     0.050 C 
HETATM   15  C15 UNL     1       1.644  53.680  -4.666  1.00  0.00    -0.013 C 
HETATM   16  C16 UNL     1       0.874  53.593  -3.559  1.00  0.00    -0.050 C 
HETATM   17  C17 UNL     1      -0.590  53.903  -3.686  1.00  0.00     0.043 C 
HETATM   18  C18 UNL     1      -1.074  52.995  -4.810  1.00  0.00     0.013 C 
HETATM   19  C19 UNL     1      -0.745  51.481  -4.537  1.00  0.00     0.038 C 
HETATM   20  C20 UNL     1      -0.434  51.088  -3.063  1.00  0.00     0.123 C 
HETATM   21  C21 UNL     1      -0.570  49.555  -2.873  1.00  0.00     0.039 C 
HETATM   22  C22 UNL     1      -0.638  49.108  -1.378  1.00  0.00     0.023 C 
HETATM   23  C24 UNL     1       0.714  48.608  -0.810  1.00  0.00     0.101 C 
HETATM   24  C25 UNL     1       1.706  49.679  -0.661  1.00  0.00    -0.101 C 
HETATM   25  C26 UNL     1       2.439  50.629  -0.697  1.00  0.00    -0.066 C 
HETATM   26  C27 UNL     1       3.170  51.840  -0.950  1.00  0.00     0.029 A 
HETATM   27  C28 UNL     1       4.448  51.972  -0.393  1.00  0.00     0.057 A 
HETATM   28  C29 UNL     1       5.169  53.143  -0.592  1.00  0.00     0.067 A 
HETATM   29  C30 UNL     1       4.625  54.193  -1.315  1.00  0.00     0.037 A 
HETATM   30  C31 UNL     1       3.350  54.067  -1.874  1.00  0.00     0.014 A 
HETATM   31  C32 UNL     1       2.609  52.875  -1.743  1.00  0.00    -0.006 A 
HETATM   32  C33 UNL     1       1.201  52.767  -2.340  1.00  0.00     0.185 C 
HETATM   33  O6  UNL     1       0.928  51.412  -2.751  1.00  0.00    -0.371 OA
HETATM   34  C34 UNL     1      -0.483  53.587  -6.144  1.00  0.00     0.102 A 
HETATM   35  C35 UNL     1      -0.851  52.715  -7.341  1.00  0.00     0.081 A 
HETATM   36  C36 UNL     1      -0.033  51.677  -7.803  1.00  0.00     0.006 C 
HETATM   37  C37 UNL     1      -0.299  51.049  -9.020  1.00  0.00     0.010 C 
HETATM   38  C38 UNL     1      -1.391  51.437  -9.812  1.00  0.00    -0.003 C 
HETATM   39  C39 UNL     1      -2.318  52.327  -9.245  1.00  0.00     0.010 C 
HETATM   40  C40 UNL     1      -2.037  52.973  -8.036  1.00  0.00     0.006 C 
HETATM   41  C41 UNL     1      -1.401  51.022 -11.320  1.00  0.00     0.171 C 
HETATM   42  O8  UNL     1      -0.320  51.651 -12.106  1.00  0.00    -0.316 OA
HETATM   43 NA1  UNL     1       0.187  52.080  -8.059  1.00  0.00    -0.223 Na
ENDROOT
BRANCH  41  44
HETATM   44  C42 UNL     1      -2.723  51.458 -12.047  1.00  0.00     0.074 C 
BRANCH  44  45
HETATM   45  C43 UNL     1      -2.638  51.796 -13.567  1.00  0.00     0.018 C 
BRANCH  45  46
HETATM   46  C44 UNL     1      -3.898  52.590 -13.965  1.00  0.00     0.169 C 
BRANCH  46  47
HETATM   47  O7  UNL     1      -4.104  53.691 -13.086  1.00  0.00    -0.400 OA
HETATM   48  H47 UNL     1      -4.970  54.075 -13.309  1.00  0.00     0.209 HD
ENDBRANCH  46  47
ENDBRANCH  45  46
BRANCH  45  49
HETATM   49  C45 UNL     1      -2.465  50.533 -14.438  1.00  0.00     0.045 C 
BRANCH  49  50
HETATM   50  C46 UNL     1      -1.596  50.705 -15.667  1.00  0.00    -0.058 A 
HETATM   51  C47 UNL     1      -2.165  50.770 -16.946  1.00  0.00     0.007 A 
HETATM   52  C48 UNL     1      -1.358  50.949 -18.070  1.00  0.00     0.001 A 
HETATM   53  C49 UNL     1       0.024  51.072 -17.928  1.00  0.00     0.000 A 
HETATM   54  C50 UNL     1       0.600  51.010 -16.660  1.00  0.00     0.001 A 
HETATM   55  C51 UNL     1      -0.205  50.827 -15.535  1.00  0.00     0.007 A 
ENDBRANCH  49  50
ENDBRANCH  45  49
ENDBRANCH  44  45
ENDBRANCH  41  44
BRANCH  41  56
HETATM   56  N1  UNL     1      -1.459  49.537 -11.328  1.00  0.00    -0.336 N 
HETATM   57  C52 UNL     1      -2.515  48.896 -11.021  1.00  0.00     0.124 C 
HETATM   58  N2  UNL     1      -3.719  49.321 -10.563  1.00  0.00    -0.279 NA
HETATM   59  N3  UNL     1      -2.483  47.543 -11.064  1.00  0.00    -0.279 NA
HETATM   60  H55 UNL     1      -3.785  49.107  -9.573  1.00  0.00     0.126 HD
HETATM   61  H56 UNL     1      -4.479  48.791 -10.968  1.00  0.00     0.126 HD
HETATM   62  H57 UNL     1      -1.580  47.265 -11.452  1.00  0.00     0.126 HD
HETATM   63  H58 UNL     1      -3.219  47.137 -11.628  1.00  0.00     0.126 HD
ATOM     64  H1  UNL     1      -0.624  49.013 -11.589  1.00  0.00     0.165 HD
ENDBRANCH  41  56
BRANCH  13  65
HETATM   65  S1  UNL     1       0.420  56.728  -6.716  1.00  0.00     0.106 S 
HETATM   66  O1  UNL     1      -0.210  56.795  -5.401  1.00  0.00    -0.595 OA
HETATM   67  O2  UNL     1       1.287  57.870  -7.009  1.00  0.00    -0.595 OA
HETATM   68  O3  UNL     1      -0.483  56.366  -7.800  1.00  0.00    -0.595 OA
ENDBRANCH  13  65
BRANCH  22  69
HETATM   69  C23 UNL     1      -1.692  47.987  -1.247  1.00  0.00     0.169 C 
BRANCH  69  70
HETATM   70  O4  UNL     1      -2.664  48.058  -2.281  1.00  0.00    -0.400 OA
HETATM   71  H29 UNL     1      -3.327  48.723  -2.031  1.00  0.00     0.209 HD
ENDBRANCH  69  70
ENDBRANCH  22  69
BRANCH  28  72
HETATM   72  O5  UNL     1       6.425  53.298  -0.087  1.00  0.00    -0.361 OA
HETATM   73  H33 UNL     1       6.711  52.452   0.293  1.00  0.00     0.217 HD
ENDBRANCH  28  72
TORSDOF 11
ENDMDL
MODEL 3
REMARK minimizedAffinity -8.66419125
REMARK CNNscore 0.0826401636
REMARK CNNaffinity 6.24960136
REMARK  11 active torsions:
REMARK  status: ('A' for Active; 'I' for Inactive)
REMARK    1  A    between atoms: C13_13  and  S1_14 
REMARK    2  A    between atoms: C22_26  and  C23_27 
REMARK    3  A    between atoms: C23_27  and  O4_28 
REMARK    4  A    between atoms: C29_34  and  O5_35 
REMARK    5  A    between atoms: C41_48  and  C42_49 
REMARK    6  A    between atoms: C41_48  and  N1_60 
REMARK    7  A    between atoms: C42_49  and  C43_50 
REMARK    8  A    between atoms: C43_50  and  C44_51 
REMARK    9  A    between atoms: C43_50  and  C45_53 
REMARK   10  A    between atoms: C44_51  and  O7_52 
REMARK   11  A    between atoms: C45_53  and  C46_54 
REMARK       I    between atoms: C52_62  and  N2_63 
REMARK       I    between atoms: C52_62  and  N3_64 
ROOT
HETATM    1  C1  UNL     1      -3.263  45.419 -16.086  1.00  0.00     0.010 C 
HETATM    2  C2  UNL     1      -4.410  44.779 -16.886  1.00  0.00    -0.010 C 
HETATM    3  C3  UNL     1      -3.870  43.880 -18.012  1.00  0.00     0.009 C 
HETATM    4  C4  UNL     1      -3.532  44.594 -19.333  1.00  0.00     0.039 C 
HETATM    5  C5  UNL     1      -3.785  46.075 -19.364  1.00  0.00    -0.049 C 
HETATM    6  C6  UNL     1      -3.135  46.876 -20.322  1.00  0.00     0.044 C 
HETATM    7  C7  UNL     1      -3.318  48.259 -20.337  1.00  0.00     0.073 C 
HETATM    8  C8  UNL     1      -4.030  48.863 -19.306  1.00  0.00     0.037 C 
HETATM    9  C9  UNL     1      -4.728  48.071 -18.392  1.00  0.00     0.011 C 
HETATM   10  C10 UNL     1      -4.664  46.674 -18.447  1.00  0.00    -0.047 C 
HETATM   11  C11 UNL     1      -5.421  45.835 -17.434  1.00  0.00     0.024 C 
HETATM   12  C12 UNL     1      -6.676  45.090 -17.987  1.00  0.00     0.033 C 
HETATM   13  C13 UNL     1      -8.063  45.777 -18.200  1.00  0.00     0.140 C 
HETATM   14  C14 UNL     1      -8.477  45.969 -19.703  1.00  0.00     0.050 C 
HETATM   15  C15 UNL     1      -9.561  44.951 -20.098  1.00  0.00    -0.013 C 
HETATM   16  C16 UNL     1     -10.817  45.323 -20.429  1.00  0.00    -0.050 C 
HETATM   17  C17 UNL     1     -11.183  46.774 -20.308  1.00  0.00     0.043 C 
HETATM   18  C18 UNL     1     -10.120  47.503 -21.122  1.00  0.00     0.013 C 
HETATM   19  C19 UNL     1     -10.031  46.970 -22.599  1.00  0.00     0.038 C 
HETATM   20  C20 UNL     1     -11.261  46.178 -23.132  1.00  0.00     0.123 C 
HETATM   21  C21 UNL     1     -11.229  46.109 -24.680  1.00  0.00     0.039 C 
HETATM   22  C22 UNL     1     -12.582  45.664 -25.321  1.00  0.00     0.023 C 
HETATM   23  C24 UNL     1     -12.634  44.163 -25.701  1.00  0.00     0.101 C 
HETATM   24  C25 UNL     1     -12.654  43.275 -24.533  1.00  0.00    -0.101 C 
HETATM   25  C26 UNL     1     -12.558  42.679 -23.495  1.00  0.00    -0.066 C 
HETATM   26  C27 UNL     1     -12.302  42.176 -22.174  1.00  0.00     0.029 A 
HETATM   27  C28 UNL     1     -12.469  40.805 -21.942  1.00  0.00     0.057 A 
HETATM   28  C29 UNL     1     -12.259  40.292 -20.667  1.00  0.00     0.067 A 
HETATM   29  C30 UNL     1     -11.913  41.127 -19.617  1.00  0.00     0.037 A 
HETATM   30  C31 UNL     1     -11.745  42.496 -19.843  1.00  0.00     0.014 A 
HETATM   31  C32 UNL     1     -11.892  43.048 -21.132  1.00  0.00    -0.006 A 
HETATM   32  C33 UNL     1     -11.731  44.557 -21.353  1.00  0.00     0.185 C 
HETATM   33  O6  UNL     1     -11.204  44.822 -22.668  1.00  0.00    -0.371 OA
HETATM   34  C34 UNL     1      -8.787  47.416 -20.289  1.00  0.00     0.102 A 
HETATM   35  C35 UNL     1      -7.627  48.061 -21.041  1.00  0.00     0.081 A 
HETATM   36  C36 UNL     1      -6.779  47.340 -21.891  1.00  0.00     0.006 C 
HETATM   37  C37 UNL     1      -5.611  47.917 -22.387  1.00  0.00     0.010 C 
HETATM   38  C38 UNL     1      -5.253  49.233 -22.054  1.00  0.00    -0.003 C 
HETATM   39  C39 UNL     1      -6.207  50.011 -21.378  1.00  0.00     0.010 C 
HETATM   40  C40 UNL     1      -7.367  49.424 -20.860  1.00  0.00     0.006 C 
HETATM   41  C41 UNL     1      -3.769  49.678 -22.269  1.00  0.00     0.171 C 
HETATM   42  O8  UNL     1      -2.812  48.960 -21.403  1.00  0.00    -0.316 OA
HETATM   43 NA1  UNL     1      -6.540  47.249 -21.432  1.00  0.00    -0.223 Na
ENDROOT
BRANCH  41  44
HETATM   44  C42 UNL     1      -3.549  51.196 -21.928  1.00  0.00     0.074 C 
BRANCH  44  45
HETATM   45  C43 UNL     1      -2.082  51.720 -21.867  1.00  0.00     0.018 C 
BRANCH  45  46
HETATM   46  C44 UNL     1      -1.654  52.145 -23.286  1.00  0.00     0.169 C 
BRANCH  46  47
HETATM   47  O7  UNL     1      -2.689  52.876 -23.932  1.00  0.00    -0.400 OA
HETATM   48  H47 UNL     1      -2.411  53.008 -24.856  1.00  0.00     0.209 HD
ENDBRANCH  46  47
ENDBRANCH  45  46
BRANCH  45  49
HETATM   49  C45 UNL     1      -1.113  50.677 -21.270  1.00  0.00     0.045 C 
BRANCH  49  50
HETATM   50  C46 UNL     1      -0.522  51.034 -19.922  1.00  0.00    -0.058 A 
HETATM   51  C47 UNL     1      -0.582  50.134 -18.850  1.00  0.00     0.007 A 
HETATM   52  C48 UNL     1      -0.016  50.463 -17.618  1.00  0.00     0.001 A 
HETATM   53  C49 UNL     1       0.620  51.691 -17.445  1.00  0.00     0.000 A 
HETATM   54  C50 UNL     1       0.688  52.593 -18.506  1.00  0.00     0.001 A 
HETATM   55  C51 UNL     1       0.119  52.268 -19.737  1.00  0.00     0.007 A 
ENDBRANCH  49  50
ENDBRANCH  45  49
ENDBRANCH  44  45
ENDBRANCH  41  44
BRANCH  41  56
HETATM   56  N1  UNL     1      -3.536  49.602 -23.735  1.00  0.00    -0.336 N 
HETATM   57  C52 UNL     1      -4.219  50.279 -24.569  1.00  0.00     0.124 C 
HETATM   58  N2  UNL     1      -5.288  51.096 -24.396  1.00  0.00    -0.279 NA
HETATM   59  N3  UNL     1      -3.932  50.157 -25.887  1.00  0.00    -0.279 NA
HETATM   60  H55 UNL     1      -6.121  50.614 -24.719  1.00  0.00     0.126 HD
HETATM   61  H56 UNL     1      -5.238  51.906 -25.000  1.00  0.00     0.126 HD
HETATM   62  H57 UNL     1      -3.099  49.572 -25.972  1.00  0.00     0.126 HD
HETATM   63  H58 UNL     1      -3.758  51.041 -26.348  1.00  0.00     0.126 HD
ATOM     64  H1  UNL     1      -2.803  48.986 -24.085  1.00  0.00     0.165 HD
ENDBRANCH  41  56
BRANCH  13  65
HETATM   65  S1  UNL     1      -8.496  47.025 -17.006  1.00  0.00     0.106 S 
HETATM   66  O1  UNL     1      -7.944  46.523 -15.752  1.00  0.00    -0.595 OA
HETATM   67  O2  UNL     1      -7.816  48.219 -17.509  1.00  0.00    -0.595 OA
HETATM   68  O3  UNL     1      -9.950  47.103 -17.037  1.00  0.00    -0.595 OA
ENDBRANCH  13  65
BRANCH  22  69
HETATM   69  C23 UNL     1     -12.834  46.519 -26.582  1.00  0.00     0.169 C 
BRANCH  69  70
HETATM   70  O4  UNL     1     -13.530  47.718 -26.272  1.00  0.00    -0.400 OA
HETATM   71  H29 UNL     1     -14.478  47.514 -26.211  1.00  0.00     0.209 HD
ENDBRANCH  69  70
ENDBRANCH  22  69
BRANCH  28  72
HETATM   72  O5  UNL     1     -12.387  38.960 -20.409  1.00  0.00    -0.361 OA
HETATM   73  H33 UNL     1     -12.521  38.494 -21.250  1.00  0.00     0.217 HD
ENDBRANCH  28  72
TORSDOF 11
ENDMDL
MODEL 4
REMARK minimizedAffinity -8.33073139
REMARK CNNscore 0.0824000016
REMARK CNNaffinity 6.08944941
REMARK  11 active torsions:
REMARK  status: ('A' for Active; 'I' for Inactive)
REMARK    1  A    between atoms: C13_13  and  S1_14 
REMARK    2  A    between atoms: C22_26  and  C23_27 
REMARK    3  A    between atoms: C23_27  and  O4_28 
REMARK    4  A    between atoms: C29_34  and  O5_35 
REMARK    5  A    between atoms: C41_48  and  C42_49 
REMARK    6  A    between atoms: C41_48  and  N1_60 
REMARK    7  A    between atoms: C42_49  and  C43_50 
REMARK    8  A    between atoms: C43_50  and  C44_51 
REMARK    9  A    between atoms: C43_50  and  C45_53 
REMARK   10  A    between atoms: C44_51  and  O7_52 
REMARK   11  A    between atoms: C45_53  and  C46_54 
REMARK       I    between atoms: C52_62  and  N2_63 
REMARK       I    between atoms: C52_62  and  N3_64 
ROOT
HETATM    1  C1  UNL     1     -12.255  44.000 -28.118  1.00  0.00     0.010 C 
HETATM    2  C2  UNL     1     -12.676  43.778 -26.656  1.00  0.00    -0.010 C 
HETATM    3  C3  UNL     1     -12.643  42.284 -26.288  1.00  0.00     0.009 C 
HETATM    4  C4  UNL     1     -13.913  41.483 -26.629  1.00  0.00     0.039 C 
HETATM    5  C5  UNL     1     -15.030  42.263 -27.265  1.00  0.00    -0.049 C 
HETATM    6  C6  UNL     1     -16.029  41.586 -27.991  1.00  0.00     0.044 C 
HETATM    7  C7  UNL     1     -17.048  42.295 -28.629  1.00  0.00     0.073 C 
HETATM    8  C8  UNL     1     -16.989  43.683 -28.671  1.00  0.00     0.037 C 
HETATM    9  C9  UNL     1     -16.040  44.358 -27.901  1.00  0.00     0.011 C 
HETATM   10  C10 UNL     1     -15.092  43.660 -27.144  1.00  0.00    -0.047 C 
HETATM   11  C11 UNL     1     -14.061  44.416 -26.326  1.00  0.00     0.024 C 
HETATM   12  C12 UNL     1     -14.277  44.381 -24.781  1.00  0.00     0.033 C 
HETATM   13  C13 UNL     1     -15.295  45.297 -24.031  1.00  0.00     0.140 C 
HETATM   14  C14 UNL     1     -16.543  44.549 -23.440  1.00  0.00     0.050 C 
HETATM   15  C15 UNL     1     -16.415  44.409 -21.913  1.00  0.00    -0.013 C 
HETATM   16  C16 UNL     1     -17.256  45.029 -21.057  1.00  0.00    -0.050 C 
HETATM   17  C17 UNL     1     -18.285  45.964 -21.625  1.00  0.00     0.043 C 
HETATM   18  C18 UNL     1     -19.019  45.132 -22.669  1.00  0.00     0.013 C 
HETATM   19  C19 UNL     1     -19.603  43.801 -22.068  1.00  0.00     0.038 C 
HETATM   20  C20 UNL     1     -19.765  43.745 -20.521  1.00  0.00     0.123 C 
HETATM   21  C21 UNL     1     -20.733  42.602 -20.120  1.00  0.00     0.039 C 
HETATM   22  C22 UNL     1     -21.243  42.692 -18.647  1.00  0.00     0.023 C 
HETATM   23  C24 UNL     1     -20.472  41.781 -17.659  1.00  0.00     0.101 C 
HETATM   24  C25 UNL     1     -19.090  42.221 -17.429  1.00  0.00    -0.101 C 
HETATM   25  C26 UNL     1     -17.963  42.636 -17.425  1.00  0.00    -0.066 C 
HETATM   26  C27 UNL     1     -16.667  43.204 -17.669  1.00  0.00     0.029 A 
HETATM   27  C28 UNL     1     -15.615  42.847 -16.818  1.00  0.00     0.057 A 
HETATM   28  C29 UNL     1     -14.355  43.403 -17.008  1.00  0.00     0.067 A 
HETATM   29  C30 UNL     1     -14.137  44.329 -18.016  1.00  0.00     0.037 A 
HETATM   30  C31 UNL     1     -15.183  44.689 -18.869  1.00  0.00     0.014 A 
HETATM   31  C32 UNL     1     -16.461  44.106 -18.746  1.00  0.00    -0.006 A 
HETATM   32  C33 UNL     1     -17.603  44.535 -19.675  1.00  0.00     0.185 C 
HETATM   33  O6  UNL     1     -18.504  43.435 -19.911  1.00  0.00    -0.371 OA
HETATM   34  C34 UNL     1     -18.021  44.951 -23.873  1.00  0.00     0.102 A 
HETATM   35  C35 UNL     1     -18.628  44.071 -24.962  1.00  0.00     0.081 A 
HETATM   36  C36 UNL     1     -18.446  42.684 -25.005  1.00  0.00     0.006 C 
HETATM   37  C37 UNL     1     -18.834  41.949 -26.125  1.00  0.00     0.010 C 
HETATM   38  C38 UNL     1     -19.419  42.577 -27.237  1.00  0.00    -0.003 C 
HETATM   39  C39 UNL     1     -19.786  43.926 -27.099  1.00  0.00     0.010 C 
HETATM   40  C40 UNL     1     -19.375  44.665 -25.984  1.00  0.00     0.006 C 
HETATM   41  C41 UNL     1     -19.438  41.810 -28.600  1.00  0.00     0.171 C 
HETATM   42  O8  UNL     1     -18.092  41.577 -29.159  1.00  0.00    -0.316 OA
HETATM   43 NA1  UNL     1     -18.010  42.836 -25.256  1.00  0.00    -0.223 Na
ENDROOT
BRANCH  41  44
HETATM   44  C42 UNL     1     -20.198  42.609 -29.720  1.00  0.00     0.074 C 
BRANCH  44  45
HETATM   45  C43 UNL     1     -19.731  42.411 -31.194  1.00  0.00     0.018 C 
BRANCH  45  46
HETATM   46  C44 UNL     1     -19.871  43.754 -31.938  1.00  0.00     0.169 C 
BRANCH  46  47
HETATM   47  O7  UNL     1     -18.870  43.888 -32.940  1.00  0.00    -0.400 OA
HETATM   48  H47 UNL     1     -18.932  44.796 -33.286  1.00  0.00     0.209 HD
ENDBRANCH  46  47
ENDBRANCH  45  46
BRANCH  45  49
HETATM   49  C45 UNL     1     -20.509  41.284 -31.908  1.00  0.00     0.045 C 
BRANCH  49  50
HETATM   50  C46 UNL     1     -19.656  40.242 -32.599  1.00  0.00    -0.058 A 
HETATM   51  C47 UNL     1     -19.140  40.471 -33.882  1.00  0.00     0.007 A 
HETATM   52  C48 UNL     1     -18.338  39.514 -34.503  1.00  0.00     0.001 A 
HETATM   53  C49 UNL     1     -18.036  38.321 -33.848  1.00  0.00     0.000 A 
HETATM   54  C50 UNL     1     -18.542  38.084 -32.570  1.00  0.00     0.001 A 
HETATM   55  C51 UNL     1     -19.348  39.038 -31.950  1.00  0.00     0.007 A 
ENDBRANCH  49  50
ENDBRANCH  45  49
ENDBRANCH  44  45
ENDBRANCH  41  44
BRANCH  41  56
HETATM   56  N1  UNL     1     -20.289  40.612 -28.374  1.00  0.00    -0.336 N 
HETATM   57  C52 UNL     1     -21.558  40.652 -28.460  1.00  0.00     0.124 C 
HETATM   58  N2  UNL     1     -22.409  41.689 -28.664  1.00  0.00    -0.279 NA
HETATM   59  N3  UNL     1     -22.255  39.511 -28.248  1.00  0.00    -0.279 NA
HETATM   60  H55 UNL     1     -22.864  41.915 -27.785  1.00  0.00     0.126 HD
HETATM   61  H56 UNL     1     -23.179  41.425 -29.265  1.00  0.00     0.126 HD
HETATM   62  H57 UNL     1     -21.582  38.750 -28.142  1.00  0.00     0.126 HD
HETATM   63  H58 UNL     1     -22.892  39.279 -28.999  1.00  0.00     0.126 HD
ATOM     64  H1  UNL     1     -19.840  39.727 -28.143  1.00  0.00     0.165 HD
ENDBRANCH  41  56
BRANCH  13  65
HETATM   65  S1  UNL     1     -15.493  46.937 -24.698  1.00  0.00     0.106 S 
HETATM   66  O1  UNL     1     -14.647  46.940 -25.886  1.00  0.00    -0.595 OA
HETATM   67  O2  UNL     1     -16.924  47.006 -24.996  1.00  0.00    -0.595 OA
HETATM   68  O3  UNL     1     -15.054  47.841 -23.643  1.00  0.00    -0.595 OA
ENDBRANCH  13  65
BRANCH  22  69
HETATM   69  C23 UNL     1     -22.741  42.321 -18.620  1.00  0.00     0.169 C 
BRANCH  69  70
HETATM   70  O4  UNL     1     -22.967  41.105 -17.921  1.00  0.00    -0.400 OA
HETATM   71  H29 UNL     1     -22.787  40.367 -18.525  1.00  0.00     0.209 HD
ENDBRANCH  69  70
ENDBRANCH  22  69
BRANCH  28  72
HETATM   72  O5  UNL     1     -13.301  43.061 -16.216  1.00  0.00    -0.361 OA
HETATM   73  H33 UNL     1     -13.575  42.332 -15.637  1.00  0.00     0.217 HD
ENDBRANCH  28  72
TORSDOF 11
ENDMDL
MODEL 5
REMARK minimizedAffinity -9.62900734
REMARK CNNscore 0.0816494152
REMARK CNNaffinity 5.57412481
REMARK  11 active torsions:
REMARK  status: ('A' for Active; 'I' for Inactive)
REMARK    1  A    between atoms: C13_13  and  S1_14 
REMARK    2  A    between atoms: C22_26  and  C23_27 
REMARK    3  A    between atoms: C23_27  and  O4_28 
REMARK    4  A    between atoms: C29_34  and  O5_35 
REMARK    5  A    between atoms: C41_48  and  C42_49 
REMARK    6  A    between atoms: C41_48  and  N1_60 
REMARK    7  A    between atoms: C42_49  and  C43_50 
REMARK    8  A    between atoms: C43_50  and  C44_51 
REMARK    9  A    between atoms: C43_50  and  C45_53 
REMARK   10  A    between atoms: C44_51  and  O7_52 
REMARK   11  A    between atoms: C45_53  and  C46_54 
REMARK       I    between atoms: C52_62  and  N2_63 
REMARK       I    between atoms: C52_62  and  N3_64 
ROOT
HETATM    1  C1  UNL     1     -11.277  44.260 -19.511  1.00  0.00     0.010 C 
HETATM    2  C2  UNL     1     -12.534  43.657 -20.158  1.00  0.00    -0.010 C 
HETATM    3  C3  UNL     1     -12.228  42.295 -20.807  1.00  0.00     0.009 C 
HETATM    4  C4  UNL     1     -11.682  42.348 -22.245  1.00  0.00     0.039 C 
HETATM    5  C5  UNL     1     -11.531  43.720 -22.841  1.00  0.00    -0.049 C 
HETATM    6  C6  UNL     1     -10.668  43.914 -23.937  1.00  0.00     0.044 C 
HETATM    7  C7  UNL     1     -10.476  45.188 -24.474  1.00  0.00     0.073 C 
HETATM    8  C8  UNL     1     -11.024  46.290 -23.827  1.00  0.00     0.037 C 
HETATM    9  C9  UNL     1     -11.929  46.097 -22.781  1.00  0.00     0.011 C 
HETATM   10  C10 UNL     1     -12.239  44.814 -22.318  1.00  0.00    -0.047 C 
HETATM   11  C11 UNL     1     -13.215  44.631 -21.170  1.00  0.00     0.024 C 
HETATM   12  C12 UNL     1     -14.610  44.053 -21.565  1.00  0.00     0.033 C 
HETATM   13  C13 UNL     1     -15.758  44.916 -22.180  1.00  0.00     0.140 C 
HETATM   14  C14 UNL     1     -16.072  44.613 -23.688  1.00  0.00     0.050 C 
HETATM   15  C15 UNL     1     -17.379  43.811 -23.816  1.00  0.00    -0.013 C 
HETATM   16  C16 UNL     1     -18.482  44.316 -24.411  1.00  0.00    -0.050 C 
HETATM   17  C17 UNL     1     -18.450  45.745 -24.869  1.00  0.00     0.043 C 
HETATM   18  C18 UNL     1     -17.214  45.833 -25.756  1.00  0.00     0.013 C 
HETATM   19  C19 UNL     1     -17.236  44.772 -26.917  1.00  0.00     0.038 C 
HETATM   20  C20 UNL     1     -18.621  44.154 -27.272  1.00  0.00     0.123 C 
HETATM   21  C21 UNL     1     -18.573  43.494 -28.674  1.00  0.00     0.039 C 
HETATM   22  C22 UNL     1     -19.981  43.174 -29.270  1.00  0.00     0.023 C 
HETATM   23  C24 UNL     1     -20.422  41.700 -29.084  1.00  0.00     0.101 C 
HETATM   24  C25 UNL     1     -20.705  41.358 -27.685  1.00  0.00    -0.101 C 
HETATM   25  C26 UNL     1     -20.796  41.199 -26.498  1.00  0.00    -0.066 C 
HETATM   26  C27 UNL     1     -20.713  41.193 -25.064  1.00  0.00     0.029 A 
HETATM   27  C28 UNL     1     -21.244  40.097 -24.373  1.00  0.00     0.057 A 
HETATM   28  C29 UNL     1     -21.207  40.075 -22.984  1.00  0.00     0.067 A 
HETATM   29  C30 UNL     1     -20.675  41.139 -22.274  1.00  0.00     0.037 A 
HETATM   30  C31 UNL     1     -20.143  42.236 -22.958  1.00  0.00     0.014 A 
HETATM   31  C32 UNL     1     -20.109  42.272 -24.367  1.00  0.00    -0.006 A 
HETATM   32  C33 UNL     1     -19.546  43.497 -25.098  1.00  0.00     0.185 C 
HETATM   33  O6  UNL     1     -18.937  43.106 -26.345  1.00  0.00    -0.371 OA
HETATM   34  C34 UNL     1     -15.971  45.755 -24.792  1.00  0.00     0.102 A 
HETATM   35  C35 UNL     1     -14.664  45.768 -25.580  1.00  0.00     0.081 A 
HETATM   36  C36 UNL     1     -14.021  44.598 -26.000  1.00  0.00     0.006 C 
HETATM   37  C37 UNL     1     -12.730  44.645 -26.525  1.00  0.00     0.010 C 
HETATM   38  C38 UNL     1     -12.042  45.863 -26.650  1.00  0.00    -0.003 C 
HETATM   39  C39 UNL     1     -12.769  47.043 -26.424  1.00  0.00     0.010 C 
HETATM   40  C40 UNL     1     -14.055  46.992 -25.874  1.00  0.00     0.006 C 
HETATM   41  C41 UNL     1     -10.488  45.825 -26.829  1.00  0.00     0.171 C 
HETATM   42  O8  UNL     1      -9.777  45.286 -25.652  1.00  0.00    -0.316 OA
HETATM   43 NA1  UNL     1     -13.825  44.635 -25.513  1.00  0.00    -0.223 Na
ENDROOT
BRANCH  41  44
HETATM   44  C42 UNL     1      -9.880  47.258 -27.037  1.00  0.00     0.074 C 
BRANCH  44  45
HETATM   45  C43 UNL     1      -8.656  47.661 -26.158  1.00  0.00     0.018 C 
BRANCH  45  46
HETATM   46  C44 UNL     1      -8.975  48.995 -25.454  1.00  0.00     0.169 C 
BRANCH  46  47
HETATM   47  O7  UNL     1      -9.442  49.963 -26.387  1.00  0.00    -0.400 OA
HETATM   48  H47 UNL     1      -9.508  50.810 -25.910  1.00  0.00     0.209 HD
ENDBRANCH  46  47
ENDBRANCH  45  46
BRANCH  45  49
HETATM   49  C45 UNL     1      -7.351  47.750 -26.978  1.00  0.00     0.045 C 
BRANCH  49  50
HETATM   50  C46 UNL     1      -6.091  47.988 -26.172  1.00  0.00    -0.058 A 
HETATM   51  C47 UNL     1      -4.867  48.237 -26.808  1.00  0.00     0.007 A 
HETATM   52  C48 UNL     1      -3.717  48.476 -26.057  1.00  0.00     0.001 A 
HETATM   53  C49 UNL     1      -3.776  48.476 -24.664  1.00  0.00     0.000 A 
HETATM   54  C50 UNL     1      -4.989  48.232 -24.021  1.00  0.00     0.001 A 
HETATM   55  C51 UNL     1      -6.140  47.988 -24.770  1.00  0.00     0.007 A 
ENDBRANCH  49  50
ENDBRANCH  45  49
ENDBRANCH  44  45
ENDBRANCH  41  44
BRANCH  41  56
HETATM   56  N1  UNL     1     -10.251  45.142 -28.127  1.00  0.00    -0.336 N 
HETATM   57  C52 UNL     1      -9.196  44.469 -28.360  1.00  0.00     0.124 C 
HETATM   58  N2  UNL     1      -8.076  44.277 -27.620  1.00  0.00    -0.279 NA
HETATM   59  N3  UNL     1      -9.066  43.872 -29.568  1.00  0.00    -0.279 NA
HETATM   60  H55 UNL     1      -7.324  44.832 -28.016  1.00  0.00     0.126 HD
HETATM   61  H56 UNL     1      -7.735  43.328 -27.702  1.00  0.00     0.126 HD
HETATM   62  H57 UNL     1      -9.942  44.002 -30.076  1.00  0.00     0.126 HD
HETATM   63  H58 UNL     1      -8.867  42.881 -29.512  1.00  0.00     0.126 HD
ATOM     64  H1  UNL     1     -10.958  45.216 -28.858  1.00  0.00     0.165 HD
ENDBRANCH  41  56
BRANCH  13  65
HETATM   65  S1  UNL     1     -15.870  46.589 -21.582  1.00  0.00     0.106 S 
HETATM   66  O1  UNL     1     -15.015  47.348 -22.488  1.00  0.00    -0.595 OA
HETATM   67  O2  UNL     1     -17.293  46.900 -21.721  1.00  0.00    -0.595 OA
HETATM   68  O3  UNL     1     -15.397  46.542 -20.204  1.00  0.00    -0.595 OA
ENDBRANCH  13  65
BRANCH  22  69
HETATM   69  C23 UNL     1     -19.967  43.516 -30.776  1.00  0.00     0.169 C 
BRANCH  69  70
HETATM   70  O4  UNL     1     -18.864  44.343 -31.116  1.00  0.00    -0.400 OA
HETATM   71  H29 UNL     1     -19.093  45.262 -30.901  1.00  0.00     0.209 HD
ENDBRANCH  69  70
ENDBRANCH  22  69
BRANCH  28  72
HETATM   72  O5  UNL     1     -21.692  39.014 -22.279  1.00  0.00    -0.361 OA
HETATM   73  H33 UNL     1     -21.926  38.309 -22.903  1.00  0.00     0.217 HD
ENDBRANCH  28  72
TORSDOF 11
ENDMDL
MODEL 6
REMARK minimizedAffinity -8.62736225
REMARK CNNscore 0.0771206319
REMARK CNNaffinity 6.99016047
REMARK  11 active torsions:
REMARK  status: ('A' for Active; 'I' for Inactive)
REMARK    1  A    between atoms: C13_13  and  S1_14 
REMARK    2  A    between atoms: C22_26  and  C23_27 
REMARK    3  A    between atoms: C23_27  and  O4_28 
REMARK    4  A    between atoms: C29_34  and  O5_35 
REMARK    5  A    between atoms: C41_48  and  C42_49 
REMARK    6  A    between atoms: C41_48  and  N1_60 
REMARK    7  A    between atoms: C42_49  and  C43_50 
REMARK    8  A    between atoms: C43_50  and  C44_51 
REMARK    9  A    between atoms: C43_50  and  C45_53 
REMARK   10  A    between atoms: C44_51  and  O7_52 
REMARK   11  A    between atoms: C45_53  and  C46_54 
REMARK       I    between atoms: C52_62  and  N2_63 
REMARK       I    between atoms: C52_62  and  N3_64 
ROOT
HETATM    1  C1  UNL     1       0.788  46.477 -13.920  1.00  0.00     0.010 C 
HETATM    2  C2  UNL     1       1.435  47.591 -13.081  1.00  0.00    -0.010 C 
HETATM    3  C3  UNL     1       2.010  47.035 -11.765  1.00  0.00     0.009 C 
HETATM    4  C4  UNL     1       1.015  46.924 -10.596  1.00  0.00     0.039 C 
HETATM    5  C5  UNL     1      -0.387  47.385 -10.880  1.00  0.00    -0.049 C 
HETATM    6  C6  UNL     1      -1.446  46.944 -10.063  1.00  0.00     0.044 C 
HETATM    7  C7  UNL     1      -2.761  47.321 -10.338  1.00  0.00     0.073 C 
HETATM    8  C8  UNL     1      -3.040  48.012 -11.512  1.00  0.00     0.037 C 
HETATM    9  C9  UNL     1      -1.991  48.505 -12.289  1.00  0.00     0.011 C 
HETATM   10  C10 UNL     1      -0.657  48.251 -11.951  1.00  0.00    -0.047 C 
HETATM   11  C11 UNL     1       0.466  48.786 -12.820  1.00  0.00     0.024 C 
HETATM   12  C12 UNL     1       1.280  49.970 -12.208  1.00  0.00     0.033 C 
HETATM   13  C13 UNL     1       0.789  51.453 -12.225  1.00  0.00     0.140 C 
HETATM   14  C14 UNL     1       0.383  52.027 -10.821  1.00  0.00     0.050 C 
HETATM   15  C15 UNL     1       1.464  52.988 -10.298  1.00  0.00    -0.013 C 
HETATM   16  C16 UNL     1       1.236  54.309 -10.127  1.00  0.00    -0.050 C 
HETATM   17  C17 UNL     1      -0.090  54.862 -10.560  1.00  0.00     0.043 C 
HETATM   18  C18 UNL     1      -1.117  53.992  -9.844  1.00  0.00     0.013 C 
HETATM   19  C19 UNL     1      -0.894  53.965  -8.287  1.00  0.00     0.038 C 
HETATM   20  C20 UNL     1      -0.035  55.115  -7.684  1.00  0.00     0.123 C 
HETATM   21  C21 UNL     1      -0.266  55.217  -6.155  1.00  0.00     0.039 C 
HETATM   22  C22 UNL     1       0.255  56.547  -5.523  1.00  0.00     0.023 C 
HETATM   23  C24 UNL     1       1.646  56.421  -4.853  1.00  0.00     0.101 C 
HETATM   24  C25 UNL     1       2.732  56.210  -5.818  1.00  0.00    -0.101 C 
HETATM   25  C26 UNL     1       3.491  55.936  -6.707  1.00  0.00    -0.066 C 
HETATM   26  C27 UNL     1       4.189  55.491  -7.881  1.00  0.00     0.029 A 
HETATM   27  C28 UNL     1       5.587  55.441  -7.844  1.00  0.00     0.057 A 
HETATM   28  C29 UNL     1       6.294  55.045  -8.973  1.00  0.00     0.067 A 
HETATM   29  C30 UNL     1       5.629  54.725 -10.146  1.00  0.00     0.037 A 
HETATM   30  C31 UNL     1       4.233  54.772 -10.190  1.00  0.00     0.014 A 
HETATM   31  C32 UNL     1       3.476  55.114  -9.050  1.00  0.00    -0.006 A 
HETATM   32  C33 UNL     1       1.947  55.187  -9.127  1.00  0.00     0.185 C 
HETATM   33  O6  UNL     1       1.359  54.825  -7.861  1.00  0.00    -0.371 OA
HETATM   34  C34 UNL     1      -1.083  52.589 -10.558  1.00  0.00     0.102 A 
HETATM   35  C35 UNL     1      -2.031  51.605  -9.879  1.00  0.00     0.081 A 
HETATM   36  C36 UNL     1      -1.625  50.747  -8.851  1.00  0.00     0.006 C 
HETATM   37  C37 UNL     1      -2.460  49.721  -8.408  1.00  0.00     0.010 C 
HETATM   38  C38 UNL     1      -3.729  49.523  -8.976  1.00  0.00    -0.003 C 
HETATM   39  C39 UNL     1      -4.207  50.511  -9.853  1.00  0.00     0.010 C 
HETATM   40  C40 UNL     1      -3.358  51.524 -10.313  1.00  0.00     0.006 C 
HETATM   41  C41 UNL     1      -4.432  48.142  -8.763  1.00  0.00     0.171 C 
HETATM   42  O8  UNL     1      -3.722  47.018  -9.405  1.00  0.00    -0.316 OA
HETATM   43 NA1  UNL     1      -1.487  50.455  -9.266  1.00  0.00    -0.223 Na
ENDROOT
BRANCH  41  44
HETATM   44  C42 UNL     1      -5.874  48.108  -9.387  1.00  0.00     0.074 C 
BRANCH  44  45
HETATM   45  C43 UNL     1      -7.086  48.037  -8.409  1.00  0.00     0.018 C 
BRANCH  45  46
HETATM   46  C44 UNL     1      -7.733  46.643  -8.530  1.00  0.00     0.169 C 
BRANCH  46  47
HETATM   47  O7  UNL     1      -8.360  46.482  -9.798  1.00  0.00    -0.400 OA
HETATM   48  H47 UNL     1      -8.850  45.641  -9.768  1.00  0.00     0.209 HD
ENDBRANCH  46  47
ENDBRANCH  45  46
BRANCH  45  49
HETATM   49  C45 UNL     1      -8.111  49.163  -8.666  1.00  0.00     0.045 C 
BRANCH  49  50
HETATM   50  C46 UNL     1      -9.273  49.218  -7.697  1.00  0.00    -0.058 A 
HETATM   51  C47 UNL     1      -9.068  49.521  -6.344  1.00  0.00     0.007 A 
HETATM   52  C48 UNL     1     -10.148  49.590  -5.464  1.00  0.00     0.001 A 
HETATM   53  C49 UNL     1     -11.444  49.364  -5.925  1.00  0.00     0.000 A 
HETATM   54  C50 UNL     1     -11.659  49.064  -7.270  1.00  0.00     0.001 A 
HETATM   55  C51 UNL     1     -10.581  48.990  -8.151  1.00  0.00     0.007 A 
ENDBRANCH  49  50
ENDBRANCH  45  49
ENDBRANCH  44  45
ENDBRANCH  41  44
BRANCH  41  56
HETATM   56  N1  UNL     1      -4.673  48.037  -7.300  1.00  0.00    -0.336 N 
HETATM   57  C52 UNL     1      -3.973  47.286  -6.547  1.00  0.00     0.124 C 
HETATM   58  N2  UNL     1      -2.987  46.400  -6.834  1.00  0.00    -0.279 NA
HETATM   59  N3  UNL     1      -4.255  47.258  -5.223  1.00  0.00    -0.279 NA
HETATM   60  H55 UNL     1      -3.358  45.460  -6.748  1.00  0.00     0.126 HD
HETATM   61  H56 UNL     1      -2.251  46.426  -6.141  1.00  0.00     0.126 HD
HETATM   62  H57 UNL     1      -4.969  47.966  -5.041  1.00  0.00     0.126 HD
HETATM   63  H58 UNL     1      -3.454  47.445  -4.633  1.00  0.00     0.126 HD
ATOM     64  H1  UNL     1      -5.425  48.586  -6.884  1.00  0.00     0.165 HD
ENDBRANCH  41  56
BRANCH  13  65
HETATM   65  S1  UNL     1      -0.127  51.945 -13.670  1.00  0.00     0.106 S 
HETATM   66  O1  UNL     1      -0.268  50.713 -14.438  1.00  0.00    -0.595 OA
HETATM   67  O2  UNL     1      -1.389  52.437 -13.114  1.00  0.00    -0.595 OA
HETATM   68  O3  UNL     1       0.685  52.968 -14.315  1.00  0.00    -0.595 OA
ENDBRANCH  13  65
BRANCH  22  69
HETATM   69  C23 UNL     1      -0.773  57.031  -4.478  1.00  0.00     0.169 C 
BRANCH  69  70
HETATM   70  O4  UNL     1      -1.683  56.001  -4.121  1.00  0.00    -0.400 OA
HETATM   71  H29 UNL     1      -2.379  55.960  -4.798  1.00  0.00     0.209 HD
ENDBRANCH  69  70
ENDBRANCH  22  69
BRANCH  28  72
HETATM   72  O5  UNL     1       7.654  54.961  -8.966  1.00  0.00    -0.361 OA
HETATM   73  H33 UNL     1       7.967  55.104  -8.059  1.00  0.00     0.217 HD
ENDBRANCH  28  72
TORSDOF 11
ENDMDL
MODEL 7
REMARK minimizedAffinity -8.69813633
REMARK CNNscore 0.0756394565
REMARK CNNaffinity 5.5612812
REMARK  11 active torsions:
REMARK  status: ('A' for Active; 'I' for Inactive)
REMARK    1  A    between atoms: C13_13  and  S1_14 
REMARK    2  A    between atoms: C22_26  and  C23_27 
REMARK    3  A    between atoms: C23_27  and  O4_28 
REMARK    4  A    between atoms: C29_34  and  O5_35 
REMARK    5  A    between atoms: C41_48  and  C42_49 
REMARK    6  A    between atoms: C41_48  and  N1_60 
REMARK    7  A    between atoms: C42_49  and  C43_50 
REMARK    8  A    between atoms: C43_50  and  C44_51 
REMARK    9  A    between atoms: C43_50  and  C45_53 
REMARK   10  A    between atoms: C44_51  and  O7_52 
REMARK   11  A    between atoms: C45_53  and  C46_54 
REMARK       I    between atoms: C52_62  and  N2_63 
REMARK       I    between atoms: C52_62  and  N3_64 
ROOT
HETATM    1  C1  UNL     1      -6.091  43.277 -21.000  1.00  0.00     0.010 C 
HETATM    2  C2  UNL     1      -7.586  43.181 -20.651  1.00  0.00    -0.010 C 
HETATM    3  C3  UNL     1      -8.189  41.854 -21.145  1.00  0.00     0.009 C 
HETATM    4  C4  UNL     1      -8.671  41.842 -22.606  1.00  0.00     0.039 C 
HETATM    5  C5  UNL     1      -8.507  43.130 -23.363  1.00  0.00    -0.049 C 
HETATM    6  C6  UNL     1      -8.506  43.117 -24.772  1.00  0.00     0.044 C 
HETATM    7  C7  UNL     1      -8.307  44.295 -25.493  1.00  0.00     0.073 C 
HETATM    8  C8  UNL     1      -7.959  45.459 -24.816  1.00  0.00     0.037 C 
HETATM    9  C9  UNL     1      -8.021  45.491 -23.422  1.00  0.00     0.011 C 
HETATM   10  C10 UNL     1      -8.354  44.349 -22.684  1.00  0.00    -0.047 C 
HETATM   11  C11 UNL     1      -8.402  44.406 -21.169  1.00  0.00     0.024 C 
HETATM   12  C12 UNL     1      -9.831  44.359 -20.542  1.00  0.00     0.033 C 
HETATM   13  C13 UNL     1     -10.773  45.602 -20.450  1.00  0.00     0.140 C 
HETATM   14  C14 UNL     1     -12.029  45.547 -21.391  1.00  0.00     0.050 C 
HETATM   15  C15 UNL     1     -13.299  45.238 -20.578  1.00  0.00    -0.013 C 
HETATM   16  C16 UNL     1     -14.306  46.128 -20.443  1.00  0.00    -0.050 C 
HETATM   17  C17 UNL     1     -14.125  47.499 -21.029  1.00  0.00     0.043 C 
HETATM   18  C18 UNL     1     -13.757  47.244 -22.486  1.00  0.00     0.013 C 
HETATM   19  C19 UNL     1     -14.822  46.351 -23.223  1.00  0.00     0.038 C 
HETATM   20  C20 UNL     1     -16.231  46.260 -22.567  1.00  0.00     0.123 C 
HETATM   21  C21 UNL     1     -17.272  45.741 -23.593  1.00  0.00     0.039 C 
HETATM   22  C22 UNL     1     -18.755  45.957 -23.154  1.00  0.00     0.023 C 
HETATM   23  C24 UNL     1     -19.413  44.703 -22.525  1.00  0.00     0.101 C 
HETATM   24  C25 UNL     1     -18.855  44.359 -21.212  1.00  0.00    -0.101 C 
HETATM   25  C26 UNL     1     -18.233  44.141 -20.208  1.00  0.00    -0.066 C 
HETATM   26  C27 UNL     1     -17.285  43.988 -19.139  1.00  0.00     0.029 A 
HETATM   27  C28 UNL     1     -17.579  43.078 -18.117  1.00  0.00     0.057 A 
HETATM   28  C29 UNL     1     -16.698  42.929 -17.053  1.00  0.00     0.067 A 
HETATM   29  C30 UNL     1     -15.544  43.694 -16.978  1.00  0.00     0.037 A 
HETATM   30  C31 UNL     1     -15.246  44.604 -17.996  1.00  0.00     0.014 A 
HETATM   31  C32 UNL     1     -16.084  44.744 -19.121  1.00  0.00    -0.006 A 
HETATM   32  C33 UNL     1     -15.753  45.769 -20.212  1.00  0.00     0.185 C 
HETATM   33  O6  UNL     1     -16.209  45.303 -21.498  1.00  0.00    -0.371 OA
HETATM   34  C34 UNL     1     -12.288  46.679 -22.479  1.00  0.00     0.102 A 
HETATM   35  C35 UNL     1     -11.831  46.322 -23.891  1.00  0.00     0.081 A 
HETATM   36  C36 UNL     1     -11.990  45.044 -24.439  1.00  0.00     0.006 C 
HETATM   37  C37 UNL     1     -11.371  44.704 -25.642  1.00  0.00     0.010 C 
HETATM   38  C38 UNL     1     -10.576  45.630 -26.336  1.00  0.00    -0.003 C 
HETATM   39  C39 UNL     1     -10.594  46.961 -25.889  1.00  0.00     0.010 C 
HETATM   40  C40 UNL     1     -11.196  47.295 -24.670  1.00  0.00     0.006 C 
HETATM   41  C41 UNL     1      -9.579  45.094 -27.415  1.00  0.00     0.171 C 
HETATM   42  O8  UNL     1      -8.503  44.254 -26.852  1.00  0.00    -0.316 OA
HETATM   43 NA1  UNL     1     -11.535  44.973 -24.185  1.00  0.00    -0.223 Na
ENDROOT
BRANCH  41  44
HETATM   44  C42 UNL     1      -8.826  46.256 -28.157  1.00  0.00     0.074 C 
BRANCH  44  45
HETATM   45  C43 UNL     1      -7.320  46.040 -28.502  1.00  0.00     0.018 C 
BRANCH  45  46
HETATM   46  C44 UNL     1      -6.622  47.414 -28.533  1.00  0.00     0.169 C 
BRANCH  46  47
HETATM   47  O7  UNL     1      -7.575  48.470 -28.490  1.00  0.00    -0.400 OA
HETATM   48  H47 UNL     1      -7.088  49.300 -28.635  1.00  0.00     0.209 HD
ENDBRANCH  46  47
ENDBRANCH  45  46
BRANCH  45  49
HETATM   49  C45 UNL     1      -7.128  45.275 -29.829  1.00  0.00     0.045 C 
BRANCH  49  50
HETATM   50  C46 UNL     1      -6.723  46.124 -31.016  1.00  0.00    -0.058 A 
HETATM   51  C47 UNL     1      -5.393  46.153 -31.459  1.00  0.00     0.007 A 
HETATM   52  C48 UNL     1      -5.034  46.921 -32.566  1.00  0.00     0.001 A 
HETATM   53  C49 UNL     1      -5.997  47.664 -33.247  1.00  0.00     0.000 A 
HETATM   54  C50 UNL     1      -7.323  47.640 -32.816  1.00  0.00     0.001 A 
HETATM   55  C51 UNL     1      -7.684  46.876 -31.707  1.00  0.00     0.007 A 
ENDBRANCH  49  50
ENDBRANCH  45  49
ENDBRANCH  44  45
ENDBRANCH  41  44
BRANCH  41  56
HETATM   56  N1  UNL     1     -10.425  44.481 -28.473  1.00  0.00    -0.336 N 
HETATM   57  C52 UNL     1     -10.651  43.230 -28.525  1.00  0.00     0.124 C 
HETATM   58  N2  UNL     1     -10.172  42.202 -27.780  1.00  0.00    -0.279 NA
HETATM   59  N3  UNL     1     -11.442  42.758 -29.518  1.00  0.00    -0.279 NA
HETATM   60  H55 UNL     1      -9.488  41.693 -28.329  1.00  0.00     0.126 HD
HETATM   61  H56 UNL     1     -10.887  41.511 -27.597  1.00  0.00     0.126 HD
HETATM   62  H57 UNL     1     -11.815  43.561 -30.027  1.00  0.00     0.126 HD
HETATM   63  H58 UNL     1     -12.215  42.194 -29.188  1.00  0.00     0.126 HD
ATOM     64  H1  UNL     1     -10.839  45.085 -29.183  1.00  0.00     0.165 HD
ENDBRANCH  41  56
BRANCH  13  65
HETATM   65  S1  UNL     1      -9.965  47.162 -20.159  1.00  0.00     0.106 S 
HETATM   66  O1  UNL     1      -8.931  46.849 -19.178  1.00  0.00    -0.595 OA
HETATM   67  O2  UNL     1      -9.435  47.514 -21.477  1.00  0.00    -0.595 OA
HETATM   68  O3  UNL     1     -11.007  48.055 -19.672  1.00  0.00    -0.595 OA
ENDBRANCH  13  65
BRANCH  22  69
HETATM   69  C23 UNL     1     -19.573  46.398 -24.386  1.00  0.00     0.169 C 
BRANCH  69  70
HETATM   70  O4  UNL     1     -19.118  47.642 -24.899  1.00  0.00    -0.400 OA
HETATM   71  H29 UNL     1     -19.515  48.354 -24.370  1.00  0.00     0.209 HD
ENDBRANCH  69  70
ENDBRANCH  22  69
BRANCH  28  72
HETATM   72  O5  UNL     1     -16.937  42.035 -16.053  1.00  0.00    -0.361 OA
HETATM   73  H33 UNL     1     -17.711  41.502 -16.295  1.00  0.00     0.217 HD
ENDBRANCH  28  72
TORSDOF 11
ENDMDL
MODEL 8
REMARK minimizedAffinity -8.53973293
REMARK CNNscore 0.0733000413
REMARK CNNaffinity 5.71624947
REMARK  11 active torsions:
REMARK  status: ('A' for Active; 'I' for Inactive)
REMARK    1  A    between atoms: C13_13  and  S1_14 
REMARK    2  A    between atoms: C22_26  and  C23_27 
REMARK    3  A    between atoms: C23_27  and  O4_28 
REMARK    4  A    between atoms: C29_34  and  O5_35 
REMARK    5  A    between atoms: C41_48  and  C42_49 
REMARK    6  A    between atoms: C41_48  and  N1_60 
REMARK    7  A    between atoms: C42_49  and  C43_50 
REMARK    8  A    between atoms: C43_50  and  C44_51 
REMARK    9  A    between atoms: C43_50  and  C45_53 
REMARK   10  A    between atoms: C44_51  and  O7_52 
REMARK   11  A    between atoms: C45_53  and  C46_54 
REMARK       I    between atoms: C52_62  and  N2_63 
REMARK       I    between atoms: C52_62  and  N3_64 
ROOT
HETATM    1  C1  UNL     1     -11.946  43.334 -28.927  1.00  0.00     0.010 C 
HETATM    2  C2  UNL     1     -12.190  43.264 -27.411  1.00  0.00    -0.010 C 
HETATM    3  C3  UNL     1     -12.275  41.805 -26.927  1.00  0.00     0.009 C 
HETATM    4  C4  UNL     1     -13.660  41.144 -27.040  1.00  0.00     0.039 C 
HETATM    5  C5  UNL     1     -14.758  42.008 -27.593  1.00  0.00    -0.049 C 
HETATM    6  C6  UNL     1     -15.915  41.410 -28.131  1.00  0.00     0.044 C 
HETATM    7  C7  UNL     1     -16.924  42.193 -28.694  1.00  0.00     0.073 C 
HETATM    8  C8  UNL     1     -16.716  43.558 -28.858  1.00  0.00     0.037 C 
HETATM    9  C9  UNL     1     -15.604  44.163 -28.271  1.00  0.00     0.011 C 
HETATM   10  C10 UNL     1     -14.647  43.408 -27.582  1.00  0.00    -0.047 C 
HETATM   11  C11 UNL     1     -13.439  44.087 -26.964  1.00  0.00     0.024 C 
HETATM   12  C12 UNL     1     -13.449  44.182 -25.406  1.00  0.00     0.033 C 
HETATM   13  C13 UNL     1     -14.249  45.264 -24.614  1.00  0.00     0.140 C 
HETATM   14  C14 UNL     1     -15.483  44.714 -23.813  1.00  0.00     0.050 C 
HETATM   15  C15 UNL     1     -15.169  44.663 -22.307  1.00  0.00    -0.013 C 
HETATM   16  C16 UNL     1     -15.813  45.438 -21.407  1.00  0.00    -0.050 C 
HETATM   17  C17 UNL     1     -16.798  46.450 -21.918  1.00  0.00     0.043 C 
HETATM   18  C18 UNL     1     -17.753  45.645 -22.790  1.00  0.00     0.013 C 
HETATM   19  C19 UNL     1     -18.397  44.437 -22.013  1.00  0.00     0.038 C 
HETATM   20  C20 UNL     1     -18.356  44.506 -20.458  1.00  0.00     0.123 C 
HETATM   21  C21 UNL     1     -19.384  43.519 -19.847  1.00  0.00     0.039 C 
HETATM   22  C22 UNL     1     -19.678  43.770 -18.334  1.00  0.00     0.023 C 
HETATM   23  C24 UNL     1     -18.889  42.841 -17.378  1.00  0.00     0.101 C 
HETATM   24  C25 UNL     1     -17.449  43.124 -17.359  1.00  0.00    -0.101 C 
HETATM   25  C26 UNL     1     -16.292  43.399 -17.529  1.00  0.00    -0.066 C 
HETATM   26  C27 UNL     1     -14.985  43.788 -17.980  1.00  0.00     0.029 A 
HETATM   27  C28 UNL     1     -13.875  43.364 -17.240  1.00  0.00     0.057 A 
HETATM   28  C29 UNL     1     -12.598  43.749 -17.631  1.00  0.00     0.067 A 
HETATM   29  C30 UNL     1     -12.414  44.571 -18.731  1.00  0.00     0.037 A 
HETATM   30  C31 UNL     1     -13.518  44.997 -19.474  1.00  0.00     0.014 A 
HETATM   31  C32 UNL     1     -14.825  44.583 -19.145  1.00  0.00    -0.006 A 
HETATM   32  C33 UNL     1     -16.026  45.084 -19.956  1.00  0.00     0.185 C 
HETATM   33  O6  UNL     1     -17.067  44.087 -19.986  1.00  0.00    -0.371 OA
HETATM   34  C34 UNL     1     -16.951  45.262 -24.090  1.00  0.00     0.102 A 
HETATM   35  C35 UNL     1     -17.792  44.391 -25.018  1.00  0.00     0.081 A 
HETATM   36  C36 UNL     1     -17.774  42.992 -24.968  1.00  0.00     0.006 C 
HETATM   37  C37 UNL     1     -18.388  42.237 -25.967  1.00  0.00     0.010 C 
HETATM   38  C38 UNL     1     -19.042  42.854 -27.045  1.00  0.00    -0.003 C 
HETATM   39  C39 UNL     1     -19.235  44.244 -26.975  1.00  0.00     0.010 C 
HETATM   40  C40 UNL     1     -18.598  45.001 -25.985  1.00  0.00     0.006 C 
HETATM   41  C41 UNL     1     -19.328  42.005 -28.327  1.00  0.00     0.171 C 
HETATM   42  O8  UNL     1     -18.103  41.572 -29.028  1.00  0.00    -0.316 OA
HETATM   43 NA1  UNL     1     -17.361  43.073 -25.283  1.00  0.00    -0.223 Na
ENDROOT
BRANCH  41  44
HETATM   44  C42 UNL     1     -20.136  42.813 -29.406  1.00  0.00     0.074 C 
BRANCH  44  45
HETATM   45  C43 UNL     1     -21.355  42.108 -30.076  1.00  0.00     0.018 C 
BRANCH  45  46
HETATM   46  C44 UNL     1     -20.861  41.368 -31.336  1.00  0.00     0.169 C 
BRANCH  46  47
HETATM   47  O7  UNL     1     -19.659  40.654 -31.069  1.00  0.00    -0.400 OA
HETATM   48  H47 UNL     1     -19.334  40.314 -31.921  1.00  0.00     0.209 HD
ENDBRANCH  46  47
ENDBRANCH  45  46
BRANCH  45  49
HETATM   49  C45 UNL     1     -22.493  43.097 -30.409  1.00  0.00     0.045 C 
BRANCH  49  50
HETATM   50  C46 UNL     1     -22.498  43.630 -31.826  1.00  0.00    -0.058 A 
HETATM   51  C47 UNL     1     -23.684  43.678 -32.572  1.00  0.00     0.007 A 
HETATM   52  C48 UNL     1     -23.683  44.191 -33.869  1.00  0.00     0.001 A 
HETATM   53  C49 UNL     1     -22.501  44.668 -34.433  1.00  0.00     0.000 A 
HETATM   54  C50 UNL     1     -21.316  44.628 -33.698  1.00  0.00     0.001 A 
HETATM   55  C51 UNL     1     -21.314  44.111 -32.403  1.00  0.00     0.007 A 
ENDBRANCH  49  50
ENDBRANCH  45  49
ENDBRANCH  44  45
ENDBRANCH  41  44
BRANCH  41  56
HETATM   56  N1  UNL     1     -20.269  40.937 -27.899  1.00  0.00    -0.336 N 
HETATM   57  C52 UNL     1     -19.966  39.702 -27.946  1.00  0.00     0.124 C 
HETATM   58  N2  UNL     1     -18.867  39.069 -28.428  1.00  0.00    -0.279 NA
HETATM   59  N3  UNL     1     -20.881  38.797 -27.527  1.00  0.00    -0.279 NA
HETATM   60  H55 UNL     1     -19.106  38.630 -29.311  1.00  0.00     0.126 HD
HETATM   61  H56 UNL     1     -18.602  38.288 -27.843  1.00  0.00     0.126 HD
HETATM   62  H57 UNL     1     -21.670  39.311 -27.133  1.00  0.00     0.126 HD
HETATM   63  H58 UNL     1     -20.527  38.157 -26.826  1.00  0.00     0.126 HD
ATOM     64  H1  UNL     1     -21.192  41.204 -27.554  1.00  0.00     0.165 HD
ENDBRANCH  41  56
BRANCH  13  65
HETATM   65  S1  UNL     1     -14.350  46.866 -25.384  1.00  0.00     0.106 S 
HETATM   66  O1  UNL     1     -12.960  47.220 -25.650  1.00  0.00    -0.595 OA
HETATM   67  O2  UNL     1     -15.131  46.607 -26.594  1.00  0.00    -0.595 OA
HETATM   68  O3  UNL     1     -15.015  47.724 -24.412  1.00  0.00    -0.595 OA
ENDBRANCH  13  65
BRANCH  22  69
HETATM   69  C23 UNL     1     -21.191  43.586 -18.090  1.00  0.00     0.169 C 
BRANCH  69  70
HETATM   70  O4  UNL     1     -21.801  44.789 -17.646  1.00  0.00    -0.400 OA
HETATM   71  H29 UNL     1     -21.649  44.874 -16.690  1.00  0.00     0.209 HD
ENDBRANCH  69  70
ENDBRANCH  22  69
BRANCH  28  72
HETATM   72  O5  UNL     1     -11.493  43.335 -16.950  1.00  0.00    -0.361 OA
HETATM   73  H33 UNL     1     -11.766  42.686 -16.283  1.00  0.00     0.217 HD
ENDBRANCH  28  72
TORSDOF 11
ENDMDL
MODEL 9
REMARK minimizedAffinity -8.69641018
REMARK CNNscore 0.069253847
REMARK CNNaffinity 6.08124018
REMARK  11 active torsions:
REMARK  status: ('A' for Active; 'I' for Inactive)
REMARK    1  A    between atoms: C13_13  and  S1_14 
REMARK    2  A    between atoms: C22_26  and  C23_27 
REMARK    3  A    between atoms: C23_27  and  O4_28 
REMARK    4  A    between atoms: C29_34  and  O5_35 
REMARK    5  A    between atoms: C41_48  and  C42_49 
REMARK    6  A    between atoms: C41_48  and  N1_60 
REMARK    7  A    between atoms: C42_49  and  C43_50 
REMARK    8  A    between atoms: C43_50  and  C44_51 
REMARK    9  A    between atoms: C43_50  and  C45_53 
REMARK   10  A    between atoms: C44_51  and  O7_52 
REMARK   11  A    between atoms: C45_53  and  C46_54 
REMARK       I    between atoms: C52_62  and  N2_63 
REMARK       I    between atoms: C52_62  and  N3_64 
ROOT
HETATM    1  C1  UNL     1      -3.217  44.971 -16.098  1.00  0.00     0.010 C 
HETATM    2  C2  UNL     1      -4.481  44.388 -16.752  1.00  0.00    -0.010 C 
HETATM    3  C3  UNL     1      -4.120  43.413 -17.887  1.00  0.00     0.009 C 
HETATM    4  C4  UNL     1      -3.872  44.053 -19.264  1.00  0.00     0.039 C 
HETATM    5  C5  UNL     1      -4.026  45.547 -19.332  1.00  0.00    -0.049 C 
HETATM    6  C6  UNL     1      -3.424  46.264 -20.384  1.00  0.00     0.044 C 
HETATM    7  C7  UNL     1      -3.514  47.655 -20.439  1.00  0.00     0.073 C 
HETATM    8  C8  UNL     1      -4.073  48.345 -19.369  1.00  0.00     0.037 C 
HETATM    9  C9  UNL     1      -4.727  47.638 -18.358  1.00  0.00     0.011 C 
HETATM   10  C10 UNL     1      -4.764  46.239 -18.359  1.00  0.00    -0.047 C 
HETATM   11  C11 UNL     1      -5.468  45.493 -17.241  1.00  0.00     0.024 C 
HETATM   12  C12 UNL     1      -6.821  44.821 -17.635  1.00  0.00     0.033 C 
HETATM   13  C13 UNL     1      -8.172  45.598 -17.738  1.00  0.00     0.140 C 
HETATM   14  C14 UNL     1      -8.724  45.766 -19.199  1.00  0.00     0.050 C 
HETATM   15  C15 UNL     1      -9.910  44.814 -19.440  1.00  0.00    -0.013 C 
HETATM   16  C16 UNL     1     -11.164  45.264 -19.660  1.00  0.00    -0.050 C 
HETATM   17  C17 UNL     1     -11.416  46.741 -19.565  1.00  0.00     0.043 C 
HETATM   18  C18 UNL     1     -10.396  47.362 -20.511  1.00  0.00     0.013 C 
HETATM   19  C19 UNL     1     -10.494  46.772 -21.966  1.00  0.00     0.038 C 
HETATM   20  C20 UNL     1     -11.823  46.052 -22.340  1.00  0.00     0.123 C 
HETATM   21  C21 UNL     1     -11.955  45.926 -23.879  1.00  0.00     0.039 C 
HETATM   22  C22 UNL     1     -13.393  45.557 -24.363  1.00  0.00     0.023 C 
HETATM   23  C24 UNL     1     -13.584  44.051 -24.672  1.00  0.00     0.101 C 
HETATM   24  C25 UNL     1     -13.546  43.208 -23.471  1.00  0.00    -0.101 C 
HETATM   25  C26 UNL     1     -13.385  42.644 -22.423  1.00  0.00    -0.066 C 
HETATM   26  C27 UNL     1     -13.030  42.171 -21.114  1.00  0.00     0.029 A 
HETATM   27  C28 UNL     1     -13.264  40.826 -20.808  1.00  0.00     0.057 A 
HETATM   28  C29 UNL     1     -12.961  40.344 -19.540  1.00  0.00     0.067 A 
HETATM   29  C30 UNL     1     -12.453  41.189 -18.566  1.00  0.00     0.037 A 
HETATM   30  C31 UNL     1     -12.217  42.533 -18.865  1.00  0.00     0.014 A 
HETATM   31  C32 UNL     1     -12.458  43.049 -20.155  1.00  0.00    -0.006 A 
HETATM   32  C33 UNL     1     -12.217  44.533 -20.455  1.00  0.00     0.185 C 
HETATM   33  O6  UNL     1     -11.811  44.712 -21.827  1.00  0.00    -0.371 OA
HETATM   34  C34 UNL     1      -8.993  47.209 -19.812  1.00  0.00     0.102 A 
HETATM   35  C35 UNL     1      -7.875  47.742 -20.703  1.00  0.00     0.081 A 
HETATM   36  C36 UNL     1      -7.170  46.933 -21.601  1.00  0.00     0.006 C 
HETATM   37  C37 UNL     1      -6.022  47.406 -22.235  1.00  0.00     0.010 C 
HETATM   38  C38 UNL     1      -5.543  48.704 -21.996  1.00  0.00    -0.003 C 
HETATM   39  C39 UNL     1      -6.368  49.572 -21.262  1.00  0.00     0.010 C 
HETATM   40  C40 UNL     1      -7.507  49.088 -20.607  1.00  0.00     0.006 C 
HETATM   41  C41 UNL     1      -4.062  49.034 -22.376  1.00  0.00     0.171 C 
HETATM   42  O8  UNL     1      -3.072  48.280 -21.580  1.00  0.00    -0.316 OA
HETATM   43 NA1  UNL     1      -6.891  46.841 -21.165  1.00  0.00    -0.223 Na
ENDROOT
BRANCH  41  44
HETATM   44  C42 UNL     1      -3.706  50.543 -22.123  1.00  0.00     0.074 C 
BRANCH  44  45
HETATM   45  C43 UNL     1      -2.226  50.984 -22.336  1.00  0.00     0.018 C 
BRANCH  45  46
HETATM   46  C44 UNL     1      -1.670  51.499 -20.993  1.00  0.00     0.169 C 
BRANCH  46  47
HETATM   47  O7  UNL     1      -2.524  51.134 -19.915  1.00  0.00    -0.400 OA
HETATM   48  H47 UNL     1      -2.189  51.587 -19.120  1.00  0.00     0.209 HD
ENDBRANCH  46  47
ENDBRANCH  45  46
BRANCH  45  49
HETATM   49  C45 UNL     1      -2.085  52.042 -23.451  1.00  0.00     0.045 C 
BRANCH  49  50
HETATM   50  C46 UNL     1      -1.000  51.770 -24.472  1.00  0.00    -0.058 A 
HETATM   51  C47 UNL     1      -1.225  50.897 -25.545  1.00  0.00     0.007 A 
HETATM   52  C48 UNL     1      -0.226  50.670 -26.492  1.00  0.00     0.001 A 
HETATM   53  C49 UNL     1       1.004  51.316 -26.383  1.00  0.00     0.000 A 
HETATM   54  C50 UNL     1       1.237  52.188 -25.320  1.00  0.00     0.001 A 
HETATM   55  C51 UNL     1       0.242  52.414 -24.370  1.00  0.00     0.007 A 
ENDBRANCH  49  50
ENDBRANCH  45  49
ENDBRANCH  44  45
ENDBRANCH  41  44
BRANCH  41  56
HETATM   56  N1  UNL     1      -3.986  48.890 -23.853  1.00  0.00    -0.336 N 
HETATM   57  C52 UNL     1      -4.637  49.643 -24.646  1.00  0.00     0.124 C 
HETATM   58  N2  UNL     1      -5.550  50.618 -24.406  1.00  0.00    -0.279 NA
HETATM   59  N3  UNL     1      -4.500  49.448 -25.979  1.00  0.00    -0.279 NA
HETATM   60  H55 UNL     1      -6.473  50.261 -24.632  1.00  0.00     0.126 HD
HETATM   61  H56 UNL     1      -5.437  51.396 -25.041  1.00  0.00     0.126 HD
HETATM   62  H57 UNL     1      -3.777  48.741 -26.118  1.00  0.00     0.126 HD
HETATM   63  H58 UNL     1      -4.241  50.284 -26.487  1.00  0.00     0.126 HD
ATOM     64  H1  UNL     1      -3.390  48.161 -24.246  1.00  0.00     0.165 HD
ENDBRANCH  41  56
BRANCH  13  65
HETATM   65  S1  UNL     1      -8.396  46.915 -16.561  1.00  0.00     0.106 S 
HETATM   66  O1  UNL     1      -7.726  46.433 -15.358  1.00  0.00    -0.595 OA
HETATM   67  O2  UNL     1      -7.719  48.047 -17.194  1.00  0.00    -0.595 OA
HETATM   68  O3  UNL     1      -9.837  47.076 -16.426  1.00  0.00    -0.595 OA
ENDBRANCH  13  65
BRANCH  22  69
HETATM   69  C23 UNL     1     -13.714  46.382 -25.628  1.00  0.00     0.169 C 
BRANCH  69  70
HETATM   70  O4  UNL     1     -14.720  47.353 -25.379  1.00  0.00    -0.400 OA
HETATM   71  H29 UNL     1     -15.586  46.916 -25.434  1.00  0.00     0.209 HD
ENDBRANCH  69  70
ENDBRANCH  22  69
BRANCH  28  72
HETATM   72  O5  UNL     1     -13.152  39.035 -19.214  1.00  0.00    -0.361 OA
HETATM   73  H33 UNL     1     -13.402  38.550 -20.017  1.00  0.00     0.217 HD
ENDBRANCH  28  72
TORSDOF 11
ENDMDL
