MODEL 1
REMARK minimizedAffinity -8.87279797
REMARK CNNscore 0.441145301
REMARK CNNaffinity 7.20651102
REMARK  14 active torsions:
REMARK  status: ('A' for Active; 'I' for Inactive)
REMARK    1  A    between atoms: C2_2  and  C3_3 
REMARK    2  A    between atoms: C2_2  and  C35_44 
REMARK    3  A    between atoms: C3_3  and  C4_4 
REMARK    4  A    between atoms: C4_4  and  C5_5 
REMARK    5  A    between atoms: C5_5  and  C6_6 
REMARK    6  A    between atoms: C5_5  and  C7_9 
REMARK    7  A    between atoms: C6_6  and  O2_8 
REMARK    8  A    between atoms: C28_31  and  O4_32 
REMARK    9  A    between atoms: O4_32  and  C29_33 
REMARK   10  A    between atoms: C30_35  and  C31_36 
REMARK   11  A    between atoms: C31_36  and  O6_37 
REMARK   12  A    between atoms: C32_38  and  O7_39 
REMARK   13  A    between atoms: C33_40  and  O8_41 
REMARK   14  A    between atoms: C34_42  and  O9_43 
ROOT
HETATM    1  C7  UNL     1       0.347   7.333  13.486  1.00  0.00     0.009 C 
HETATM    2  C8  UNL     1       0.281   8.868  13.309  1.00  0.00     0.007 C 
HETATM    3  C9  UNL     1      -1.111   9.310  13.815  1.00  0.00     0.015 C 
HETATM    4  C10 UNL     1      -1.732   8.067  14.489  1.00  0.00    -0.010 C 
HETATM    5  C11 UNL     1      -1.211   8.019  15.966  1.00  0.00     0.021 C 
HETATM    6  C12 UNL     1      -3.258   7.933  14.589  1.00  0.00    -0.039 C 
HETATM    7  C13 UNL     1      -3.820   6.695  14.614  1.00  0.00    -0.066 C 
HETATM    8  C14 UNL     1      -2.943   5.424  14.512  1.00  0.00     0.036 C 
HETATM    9  C15 UNL     1      -1.438   5.588  14.216  1.00  0.00     0.015 C 
HETATM   10  C16 UNL     1      -1.153   6.937  13.560  1.00  0.00    -0.028 C 
HETATM   11  C17 UNL     1      -1.782   6.933  12.132  1.00  0.00     0.016 C 
HETATM   12  C18 UNL     1      -5.360   6.462  14.723  1.00  0.00    -0.015 C 
HETATM   13  C19 UNL     1      -5.756   5.402  13.665  1.00  0.00     0.020 C 
HETATM   14  C20 UNL     1      -5.628   5.925  16.157  1.00  0.00     0.021 C 
HETATM   15  C21 UNL     1      -7.097   5.732  16.488  1.00  0.00     0.080 C 
HETATM   16  C22 UNL     1      -7.859   7.020  16.296  1.00  0.00     0.135 C 
HETATM   17  O3  UNL     1      -8.613   7.427  17.182  1.00  0.00    -0.297 OA
HETATM   18  C23 UNL     1      -7.739   7.710  14.930  1.00  0.00     0.018 C 
HETATM   19  C24 UNL     1      -8.626   6.935  13.930  1.00  0.00     0.023 C 
HETATM   20  C25 UNL     1      -8.381   9.121  15.027  1.00  0.00     0.023 C 
HETATM   21  C26 UNL     1      -6.208   7.779  14.489  1.00  0.00     0.016 C 
HETATM   22  C27 UNL     1      -5.497   8.973  15.157  1.00  0.00     0.043 C 
HETATM   23  C28 UNL     1      -4.073   9.212  14.657  1.00  0.00     0.155 C 
ENDROOT
BRANCH  23  24
HETATM   24  O4  UNL     1      -3.430  10.140  15.543  1.00  0.00    -0.349 OA
BRANCH  24  25
HETATM   25  C29 UNL     1      -3.616  11.520  15.191  1.00  0.00     0.292 C 
HETATM   26  O5  UNL     1      -4.534  12.175  16.074  1.00  0.00    -0.348 OA
HETATM   27  C30 UNL     1      -3.888  12.813  17.187  1.00  0.00     0.179 C 
HETATM   28  C32 UNL     1      -3.051  14.013  16.686  1.00  0.00     0.180 C 
HETATM   29  C33 UNL     1      -2.349  13.689  15.346  1.00  0.00     0.183 C 
HETATM   30  C34 UNL     1      -2.211  12.187  15.151  1.00  0.00     0.204 C 
BRANCH  27  31
HETATM   31  C31 UNL     1      -4.947  13.205  18.223  1.00  0.00     0.198 C 
BRANCH  31  32
HETATM   32  O6  UNL     1      -6.087  13.774  17.590  1.00  0.00    -0.398 OA
HETATM   33  H45 UNL     1      -6.551  14.290  18.271  1.00  0.00     0.209 HD
ENDBRANCH  31  32
ENDBRANCH  27  31
BRANCH  28  34
HETATM   34  O7  UNL     1      -3.865  15.181  16.459  1.00  0.00    -0.390 OA
HETATM   35  H47 UNL     1      -3.244  15.931  16.352  1.00  0.00     0.210 HD
ENDBRANCH  28  34
BRANCH  29  36
HETATM   36  O8  UNL     1      -3.076  14.245  14.241  1.00  0.00    -0.390 OA
HETATM   37  H49 UNL     1      -3.862  14.678  14.636  1.00  0.00     0.210 HD
ENDBRANCH  29  36
BRANCH  30  38
HETATM   38  O9  UNL     1      -1.350  11.657  16.174  1.00  0.00    -0.388 OA
HETATM   39  H51 UNL     1      -1.515  10.691  16.169  1.00  0.00     0.210 HD
ENDBRANCH  30  38
ENDBRANCH  24  25
ENDBRANCH  23  24
BRANCH   1  40
HETATM   40  C5  UNL     1       1.272   6.539  12.525  1.00  0.00     0.089 C 
BRANCH  40  41
HETATM   41  C4  UNL     1       0.979   6.639  11.014  1.00  0.00     0.020 C 
BRANCH  41  42
HETATM   42  C3  UNL     1       1.369   7.990  10.373  1.00  0.00     0.034 C 
BRANCH  42  43
HETATM   43  C2  UNL     1       0.901   8.290   8.959  1.00  0.00    -0.086 C 
HETATM   44  C1  UNL     1      -0.386   8.524   8.640  1.00  0.00     0.014 C 
BRANCH  43  45
HETATM   45  C35 UNL     1       1.968   8.359   7.866  1.00  0.00     0.005 C 
HETATM   46  C36 UNL     1       3.384   8.486   8.443  1.00  0.00     0.014 C 
HETATM   47  C37 UNL     1       1.871   7.172   6.904  1.00  0.00     0.014 C 
ENDBRANCH  43  45
ENDBRANCH  42  43
ENDBRANCH  41  42
ENDBRANCH  40  41
BRANCH  40  48
HETATM   48  C6  UNL     1       2.703   6.961  12.820  1.00  0.00     0.144 C 
HETATM   49  O1  UNL     1       3.612   7.037  12.011  1.00  0.00    -0.650 OA
BRANCH  48  50
HETATM   50  O2  UNL     1       2.941   7.205  14.126  1.00  0.00    -0.776 OA
HETATM   51  H8  UNL     1       3.896   7.429  14.156  1.00  0.00     0.167 HD
ENDBRANCH  48  50
ENDBRANCH  40  48
ENDBRANCH   1  40
TORSDOF 14
ENDMDL
MODEL 2
REMARK minimizedAffinity -8.29458618
REMARK CNNscore 0.378524274
REMARK CNNaffinity 7.43589926
REMARK  14 active torsions:
REMARK  status: ('A' for Active; 'I' for Inactive)
REMARK    1  A    between atoms: C2_2  and  C3_3 
REMARK    2  A    between atoms: C2_2  and  C35_44 
REMARK    3  A    between atoms: C3_3  and  C4_4 
REMARK    4  A    between atoms: C4_4  and  C5_5 
REMARK    5  A    between atoms: C5_5  and  C6_6 
REMARK    6  A    between atoms: C5_5  and  C7_9 
REMARK    7  A    between atoms: C6_6  and  O2_8 
REMARK    8  A    between atoms: C28_31  and  O4_32 
REMARK    9  A    between atoms: O4_32  and  C29_33 
REMARK   10  A    between atoms: C30_35  and  C31_36 
REMARK   11  A    between atoms: C31_36  and  O6_37 
REMARK   12  A    between atoms: C32_38  and  O7_39 
REMARK   13  A    between atoms: C33_40  and  O8_41 
REMARK   14  A    between atoms: C34_42  and  O9_43 
ROOT
HETATM    1  C7  UNL     1      -8.080   7.455  15.370  1.00  0.00     0.009 C 
HETATM    2  C8  UNL     1      -6.918   7.774  16.338  1.00  0.00     0.007 C 
HETATM    3  C9  UNL     1      -5.644   7.158  15.714  1.00  0.00     0.015 C 
HETATM    4  C10 UNL     1      -6.045   6.702  14.294  1.00  0.00    -0.010 C 
HETATM    5  C11 UNL     1      -5.911   7.940  13.343  1.00  0.00     0.021 C 
HETATM    6  C12 UNL     1      -5.267   5.572  13.606  1.00  0.00    -0.039 C 
HETATM    7  C13 UNL     1      -5.899   4.783  12.697  1.00  0.00    -0.066 C 
HETATM    8  C14 UNL     1      -7.397   4.991  12.372  1.00  0.00     0.036 C 
HETATM    9  C15 UNL     1      -8.201   6.001  13.216  1.00  0.00     0.015 C 
HETATM   10  C16 UNL     1      -7.527   6.248  14.563  1.00  0.00    -0.028 C 
HETATM   11  C17 UNL     1      -7.624   4.941  15.411  1.00  0.00     0.016 C 
HETATM   12  C18 UNL     1      -5.186   3.617  11.941  1.00  0.00    -0.015 C 
HETATM   13  C19 UNL     1      -6.112   2.375  12.002  1.00  0.00     0.020 C 
HETATM   14  C20 UNL     1      -5.004   4.086  10.471  1.00  0.00     0.021 C 
HETATM   15  C21 UNL     1      -4.230   3.115   9.596  1.00  0.00     0.080 C 
HETATM   16  C22 UNL     1      -2.874   2.827  10.191  1.00  0.00     0.135 C 
HETATM   17  O3  UNL     1      -1.865   2.901   9.489  1.00  0.00    -0.297 OA
HETATM   18  C23 UNL     1      -2.836   2.333  11.645  1.00  0.00     0.018 C 
HETATM   19  C24 UNL     1      -3.251   0.844  11.649  1.00  0.00     0.023 C 
HETATM   20  C25 UNL     1      -1.363   2.341  12.135  1.00  0.00     0.023 C 
HETATM   21  C26 UNL     1      -3.773   3.248  12.554  1.00  0.00     0.016 C 
HETATM   22  C27 UNL     1      -3.042   4.539  12.971  1.00  0.00     0.043 C 
HETATM   23  C28 UNL     1      -3.807   5.392  13.982  1.00  0.00     0.155 C 
ENDROOT
BRANCH  23  24
HETATM   24  O4  UNL     1      -3.174   6.678  14.063  1.00  0.00    -0.349 OA
BRANCH  24  25
HETATM   25  C29 UNL     1      -1.853   6.653  14.627  1.00  0.00     0.292 C 
HETATM   26  O5  UNL     1      -0.844   6.819  13.624  1.00  0.00    -0.348 OA
HETATM   27  C30 UNL     1      -0.458   8.190  13.433  1.00  0.00     0.179 C 
HETATM   28  C32 UNL     1       0.286   8.701  14.689  1.00  0.00     0.180 C 
HETATM   29  C33 UNL     1      -0.358   8.153  15.986  1.00  0.00     0.183 C 
HETATM   30  C34 UNL     1      -1.800   7.733  15.745  1.00  0.00     0.204 C 
BRANCH  27  31
HETATM   31  C31 UNL     1       0.373   8.301  12.151  1.00  0.00     0.198 C 
BRANCH  31  32
HETATM   32  O6  UNL     1       1.252   9.418  12.213  1.00  0.00    -0.398 OA
HETATM   33  H45 UNL     1       1.491   9.632  11.296  1.00  0.00     0.209 HD
ENDBRANCH  31  32
ENDBRANCH  27  31
BRANCH  28  34
HETATM   34  O7  UNL     1       1.667   8.289  14.703  1.00  0.00    -0.390 OA
HETATM   35  H47 UNL     1       2.104   8.818  15.402  1.00  0.00     0.210 HD
ENDBRANCH  28  34
BRANCH  29  36
HETATM   36  O8  UNL     1       0.383   7.034  16.490  1.00  0.00    -0.390 OA
HETATM   37  H49 UNL     1       1.112   6.891  15.849  1.00  0.00     0.210 HD
ENDBRANCH  29  36
BRANCH  30  38
HETATM   38  O9  UNL     1      -2.574   8.893  15.390  1.00  0.00    -0.388 OA
HETATM   39  H51 UNL     1      -3.395   8.536  14.991  1.00  0.00     0.210 HD
ENDBRANCH  30  38
ENDBRANCH  24  25
ENDBRANCH  23  24
BRANCH   1  40
HETATM   40  C5  UNL     1      -9.506   7.345  15.972  1.00  0.00     0.089 C 
BRANCH  40  41
HETATM   41  C4  UNL     1      -9.883   8.337  17.091  1.00  0.00     0.020 C 
BRANCH  41  42
HETATM   42  C3  UNL     1     -10.891   9.430  16.667  1.00  0.00     0.034 C 
BRANCH  42  43
HETATM   43  C2  UNL     1     -10.397  10.858  16.508  1.00  0.00    -0.086 C 
HETATM   44  C1  UNL     1      -9.482  11.226  15.590  1.00  0.00     0.014 C 
BRANCH  43  45
HETATM   45  C35 UNL     1     -11.009  11.919  17.423  1.00  0.00     0.005 C 
HETATM   46  C36 UNL     1     -12.492  12.165  17.117  1.00  0.00     0.014 C 
HETATM   47  C37 UNL     1     -10.800  11.581  18.901  1.00  0.00     0.014 C 
ENDBRANCH  43  45
ENDBRANCH  42  43
ENDBRANCH  41  42
ENDBRANCH  40  41
BRANCH  40  48
HETATM   48  C6  UNL     1     -10.494   7.441  14.819  1.00  0.00     0.144 C 
HETATM   49  O1  UNL     1     -10.510   8.301  13.956  1.00  0.00    -0.650 OA
BRANCH  48  50
HETATM   50  O2  UNL     1     -11.452   6.490  14.842  1.00  0.00    -0.776 OA
HETATM   51  H8  UNL     1     -12.018   6.703  14.069  1.00  0.00     0.167 HD
ENDBRANCH  48  50
ENDBRANCH  40  48
ENDBRANCH   1  40
TORSDOF 14
ENDMDL
MODEL 3
REMARK minimizedAffinity -8.14578724
REMARK CNNscore 0.375507712
REMARK CNNaffinity 7.23776484
REMARK  14 active torsions:
REMARK  status: ('A' for Active; 'I' for Inactive)
REMARK    1  A    between atoms: C2_2  and  C3_3 
REMARK    2  A    between atoms: C2_2  and  C35_44 
REMARK    3  A    between atoms: C3_3  and  C4_4 
REMARK    4  A    between atoms: C4_4  and  C5_5 
REMARK    5  A    between atoms: C5_5  and  C6_6 
REMARK    6  A    between atoms: C5_5  and  C7_9 
REMARK    7  A    between atoms: C6_6  and  O2_8 
REMARK    8  A    between atoms: C28_31  and  O4_32 
REMARK    9  A    between atoms: O4_32  and  C29_33 
REMARK   10  A    between atoms: C30_35  and  C31_36 
REMARK   11  A    between atoms: C31_36  and  O6_37 
REMARK   12  A    between atoms: C32_38  and  O7_39 
REMARK   13  A    between atoms: C33_40  and  O8_41 
REMARK   14  A    between atoms: C34_42  and  O9_43 
ROOT
HETATM    1  C7  UNL     1      -5.949   4.351  13.134  1.00  0.00     0.009 C 
HETATM    2  C8  UNL     1      -4.715   5.267  12.968  1.00  0.00     0.007 C 
HETATM    3  C9  UNL     1      -5.063   6.605  13.660  1.00  0.00     0.015 C 
HETATM    4  C10 UNL     1      -6.389   6.360  14.413  1.00  0.00    -0.010 C 
HETATM    5  C11 UNL     1      -6.036   5.733  15.805  1.00  0.00     0.021 C 
HETATM    6  C12 UNL     1      -7.322   7.540  14.721  1.00  0.00    -0.039 C 
HETATM    7  C13 UNL     1      -8.661   7.324  14.823  1.00  0.00    -0.066 C 
HETATM    8  C14 UNL     1      -9.256   5.913  14.601  1.00  0.00     0.036 C 
HETATM    9  C15 UNL     1      -8.323   4.789  14.102  1.00  0.00     0.015 C 
HETATM   10  C16 UNL     1      -7.089   5.368  13.413  1.00  0.00    -0.028 C 
HETATM   11  C17 UNL     1      -7.541   6.052  12.084  1.00  0.00     0.016 C 
HETATM   12  C18 UNL     1      -9.684   8.460  15.142  1.00  0.00    -0.015 C 
HETATM   13  C19 UNL     1     -10.865   8.328  14.148  1.00  0.00     0.020 C 
HETATM   14  C20 UNL     1     -10.171   8.222  16.599  1.00  0.00     0.021 C 
HETATM   15  C21 UNL     1     -11.105   9.296  17.128  1.00  0.00     0.080 C 
HETATM   16  C22 UNL     1     -10.456  10.655  17.043  1.00  0.00     0.135 C 
HETATM   17  O3  UNL     1     -10.459  11.401  18.024  1.00  0.00    -0.297 OA
HETATM   18  C23 UNL     1      -9.916  11.091  15.674  1.00  0.00     0.018 C 
HETATM   19  C24 UNL     1     -11.121  11.516  14.804  1.00  0.00     0.023 C 
HETATM   20  C25 UNL     1      -9.077  12.384  15.858  1.00  0.00     0.023 C 
HETATM   21  C26 UNL     1      -9.060   9.911  15.027  1.00  0.00     0.016 C 
HETATM   22  C27 UNL     1      -7.626   9.900  15.592  1.00  0.00     0.043 C 
HETATM   23  C28 UNL     1      -6.690   8.908  14.901  1.00  0.00     0.155 C 
ENDROOT
BRANCH  23  24
HETATM   24  O4  UNL     1      -5.498   8.782  15.691  1.00  0.00    -0.349 OA
BRANCH  24  25
HETATM   25  C29 UNL     1      -4.410   9.613  15.257  1.00  0.00     0.292 C 
HETATM   26  O5  UNL     1      -4.434  10.896  15.894  1.00  0.00    -0.348 OA
HETATM   27  C30 UNL     1      -3.651  10.943  17.098  1.00  0.00     0.179 C 
HETATM   28  C32 UNL     1      -2.150  10.813  16.748  1.00  0.00     0.180 C 
HETATM   29  C33 UNL     1      -1.925   9.794  15.606  1.00  0.00     0.183 C 
HETATM   30  C34 UNL     1      -3.092   8.824  15.500  1.00  0.00     0.204 C 
BRANCH  27  31
HETATM   31  C31 UNL     1      -3.985  12.229  17.861  1.00  0.00     0.198 C 
BRANCH  31  32
HETATM   32  O6  UNL     1      -3.925  12.013  19.266  1.00  0.00    -0.398 OA
HETATM   33  H45 UNL     1      -4.450  12.721  19.676  1.00  0.00     0.209 HD
ENDBRANCH  31  32
ENDBRANCH  27  31
BRANCH  28  34
HETATM   34  O7  UNL     1      -1.589  12.065  16.306  1.00  0.00    -0.390 OA
HETATM   35  H47 UNL     1      -0.617  11.947  16.311  1.00  0.00     0.210 HD
ENDBRANCH  28  34
BRANCH  29  36
HETATM   36  O8  UNL     1      -1.751  10.464  14.350  1.00  0.00    -0.390 OA
HETATM   37  H49 UNL     1      -1.846  11.420  14.547  1.00  0.00     0.210 HD
ENDBRANCH  29  36
BRANCH  30  38
HETATM   38  O9  UNL     1      -3.164   8.042  16.706  1.00  0.00    -0.388 OA
HETATM   39  H51 UNL     1      -4.062   7.650  16.699  1.00  0.00     0.210 HD
ENDBRANCH  30  38
ENDBRANCH  24  25
ENDBRANCH  23  24
BRANCH   1  40
HETATM   40  C5  UNL     1      -6.184   3.260  12.055  1.00  0.00     0.089 C 
BRANCH  40  41
HETATM   41  C4  UNL     1      -4.969   2.414  11.625  1.00  0.00     0.020 C 
BRANCH  41  42
HETATM   42  C3  UNL     1      -3.822   3.222  10.974  1.00  0.00     0.034 C 
BRANCH  42  43
HETATM   43  C2  UNL     1      -2.387   2.817  11.262  1.00  0.00    -0.086 C 
HETATM   44  C1  UNL     1      -1.890   1.600  10.971  1.00  0.00     0.014 C 
BRANCH  43  45
HETATM   45  C35 UNL     1      -1.471   3.871  11.883  1.00  0.00     0.005 C 
HETATM   46  C36 UNL     1       0.002   3.445  11.865  1.00  0.00     0.014 C 
HETATM   47  C37 UNL     1      -1.656   5.241  11.224  1.00  0.00     0.014 C 
ENDBRANCH  43  45
ENDBRANCH  42  43
ENDBRANCH  41  42
ENDBRANCH  40  41
BRANCH  40  48
HETATM   48  C6  UNL     1      -7.308   2.364  12.553  1.00  0.00     0.144 C 
HETATM   49  O1  UNL     1      -8.406   2.733  12.936  1.00  0.00    -0.650 OA
BRANCH  48  50
HETATM   50  O2  UNL     1      -6.980   1.056  12.607  1.00  0.00    -0.776 OA
HETATM   51  H8  UNL     1      -7.782   0.624  12.972  1.00  0.00     0.167 HD
ENDBRANCH  48  50
ENDBRANCH  40  48
ENDBRANCH   1  40
TORSDOF 14
ENDMDL
MODEL 4
REMARK minimizedAffinity -7.65548706
REMARK CNNscore 0.292063355
REMARK CNNaffinity 6.27083921
REMARK  14 active torsions:
REMARK  status: ('A' for Active; 'I' for Inactive)
REMARK    1  A    between atoms: C2_2  and  C3_3 
REMARK    2  A    between atoms: C2_2  and  C35_44 
REMARK    3  A    between atoms: C3_3  and  C4_4 
REMARK    4  A    between atoms: C4_4  and  C5_5 
REMARK    5  A    between atoms: C5_5  and  C6_6 
REMARK    6  A    between atoms: C5_5  and  C7_9 
REMARK    7  A    between atoms: C6_6  and  O2_8 
REMARK    8  A    between atoms: C28_31  and  O4_32 
REMARK    9  A    between atoms: O4_32  and  C29_33 
REMARK   10  A    between atoms: C30_35  and  C31_36 
REMARK   11  A    between atoms: C31_36  and  O6_37 
REMARK   12  A    between atoms: C32_38  and  O7_39 
REMARK   13  A    between atoms: C33_40  and  O8_41 
REMARK   14  A    between atoms: C34_42  and  O9_43 
ROOT
HETATM    1  C7  UNL     1       8.232  12.257  20.511  1.00  0.00     0.009 C 
HETATM    2  C8  UNL     1       7.034  11.526  19.864  1.00  0.00     0.007 C 
HETATM    3  C9  UNL     1       7.378  11.357  18.366  1.00  0.00     0.015 C 
HETATM    4  C10 UNL     1       8.857  11.777  18.221  1.00  0.00    -0.010 C 
HETATM    5  C11 UNL     1       9.740  10.529  18.564  1.00  0.00     0.021 C 
HETATM    6  C12 UNL     1       9.378  12.287  16.870  1.00  0.00    -0.039 C 
HETATM    7  C13 UNL     1      10.412  13.169  16.843  1.00  0.00    -0.066 C 
HETATM    8  C14 UNL     1      11.048  13.687  18.154  1.00  0.00     0.036 C 
HETATM    9  C15 UNL     1      10.381  13.312  19.495  1.00  0.00     0.015 C 
HETATM   10  C16 UNL     1       8.918  12.929  19.290  1.00  0.00    -0.028 C 
HETATM   11  C17 UNL     1       8.129  14.206  18.863  1.00  0.00     0.016 C 
HETATM   12  C18 UNL     1      11.013  13.734  15.517  1.00  0.00    -0.015 C 
HETATM   13  C19 UNL     1      11.169  15.267  15.681  1.00  0.00     0.020 C 
HETATM   14  C20 UNL     1      12.404  13.064  15.338  1.00  0.00     0.021 C 
HETATM   15  C21 UNL     1      13.106  13.416  14.038  1.00  0.00     0.080 C 
HETATM   16  C22 UNL     1      12.238  13.070  12.854  1.00  0.00     0.135 C 
HETATM   17  O3  UNL     1      12.706  12.425  11.914  1.00  0.00    -0.297 OA
HETATM   18  C23 UNL     1      10.817  13.651  12.831  1.00  0.00     0.018 C 
HETATM   19  C24 UNL     1      10.922  15.140  12.429  1.00  0.00     0.023 C 
HETATM   20  C25 UNL     1      10.022  12.979  11.678  1.00  0.00     0.023 C 
HETATM   21  C26 UNL     1      10.117  13.431  14.246  1.00  0.00     0.016 C 
HETATM   22  C27 UNL     1       9.535  12.008  14.356  1.00  0.00     0.043 C 
HETATM   23  C28 UNL     1       8.700  11.770  15.614  1.00  0.00     0.155 C 
ENDROOT
BRANCH  23  24
HETATM   24  O4  UNL     1       8.468  10.359  15.744  1.00  0.00    -0.349 OA
BRANCH  24  25
HETATM   25  C29 UNL     1       7.121   9.952  15.456  1.00  0.00     0.292 C 
HETATM   26  O5  UNL     1       6.783  10.169  14.080  1.00  0.00    -0.348 OA
HETATM   27  C30 UNL     1       7.034   9.023  13.251  1.00  0.00     0.179 C 
HETATM   28  C32 UNL     1       6.052   7.887  13.622  1.00  0.00     0.180 C 
HETATM   29  C33 UNL     1       5.824   7.817  15.151  1.00  0.00     0.183 C 
HETATM   30  C34 UNL     1       6.972   8.470  15.905  1.00  0.00     0.204 C 
BRANCH  27  31
HETATM   31  C31 UNL     1       6.945   9.441  11.780  1.00  0.00     0.198 C 
BRANCH  31  32
HETATM   32  O6  UNL     1       6.963   8.303  10.927  1.00  0.00    -0.398 OA
HETATM   33  H45 UNL     1       7.237   8.619  10.050  1.00  0.00     0.209 HD
ENDBRANCH  31  32
ENDBRANCH  27  31
BRANCH  28  34
HETATM   34  O7  UNL     1       4.758   8.072  13.016  1.00  0.00    -0.390 OA
HETATM   35  H47 UNL     1       4.280   7.224  13.125  1.00  0.00     0.210 HD
ENDBRANCH  28  34
BRANCH  29  36
HETATM   36  O8  UNL     1       4.594   8.459  15.514  1.00  0.00    -0.390 OA
HETATM   37  H49 UNL     1       4.220   8.803  14.675  1.00  0.00     0.210 HD
ENDBRANCH  29  36
BRANCH  30  38
HETATM   38  O9  UNL     1       8.179   7.726  15.661  1.00  0.00    -0.388 OA
HETATM   39  H51 UNL     1       8.905   8.326  15.931  1.00  0.00     0.210 HD
ENDBRANCH  30  38
ENDBRANCH  24  25
ENDBRANCH  23  24
BRANCH   1  40
HETATM   40  C5  UNL     1       7.951  13.125  21.767  1.00  0.00     0.089 C 
BRANCH  40  41
HETATM   41  C4  UNL     1       6.478  13.321  22.179  1.00  0.00     0.020 C 
BRANCH  41  42
HETATM   42  C3  UNL     1       5.925  12.229  23.124  1.00  0.00     0.034 C 
BRANCH  42  43
HETATM   43  C2  UNL     1       4.465  11.828  23.002  1.00  0.00    -0.086 C 
HETATM   44  C1  UNL     1       3.454  12.717  22.965  1.00  0.00     0.014 C 
BRANCH  43  45
HETATM   45  C35 UNL     1       4.155  10.336  22.881  1.00  0.00     0.005 C 
HETATM   46  C36 UNL     1       3.044   9.893  23.841  1.00  0.00     0.014 C 
HETATM   47  C37 UNL     1       3.827   9.940  21.440  1.00  0.00     0.014 C 
ENDBRANCH  43  45
ENDBRANCH  42  43
ENDBRANCH  41  42
ENDBRANCH  40  41
BRANCH  40  48
HETATM   48  C6  UNL     1       8.753  12.533  22.916  1.00  0.00     0.144 C 
HETATM   49  O1  UNL     1       9.004  11.352  23.084  1.00  0.00    -0.650 OA
BRANCH  48  50
HETATM   50  O2  UNL     1       9.145  13.442  23.833  1.00  0.00    -0.776 OA
HETATM   51  H8  UNL     1       9.612  12.910  24.512  1.00  0.00     0.167 HD
ENDBRANCH  48  50
ENDBRANCH  40  48
ENDBRANCH   1  40
TORSDOF 14
ENDMDL
MODEL 5
REMARK minimizedAffinity -8.25444126
REMARK CNNscore 0.27106154
REMARK CNNaffinity 6.60978508
REMARK  14 active torsions:
REMARK  status: ('A' for Active; 'I' for Inactive)
REMARK    1  A    between atoms: C2_2  and  C3_3 
REMARK    2  A    between atoms: C2_2  and  C35_44 
REMARK    3  A    between atoms: C3_3  and  C4_4 
REMARK    4  A    between atoms: C4_4  and  C5_5 
REMARK    5  A    between atoms: C5_5  and  C6_6 
REMARK    6  A    between atoms: C5_5  and  C7_9 
REMARK    7  A    between atoms: C6_6  and  O2_8 
REMARK    8  A    between atoms: C28_31  and  O4_32 
REMARK    9  A    between atoms: O4_32  and  C29_33 
REMARK   10  A    between atoms: C30_35  and  C31_36 
REMARK   11  A    between atoms: C31_36  and  O6_37 
REMARK   12  A    between atoms: C32_38  and  O7_39 
REMARK   13  A    between atoms: C33_40  and  O8_41 
REMARK   14  A    between atoms: C34_42  and  O9_43 
ROOT
HETATM    1  C7  UNL     1      -6.236   6.846  14.564  1.00  0.00     0.009 C 
HETATM    2  C8  UNL     1      -6.285   8.054  15.528  1.00  0.00     0.007 C 
HETATM    3  C9  UNL     1      -4.908   8.750  15.431  1.00  0.00     0.015 C 
HETATM    4  C10 UNL     1      -4.175   8.079  14.248  1.00  0.00    -0.010 C 
HETATM    5  C11 UNL     1      -4.632   8.802  12.936  1.00  0.00     0.021 C 
HETATM    6  C12 UNL     1      -2.641   8.077  14.202  1.00  0.00    -0.039 C 
HETATM    7  C13 UNL     1      -1.993   7.064  13.568  1.00  0.00    -0.066 C 
HETATM    8  C14 UNL     1      -2.782   5.900  12.922  1.00  0.00     0.036 C 
HETATM    9  C15 UNL     1      -4.306   5.824  13.152  1.00  0.00     0.015 C 
HETATM   10  C16 UNL     1      -4.710   6.607  14.399  1.00  0.00    -0.028 C 
HETATM   11  C17 UNL     1      -4.140   5.871  15.651  1.00  0.00     0.016 C 
HETATM   12  C18 UNL     1      -0.437   6.983  13.461  1.00  0.00    -0.015 C 
HETATM   13  C19 UNL     1      -0.010   5.539  13.827  1.00  0.00     0.020 C 
HETATM   14  C20 UNL     1      -0.076   7.299  11.983  1.00  0.00     0.021 C 
HETATM   15  C21 UNL     1       1.415   7.368  11.705  1.00  0.00     0.080 C 
HETATM   16  C22 UNL     1       2.077   8.386  12.600  1.00  0.00     0.135 C 
HETATM   17  O3  UNL     1       2.836   9.229  12.119  1.00  0.00    -0.297 OA
HETATM   18  C23 UNL     1       1.855   8.241  14.113  1.00  0.00     0.018 C 
HETATM   19  C24 UNL     1       2.753   7.088  14.614  1.00  0.00     0.023 C 
HETATM   20  C25 UNL     1       2.399   9.512  14.820  1.00  0.00     0.023 C 
HETATM   21  C26 UNL     1       0.306   8.007  14.414  1.00  0.00     0.016 C 
HETATM   22  C27 UNL     1      -0.459   9.345  14.427  1.00  0.00     0.043 C 
HETATM   23  C28 UNL     1      -1.915   9.227  14.876  1.00  0.00     0.155 C 
ENDROOT
BRANCH  23  24
HETATM   24  O4  UNL     1      -2.586  10.459  14.569  1.00  0.00    -0.349 OA
BRANCH  24  25
HETATM   25  C29 UNL     1      -1.879  11.638  14.987  1.00  0.00     0.292 C 
HETATM   26  O5  UNL     1      -2.339  12.806  14.296  1.00  0.00    -0.348 OA
HETATM   27  C30 UNL     1      -3.386  13.498  14.996  1.00  0.00     0.179 C 
HETATM   28  C32 UNL     1      -2.820  14.123  16.293  1.00  0.00     0.180 C 
HETATM   29  C33 UNL     1      -1.799  13.180  16.973  1.00  0.00     0.183 C 
HETATM   30  C34 UNL     1      -2.009  11.739  16.533  1.00  0.00     0.204 C 
BRANCH  27  31
HETATM   31  C31 UNL     1      -4.020  14.528  14.055  1.00  0.00     0.198 C 
BRANCH  31  32
HETATM   32  O6  UNL     1      -3.032  15.139  13.234  1.00  0.00    -0.398 OA
HETATM   33  H45 UNL     1      -3.414  15.977  12.921  1.00  0.00     0.209 HD
ENDBRANCH  31  32
ENDBRANCH  27  31
BRANCH  28  34
HETATM   34  O7  UNL     1      -2.136  15.366  16.039  1.00  0.00    -0.390 OA
HETATM   35  H47 UNL     1      -2.000  15.788  16.912  1.00  0.00     0.210 HD
ENDBRANCH  28  34
BRANCH  29  36
HETATM   36  O8  UNL     1      -0.455  13.578  16.668  1.00  0.00    -0.390 OA
HETATM   37  H49 UNL     1      -0.540  14.352  16.072  1.00  0.00     0.210 HD
ENDBRANCH  29  36
BRANCH  30  38
HETATM   38  O9  UNL     1      -3.301  11.294  16.981  1.00  0.00    -0.388 OA
HETATM   39  H51 UNL     1      -3.490  10.491  16.452  1.00  0.00     0.210 HD
ENDBRANCH  30  38
ENDBRANCH  24  25
ENDBRANCH  23  24
BRANCH   1  40
HETATM   40  C5  UNL     1      -7.140   5.628  14.893  1.00  0.00     0.089 C 
BRANCH  40  41
HETATM   41  C4  UNL     1      -8.264   5.837  15.928  1.00  0.00     0.020 C 
BRANCH  41  42
HETATM   42  C3  UNL     1      -8.773   7.293  16.037  1.00  0.00     0.034 C 
BRANCH  42  43
HETATM   43  C2  UNL     1      -9.876   7.754  15.099  1.00  0.00    -0.086 C 
HETATM   44  C1  UNL     1     -10.701   6.906  14.456  1.00  0.00     0.014 C 
BRANCH  43  45
HETATM   45  C35 UNL     1     -10.060   9.260  14.919  1.00  0.00     0.005 C 
HETATM   46  C36 UNL     1     -11.205   9.595  13.954  1.00  0.00     0.014 C 
HETATM   47  C37 UNL     1     -10.245   9.973  16.261  1.00  0.00     0.014 C 
ENDBRANCH  43  45
ENDBRANCH  42  43
ENDBRANCH  41  42
ENDBRANCH  40  41
BRANCH  40  48
HETATM   48  C6  UNL     1      -7.713   5.119  13.579  1.00  0.00     0.144 C 
HETATM   49  O1  UNL     1      -7.824   5.760  12.547  1.00  0.00    -0.650 OA
BRANCH  48  50
HETATM   50  O2  UNL     1      -8.176   3.854  13.639  1.00  0.00    -0.776 OA
HETATM   51  H8  UNL     1      -8.536   3.688  12.741  1.00  0.00     0.167 HD
ENDBRANCH  48  50
ENDBRANCH  40  48
ENDBRANCH   1  40
TORSDOF 14
ENDMDL
MODEL 6
REMARK minimizedAffinity -8.37654591
REMARK CNNscore 0.267332703
REMARK CNNaffinity 6.47745132
REMARK  14 active torsions:
REMARK  status: ('A' for Active; 'I' for Inactive)
REMARK    1  A    between atoms: C2_2  and  C3_3 
REMARK    2  A    between atoms: C2_2  and  C35_44 
REMARK    3  A    between atoms: C3_3  and  C4_4 
REMARK    4  A    between atoms: C4_4  and  C5_5 
REMARK    5  A    between atoms: C5_5  and  C6_6 
REMARK    6  A    between atoms: C5_5  and  C7_9 
REMARK    7  A    between atoms: C6_6  and  O2_8 
REMARK    8  A    between atoms: C28_31  and  O4_32 
REMARK    9  A    between atoms: O4_32  and  C29_33 
REMARK   10  A    between atoms: C30_35  and  C31_36 
REMARK   11  A    between atoms: C31_36  and  O6_37 
REMARK   12  A    between atoms: C32_38  and  O7_39 
REMARK   13  A    between atoms: C33_40  and  O8_41 
REMARK   14  A    between atoms: C34_42  and  O9_43 
ROOT
HETATM    1  C7  UNL     1       3.344   7.761  14.014  1.00  0.00     0.009 C 
HETATM    2  C8  UNL     1       4.350   8.540  14.892  1.00  0.00     0.007 C 
HETATM    3  C9  UNL     1       3.513   9.337  15.920  1.00  0.00     0.015 C 
HETATM    4  C10 UNL     1       2.063   8.826  15.772  1.00  0.00    -0.010 C 
HETATM    5  C11 UNL     1       1.921   7.540  16.655  1.00  0.00     0.021 C 
HETATM    6  C12 UNL     1       0.890   9.730  16.175  1.00  0.00    -0.039 C 
HETATM    7  C13 UNL     1      -0.309   9.587  15.550  1.00  0.00    -0.066 C 
HETATM    8  C14 UNL     1      -0.496   8.546  14.420  1.00  0.00     0.036 C 
HETATM    9  C15 UNL     1       0.746   7.790  13.902  1.00  0.00     0.015 C 
HETATM   10  C16 UNL     1       2.027   8.557  14.223  1.00  0.00    -0.028 C 
HETATM   11  C17 UNL     1       2.045   9.865  13.371  1.00  0.00     0.016 C 
HETATM   12  C18 UNL     1      -1.560  10.454  15.900  1.00  0.00    -0.015 C 
HETATM   13  C19 UNL     1      -2.184  10.946  14.569  1.00  0.00     0.020 C 
HETATM   14  C20 UNL     1      -2.551   9.523  16.652  1.00  0.00     0.021 C 
HETATM   15  C21 UNL     1      -3.797  10.221  17.168  1.00  0.00     0.080 C 
HETATM   16  C22 UNL     1      -3.427  11.374  18.067  1.00  0.00     0.135 C 
HETATM   17  O3  UNL     1      -3.967  11.494  19.169  1.00  0.00    -0.297 OA
HETATM   18  C23 UNL     1      -2.461  12.425  17.501  1.00  0.00     0.018 C 
HETATM   19  C24 UNL     1      -3.258  13.325  16.530  1.00  0.00     0.023 C 
HETATM   20  C25 UNL     1      -2.020  13.368  18.653  1.00  0.00     0.023 C 
HETATM   21  C26 UNL     1      -1.217  11.703  16.812  1.00  0.00     0.016 C 
HETATM   22  C27 UNL     1      -0.165  11.298  17.863  1.00  0.00     0.043 C 
HETATM   23  C28 UNL     1       1.134  10.754  17.269  1.00  0.00     0.155 C 
ENDROOT
BRANCH  23  24
HETATM   24  O4  UNL     1       1.897  10.151  18.324  1.00  0.00    -0.349 OA
BRANCH  24  25
HETATM   25  C29 UNL     1       1.867  10.873  19.565  1.00  0.00     0.292 C 
HETATM   26  O5  UNL     1       1.732   9.995  20.688  1.00  0.00    -0.348 OA
HETATM   27  C30 UNL     1       2.995   9.598  21.248  1.00  0.00     0.179 C 
HETATM   28  C32 UNL     1       3.680  10.818  21.906  1.00  0.00     0.180 C 
HETATM   29  C33 UNL     1       3.468  12.102  21.068  1.00  0.00     0.183 C 
HETATM   30  C34 UNL     1       3.142  11.762  19.621  1.00  0.00     0.204 C 
BRANCH  27  31
HETATM   31  C31 UNL     1       2.767   8.435  22.220  1.00  0.00     0.198 C 
BRANCH  31  32
HETATM   32  O6  UNL     1       1.387   8.100  22.294  1.00  0.00    -0.398 OA
HETATM   33  H45 UNL     1       1.264   7.620  23.130  1.00  0.00     0.209 HD
ENDBRANCH  31  32
ENDBRANCH  27  31
BRANCH  28  34
HETATM   34  O7  UNL     1       3.155  11.088  23.221  1.00  0.00    -0.390 OA
HETATM   35  H47 UNL     1       3.773  11.722  23.638  1.00  0.00     0.210 HD
ENDBRANCH  28  34
BRANCH  29  36
HETATM   36  O8  UNL     1       2.412  12.901  21.616  1.00  0.00    -0.390 OA
HETATM   37  H49 UNL     1       2.076  12.398  22.389  1.00  0.00     0.210 HD
ENDBRANCH  29  36
BRANCH  30  38
HETATM   38  O9  UNL     1       4.271  11.097  19.028  1.00  0.00    -0.388 OA
HETATM   39  H51 UNL     1       3.918  10.671  18.220  1.00  0.00     0.210 HD
ENDBRANCH  30  38
ENDBRANCH  24  25
ENDBRANCH  23  24
BRANCH   1  40
HETATM   40  C5  UNL     1       3.774   7.416  12.563  1.00  0.00     0.089 C 
BRANCH  40  41
HETATM   41  C4  UNL     1       3.098   8.198  11.418  1.00  0.00     0.020 C 
BRANCH  41  42
HETATM   42  C3  UNL     1       2.078   7.377  10.596  1.00  0.00     0.034 C 
BRANCH  42  43
HETATM   43  C2  UNL     1       2.472   6.901   9.208  1.00  0.00    -0.086 C 
HETATM   44  C1  UNL     1       3.073   5.719   8.975  1.00  0.00     0.014 C 
BRANCH  43  45
HETATM   45  C35 UNL     1       2.127   7.811   8.029  1.00  0.00     0.005 C 
HETATM   46  C36 UNL     1       3.163   8.925   7.832  1.00  0.00     0.014 C 
HETATM   47  C37 UNL     1       1.923   7.014   6.738  1.00  0.00     0.014 C 
ENDBRANCH  43  45
ENDBRANCH  42  43
ENDBRANCH  41  42
ENDBRANCH  40  41
BRANCH  40  48
HETATM   48  C6  UNL     1       5.286   7.565  12.490  1.00  0.00     0.144 C 
HETATM   49  O1  UNL     1       5.894   8.541  12.083  1.00  0.00    -0.650 OA
BRANCH  48  50
HETATM   50  O2  UNL     1       5.962   6.461  12.872  1.00  0.00    -0.776 OA
HETATM   51  H8  UNL     1       6.904   6.700  12.739  1.00  0.00     0.167 HD
ENDBRANCH  48  50
ENDBRANCH  40  48
ENDBRANCH   1  40
TORSDOF 14
ENDMDL
MODEL 7
REMARK minimizedAffinity -9.18024158
REMARK CNNscore 0.264578819
REMARK CNNaffinity 6.63493109
REMARK  14 active torsions:
REMARK  status: ('A' for Active; 'I' for Inactive)
REMARK    1  A    between atoms: C2_2  and  C3_3 
REMARK    2  A    between atoms: C2_2  and  C35_44 
REMARK    3  A    between atoms: C3_3  and  C4_4 
REMARK    4  A    between atoms: C4_4  and  C5_5 
REMARK    5  A    between atoms: C5_5  and  C6_6 
REMARK    6  A    between atoms: C5_5  and  C7_9 
REMARK    7  A    between atoms: C6_6  and  O2_8 
REMARK    8  A    between atoms: C28_31  and  O4_32 
REMARK    9  A    between atoms: O4_32  and  C29_33 
REMARK   10  A    between atoms: C30_35  and  C31_36 
REMARK   11  A    between atoms: C31_36  and  O6_37 
REMARK   12  A    between atoms: C32_38  and  O7_39 
REMARK   13  A    between atoms: C33_40  and  O8_41 
REMARK   14  A    between atoms: C34_42  and  O9_43 
ROOT
HETATM    1  C7  UNL     1      -1.284   4.869  12.504  1.00  0.00     0.009 C 
HETATM    2  C8  UNL     1      -0.502   5.639  11.415  1.00  0.00     0.007 C 
HETATM    3  C9  UNL     1      -0.246   7.057  11.976  1.00  0.00     0.015 C 
HETATM    4  C10 UNL     1      -0.674   7.010  13.459  1.00  0.00    -0.010 C 
HETATM    5  C11 UNL     1       0.541   6.466  14.286  1.00  0.00     0.021 C 
HETATM    6  C12 UNL     1      -1.107   8.300  14.170  1.00  0.00    -0.039 C 
HETATM    7  C13 UNL     1      -1.998   8.230  15.195  1.00  0.00    -0.066 C 
HETATM    8  C14 UNL     1      -2.601   6.874  15.631  1.00  0.00     0.036 C 
HETATM    9  C15 UNL     1      -2.301   5.624  14.776  1.00  0.00     0.015 C 
HETATM   10  C16 UNL     1      -1.889   6.017  13.359  1.00  0.00    -0.028 C 
HETATM   11  C17 UNL     1      -3.129   6.633  12.638  1.00  0.00     0.016 C 
HETATM   12  C18 UNL     1      -2.489   9.486  15.982  1.00  0.00    -0.015 C 
HETATM   13  C19 UNL     1      -4.031   9.396  16.108  1.00  0.00     0.020 C 
HETATM   14  C20 UNL     1      -1.825   9.419  17.386  1.00  0.00     0.021 C 
HETATM   15  C21 UNL     1      -2.106  10.621  18.269  1.00  0.00     0.080 C 
HETATM   16  C22 UNL     1      -1.679  11.896  17.585  1.00  0.00     0.135 C 
HETATM   17  O3  UNL     1      -0.984  12.716  18.188  1.00  0.00    -0.297 OA
HETATM   18  C23 UNL     1      -2.241  12.162  16.181  1.00  0.00     0.018 C 
HETATM   19  C24 UNL     1      -3.704  12.635  16.340  1.00  0.00     0.023 C 
HETATM   20  C25 UNL     1      -1.491  13.374  15.566  1.00  0.00     0.023 C 
HETATM   21  C26 UNL     1      -2.099  10.853  15.282  1.00  0.00     0.016 C 
HETATM   22  C27 UNL     1      -0.678  10.741  14.695  1.00  0.00     0.043 C 
HETATM   23  C28 UNL     1      -0.507   9.607  13.685  1.00  0.00     0.155 C 
ENDROOT
BRANCH  23  24
HETATM   24  O4  UNL     1       0.896   9.425  13.440  1.00  0.00    -0.349 OA
BRANCH  24  25
HETATM   25  C29 UNL     1       1.708   9.422  14.625  1.00  0.00     0.292 C 
HETATM   26  O5  UNL     1       2.894   8.637  14.453  1.00  0.00    -0.348 OA
HETATM   27  C30 UNL     1       4.018   9.407  13.996  1.00  0.00     0.179 C 
HETATM   28  C32 UNL     1       4.466  10.384  15.108  1.00  0.00     0.180 C 
HETATM   29  C33 UNL     1       3.250  10.984  15.854  1.00  0.00     0.183 C 
HETATM   30  C34 UNL     1       1.992  10.904  15.002  1.00  0.00     0.204 C 
BRANCH  27  31
HETATM   31  C31 UNL     1       5.129   8.452  13.547  1.00  0.00     0.198 C 
BRANCH  31  32
HETATM   32  O6  UNL     1       4.660   7.110  13.515  1.00  0.00    -0.398 OA
HETATM   33  H45 UNL     1       5.447   6.542  13.557  1.00  0.00     0.209 HD
ENDBRANCH  31  32
ENDBRANCH  27  31
BRANCH  28  34
HETATM   34  O7  UNL     1       5.285   9.734  16.100  1.00  0.00    -0.390 OA
HETATM   35  H47 UNL     1       5.689  10.449  16.633  1.00  0.00     0.210 HD
ENDBRANCH  28  34
BRANCH  29  36
HETATM   36  O8  UNL     1       3.026  10.302  17.095  1.00  0.00    -0.390 OA
HETATM   37  H49 UNL     1       3.709   9.599  17.136  1.00  0.00     0.210 HD
ENDBRANCH  29  36
BRANCH  30  38
HETATM   38  O9  UNL     1       2.165  11.719  13.830  1.00  0.00    -0.388 OA
HETATM   39  H51 UNL     1       1.468  11.421  13.209  1.00  0.00     0.210 HD
ENDBRANCH  30  38
ENDBRANCH  24  25
ENDBRANCH  23  24
BRANCH   1  40
HETATM   40  C5  UNL     1      -2.223   3.724  12.040  1.00  0.00     0.089 C 
BRANCH  40  41
HETATM   41  C4  UNL     1      -3.436   4.110  11.169  1.00  0.00     0.020 C 
BRANCH  41  42
HETATM   42  C3  UNL     1      -4.731   3.328  11.490  1.00  0.00     0.034 C 
BRANCH  42  43
HETATM   43  C2  UNL     1      -5.765   3.969  12.400  1.00  0.00    -0.086 C 
HETATM   44  C1  UNL     1      -5.466   4.926  13.300  1.00  0.00     0.014 C 
BRANCH  43  45
HETATM   45  C35 UNL     1      -7.215   3.514  12.245  1.00  0.00     0.005 C 
HETATM   46  C36 UNL     1      -7.434   2.084  12.755  1.00  0.00     0.014 C 
HETATM   47  C37 UNL     1      -8.190   4.490  12.909  1.00  0.00     0.014 C 
ENDBRANCH  43  45
ENDBRANCH  42  43
ENDBRANCH  41  42
ENDBRANCH  40  41
BRANCH  40  48
HETATM   48  C6  UNL     1      -1.362   2.691  11.329  1.00  0.00     0.144 C 
HETATM   49  O1  UNL     1      -0.157   2.553  11.453  1.00  0.00    -0.650 OA
BRANCH  48  50
HETATM   50  O2  UNL     1      -2.042   1.925  10.451  1.00  0.00    -0.776 OA
HETATM   51  H8  UNL     1      -1.355   1.345  10.059  1.00  0.00     0.167 HD
ENDBRANCH  48  50
ENDBRANCH  40  48
ENDBRANCH   1  40
TORSDOF 14
ENDMDL
MODEL 8
REMARK minimizedAffinity -8.33482838
REMARK CNNscore 0.222842768
REMARK CNNaffinity 7.03556585
REMARK  14 active torsions:
REMARK  status: ('A' for Active; 'I' for Inactive)
REMARK    1  A    between atoms: C2_2  and  C3_3 
REMARK    2  A    between atoms: C2_2  and  C35_44 
REMARK    3  A    between atoms: C3_3  and  C4_4 
REMARK    4  A    between atoms: C4_4  and  C5_5 
REMARK    5  A    between atoms: C5_5  and  C6_6 
REMARK    6  A    between atoms: C5_5  and  C7_9 
REMARK    7  A    between atoms: C6_6  and  O2_8 
REMARK    8  A    between atoms: C28_31  and  O4_32 
REMARK    9  A    between atoms: O4_32  and  C29_33 
REMARK   10  A    between atoms: C30_35  and  C31_36 
REMARK   11  A    between atoms: C31_36  and  O6_37 
REMARK   12  A    between atoms: C32_38  and  O7_39 
REMARK   13  A    between atoms: C33_40  and  O8_41 
REMARK   14  A    between atoms: C34_42  and  O9_43 
ROOT
HETATM    1  C7  UNL     1      -1.429  10.172  15.268  1.00  0.00     0.009 C 
HETATM    2  C8  UNL     1      -2.946  10.455  15.354  1.00  0.00     0.007 C 
HETATM    3  C9  UNL     1      -3.661   9.183  14.842  1.00  0.00     0.015 C 
HETATM    4  C10 UNL     1      -2.561   8.109  14.693  1.00  0.00    -0.010 C 
HETATM    5  C11 UNL     1      -2.364   7.434  16.093  1.00  0.00     0.021 C 
HETATM    6  C12 UNL     1      -2.753   6.951  13.704  1.00  0.00    -0.039 C 
HETATM    7  C13 UNL     1      -1.663   6.374  13.132  1.00  0.00    -0.066 C 
HETATM    8  C14 UNL     1      -0.238   6.889  13.442  1.00  0.00     0.036 C 
HETATM    9  C15 UNL     1      -0.085   8.175  14.282  1.00  0.00     0.015 C 
HETATM   10  C16 UNL     1      -1.359   9.014  14.234  1.00  0.00    -0.028 C 
HETATM   11  C17 UNL     1      -1.528   9.572  12.786  1.00  0.00     0.016 C 
HETATM   12  C18 UNL     1      -1.761   5.185  12.123  1.00  0.00    -0.015 C 
HETATM   13  C19 UNL     1      -0.838   5.506  10.920  1.00  0.00     0.020 C 
HETATM   14  C20 UNL     1      -1.255   3.922  12.873  1.00  0.00     0.021 C 
HETATM   15  C21 UNL     1      -1.371   2.634  12.079  1.00  0.00     0.080 C 
HETATM   16  C22 UNL     1      -2.796   2.406  11.640  1.00  0.00     0.135 C 
HETATM   17  O3  UNL     1      -3.331   1.312  11.827  1.00  0.00    -0.297 OA
HETATM   18  C23 UNL     1      -3.482   3.539  10.862  1.00  0.00     0.018 C 
HETATM   19  C24 UNL     1      -2.940   3.513   9.415  1.00  0.00     0.023 C 
HETATM   20  C25 UNL     1      -4.993   3.210  10.732  1.00  0.00     0.023 C 
HETATM   21  C26 UNL     1      -3.235   4.931  11.600  1.00  0.00     0.016 C 
HETATM   22  C27 UNL     1      -4.231   5.121  12.761  1.00  0.00     0.043 C 
HETATM   23  C28 UNL     1      -4.174   6.502  13.412  1.00  0.00     0.155 C 
ENDROOT
BRANCH  23  24
HETATM   24  O4  UNL     1      -4.920   6.457  14.638  1.00  0.00    -0.349 OA
BRANCH  24  25
HETATM   25  C29 UNL     1      -6.197   7.113  14.579  1.00  0.00     0.292 C 
HETATM   26  O5  UNL     1      -7.043   6.539  13.576  1.00  0.00    -0.348 OA
HETATM   27  C30 UNL     1      -7.891   5.496  14.082  1.00  0.00     0.179 C 
HETATM   28  C32 UNL     1      -8.940   6.099  15.045  1.00  0.00     0.180 C 
HETATM   29  C33 UNL     1      -8.323   7.218  15.920  1.00  0.00     0.183 C 
HETATM   30  C34 UNL     1      -6.811   7.072  16.007  1.00  0.00     0.204 C 
BRANCH  27  31
HETATM   31  C31 UNL     1      -8.515   4.742  12.904  1.00  0.00     0.198 C 
BRANCH  31  32
HETATM   32  O6  UNL     1      -8.603   3.350  13.182  1.00  0.00    -0.398 OA
HETATM   33  H45 UNL     1      -8.680   2.901  12.323  1.00  0.00     0.209 HD
ENDBRANCH  31  32
ENDBRANCH  27  31
BRANCH  28  34
HETATM   34  O7  UNL     1     -10.048   6.688  14.336  1.00  0.00    -0.390 OA
HETATM   35  H47 UNL     1     -10.746   6.850  15.004  1.00  0.00     0.210 HD
ENDBRANCH  28  34
BRANCH  29  36
HETATM   36  O8  UNL     1      -8.645   8.512  15.394  1.00  0.00    -0.390 OA
HETATM   37  H49 UNL     1      -9.168   8.344  14.582  1.00  0.00     0.210 HD
ENDBRANCH  29  36
BRANCH  30  38
HETATM   38  O9  UNL     1      -6.495   5.840  16.678  1.00  0.00    -0.388 OA
HETATM   39  H51 UNL     1      -5.554   5.670  16.466  1.00  0.00     0.210 HD
ENDBRANCH  30  38
ENDBRANCH  24  25
ENDBRANCH  23  24
BRANCH   1  40
HETATM   40  C5  UNL     1      -0.481  11.386  15.077  1.00  0.00     0.089 C 
BRANCH  40  41
HETATM   41  C4  UNL     1      -0.804  12.670  15.869  1.00  0.00     0.020 C 
BRANCH  41  42
HETATM   42  C3  UNL     1      -1.757  12.461  17.069  1.00  0.00     0.034 C 
BRANCH  42  43
HETATM   43  C2  UNL     1      -1.201  11.853  18.346  1.00  0.00    -0.086 C 
HETATM   44  C1  UNL     1      -1.653  10.700  18.874  1.00  0.00     0.014 C 
BRANCH  43  45
HETATM   45  C35 UNL     1      -0.048  12.588  19.029  1.00  0.00     0.005 C 
HETATM   46  C36 UNL     1      -0.501  13.897  19.688  1.00  0.00     0.014 C 
HETATM   47  C37 UNL     1       0.682  11.691  20.031  1.00  0.00     0.014 C 
ENDBRANCH  43  45
ENDBRANCH  42  43
ENDBRANCH  41  42
ENDBRANCH  40  41
BRANCH  40  48
HETATM   48  C6  UNL     1       0.932  10.912  15.383  1.00  0.00     0.144 C 
HETATM   49  O1  UNL     1       1.324  10.461  16.445  1.00  0.00    -0.650 OA
BRANCH  48  50
HETATM   50  O2  UNL     1       1.798  11.085  14.363  1.00  0.00    -0.776 OA
HETATM   51  H8  UNL     1       2.654  10.768  14.721  1.00  0.00     0.167 HD
ENDBRANCH  48  50
ENDBRANCH  40  48
ENDBRANCH   1  40
TORSDOF 14
ENDMDL
MODEL 9
REMARK minimizedAffinity -8.67482376
REMARK CNNscore 0.188631222
REMARK CNNaffinity 5.95237017
REMARK  14 active torsions:
REMARK  status: ('A' for Active; 'I' for Inactive)
REMARK    1  A    between atoms: C2_2  and  C3_3 
REMARK    2  A    between atoms: C2_2  and  C35_44 
REMARK    3  A    between atoms: C3_3  and  C4_4 
REMARK    4  A    between atoms: C4_4  and  C5_5 
REMARK    5  A    between atoms: C5_5  and  C6_6 
REMARK    6  A    between atoms: C5_5  and  C7_9 
REMARK    7  A    between atoms: C6_6  and  O2_8 
REMARK    8  A    between atoms: C28_31  and  O4_32 
REMARK    9  A    between atoms: O4_32  and  C29_33 
REMARK   10  A    between atoms: C30_35  and  C31_36 
REMARK   11  A    between atoms: C31_36  and  O6_37 
REMARK   12  A    between atoms: C32_38  and  O7_39 
REMARK   13  A    between atoms: C33_40  and  O8_41 
REMARK   14  A    between atoms: C34_42  and  O9_43 
ROOT
HETATM    1  C7  UNL     1       7.706  12.522  20.937  1.00  0.00     0.009 C 
HETATM    2  C8  UNL     1       6.643  12.934  19.892  1.00  0.00     0.007 C 
HETATM    3  C9  UNL     1       7.366  12.987  18.526  1.00  0.00     0.015 C 
HETATM    4  C10 UNL     1       8.767  12.381  18.764  1.00  0.00    -0.010 C 
HETATM    5  C11 UNL     1       8.638  10.825  18.634  1.00  0.00     0.021 C 
HETATM    6  C12 UNL     1       9.934  12.772  17.848  1.00  0.00    -0.039 C 
HETATM    7  C13 UNL     1      11.203  12.753  18.337  1.00  0.00    -0.066 C 
HETATM    8  C14 UNL     1      11.479  12.371  19.811  1.00  0.00     0.036 C 
HETATM    9  C15 UNL     1      10.277  12.174  20.759  1.00  0.00     0.015 C 
HETATM   10  C16 UNL     1       9.037  12.890  20.227  1.00  0.00    -0.028 C 
HETATM   11  C17 UNL     1       9.285  14.429  20.307  1.00  0.00     0.016 C 
HETATM   12  C18 UNL     1      12.452  13.126  17.477  1.00  0.00    -0.015 C 
HETATM   13  C19 UNL     1      13.334  14.087  18.313  1.00  0.00     0.020 C 
HETATM   14  C20 UNL     1      13.211  11.799  17.197  1.00  0.00     0.021 C 
HETATM   15  C21 UNL     1      14.412  11.947  16.280  1.00  0.00     0.080 C 
HETATM   16  C22 UNL     1      14.006  12.567  14.967  1.00  0.00     0.135 C 
HETATM   17  O3  UNL     1      14.361  12.050  13.905  1.00  0.00    -0.297 OA
HETATM   18  C23 UNL     1      13.250  13.902  15.024  1.00  0.00     0.018 C 
HETATM   19  C24 UNL     1      14.280  15.014  15.329  1.00  0.00     0.023 C 
HETATM   20  C25 UNL     1      12.712  14.231  13.605  1.00  0.00     0.023 C 
HETATM   21  C26 UNL     1      12.079  13.818  16.102  1.00  0.00     0.016 C 
HETATM   22  C27 UNL     1      10.832  13.135  15.506  1.00  0.00     0.043 C 
HETATM   23  C28 UNL     1       9.606  13.166  16.418  1.00  0.00     0.155 C 
ENDROOT
BRANCH  23  24
HETATM   24  O4  UNL     1       8.623  12.264  15.890  1.00  0.00    -0.349 OA
BRANCH  24  25
HETATM   25  C29 UNL     1       9.088  11.459  14.795  1.00  0.00     0.292 C 
HETATM   26  O5  UNL     1       9.483  10.151  15.227  1.00  0.00    -0.348 OA
HETATM   27  C30 UNL     1       8.422   9.186  15.150  1.00  0.00     0.179 C 
HETATM   28  C32 UNL     1       8.071   8.916  13.668  1.00  0.00     0.180 C 
HETATM   29  C33 UNL     1       8.123  10.216  12.831  1.00  0.00     0.183 C 
HETATM   30  C34 UNL     1       7.967  11.443  13.716  1.00  0.00     0.204 C 
BRANCH  27  31
HETATM   31  C31 UNL     1       8.836   7.924  15.913  1.00  0.00     0.198 C 
BRANCH  31  32
HETATM   32  O6  UNL     1       9.554   8.260  17.094  1.00  0.00    -0.398 OA
HETATM   33  H45 UNL     1      10.061   7.469  17.343  1.00  0.00     0.209 HD
ENDBRANCH  31  32
ENDBRANCH  27  31
BRANCH  28  34
HETATM   34  O7  UNL     1       8.990   7.988  13.057  1.00  0.00    -0.390 OA
HETATM   35  H47 UNL     1       8.581   7.717  12.209  1.00  0.00     0.210 HD
ENDBRANCH  28  34
BRANCH  29  36
HETATM   36  O8  UNL     1       9.358  10.308  12.108  1.00  0.00    -0.390 OA
HETATM   37  H49 UNL     1       9.870   9.510  12.359  1.00  0.00     0.210 HD
ENDBRANCH  29  36
BRANCH  30  38
HETATM   38  O9  UNL     1       6.661  11.425  14.318  1.00  0.00    -0.388 OA
HETATM   39  H51 UNL     1       6.716  12.060  15.062  1.00  0.00     0.210 HD
ENDBRANCH  30  38
ENDBRANCH  24  25
ENDBRANCH  23  24
BRANCH   1  40
HETATM   40  C5  UNL     1       7.496  12.995  22.400  1.00  0.00     0.089 C 
BRANCH  40  41
HETATM   41  C4  UNL     1       6.097  12.794  23.017  1.00  0.00     0.020 C 
BRANCH  41  42
HETATM   42  C3  UNL     1       5.561  11.346  22.934  1.00  0.00     0.034 C 
BRANCH  42  43
HETATM   43  C2  UNL     1       4.058  11.124  22.900  1.00  0.00    -0.086 C 
HETATM   44  C1  UNL     1       3.162  12.093  23.167  1.00  0.00     0.014 C 
BRANCH  43  45
HETATM   45  C35 UNL     1       3.563   9.732  22.508  1.00  0.00     0.005 C 
HETATM   46  C36 UNL     1       2.639   9.123  23.571  1.00  0.00     0.014 C 
HETATM   47  C37 UNL     1       2.892   9.736  21.133  1.00  0.00     0.014 C 
ENDBRANCH  43  45
ENDBRANCH  42  43
ENDBRANCH  41  42
ENDBRANCH  40  41
BRANCH  40  48
HETATM   48  C6  UNL     1       8.558  12.318  23.253  1.00  0.00     0.144 C 
HETATM   49  O1  UNL     1       8.695  11.117  23.410  1.00  0.00    -0.650 OA
BRANCH  48  50
HETATM   50  O2  UNL     1       9.356  13.180  23.916  1.00  0.00    -0.776 OA
HETATM   51  H8  UNL     1       9.954  12.601  24.435  1.00  0.00     0.167 HD
ENDBRANCH  48  50
ENDBRANCH  40  48
ENDBRANCH   1  40
TORSDOF 14
ENDMDL
