MODEL 1
REMARK minimizedAffinity -9.41679382
REMARK CNNscore 0.686666787
REMARK CNNaffinity 7.54794693
REMARK  7 active torsions:
REMARK  status: ('A' for Active; 'I' for Inactive)
REMARK    1  A    between atoms: C2_2  and  C30_32 
REMARK    2  A    between atoms: C3_3  and  C4_4 
REMARK    3  A    between atoms: C4_4  and  O1_5 
REMARK    4  A    between atoms: C4_4  and  C5_6 
REMARK    5  A    between atoms: C5_6  and  C6_7 
REMARK    6  A    between atoms: C6_7  and  C8_9 
REMARK    7  A    between atoms: C30_32  and  O3_33 
ROOT
HETATM    1  C8  UNL     1      -5.135   7.214  15.189  1.00  0.00    -0.002 C 
HETATM    2  C9  UNL     1      -5.495   8.578  14.523  1.00  0.00     0.007 C 
HETATM    3  C10 UNL     1      -4.298   9.000  13.650  1.00  0.00     0.015 C 
HETATM    4  C11 UNL     1      -3.157   8.056  14.070  1.00  0.00    -0.013 C 
HETATM    5  C12 UNL     1      -2.534   8.684  15.360  1.00  0.00     0.021 C 
HETATM    6  C13 UNL     1      -1.998   7.852  13.099  1.00  0.00    -0.070 C 
HETATM    7  C14 UNL     1      -1.572   8.828  12.278  1.00  0.00    -0.022 C 
HETATM    8  C15 UNL     1      -0.364   8.730  11.399  1.00  0.00     0.034 C 
HETATM    9  C16 UNL     1       0.247   7.315  11.284  1.00  0.00     0.013 C 
HETATM   10  C17 UNL     1       1.632   7.308  10.535  1.00  0.00     0.018 C 
HETATM   11  C18 UNL     1       2.532   8.526  10.827  1.00  0.00     0.023 C 
HETATM   12  C19 UNL     1       1.391   7.278   9.011  1.00  0.00     0.023 C 
HETATM   13  C20 UNL     1       2.400   6.030  10.884  1.00  0.00     0.135 C 
HETATM   14  O2  UNL     1       3.626   5.949  10.815  1.00  0.00    -0.297 OA
HETATM   15  C21 UNL     1       1.572   4.826  11.237  1.00  0.00     0.080 C 
HETATM   16  C22 UNL     1       0.729   5.081  12.477  1.00  0.00     0.017 C 
HETATM   17  C23 UNL     1       0.214   6.545  12.659  1.00  0.00    -0.031 C 
HETATM   18  C24 UNL     1       1.104   7.241  13.718  1.00  0.00     0.016 C 
HETATM   19  C25 UNL     1      -1.296   6.494  13.138  1.00  0.00     0.024 C 
HETATM   20  C26 UNL     1      -1.524   5.758  14.481  1.00  0.00     0.010 C 
HETATM   21  C27 UNL     1      -2.999   5.677  14.947  1.00  0.00     0.011 C 
HETATM   22  C28 UNL     1      -3.944   6.714  14.302  1.00  0.00    -0.029 C 
HETATM   23  C29 UNL     1      -4.541   6.107  12.991  1.00  0.00     0.016 C 
ENDROOT
BRANCH   1  24
HETATM   24  C6  UNL     1      -6.396   6.317  15.410  1.00  0.00    -0.011 C 
HETATM   25  C7  UNL     1      -7.141   6.681  16.697  1.00  0.00     0.010 C 
BRANCH  24  26
HETATM   26  C5  UNL     1      -7.328   6.414  14.162  1.00  0.00     0.040 C 
BRANCH  26  27
HETATM   27  C4  UNL     1      -7.844   5.073  13.606  1.00  0.00     0.141 C 
BRANCH  27  28
HETATM   28  C3  UNL     1      -6.942   4.534  12.520  1.00  0.00     0.009 C 
HETATM   29  C2  UNL     1      -6.763   3.235  12.190  1.00  0.00    -0.062 C 
HETATM   30  C1  UNL     1      -7.421   2.085  12.906  1.00  0.00     0.045 C 
BRANCH  29  31
HETATM   31  C30 UNL     1      -5.860   2.839  11.052  1.00  0.00     0.198 C 
BRANCH  31  32
HETATM   32  O3  UNL     1      -5.936   1.432  10.890  1.00  0.00    -0.397 OA
HETATM   33  H48 UNL     1      -5.331   1.201  10.166  1.00  0.00     0.209 HD
ENDBRANCH  31  32
ENDBRANCH  29  31
ENDBRANCH  27  28
BRANCH  27  34
HETATM   34  O1  UNL     1      -9.143   5.272  13.056  1.00  0.00    -0.392 OA
HETATM   35  H6  UNL     1      -9.041   5.402  12.097  1.00  0.00     0.210 HD
ENDBRANCH  27  34
ENDBRANCH  26  27
ENDBRANCH  24  26
ENDBRANCH   1  24
TORSDOF 7
ENDMDL
MODEL 2
REMARK minimizedAffinity -8.91407394
REMARK CNNscore 0.629755676
REMARK CNNaffinity 7.36205864
REMARK  7 active torsions:
REMARK  status: ('A' for Active; 'I' for Inactive)
REMARK    1  A    between atoms: C2_2  and  C30_32 
REMARK    2  A    between atoms: C3_3  and  C4_4 
REMARK    3  A    between atoms: C4_4  and  O1_5 
REMARK    4  A    between atoms: C4_4  and  C5_6 
REMARK    5  A    between atoms: C5_6  and  C6_7 
REMARK    6  A    between atoms: C6_7  and  C8_9 
REMARK    7  A    between atoms: C30_32  and  O3_33 
ROOT
HETATM    1  C8  UNL     1      -5.535   6.968  15.470  1.00  0.00    -0.002 C 
HETATM    2  C9  UNL     1      -5.948   8.324  14.818  1.00  0.00     0.007 C 
HETATM    3  C10 UNL     1      -4.778   8.790  13.931  1.00  0.00     0.015 C 
HETATM    4  C11 UNL     1      -3.602   7.881  14.329  1.00  0.00    -0.013 C 
HETATM    5  C12 UNL     1      -2.981   8.521  15.614  1.00  0.00     0.021 C 
HETATM    6  C13 UNL     1      -2.451   7.720  13.340  1.00  0.00    -0.070 C 
HETATM    7  C14 UNL     1      -2.068   8.714  12.519  1.00  0.00    -0.022 C 
HETATM    8  C15 UNL     1      -0.871   8.661  11.622  1.00  0.00     0.034 C 
HETATM    9  C16 UNL     1      -0.216   7.267  11.489  1.00  0.00     0.013 C 
HETATM   10  C17 UNL     1       1.157   7.310  10.720  1.00  0.00     0.018 C 
HETATM   11  C18 UNL     1       2.021   8.555  11.008  1.00  0.00     0.023 C 
HETATM   12  C19 UNL     1       0.894   7.281   9.199  1.00  0.00     0.023 C 
HETATM   13  C20 UNL     1       1.971   6.056  11.050  1.00  0.00     0.135 C 
HETATM   14  O2  UNL     1       3.198   6.015  10.963  1.00  0.00    -0.297 OA
HETATM   15  C21 UNL     1       1.188   4.823  11.406  1.00  0.00     0.080 C 
HETATM   16  C22 UNL     1       0.355   5.043  12.660  1.00  0.00     0.017 C 
HETATM   17  C23 UNL     1      -0.204   6.488  12.859  1.00  0.00    -0.031 C 
HETATM   18  C24 UNL     1       0.678   7.206  13.910  1.00  0.00     0.016 C 
HETATM   19  C25 UNL     1      -1.705   6.385  13.360  1.00  0.00     0.024 C 
HETATM   20  C26 UNL     1      -1.889   5.634  14.701  1.00  0.00     0.010 C 
HETATM   21  C27 UNL     1      -3.353   5.503  15.188  1.00  0.00     0.011 C 
HETATM   22  C28 UNL     1      -4.341   6.512  14.563  1.00  0.00    -0.029 C 
HETATM   23  C29 UNL     1      -4.937   5.894  13.257  1.00  0.00     0.016 C 
ENDROOT
BRANCH   1  24
HETATM   24  C6  UNL     1      -6.763   6.029  15.704  1.00  0.00    -0.011 C 
HETATM   25  C7  UNL     1      -7.906   6.747  16.426  1.00  0.00     0.010 C 
BRANCH  24  26
HETATM   26  C5  UNL     1      -7.231   5.436  14.339  1.00  0.00     0.040 C 
BRANCH  26  27
HETATM   27  C4  UNL     1      -8.122   6.354  13.480  1.00  0.00     0.141 C 
BRANCH  27  28
HETATM   28  C3  UNL     1      -9.494   6.530  14.088  1.00  0.00     0.009 C 
HETATM   29  C2  UNL     1     -10.621   6.908  13.444  1.00  0.00    -0.062 C 
HETATM   30  C1  UNL     1     -10.676   7.268  11.983  1.00  0.00     0.045 C 
BRANCH  29  31
HETATM   31  C30 UNL     1     -11.936   7.003  14.169  1.00  0.00     0.198 C 
BRANCH  31  32
HETATM   32  O3  UNL     1     -11.684   7.431  15.499  1.00  0.00    -0.397 OA
HETATM   33  H48 UNL     1     -12.545   7.464  15.948  1.00  0.00     0.209 HD
ENDBRANCH  31  32
ENDBRANCH  29  31
ENDBRANCH  27  28
BRANCH  27  34
HETATM   34  O1  UNL     1      -8.272   5.773  12.188  1.00  0.00    -0.392 OA
HETATM   35  H6  UNL     1      -9.113   5.283  12.180  1.00  0.00     0.210 HD
ENDBRANCH  27  34
ENDBRANCH  26  27
ENDBRANCH  24  26
ENDBRANCH   1  24
TORSDOF 7
ENDMDL
MODEL 3
REMARK minimizedAffinity -7.128232
REMARK CNNscore 0.584691167
REMARK CNNaffinity 7.22968054
REMARK  7 active torsions:
REMARK  status: ('A' for Active; 'I' for Inactive)
REMARK    1  A    between atoms: C2_2  and  C30_32 
REMARK    2  A    between atoms: C3_3  and  C4_4 
REMARK    3  A    between atoms: C4_4  and  O1_5 
REMARK    4  A    between atoms: C4_4  and  C5_6 
REMARK    5  A    between atoms: C5_6  and  C6_7 
REMARK    6  A    between atoms: C6_7  and  C8_9 
REMARK    7  A    between atoms: C30_32  and  O3_33 
ROOT
HETATM    1  C8  UNL     1      -9.219   6.119  14.189  1.00  0.00    -0.002 C 
HETATM    2  C9  UNL     1      -9.804   6.381  12.767  1.00  0.00     0.007 C 
HETATM    3  C10 UNL     1     -10.605   7.696  12.829  1.00  0.00     0.015 C 
HETATM    4  C11 UNL     1     -10.740   7.999  14.332  1.00  0.00    -0.013 C 
HETATM    5  C12 UNL     1     -11.953   7.149  14.834  1.00  0.00     0.021 C 
HETATM    6  C13 UNL     1     -11.031   9.437  14.751  1.00  0.00    -0.070 C 
HETATM    7  C14 UNL     1     -11.775  10.266  13.998  1.00  0.00    -0.022 C 
HETATM    8  C15 UNL     1     -12.201  11.640  14.414  1.00  0.00     0.034 C 
HETATM    9  C16 UNL     1     -11.511  12.179  15.688  1.00  0.00     0.013 C 
HETATM   10  C17 UNL     1     -12.149  13.521  16.205  1.00  0.00     0.018 C 
HETATM   11  C18 UNL     1     -13.681  13.612  16.048  1.00  0.00     0.023 C 
HETATM   12  C19 UNL     1     -11.543  14.710  15.429  1.00  0.00     0.023 C 
HETATM   13  C20 UNL     1     -11.789  13.729  17.678  1.00  0.00     0.135 C 
HETATM   14  O2  UNL     1     -12.470  14.415  18.441  1.00  0.00    -0.297 OA
HETATM   15  C21 UNL     1     -10.497  13.121  18.145  1.00  0.00     0.080 C 
HETATM   16  C22 UNL     1     -10.514  11.607  17.996  1.00  0.00     0.017 C 
HETATM   17  C23 UNL     1     -11.319  11.054  16.775  1.00  0.00    -0.031 C 
HETATM   18  C24 UNL     1     -12.681  10.531  17.293  1.00  0.00     0.016 C 
HETATM   19  C25 UNL     1     -10.483   9.885  16.107  1.00  0.00     0.024 C 
HETATM   20  C26 UNL     1     -10.187   8.686  17.041  1.00  0.00     0.010 C 
HETATM   21  C27 UNL     1      -9.348   7.549  16.408  1.00  0.00     0.011 C 
HETATM   22  C28 UNL     1      -9.337   7.528  14.864  1.00  0.00    -0.029 C 
HETATM   23  C29 UNL     1      -8.150   8.407  14.355  1.00  0.00     0.016 C 
ENDROOT
BRANCH   1  24
HETATM   24  C6  UNL     1      -7.844   5.375  14.132  1.00  0.00    -0.011 C 
HETATM   25  C7  UNL     1      -7.602   4.518  15.377  1.00  0.00     0.010 C 
BRANCH  24  26
HETATM   26  C5  UNL     1      -7.770   4.522  12.827  1.00  0.00     0.040 C 
BRANCH  26  27
HETATM   27  C4  UNL     1      -7.058   3.162  12.955  1.00  0.00     0.141 C 
BRANCH  27  28
HETATM   28  C3  UNL     1      -5.947   3.015  11.941  1.00  0.00     0.009 C 
HETATM   29  C2  UNL     1      -4.712   3.558  12.012  1.00  0.00    -0.062 C 
HETATM   30  C1  UNL     1      -4.251   4.461  13.126  1.00  0.00     0.045 C 
BRANCH  29  31
HETATM   31  C30 UNL     1      -3.683   3.294  10.946  1.00  0.00     0.198 C 
BRANCH  31  32
HETATM   32  O3  UNL     1      -4.304   3.442   9.679  1.00  0.00    -0.397 OA
HETATM   33  H48 UNL     1      -3.625   3.247   9.011  1.00  0.00     0.209 HD
ENDBRANCH  31  32
ENDBRANCH  29  31
ENDBRANCH  27  28
BRANCH  27  34
HETATM   34  O1  UNL     1      -8.008   2.122  12.738  1.00  0.00    -0.392 OA
HETATM   35  H6  UNL     1      -7.937   1.847  11.807  1.00  0.00     0.210 HD
ENDBRANCH  27  34
ENDBRANCH  26  27
ENDBRANCH  24  26
ENDBRANCH   1  24
TORSDOF 7
ENDMDL
MODEL 4
REMARK minimizedAffinity -7.43806791
REMARK CNNscore 0.544505537
REMARK CNNaffinity 6.92356443
REMARK  7 active torsions:
REMARK  status: ('A' for Active; 'I' for Inactive)
REMARK    1  A    between atoms: C2_2  and  C30_32 
REMARK    2  A    between atoms: C3_3  and  C4_4 
REMARK    3  A    between atoms: C4_4  and  O1_5 
REMARK    4  A    between atoms: C4_4  and  C5_6 
REMARK    5  A    between atoms: C5_6  and  C6_7 
REMARK    6  A    between atoms: C6_7  and  C8_9 
REMARK    7  A    between atoms: C30_32  and  O3_33 
ROOT
HETATM    1  C8  UNL     1      -9.477   7.276  13.769  1.00  0.00    -0.002 C 
HETATM    2  C9  UNL     1      -8.987   7.180  15.246  1.00  0.00     0.007 C 
HETATM    3  C10 UNL     1      -9.985   7.963  16.121  1.00  0.00     0.015 C 
HETATM    4  C11 UNL     1     -10.841   8.757  15.118  1.00  0.00    -0.013 C 
HETATM    5  C12 UNL     1     -10.019  10.042  14.775  1.00  0.00     0.021 C 
HETATM    6  C13 UNL     1     -12.214   9.244  15.572  1.00  0.00    -0.070 C 
HETATM    7  C14 UNL     1     -12.461   9.601  16.845  1.00  0.00    -0.022 C 
HETATM    8  C15 UNL     1     -13.745  10.206  17.323  1.00  0.00     0.034 C 
HETATM    9  C16 UNL     1     -14.905  10.165  16.302  1.00  0.00     0.013 C 
HETATM   10  C17 UNL     1     -16.153  11.004  16.766  1.00  0.00     0.018 C 
HETATM   11  C18 UNL     1     -15.815  12.311  17.512  1.00  0.00     0.023 C 
HETATM   12  C19 UNL     1     -17.021  10.152  17.717  1.00  0.00     0.023 C 
HETATM   13  C20 UNL     1     -17.028  11.339  15.554  1.00  0.00     0.135 C 
HETATM   14  O2  UNL     1     -17.790  12.306  15.528  1.00  0.00    -0.297 OA
HETATM   15  C21 UNL     1     -16.983  10.368  14.407  1.00  0.00     0.080 C 
HETATM   16  C22 UNL     1     -15.584  10.276  13.818  1.00  0.00     0.017 C 
HETATM   17  C23 UNL     1     -14.407  10.442  14.833  1.00  0.00    -0.031 C 
HETATM   18  C24 UNL     1     -13.845  11.877  14.687  1.00  0.00     0.016 C 
HETATM   19  C25 UNL     1     -13.295   9.364  14.497  1.00  0.00     0.024 C 
HETATM   20  C26 UNL     1     -12.692   9.477  13.075  1.00  0.00     0.010 C 
HETATM   21  C27 UNL     1     -11.623   8.413  12.726  1.00  0.00     0.011 C 
HETATM   22  C28 UNL     1     -10.970   7.720  13.942  1.00  0.00    -0.029 C 
HETATM   23  C29 UNL     1     -11.809   6.456  14.314  1.00  0.00     0.016 C 
ENDROOT
BRANCH   1  24
HETATM   24  C6  UNL     1      -9.116   5.997  12.944  1.00  0.00    -0.011 C 
HETATM   25  C7  UNL     1      -9.269   6.223  11.438  1.00  0.00     0.010 C 
BRANCH  24  26
HETATM   26  C5  UNL     1      -7.671   5.535  13.310  1.00  0.00     0.040 C 
BRANCH  26  27
HETATM   27  C4  UNL     1      -7.445   4.012  13.350  1.00  0.00     0.141 C 
BRANCH  27  28
HETATM   28  C3  UNL     1      -6.557   3.549  12.218  1.00  0.00     0.009 C 
HETATM   29  C2  UNL     1      -5.218   3.703  12.127  1.00  0.00    -0.062 C 
HETATM   30  C1  UNL     1      -4.381   4.424  13.151  1.00  0.00     0.045 C 
BRANCH  29  31
HETATM   31  C30 UNL     1      -4.449   3.153  10.956  1.00  0.00     0.198 C 
BRANCH  31  32
HETATM   32  O3  UNL     1      -5.350   2.972   9.874  1.00  0.00    -0.397 OA
HETATM   33  H48 UNL     1      -4.833   2.598   9.141  1.00  0.00     0.209 HD
ENDBRANCH  31  32
ENDBRANCH  29  31
ENDBRANCH  27  28
BRANCH  27  34
HETATM   34  O1  UNL     1      -8.704   3.355  13.233  1.00  0.00    -0.392 OA
HETATM   35  H6  UNL     1      -8.825   3.112  12.299  1.00  0.00     0.210 HD
ENDBRANCH  27  34
ENDBRANCH  26  27
ENDBRANCH  24  26
ENDBRANCH   1  24
TORSDOF 7
ENDMDL
MODEL 5
REMARK minimizedAffinity -7.5694232
REMARK CNNscore 0.52807951
REMARK CNNaffinity 6.64166451
REMARK  7 active torsions:
REMARK  status: ('A' for Active; 'I' for Inactive)
REMARK    1  A    between atoms: C2_2  and  C30_32 
REMARK    2  A    between atoms: C3_3  and  C4_4 
REMARK    3  A    between atoms: C4_4  and  O1_5 
REMARK    4  A    between atoms: C4_4  and  C5_6 
REMARK    5  A    between atoms: C5_6  and  C6_7 
REMARK    6  A    between atoms: C6_7  and  C8_9 
REMARK    7  A    between atoms: C30_32  and  O3_33 
ROOT
HETATM    1  C8  UNL     1      -2.367   8.989  15.737  1.00  0.00    -0.002 C 
HETATM    2  C9  UNL     1      -1.189   8.780  16.738  1.00  0.00     0.007 C 
HETATM    3  C10 UNL     1       0.018   8.258  15.935  1.00  0.00     0.015 C 
HETATM    4  C11 UNL     1      -0.566   7.871  14.564  1.00  0.00    -0.013 C 
HETATM    5  C12 UNL     1      -1.164   6.437  14.742  1.00  0.00     0.021 C 
HETATM    6  C13 UNL     1       0.387   7.785  13.376  1.00  0.00    -0.070 C 
HETATM    7  C14 UNL     1       1.667   7.395  13.511  1.00  0.00    -0.022 C 
HETATM    8  C15 UNL     1       2.611   7.168  12.371  1.00  0.00     0.034 C 
HETATM    9  C16 UNL     1       2.106   7.666  10.997  1.00  0.00     0.013 C 
HETATM   10  C17 UNL     1       3.029   7.209   9.807  1.00  0.00     0.018 C 
HETATM   11  C18 UNL     1       3.622   5.793   9.955  1.00  0.00     0.023 C 
HETATM   12  C19 UNL     1       4.216   8.186   9.673  1.00  0.00     0.023 C 
HETATM   13  C20 UNL     1       2.248   7.283   8.492  1.00  0.00     0.135 C 
HETATM   14  O2  UNL     1       2.536   6.605   7.505  1.00  0.00    -0.297 OA
HETATM   15  C21 UNL     1       1.147   8.304   8.423  1.00  0.00     0.080 C 
HETATM   16  C22 UNL     1       0.068   8.021   9.458  1.00  0.00     0.017 C 
HETATM   17  C23 UNL     1       0.565   7.400  10.804  1.00  0.00    -0.031 C 
HETATM   18  C24 UNL     1       0.252   5.884  10.779  1.00  0.00     0.016 C 
HETATM   19  C25 UNL     1      -0.194   8.112  11.999  1.00  0.00     0.024 C 
HETATM   20  C26 UNL     1      -1.735   7.964  11.967  1.00  0.00     0.010 C 
HETATM   21  C27 UNL     1      -2.490   8.678  13.116  1.00  0.00     0.011 C 
HETATM   22  C28 UNL     1      -1.630   9.010  14.354  1.00  0.00    -0.029 C 
HETATM   23  C29 UNL     1      -0.998  10.427  14.166  1.00  0.00     0.016 C 
ENDROOT
BRANCH   1  24
HETATM   24  C6  UNL     1      -3.298  10.172  16.163  1.00  0.00    -0.011 C 
HETATM   25  C7  UNL     1      -4.725   9.996  15.639  1.00  0.00     0.010 C 
BRANCH  24  26
HETATM   26  C5  UNL     1      -3.271  10.320  17.716  1.00  0.00     0.040 C 
BRANCH  26  27
HETATM   27  C4  UNL     1      -2.731  11.659  18.252  1.00  0.00     0.141 C 
BRANCH  27  28
HETATM   28  C3  UNL     1      -3.756  12.378  19.097  1.00  0.00     0.009 C 
HETATM   29  C2  UNL     1      -4.814  13.091  18.650  1.00  0.00    -0.062 C 
HETATM   30  C1  UNL     1      -5.119  13.325  17.194  1.00  0.00     0.045 C 
BRANCH  29  31
HETATM   31  C30 UNL     1      -5.786  13.725  19.609  1.00  0.00     0.198 C 
BRANCH  31  32
HETATM   32  O3  UNL     1      -5.326  13.492  20.931  1.00  0.00    -0.397 OA
HETATM   33  H48 UNL     1      -5.981  13.892  21.528  1.00  0.00     0.209 HD
ENDBRANCH  31  32
ENDBRANCH  29  31
ENDBRANCH  27  28
BRANCH  27  34
HETATM   34  O1  UNL     1      -2.389  12.494  17.149  1.00  0.00    -0.392 OA
HETATM   35  H6  UNL     1      -3.141  13.090  16.986  1.00  0.00     0.210 HD
ENDBRANCH  27  34
ENDBRANCH  26  27
ENDBRANCH  24  26
ENDBRANCH   1  24
TORSDOF 7
ENDMDL
MODEL 6
REMARK minimizedAffinity -8.01602173
REMARK CNNscore 0.462898344
REMARK CNNaffinity 6.79218531
REMARK  7 active torsions:
REMARK  status: ('A' for Active; 'I' for Inactive)
REMARK    1  A    between atoms: C2_2  and  C30_32 
REMARK    2  A    between atoms: C3_3  and  C4_4 
REMARK    3  A    between atoms: C4_4  and  O1_5 
REMARK    4  A    between atoms: C4_4  and  C5_6 
REMARK    5  A    between atoms: C5_6  and  C6_7 
REMARK    6  A    between atoms: C6_7  and  C8_9 
REMARK    7  A    between atoms: C30_32  and  O3_33 
ROOT
HETATM    1  C8  UNL     1      -2.376   9.029  15.769  1.00  0.00    -0.002 C 
HETATM    2  C9  UNL     1      -1.283   8.549  16.772  1.00  0.00     0.007 C 
HETATM    3  C10 UNL     1      -0.149   7.904  15.952  1.00  0.00     0.015 C 
HETATM    4  C11 UNL     1      -0.740   7.732  14.541  1.00  0.00    -0.013 C 
HETATM    5  C12 UNL     1      -1.567   6.405  14.580  1.00  0.00     0.021 C 
HETATM    6  C13 UNL     1       0.228   7.590  13.370  1.00  0.00    -0.070 C 
HETATM    7  C14 UNL     1       1.422   6.985  13.497  1.00  0.00    -0.022 C 
HETATM    8  C15 UNL     1       2.356   6.702  12.361  1.00  0.00     0.034 C 
HETATM    9  C16 UNL     1       1.987   7.388  11.026  1.00  0.00     0.013 C 
HETATM   10  C17 UNL     1       2.864   6.885   9.820  1.00  0.00     0.018 C 
HETATM   11  C18 UNL     1       3.215   5.384   9.856  1.00  0.00     0.023 C 
HETATM   12  C19 UNL     1       4.198   7.662   9.797  1.00  0.00     0.023 C 
HETATM   13  C20 UNL     1       2.152   7.195   8.501  1.00  0.00     0.135 C 
HETATM   14  O2  UNL     1       2.361   6.563   7.465  1.00  0.00    -0.297 OA
HETATM   15  C21 UNL     1       1.233   8.384   8.498  1.00  0.00     0.080 C 
HETATM   16  C22 UNL     1       0.088   8.198   9.482  1.00  0.00     0.017 C 
HETATM   17  C23 UNL     1       0.430   7.395  10.778  1.00  0.00    -0.031 C 
HETATM   18  C24 UNL     1      -0.123   5.957  10.614  1.00  0.00     0.016 C 
HETATM   19  C25 UNL     1      -0.245   8.120  12.015  1.00  0.00     0.024 C 
HETATM   20  C26 UNL     1      -1.788   8.230  11.938  1.00  0.00     0.010 C 
HETATM   21  C27 UNL     1      -2.457   8.960  13.128  1.00  0.00     0.011 C 
HETATM   22  C28 UNL     1      -1.598   9.043  14.409  1.00  0.00    -0.029 C 
HETATM   23  C29 UNL     1      -0.739  10.348  14.358  1.00  0.00     0.016 C 
ENDROOT
BRANCH   1  24
HETATM   24  C6  UNL     1      -3.118  10.309  16.277  1.00  0.00    -0.011 C 
HETATM   25  C7  UNL     1      -4.590  10.325  15.856  1.00  0.00     0.010 C 
BRANCH  24  26
HETATM   26  C5  UNL     1      -2.964  10.419  17.826  1.00  0.00     0.040 C 
BRANCH  26  27
HETATM   27  C4  UNL     1      -2.064  11.562  18.330  1.00  0.00     0.141 C 
BRANCH  27  28
HETATM   28  C3  UNL     1      -0.912  11.043  19.159  1.00  0.00     0.009 C 
HETATM   29  C2  UNL     1       0.117  11.766  19.654  1.00  0.00    -0.062 C 
HETATM   30  C1  UNL     1       0.306  13.240  19.411  1.00  0.00     0.045 C 
BRANCH  29  31
HETATM   31  C30 UNL     1       1.181  11.124  20.504  1.00  0.00     0.198 C 
BRANCH  31  32
HETATM   32  O3  UNL     1       1.847  10.144  19.722  1.00  0.00    -0.397 OA
HETATM   33  H48 UNL     1       2.512   9.733  20.299  1.00  0.00     0.209 HD
ENDBRANCH  31  32
ENDBRANCH  29  31
ENDBRANCH  27  28
BRANCH  27  34
HETATM   34  O1  UNL     1      -2.842  12.439  19.139  1.00  0.00    -0.392 OA
HETATM   35  H6  UNL     1      -2.702  12.186  20.068  1.00  0.00     0.210 HD
ENDBRANCH  27  34
ENDBRANCH  26  27
ENDBRANCH  24  26
ENDBRANCH   1  24
TORSDOF 7
ENDMDL
MODEL 7
REMARK minimizedAffinity -7.47077703
REMARK CNNscore 0.454301298
REMARK CNNaffinity 6.07261848
REMARK  7 active torsions:
REMARK  status: ('A' for Active; 'I' for Inactive)
REMARK    1  A    between atoms: C2_2  and  C30_32 
REMARK    2  A    between atoms: C3_3  and  C4_4 
REMARK    3  A    between atoms: C4_4  and  O1_5 
REMARK    4  A    between atoms: C4_4  and  C5_6 
REMARK    5  A    between atoms: C5_6  and  C6_7 
REMARK    6  A    between atoms: C6_7  and  C8_9 
REMARK    7  A    between atoms: C30_32  and  O3_33 
ROOT
HETATM    1  C8  UNL     1      -3.678 -11.331   3.961  1.00  0.00    -0.002 C 
HETATM    2  C9  UNL     1      -2.458 -11.551   3.015  1.00  0.00     0.007 C 
HETATM    3  C10 UNL     1      -2.955 -11.385   1.566  1.00  0.00     0.015 C 
HETATM    4  C11 UNL     1      -4.490 -11.393   1.679  1.00  0.00    -0.013 C 
HETATM    5  C12 UNL     1      -4.909 -12.899   1.730  1.00  0.00     0.021 C 
HETATM    6  C13 UNL     1      -5.297 -10.769   0.544  1.00  0.00    -0.070 C 
HETATM    7  C14 UNL     1      -4.883 -10.807  -0.735  1.00  0.00    -0.022 C 
HETATM    8  C15 UNL     1      -5.687 -10.329  -1.903  1.00  0.00     0.034 C 
HETATM    9  C16 UNL     1      -6.957  -9.527  -1.537  1.00  0.00     0.013 C 
HETATM   10  C17 UNL     1      -7.877  -9.242  -2.781  1.00  0.00     0.018 C 
HETATM   11  C18 UNL     1      -7.947 -10.388  -3.811  1.00  0.00     0.023 C 
HETATM   12  C19 UNL     1      -7.360  -7.993  -3.526  1.00  0.00     0.023 C 
HETATM   13  C20 UNL     1      -9.296  -8.915  -2.308  1.00  0.00     0.135 C 
HETATM   14  O2  UNL     1     -10.290  -9.078  -3.017  1.00  0.00    -0.297 OA
HETATM   15  C21 UNL     1      -9.422  -8.292  -0.946  1.00  0.00     0.080 C 
HETATM   16  C22 UNL     1      -8.895  -9.222   0.136  1.00  0.00     0.017 C 
HETATM   17  C23 UNL     1      -7.687 -10.125  -0.274  1.00  0.00    -0.031 C 
HETATM   18  C24 UNL     1      -8.224 -11.550  -0.553  1.00  0.00     0.016 C 
HETATM   19  C25 UNL     1      -6.641 -10.140   0.917  1.00  0.00     0.024 C 
HETATM   20  C26 UNL     1      -7.191 -10.691   2.255  1.00  0.00     0.010 C 
HETATM   21  C27 UNL     1      -6.186 -10.687   3.433  1.00  0.00     0.011 C 
HETATM   22  C28 UNL     1      -4.700 -10.603   3.022  1.00  0.00    -0.029 C 
HETATM   23  C29 UNL     1      -4.285  -9.099   2.933  1.00  0.00     0.016 C 
ENDROOT
BRANCH   1  24
HETATM   24  C6  UNL     1      -3.257 -10.696   5.327  1.00  0.00    -0.011 C 
HETATM   25  C7  UNL     1      -2.450  -9.409   5.137  1.00  0.00     0.010 C 
BRANCH  24  26
HETATM   26  C5  UNL     1      -4.527 -10.452   6.200  1.00  0.00     0.040 C 
BRANCH  26  27
HETATM   27  C4  UNL     1      -4.423  -9.311   7.230  1.00  0.00     0.141 C 
BRANCH  27  28
HETATM   28  C3  UNL     1      -4.358  -9.839   8.644  1.00  0.00     0.009 C 
HETATM   29  C2  UNL     1      -5.303  -9.704   9.601  1.00  0.00    -0.062 C 
HETATM   30  C1  UNL     1      -6.590  -8.944   9.414  1.00  0.00     0.045 C 
BRANCH  29  31
HETATM   31  C30 UNL     1      -5.125 -10.319  10.963  1.00  0.00     0.198 C 
BRANCH  31  32
HETATM   32  O3  UNL     1      -4.262  -9.485  11.721  1.00  0.00    -0.397 OA
HETATM   33  H48 UNL     1      -4.148  -9.914  12.585  1.00  0.00     0.209 HD
ENDBRANCH  31  32
ENDBRANCH  29  31
ENDBRANCH  27  28
BRANCH  27  34
HETATM   34  O1  UNL     1      -5.572  -8.478   7.111  1.00  0.00    -0.392 OA
HETATM   35  H6  UNL     1      -6.213  -8.761   7.787  1.00  0.00     0.210 HD
ENDBRANCH  27  34
ENDBRANCH  26  27
ENDBRANCH  24  26
ENDBRANCH   1  24
TORSDOF 7
ENDMDL
MODEL 8
REMARK minimizedAffinity -6.85619164
REMARK CNNscore 0.440458655
REMARK CNNaffinity 5.50108576
REMARK  7 active torsions:
REMARK  status: ('A' for Active; 'I' for Inactive)
REMARK    1  A    between atoms: C2_2  and  C30_32 
REMARK    2  A    between atoms: C3_3  and  C4_4 
REMARK    3  A    between atoms: C4_4  and  O1_5 
REMARK    4  A    between atoms: C4_4  and  C5_6 
REMARK    5  A    between atoms: C5_6  and  C6_7 
REMARK    6  A    between atoms: C6_7  and  C8_9 
REMARK    7  A    between atoms: C30_32  and  O3_33 
ROOT
HETATM    1  C8  UNL     1      -8.253 -11.603  12.301  1.00  0.00    -0.002 C 
HETATM    2  C9  UNL     1      -8.619 -11.454  10.792  1.00  0.00     0.007 C 
HETATM    3  C10 UNL     1      -9.803 -10.473  10.695  1.00  0.00     0.015 C 
HETATM    4  C11 UNL     1     -10.304 -10.324  12.143  1.00  0.00    -0.013 C 
HETATM    5  C12 UNL     1     -11.243 -11.548  12.401  1.00  0.00     0.021 C 
HETATM    6  C13 UNL     1     -11.121  -9.084  12.496  1.00  0.00    -0.070 C 
HETATM    7  C14 UNL     1     -11.944  -8.493  11.611  1.00  0.00    -0.022 C 
HETATM    8  C15 UNL     1     -12.865  -7.357  11.935  1.00  0.00     0.034 C 
HETATM    9  C16 UNL     1     -12.635  -6.705  13.318  1.00  0.00     0.013 C 
HETATM   10  C17 UNL     1     -13.761  -5.674  13.699  1.00  0.00     0.018 C 
HETATM   11  C18 UNL     1     -15.182  -6.071  13.248  1.00  0.00     0.023 C 
HETATM   12  C19 UNL     1     -13.446  -4.308  13.053  1.00  0.00     0.023 C 
HETATM   13  C20 UNL     1     -13.767  -5.454  15.214  1.00  0.00     0.135 C 
HETATM   14  O2  UNL     1     -14.762  -5.071  15.829  1.00  0.00    -0.297 OA
HETATM   15  C21 UNL     1     -12.455  -5.643  15.923  1.00  0.00     0.080 C 
HETATM   16  C22 UNL     1     -11.949  -7.069  15.776  1.00  0.00     0.017 C 
HETATM   17  C23 UNL     1     -12.290  -7.774  14.423  1.00  0.00    -0.031 C 
HETATM   18  C24 UNL     1     -13.476  -8.739  14.668  1.00  0.00     0.016 C 
HETATM   19  C25 UNL     1     -11.009  -8.569  13.932  1.00  0.00     0.024 C 
HETATM   20  C26 UNL     1     -10.514  -9.665  14.907  1.00  0.00     0.010 C 
HETATM   21  C27 UNL     1      -9.248 -10.431  14.451  1.00  0.00     0.011 C 
HETATM   22  C28 UNL     1      -8.947 -10.351  12.938  1.00  0.00    -0.029 C 
HETATM   23  C29 UNL     1      -8.041  -9.107  12.668  1.00  0.00     0.016 C 
ENDROOT
BRANCH   1  24
HETATM   24  C6  UNL     1      -6.724 -11.861  12.513  1.00  0.00    -0.011 C 
HETATM   25  C7  UNL     1      -6.436 -13.313  12.900  1.00  0.00     0.010 C 
BRANCH  24  26
HETATM   26  C5  UNL     1      -5.945 -11.445  11.226  1.00  0.00     0.040 C 
BRANCH  26  27
HETATM   27  C4  UNL     1      -5.440  -9.990  11.190  1.00  0.00     0.141 C 
BRANCH  27  28
HETATM   28  C3  UNL     1      -5.755  -9.321   9.873  1.00  0.00     0.009 C 
HETATM   29  C2  UNL     1      -5.243  -9.637   8.663  1.00  0.00    -0.062 C 
HETATM   30  C1  UNL     1      -4.211 -10.711   8.439  1.00  0.00     0.045 C 
BRANCH  29  31
HETATM   31  C30 UNL     1      -5.680  -8.910   7.419  1.00  0.00     0.198 C 
BRANCH  31  32
HETATM   32  O3  UNL     1      -4.534  -8.670   6.616  1.00  0.00    -0.397 OA
HETATM   33  H48 UNL     1      -4.840  -8.184   5.833  1.00  0.00     0.209 HD
ENDBRANCH  31  32
ENDBRANCH  29  31
ENDBRANCH  27  28
BRANCH  27  34
HETATM   34  O1  UNL     1      -4.026  -9.989  11.370  1.00  0.00    -0.392 OA
HETATM   35  H6  UNL     1      -3.617  -9.943  10.488  1.00  0.00     0.210 HD
ENDBRANCH  27  34
ENDBRANCH  26  27
ENDBRANCH  24  26
ENDBRANCH   1  24
TORSDOF 7
ENDMDL
MODEL 9
REMARK minimizedAffinity -7.06178617
REMARK CNNscore 0.428837776
REMARK CNNaffinity 6.43664551
REMARK  7 active torsions:
REMARK  status: ('A' for Active; 'I' for Inactive)
REMARK    1  A    between atoms: C2_2  and  C30_32 
REMARK    2  A    between atoms: C3_3  and  C4_4 
REMARK    3  A    between atoms: C4_4  and  O1_5 
REMARK    4  A    between atoms: C4_4  and  C5_6 
REMARK    5  A    between atoms: C5_6  and  C6_7 
REMARK    6  A    between atoms: C6_7  and  C8_9 
REMARK    7  A    between atoms: C30_32  and  O3_33 
ROOT
HETATM    1  C8  UNL     1      -9.807  -7.435  -4.682  1.00  0.00    -0.002 C 
HETATM    2  C9  UNL     1     -11.160  -7.517  -3.909  1.00  0.00     0.007 C 
HETATM    3  C10 UNL     1     -10.939  -8.420  -2.680  1.00  0.00     0.015 C 
HETATM    4  C11 UNL     1      -9.579  -9.095  -2.932  1.00  0.00    -0.013 C 
HETATM    5  C12 UNL     1      -9.872 -10.313  -3.868  1.00  0.00     0.021 C 
HETATM    6  C13 UNL     1      -8.823  -9.657  -1.732  1.00  0.00    -0.070 C 
HETATM    7  C14 UNL     1      -9.456 -10.176  -0.665  1.00  0.00    -0.022 C 
HETATM    8  C15 UNL     1      -8.773 -10.857   0.480  1.00  0.00     0.034 C 
HETATM    9  C16 UNL     1      -7.235 -10.707   0.505  1.00  0.00     0.013 C 
HETATM   10  C17 UNL     1      -6.552 -11.618   1.591  1.00  0.00     0.018 C 
HETATM   11  C18 UNL     1      -7.204 -13.002   1.779  1.00  0.00     0.023 C 
HETATM   12  C19 UNL     1      -6.597 -10.905   2.960  1.00  0.00     0.023 C 
HETATM   13  C20 UNL     1      -5.073 -11.811   1.246  1.00  0.00     0.135 C 
HETATM   14  O2  UNL     1      -4.417 -12.779   1.633  1.00  0.00    -0.297 OA
HETATM   15  C21 UNL     1      -4.415 -10.703   0.471  1.00  0.00     0.080 C 
HETATM   16  C22 UNL     1      -5.073 -10.515  -0.887  1.00  0.00     0.017 C 
HETATM   17  C23 UNL     1      -6.611 -10.788  -0.940  1.00  0.00    -0.031 C 
HETATM   18  C24 UNL     1      -6.831 -12.185  -1.573  1.00  0.00     0.016 C 
HETATM   19  C25 UNL     1      -7.296  -9.659  -1.817  1.00  0.00     0.024 C 
HETATM   20  C26 UNL     1      -6.793  -9.582  -3.280  1.00  0.00     0.010 C 
HETATM   21  C27 UNL     1      -7.435  -8.465  -4.140  1.00  0.00     0.011 C 
HETATM   22  C28 UNL     1      -8.778  -7.921  -3.605  1.00  0.00    -0.029 C 
HETATM   23  C29 UNL     1      -8.490  -6.727  -2.639  1.00  0.00     0.016 C 
ENDROOT
BRANCH   1  24
HETATM   24  C6  UNL     1      -9.622  -6.056  -5.397  1.00  0.00    -0.011 C 
HETATM   25  C7  UNL     1     -10.523  -5.923  -6.628  1.00  0.00     0.010 C 
BRANCH  24  26
HETATM   26  C5  UNL     1      -9.872  -4.904  -4.376  1.00  0.00     0.040 C 
BRANCH  26  27
HETATM   27  C4  UNL     1     -10.066  -3.501  -4.983  1.00  0.00     0.141 C 
BRANCH  27  28
HETATM   28  C3  UNL     1      -8.752  -2.772  -5.139  1.00  0.00     0.009 C 
HETATM   29  C2  UNL     1      -8.499  -1.729  -5.960  1.00  0.00    -0.062 C 
HETATM   30  C1  UNL     1      -9.508  -1.142  -6.912  1.00  0.00     0.045 C 
BRANCH  29  31
HETATM   31  C30 UNL     1      -7.147  -1.067  -5.984  1.00  0.00     0.198 C 
BRANCH  31  32
HETATM   32  O3  UNL     1      -6.165  -2.044  -5.675  1.00  0.00    -0.397 OA
HETATM   33  H48 UNL     1      -5.307  -1.588  -5.677  1.00  0.00     0.209 HD
ENDBRANCH  31  32
ENDBRANCH  29  31
ENDBRANCH  27  28
BRANCH  27  34
HETATM   34  O1  UNL     1     -10.906  -2.738  -4.122  1.00  0.00    -0.392 OA
HETATM   35  H6  UNL     1     -10.332  -2.195  -3.554  1.00  0.00     0.210 HD
ENDBRANCH  27  34
ENDBRANCH  26  27
ENDBRANCH  24  26
ENDBRANCH   1  24
TORSDOF 7
ENDMDL
