MODEL 1
REMARK minimizedAffinity -7.85938454
REMARK CNNscore 0.376128137
REMARK CNNaffinity 6.65589523
REMARK  13 active torsions:
REMARK  status: ('A' for Active; 'I' for Inactive)
REMARK    1  A    between atoms: C3_3  and  O1_4 
REMARK    2  A    between atoms: N1_14  and  O2_16 
REMARK    3  A    between atoms: O2_16  and  C13_17 
REMARK    4  A    between atoms: C13_17  and  C14_18 
REMARK       I    between atoms: C14_18  and  N2_20 
REMARK    5  A    between atoms: N2_20  and  C15_21 
REMARK    6  A    between atoms: C15_21  and  C16_22 
REMARK    7  A    between atoms: C15_21  and  C21_32 
REMARK       I    between atoms: C16_22  and  N3_24 
REMARK    8  A    between atoms: N3_24  and  C17_25 
REMARK    9  A    between atoms: C17_25  and  C18_26 
REMARK   10  A    between atoms: C17_25  and  C19_28 
REMARK   11  A    between atoms: C18_26  and  S1_27 
REMARK   12  A    between atoms: C19_28  and  C20_29 
REMARK   13  A    between atoms: C20_29  and  O6_31 
ROOT
HETATM    1  C1  UNL     1      -0.737  55.105 -27.936  1.00  0.00     0.015 C 
HETATM    2  C2  UNL     1      -0.777  53.973 -27.538  1.00  0.00    -0.078 C 
HETATM    3  C3  UNL     1      -0.875  52.568 -27.107  1.00  0.00     0.128 C 
HETATM    4  C4  UNL     1       0.457  51.829 -27.256  1.00  0.00     0.052 C 
HETATM    5  C5  UNL     1       0.393  50.647 -26.280  1.00  0.00     0.010 C 
HETATM    6  C6  UNL     1      -0.804  50.895 -25.336  1.00  0.00     0.002 C 
HETATM    7  C7  UNL     1      -1.900  49.784 -25.334  1.00  0.00    -0.004 C 
HETATM    8  C8  UNL     1      -2.273  49.140 -26.687  1.00  0.00     0.010 C 
HETATM    9  C9  UNL     1      -3.313  48.028 -26.549  1.00  0.00     0.035 C 
HETATM   10  C10 UNL     1      -4.522  48.438 -25.742  1.00  0.00    -0.069 C 
HETATM   11  C11 UNL     1      -5.758  48.178 -26.199  1.00  0.00     0.030 C 
HETATM   12  C12 UNL     1      -6.963  48.430 -25.365  1.00  0.00     0.032 C 
HETATM   13  N1  UNL     1      -8.131  48.338 -25.937  1.00  0.00    -0.271 N 
ATOM     14  H1  UNL     1      -8.270  48.100 -26.919  1.00  0.00     0.194 HD
HETATM   15  C24 UNL     1      -6.740  48.729 -23.897  1.00  0.00     0.060 C 
HETATM   16  C25 UNL     1      -5.551  49.670 -23.763  1.00  0.00     0.020 C 
HETATM   17  C26 UNL     1      -4.241  49.118 -24.405  1.00  0.00    -0.016 C 
HETATM   18  C27 UNL     1      -3.680  48.052 -23.424  1.00  0.00     0.020 C 
HETATM   19  C28 UNL     1      -3.175  50.274 -24.592  1.00  0.00     0.002 C 
HETATM   20  C29 UNL     1      -3.692  51.527 -25.332  1.00  0.00     0.007 C 
HETATM   21  C30 UNL     1      -2.700  52.680 -25.246  1.00  0.00     0.014 C 
HETATM   22  C31 UNL     1      -1.235  52.369 -25.606  1.00  0.00     0.003 C 
HETATM   23  C32 UNL     1      -0.356  53.306 -24.714  1.00  0.00     0.020 C 
ENDROOT
BRANCH   3  24
HETATM   24  O1  UNL     1      -1.813  51.932 -27.966  1.00  0.00    -0.377 OA
HETATM   25  H2  UNL     1      -2.643  52.431 -27.922  1.00  0.00     0.211 HD
ENDBRANCH   3  24
BRANCH  13  26
HETATM   26  O2  UNL     1      -9.172  48.608 -25.038  1.00  0.00    -0.271 OA
BRANCH  26  27
HETATM   27  C13 UNL     1      -9.927  47.424 -24.805  1.00  0.00     0.303 C 
BRANCH  27  28
HETATM   28  C14 UNL     1     -11.281  47.490 -25.500  1.00  0.00     0.244 C 
HETATM   29  O3  UNL     1     -11.607  48.427 -26.227  1.00  0.00    -0.271 OA
HETATM   30  N2  UNL     1     -12.082  46.388 -25.278  1.00  0.00    -0.346 N 
HETATM   31  H16 UNL     1     -11.835  45.867 -24.436  1.00  0.00     0.163 HD
BRANCH  30  32
HETATM   32  C15 UNL     1     -13.494  46.423 -25.650  1.00  0.00     0.180 C 
BRANCH  32  33
HETATM   33  C16 UNL     1     -14.298  45.869 -24.451  1.00  0.00     0.241 C 
HETATM   34  O4  UNL     1     -13.762  45.495 -23.407  1.00  0.00    -0.271 OA
HETATM   35  N3  UNL     1     -15.663  45.820 -24.643  1.00  0.00    -0.353 N 
HETATM   36  H18 UNL     1     -16.051  46.138 -25.520  1.00  0.00     0.163 HD
BRANCH  35  37
HETATM   37  C17 UNL     1     -16.580  45.390 -23.579  1.00  0.00     0.103 C 
BRANCH  37  38
HETATM   38  C18 UNL     1     -17.445  44.198 -24.041  1.00  0.00     0.096 C 
BRANCH  38  39
HETATM   39  S1  UNL     1     -16.441  42.760 -24.539  1.00  0.00    -0.180 SA
HETATM   40  H22 UNL     1     -15.811  42.618 -23.356  1.00  0.00     0.101 HD
ENDBRANCH  38  39
ENDBRANCH  37  38
BRANCH  37  41
HETATM   41  C19 UNL     1     -17.473  46.564 -23.144  1.00  0.00     0.136 C 
BRANCH  41  42
HETATM   42  C20 UNL     1     -18.692  46.691 -24.015  1.00  0.00     0.141 C 
HETATM   43  O5  UNL     1     -18.846  47.438 -24.965  1.00  0.00    -0.650 OA
BRANCH  42  44
HETATM   44  O6  UNL     1     -19.675  45.851 -23.632  1.00  0.00    -0.776 OA
HETATM   45  H25 UNL     1     -20.375  45.968 -24.305  1.00  0.00     0.167 HD
ENDBRANCH  42  44
ENDBRANCH  41  42
ENDBRANCH  37  41
ENDBRANCH  35  37
ENDBRANCH  32  33
BRANCH  32  46
HETATM   46  C21 UNL     1     -13.750  45.665 -26.970  1.00  0.00     0.009 C 
HETATM   47  C22 UNL     1     -12.751  44.518 -27.163  1.00  0.00     0.012 C 
HETATM   48  C23 UNL     1     -13.760  46.564 -28.211  1.00  0.00     0.012 C 
ENDBRANCH  32  46
ENDBRANCH  30  32
ENDBRANCH  27  28
ENDBRANCH  26  27
ENDBRANCH  13  26
TORSDOF 13
ENDMDL
MODEL 2
REMARK minimizedAffinity -7.35070419
REMARK CNNscore 0.273277998
REMARK CNNaffinity 6.62899017
REMARK  13 active torsions:
REMARK  status: ('A' for Active; 'I' for Inactive)
REMARK    1  A    between atoms: C3_3  and  O1_4 
REMARK    2  A    between atoms: N1_14  and  O2_16 
REMARK    3  A    between atoms: O2_16  and  C13_17 
REMARK    4  A    between atoms: C13_17  and  C14_18 
REMARK       I    between atoms: C14_18  and  N2_20 
REMARK    5  A    between atoms: N2_20  and  C15_21 
REMARK    6  A    between atoms: C15_21  and  C16_22 
REMARK    7  A    between atoms: C15_21  and  C21_32 
REMARK       I    between atoms: C16_22  and  N3_24 
REMARK    8  A    between atoms: N3_24  and  C17_25 
REMARK    9  A    between atoms: C17_25  and  C18_26 
REMARK   10  A    between atoms: C17_25  and  C19_28 
REMARK   11  A    between atoms: C18_26  and  S1_27 
REMARK   12  A    between atoms: C19_28  and  C20_29 
REMARK   13  A    between atoms: C20_29  and  O6_31 
ROOT
HETATM    1  C1  UNL     1      -0.812  55.236 -28.022  1.00  0.00     0.015 C 
HETATM    2  C2  UNL     1      -0.798  54.104 -27.622  1.00  0.00    -0.078 C 
HETATM    3  C3  UNL     1      -0.835  52.698 -27.184  1.00  0.00     0.128 C 
HETATM    4  C4  UNL     1       0.495  51.985 -27.438  1.00  0.00     0.052 C 
HETATM    5  C5  UNL     1       0.531  50.803 -26.458  1.00  0.00     0.010 C 
HETATM    6  C6  UNL     1      -0.592  51.031 -25.423  1.00  0.00     0.002 C 
HETATM    7  C7  UNL     1      -1.663  49.899 -25.334  1.00  0.00    -0.004 C 
HETATM    8  C8  UNL     1      -2.129  49.245 -26.653  1.00  0.00     0.010 C 
HETATM    9  C9  UNL     1      -3.134  48.113 -26.432  1.00  0.00     0.035 C 
HETATM   10  C10 UNL     1      -4.283  48.502 -25.532  1.00  0.00    -0.069 C 
HETATM   11  C11 UNL     1      -5.546  48.218 -25.890  1.00  0.00     0.030 C 
HETATM   12  C12 UNL     1      -6.686  48.449 -24.963  1.00  0.00     0.032 C 
HETATM   13  N1  UNL     1      -7.893  48.333 -25.441  1.00  0.00    -0.271 N 
ATOM     14  H1  UNL     1      -8.105  48.090 -26.409  1.00  0.00     0.194 HD
HETATM   15  C24 UNL     1      -6.353  48.755 -23.518  1.00  0.00     0.060 C 
HETATM   16  C25 UNL     1      -5.175  49.718 -23.478  1.00  0.00     0.020 C 
HETATM   17  C26 UNL     1      -3.910  49.191 -24.222  1.00  0.00    -0.016 C 
HETATM   18  C27 UNL     1      -3.252  48.138 -23.288  1.00  0.00     0.020 C 
HETATM   19  C28 UNL     1      -2.884  50.366 -24.493  1.00  0.00     0.002 C 
HETATM   20  C29 UNL     1      -3.482  51.607 -25.190  1.00  0.00     0.007 C 
HETATM   21  C30 UNL     1      -2.508  52.779 -25.184  1.00  0.00     0.014 C 
HETATM   22  C31 UNL     1      -1.071  52.496 -25.659  1.00  0.00     0.003 C 
HETATM   23  C32 UNL     1      -0.142  53.451 -24.839  1.00  0.00     0.020 C 
ENDROOT
BRANCH   3  24
HETATM   24  O1  UNL     1      -1.826  52.043 -27.965  1.00  0.00    -0.377 OA
HETATM   25  H2  UNL     1      -2.659  52.526 -27.856  1.00  0.00     0.211 HD
ENDBRANCH   3  24
BRANCH  13  26
HETATM   26  O2  UNL     1      -8.865  48.585 -24.462  1.00  0.00    -0.271 OA
BRANCH  26  27
HETATM   27  C13 UNL     1      -9.619  47.403 -24.216  1.00  0.00     0.303 C 
BRANCH  27  28
HETATM   28  C14 UNL     1     -10.765  47.266 -25.209  1.00  0.00     0.244 C 
HETATM   29  O3  UNL     1     -10.685  47.662 -26.371  1.00  0.00    -0.271 OA
HETATM   30  N2  UNL     1     -11.874  46.619 -24.703  1.00  0.00    -0.346 N 
HETATM   31  H16 UNL     1     -11.927  46.637 -23.684  1.00  0.00     0.163 HD
BRANCH  30  32
HETATM   32  C15 UNL     1     -13.137  46.648 -25.437  1.00  0.00     0.180 C 
BRANCH  32  33
HETATM   33  C16 UNL     1     -14.267  46.828 -24.398  1.00  0.00     0.241 C 
HETATM   34  O4  UNL     1     -15.139  47.692 -24.506  1.00  0.00    -0.271 OA
HETATM   35  N3  UNL     1     -14.224  45.948 -23.337  1.00  0.00    -0.353 N 
HETATM   36  H18 UNL     1     -13.486  45.258 -23.296  1.00  0.00     0.163 HD
BRANCH  35  37
HETATM   37  C17 UNL     1     -15.263  45.932 -22.300  1.00  0.00     0.103 C 
BRANCH  37  38
HETATM   38  C18 UNL     1     -16.657  45.681 -22.914  1.00  0.00     0.096 C 
BRANCH  38  39
HETATM   39  S1  UNL     1     -18.008  46.031 -21.741  1.00  0.00    -0.180 SA
HETATM   40  H22 UNL     1     -17.672  47.319 -21.527  1.00  0.00     0.101 HD
ENDBRANCH  38  39
ENDBRANCH  37  38
BRANCH  37  41
HETATM   41  C19 UNL     1     -15.251  47.256 -21.518  1.00  0.00     0.136 C 
BRANCH  41  42
HETATM   42  C20 UNL     1     -14.147  47.293 -20.498  1.00  0.00     0.141 C 
HETATM   43  O5  UNL     1     -14.260  47.232 -19.287  1.00  0.00    -0.650 OA
BRANCH  42  44
HETATM   44  O6  UNL     1     -12.933  47.409 -21.073  1.00  0.00    -0.776 OA
HETATM   45  H25 UNL     1     -12.301  47.348 -20.328  1.00  0.00     0.167 HD
ENDBRANCH  42  44
ENDBRANCH  41  42
ENDBRANCH  37  41
ENDBRANCH  35  37
ENDBRANCH  32  33
BRANCH  32  46
HETATM   46  C21 UNL     1     -13.304  45.395 -26.323  1.00  0.00     0.009 C 
HETATM   47  C22 UNL     1     -12.323  44.287 -25.923  1.00  0.00     0.012 C 
HETATM   48  C23 UNL     1     -13.192  45.676 -27.825  1.00  0.00     0.012 C 
ENDBRANCH  32  46
ENDBRANCH  30  32
ENDBRANCH  27  28
ENDBRANCH  26  27
ENDBRANCH  13  26
TORSDOF 13
ENDMDL
MODEL 3
REMARK minimizedAffinity -8.5788517
REMARK CNNscore 0.224883407
REMARK CNNaffinity 6.69510984
REMARK  13 active torsions:
REMARK  status: ('A' for Active; 'I' for Inactive)
REMARK    1  A    between atoms: C3_3  and  O1_4 
REMARK    2  A    between atoms: N1_14  and  O2_16 
REMARK    3  A    between atoms: O2_16  and  C13_17 
REMARK    4  A    between atoms: C13_17  and  C14_18 
REMARK       I    between atoms: C14_18  and  N2_20 
REMARK    5  A    between atoms: N2_20  and  C15_21 
REMARK    6  A    between atoms: C15_21  and  C16_22 
REMARK    7  A    between atoms: C15_21  and  C21_32 
REMARK       I    between atoms: C16_22  and  N3_24 
REMARK    8  A    between atoms: N3_24  and  C17_25 
REMARK    9  A    between atoms: C17_25  and  C18_26 
REMARK   10  A    between atoms: C17_25  and  C19_28 
REMARK   11  A    between atoms: C18_26  and  S1_27 
REMARK   12  A    between atoms: C19_28  and  C20_29 
REMARK   13  A    between atoms: C20_29  and  O6_31 
ROOT
HETATM    1  C1  UNL     1      -0.259  54.301 -27.376  1.00  0.00     0.015 C 
HETATM    2  C2  UNL     1      -0.914  53.407 -26.914  1.00  0.00    -0.078 C 
HETATM    3  C3  UNL     1      -1.753  52.363 -26.301  1.00  0.00     0.128 C 
HETATM    4  C4  UNL     1      -2.728  51.748 -27.308  1.00  0.00     0.052 C 
HETATM    5  C5  UNL     1      -3.087  50.363 -26.751  1.00  0.00     0.010 C 
HETATM    6  C6  UNL     1      -2.077  50.043 -25.628  1.00  0.00     0.002 C 
HETATM    7  C7  UNL     1      -2.698  49.767 -24.223  1.00  0.00    -0.004 C 
HETATM    8  C8  UNL     1      -3.892  50.642 -23.781  1.00  0.00     0.010 C 
HETATM    9  C9  UNL     1      -4.449  50.241 -22.415  1.00  0.00     0.035 C 
HETATM   10  C10 UNL     1      -3.385  50.118 -21.349  1.00  0.00    -0.069 C 
HETATM   11  C11 UNL     1      -3.565  50.691 -20.148  1.00  0.00     0.030 C 
HETATM   12  C12 UNL     1      -2.612  50.465 -19.029  1.00  0.00     0.032 C 
HETATM   13  N1  UNL     1      -2.741  51.199 -17.960  1.00  0.00    -0.271 N 
ATOM     14  H1  UNL     1      -3.458  51.915 -17.840  1.00  0.00     0.194 HD
HETATM   15  C24 UNL     1      -1.591  49.360 -19.202  1.00  0.00     0.060 C 
HETATM   16  C25 UNL     1      -1.047  49.411 -20.623  1.00  0.00     0.020 C 
HETATM   17  C26 UNL     1      -2.151  49.300 -21.719  1.00  0.00    -0.016 C 
HETATM   18  C27 UNL     1      -2.561  47.803 -21.787  1.00  0.00     0.020 C 
HETATM   19  C28 UNL     1      -1.593  49.756 -23.129  1.00  0.00     0.002 C 
HETATM   20  C29 UNL     1      -0.909  51.141 -23.144  1.00  0.00     0.007 C 
HETATM   21  C30 UNL     1      -0.181  51.394 -24.458  1.00  0.00     0.014 C 
HETATM   22  C31 UNL     1      -0.970  51.134 -25.755  1.00  0.00     0.003 C 
HETATM   23  C32 UNL     1       0.074  50.648 -26.814  1.00  0.00     0.020 C 
ENDROOT
BRANCH   3  24
HETATM   24  O1  UNL     1      -2.528  52.991 -25.287  1.00  0.00    -0.377 OA
HETATM   25  H2  UNL     1      -1.917  53.434 -24.678  1.00  0.00     0.211 HD
ENDBRANCH   3  24
BRANCH  13  26
HETATM   26  O2  UNL     1      -1.775  50.883 -16.994  1.00  0.00    -0.271 OA
BRANCH  26  27
HETATM   27  C13 UNL     1      -2.386  50.199 -15.906  1.00  0.00     0.303 C 
BRANCH  27  28
HETATM   28  C14 UNL     1      -2.849  51.175 -14.833  1.00  0.00     0.244 C 
HETATM   29  O3  UNL     1      -3.778  51.962 -15.010  1.00  0.00    -0.271 OA
HETATM   30  N2  UNL     1      -2.167  51.064 -13.638  1.00  0.00    -0.346 N 
HETATM   31  H16 UNL     1      -1.251  50.623 -13.731  1.00  0.00     0.163 HD
BRANCH  30  32
HETATM   32  C15 UNL     1      -2.310  52.097 -12.615  1.00  0.00     0.180 C 
BRANCH  32  33
HETATM   33  C16 UNL     1      -0.904  52.360 -12.030  1.00  0.00     0.241 C 
HETATM   34  O4  UNL     1      -0.037  51.487 -11.963  1.00  0.00    -0.271 OA
HETATM   35  N3  UNL     1      -0.694  53.648 -11.583  1.00  0.00    -0.353 N 
HETATM   36  H18 UNL     1      -1.440  54.326 -11.660  1.00  0.00     0.163 HD
BRANCH  35  37
HETATM   37  C17 UNL     1       0.608  54.088 -11.067  1.00  0.00     0.103 C 
BRANCH  37  38
HETATM   38  C18 UNL     1       1.695  53.021 -11.321  1.00  0.00     0.096 C 
BRANCH  38  39
HETATM   39  S1  UNL     1       3.266  53.414 -10.484  1.00  0.00    -0.180 SA
HETATM   40  H22 UNL     1       2.751  53.458  -9.240  1.00  0.00     0.101 HD
ENDBRANCH  38  39
ENDBRANCH  37  38
BRANCH  37  41
HETATM   41  C19 UNL     1       0.504  54.401  -9.565  1.00  0.00     0.136 C 
BRANCH  41  42
HETATM   42  C20 UNL     1      -0.464  53.484  -8.870  1.00  0.00     0.141 C 
HETATM   43  O5  UNL     1      -1.569  53.766  -8.441  1.00  0.00    -0.650 OA
BRANCH  42  44
HETATM   44  O6  UNL     1       0.025  52.234  -8.747  1.00  0.00    -0.776 OA
HETATM   45  H25 UNL     1      -0.709  51.720  -8.354  1.00  0.00     0.167 HD
ENDBRANCH  42  44
ENDBRANCH  41  42
ENDBRANCH  37  41
ENDBRANCH  35  37
ENDBRANCH  32  33
BRANCH  32  46
HETATM   46  C21 UNL     1      -3.358  51.699 -11.553  1.00  0.00     0.009 C 
HETATM   47  C22 UNL     1      -4.093  52.925 -11.000  1.00  0.00     0.012 C 
HETATM   48  C23 UNL     1      -2.788  50.867 -10.399  1.00  0.00     0.012 C 
ENDBRANCH  32  46
ENDBRANCH  30  32
ENDBRANCH  27  28
ENDBRANCH  26  27
ENDBRANCH  13  26
TORSDOF 13
ENDMDL
MODEL 4
REMARK minimizedAffinity -8.51255798
REMARK CNNscore 0.217909351
REMARK CNNaffinity 6.33842087
REMARK  13 active torsions:
REMARK  status: ('A' for Active; 'I' for Inactive)
REMARK    1  A    between atoms: C3_3  and  O1_4 
REMARK    2  A    between atoms: N1_14  and  O2_16 
REMARK    3  A    between atoms: O2_16  and  C13_17 
REMARK    4  A    between atoms: C13_17  and  C14_18 
REMARK       I    between atoms: C14_18  and  N2_20 
REMARK    5  A    between atoms: N2_20  and  C15_21 
REMARK    6  A    between atoms: C15_21  and  C16_22 
REMARK    7  A    between atoms: C15_21  and  C21_32 
REMARK       I    between atoms: C16_22  and  N3_24 
REMARK    8  A    between atoms: N3_24  and  C17_25 
REMARK    9  A    between atoms: C17_25  and  C18_26 
REMARK   10  A    between atoms: C17_25  and  C19_28 
REMARK   11  A    between atoms: C18_26  and  S1_27 
REMARK   12  A    between atoms: C19_28  and  C20_29 
REMARK   13  A    between atoms: C20_29  and  O6_31 
ROOT
HETATM    1  C1  UNL     1      -7.827  49.591 -23.526  1.00  0.00     0.015 C 
HETATM    2  C2  UNL     1      -6.634  49.464 -23.478  1.00  0.00    -0.078 C 
HETATM    3  C3  UNL     1      -5.180  49.260 -23.357  1.00  0.00     0.128 C 
HETATM    4  C4  UNL     1      -4.603  48.529 -24.572  1.00  0.00     0.052 C 
HETATM    5  C5  UNL     1      -3.112  48.893 -24.610  1.00  0.00     0.010 C 
HETATM    6  C6  UNL     1      -2.904  50.082 -23.648  1.00  0.00     0.002 C 
HETATM    7  C7  UNL     1      -1.885  49.841 -22.491  1.00  0.00    -0.004 C 
HETATM    8  C8  UNL     1      -1.889  48.455 -21.807  1.00  0.00     0.010 C 
HETATM    9  C9  UNL     1      -0.811  48.321 -20.731  1.00  0.00     0.035 C 
HETATM   10  C10 UNL     1      -0.808  49.463 -19.742  1.00  0.00    -0.069 C 
HETATM   11  C11 UNL     1      -0.753  49.213 -18.424  1.00  0.00     0.030 C 
HETATM   12  C12 UNL     1      -0.597  50.309 -17.432  1.00  0.00     0.032 C 
HETATM   13  N1  UNL     1      -0.744  50.016 -16.170  1.00  0.00    -0.271 N 
ATOM     14  H1  UNL     1      -0.955  49.081 -15.821  1.00  0.00     0.194 HD
HETATM   15  C24 UNL     1      -0.230  51.679 -17.965  1.00  0.00     0.060 C 
HETATM   16  C25 UNL     1      -1.037  51.948 -19.227  1.00  0.00     0.020 C 
HETATM   17  C26 UNL     1      -0.843  50.869 -20.336  1.00  0.00    -0.016 C 
HETATM   18  C27 UNL     1       0.535  51.153 -20.996  1.00  0.00     0.020 C 
HETATM   19  C28 UNL     1      -1.981  50.974 -21.431  1.00  0.00     0.002 C 
HETATM   20  C29 UNL     1      -3.423  50.971 -20.876  1.00  0.00     0.007 C 
HETATM   21  C30 UNL     1      -4.440  51.330 -21.953  1.00  0.00     0.014 C 
HETATM   22  C31 UNL     1      -4.341  50.569 -23.288  1.00  0.00     0.003 C 
HETATM   23  C32 UNL     1      -4.810  51.567 -24.397  1.00  0.00     0.020 C 
ENDROOT
BRANCH   3  24
HETATM   24  O1  UNL     1      -4.966  48.433 -22.221  1.00  0.00    -0.377 OA
HETATM   25  H2  UNL     1      -5.383  48.862 -21.458  1.00  0.00     0.211 HD
ENDBRANCH   3  24
BRANCH  13  26
HETATM   26  O2  UNL     1      -0.577  51.143 -15.353  1.00  0.00    -0.271 OA
BRANCH  26  27
HETATM   27  C13 UNL     1      -0.786  50.786 -13.991  1.00  0.00     0.303 C 
BRANCH  27  28
HETATM   28  C14 UNL     1      -2.158  51.235 -13.508  1.00  0.00     0.244 C 
HETATM   29  O3  UNL     1      -3.108  51.399 -14.272  1.00  0.00    -0.271 OA
HETATM   30  N2  UNL     1      -2.249  51.395 -12.140  1.00  0.00    -0.346 N 
HETATM   31  H16 UNL     1      -1.347  51.539 -11.685  1.00  0.00     0.163 HD
BRANCH  30  32
HETATM   32  C15 UNL     1      -3.405  52.072 -11.558  1.00  0.00     0.180 C 
BRANCH  32  33
HETATM   33  C16 UNL     1      -2.895  53.384 -10.919  1.00  0.00     0.241 C 
HETATM   34  O4  UNL     1      -3.653  54.271 -10.524  1.00  0.00    -0.271 OA
HETATM   35  N3  UNL     1      -1.523  53.488 -10.829  1.00  0.00    -0.353 N 
HETATM   36  H18 UNL     1      -0.945  52.731 -11.170  1.00  0.00     0.163 HD
BRANCH  35  37
HETATM   37  C17 UNL     1      -0.872  54.635 -10.181  1.00  0.00     0.103 C 
BRANCH  37  38
HETATM   38  C18 UNL     1       0.543  54.865 -10.753  1.00  0.00     0.096 C 
BRANCH  38  39
HETATM   39  S1  UNL     1       1.450  53.307 -11.020  1.00  0.00    -0.180 SA
HETATM   40  H22 UNL     1       0.547  52.766 -11.861  1.00  0.00     0.101 HD
ENDBRANCH  38  39
ENDBRANCH  37  38
BRANCH  37  41
HETATM   41  C19 UNL     1      -0.808  54.417  -8.660  1.00  0.00     0.136 C 
BRANCH  41  42
HETATM   42  C20 UNL     1      -0.090  55.541  -7.966  1.00  0.00     0.141 C 
HETATM   43  O5  UNL     1      -0.440  56.705  -7.890  1.00  0.00    -0.650 OA
BRANCH  42  44
HETATM   44  O6  UNL     1       1.059  55.128  -7.394  1.00  0.00    -0.776 OA
HETATM   45  H25 UNL     1       1.394  55.914  -6.918  1.00  0.00     0.167 HD
ENDBRANCH  42  44
ENDBRANCH  41  42
ENDBRANCH  37  41
ENDBRANCH  35  37
ENDBRANCH  32  33
BRANCH  32  46
HETATM   46  C21 UNL     1      -4.159  51.156 -10.571  1.00  0.00     0.009 C 
HETATM   47  C22 UNL     1      -3.262  50.725  -9.405  1.00  0.00     0.012 C 
HETATM   48  C23 UNL     1      -4.792  49.924 -11.226  1.00  0.00     0.012 C 
ENDBRANCH  32  46
ENDBRANCH  30  32
ENDBRANCH  27  28
ENDBRANCH  26  27
ENDBRANCH  13  26
TORSDOF 13
ENDMDL
MODEL 5
REMARK minimizedAffinity -7.49754477
REMARK CNNscore 0.208095312
REMARK CNNaffinity 5.56461096
REMARK  13 active torsions:
REMARK  status: ('A' for Active; 'I' for Inactive)
REMARK    1  A    between atoms: C3_3  and  O1_4 
REMARK    2  A    between atoms: N1_14  and  O2_16 
REMARK    3  A    between atoms: O2_16  and  C13_17 
REMARK    4  A    between atoms: C13_17  and  C14_18 
REMARK       I    between atoms: C14_18  and  N2_20 
REMARK    5  A    between atoms: N2_20  and  C15_21 
REMARK    6  A    between atoms: C15_21  and  C16_22 
REMARK    7  A    between atoms: C15_21  and  C21_32 
REMARK       I    between atoms: C16_22  and  N3_24 
REMARK    8  A    between atoms: N3_24  and  C17_25 
REMARK    9  A    between atoms: C17_25  and  C18_26 
REMARK   10  A    between atoms: C17_25  and  C19_28 
REMARK   11  A    between atoms: C18_26  and  S1_27 
REMARK   12  A    between atoms: C19_28  and  C20_29 
REMARK   13  A    between atoms: C20_29  and  O6_31 
ROOT
HETATM    1  C1  UNL     1      -4.615  48.249 -28.377  1.00  0.00     0.015 C 
HETATM    2  C2  UNL     1      -5.715  48.099 -28.834  1.00  0.00    -0.078 C 
HETATM    3  C3  UNL     1      -7.092  47.965 -29.341  1.00  0.00     0.128 C 
HETATM    4  C4  UNL     1      -7.233  48.511 -30.764  1.00  0.00     0.052 C 
HETATM    5  C5  UNL     1      -8.462  47.812 -31.362  1.00  0.00     0.010 C 
HETATM    6  C6  UNL     1      -8.818  46.633 -30.431  1.00  0.00     0.002 C 
HETATM    7  C7  UNL     1     -10.256  46.663 -29.827  1.00  0.00    -0.004 C 
HETATM    8  C8  UNL     1     -10.817  48.029 -29.373  1.00  0.00     0.010 C 
HETATM    9  C9  UNL     1     -12.252  47.939 -28.854  1.00  0.00     0.035 C 
HETATM   10  C10 UNL     1     -12.447  46.854 -27.822  1.00  0.00    -0.069 C 
HETATM   11  C11 UNL     1     -13.103  47.118 -26.681  1.00  0.00     0.030 C 
HETATM   12  C12 UNL     1     -13.445  46.042 -25.713  1.00  0.00     0.032 C 
HETATM   13  N1  UNL     1     -13.907  46.394 -24.546  1.00  0.00    -0.271 N 
ATOM     14  H1  UNL     1     -14.054  47.360 -24.257  1.00  0.00     0.194 HD
HETATM   15  C24 UNL     1     -13.272  44.611 -26.180  1.00  0.00     0.060 C 
HETATM   16  C25 UNL     1     -11.970  44.503 -26.962  1.00  0.00     0.020 C 
HETATM   17  C26 UNL     1     -11.887  45.478 -28.175  1.00  0.00    -0.016 C 
HETATM   18  C27 UNL     1     -12.768  44.867 -29.299  1.00  0.00     0.020 C 
HETATM   19  C28 UNL     1     -10.395  45.611 -28.691  1.00  0.00     0.002 C 
HETATM   20  C29 UNL     1      -9.356  45.960 -27.603  1.00  0.00     0.007 C 
HETATM   21  C30 UNL     1      -7.930  45.817 -28.121  1.00  0.00     0.014 C 
HETATM   22  C31 UNL     1      -7.603  46.500 -29.462  1.00  0.00     0.003 C 
HETATM   23  C32 UNL     1      -6.521  45.608 -30.155  1.00  0.00     0.020 C 
ENDROOT
BRANCH   3  24
HETATM   24  O1  UNL     1      -7.926  48.750 -28.499  1.00  0.00    -0.377 OA
HETATM   25  H2  UNL     1      -7.796  48.448 -27.587  1.00  0.00     0.211 HD
ENDBRANCH   3  24
BRANCH  13  26
HETATM   26  O2  UNL     1     -14.177  45.280 -23.738  1.00  0.00    -0.271 OA
BRANCH  26  27
HETATM   27  C13 UNL     1     -14.062  45.641 -22.366  1.00  0.00     0.303 C 
BRANCH  27  28
HETATM   28  C14 UNL     1     -15.413  46.039 -21.788  1.00  0.00     0.244 C 
HETATM   29  O3  UNL     1     -16.051  47.007 -22.200  1.00  0.00    -0.271 OA
HETATM   30  N2  UNL     1     -15.874  45.194 -20.798  1.00  0.00    -0.346 N 
HETATM   31  H16 UNL     1     -15.135  44.652 -20.349  1.00  0.00     0.163 HD
BRANCH  30  32
HETATM   32  C15 UNL     1     -17.011  45.588 -19.970  1.00  0.00     0.180 C 
BRANCH  32  33
HETATM   33  C16 UNL     1     -18.281  44.995 -20.623  1.00  0.00     0.241 C 
HETATM   34  O4  UNL     1     -19.158  44.424 -19.973  1.00  0.00    -0.271 OA
HETATM   35  N3  UNL     1     -18.355  45.151 -21.991  1.00  0.00    -0.353 N 
HETATM   36  H18 UNL     1     -17.606  45.627 -22.476  1.00  0.00     0.163 HD
BRANCH  35  37
HETATM   37  C17 UNL     1     -19.527  44.713 -22.759  1.00  0.00     0.103 C 
BRANCH  37  38
HETATM   38  C18 UNL     1     -19.965  43.292 -22.343  1.00  0.00     0.096 C 
BRANCH  38  39
HETATM   39  S1  UNL     1     -20.838  42.413 -23.679  1.00  0.00    -0.180 SA
HETATM   40  H22 UNL     1     -19.833  42.490 -24.573  1.00  0.00     0.101 HD
ENDBRANCH  38  39
ENDBRANCH  37  38
BRANCH  37  41
HETATM   41  C19 UNL     1     -19.221  44.761 -24.265  1.00  0.00     0.136 C 
BRANCH  41  42
HETATM   42  C20 UNL     1     -18.842  46.144 -24.715  1.00  0.00     0.141 C 
HETATM   43  O5  UNL     1     -17.719  46.603 -24.823  1.00  0.00    -0.650 OA
BRANCH  42  44
HETATM   44  O6  UNL     1     -19.925  46.893 -25.008  1.00  0.00    -0.776 OA
HETATM   45  H25 UNL     1     -19.557  47.732 -25.353  1.00  0.00     0.167 HD
ENDBRANCH  42  44
ENDBRANCH  41  42
ENDBRANCH  37  41
ENDBRANCH  35  37
ENDBRANCH  32  33
BRANCH  32  46
HETATM   46  C21 UNL     1     -17.069  47.119 -19.781  1.00  0.00     0.009 C 
HETATM   47  C22 UNL     1     -16.065  47.595 -18.726  1.00  0.00     0.012 C 
HETATM   48  C23 UNL     1     -18.468  47.651 -19.449  1.00  0.00     0.012 C 
ENDBRANCH  32  46
ENDBRANCH  30  32
ENDBRANCH  27  28
ENDBRANCH  26  27
ENDBRANCH  13  26
TORSDOF 13
ENDMDL
MODEL 6
REMARK minimizedAffinity -7.29789686
REMARK CNNscore 0.198198706
REMARK CNNaffinity 6.62326431
REMARK  13 active torsions:
REMARK  status: ('A' for Active; 'I' for Inactive)
REMARK    1  A    between atoms: C3_3  and  O1_4 
REMARK    2  A    between atoms: N1_14  and  O2_16 
REMARK    3  A    between atoms: O2_16  and  C13_17 
REMARK    4  A    between atoms: C13_17  and  C14_18 
REMARK       I    between atoms: C14_18  and  N2_20 
REMARK    5  A    between atoms: N2_20  and  C15_21 
REMARK    6  A    between atoms: C15_21  and  C16_22 
REMARK    7  A    between atoms: C15_21  and  C21_32 
REMARK       I    between atoms: C16_22  and  N3_24 
REMARK    8  A    between atoms: N3_24  and  C17_25 
REMARK    9  A    between atoms: C17_25  and  C18_26 
REMARK   10  A    between atoms: C17_25  and  C19_28 
REMARK   11  A    between atoms: C18_26  and  S1_27 
REMARK   12  A    between atoms: C19_28  and  C20_29 
REMARK   13  A    between atoms: C20_29  and  O6_31 
ROOT
HETATM    1  C1  UNL     1      -0.454  55.282 -27.772  1.00  0.00     0.015 C 
HETATM    2  C2  UNL     1      -0.480  54.142 -27.395  1.00  0.00    -0.078 C 
HETATM    3  C3  UNL     1      -0.563  52.728 -26.990  1.00  0.00     0.128 C 
HETATM    4  C4  UNL     1       0.770  52.000 -27.180  1.00  0.00     0.052 C 
HETATM    5  C5  UNL     1       0.731  50.798 -26.225  1.00  0.00     0.010 C 
HETATM    6  C6  UNL     1      -0.448  51.021 -25.254  1.00  0.00     0.002 C 
HETATM    7  C7  UNL     1      -1.538  49.905 -25.252  1.00  0.00    -0.004 C 
HETATM    8  C8  UNL     1      -1.935  49.285 -26.610  1.00  0.00     0.010 C 
HETATM    9  C9  UNL     1      -2.967  48.165 -26.473  1.00  0.00     0.035 C 
HETATM   10  C10 UNL     1      -4.162  48.553 -25.634  1.00  0.00    -0.069 C 
HETATM   11  C11 UNL     1      -5.405  48.295 -26.071  1.00  0.00     0.030 C 
HETATM   12  C12 UNL     1      -6.595  48.525 -25.209  1.00  0.00     0.032 C 
HETATM   13  N1  UNL     1      -7.773  48.438 -25.760  1.00  0.00    -0.271 N 
ATOM     14  H1  UNL     1      -7.931  48.218 -26.743  1.00  0.00     0.194 HD
HETATM   15  C24 UNL     1      -6.344  48.796 -23.740  1.00  0.00     0.060 C 
HETATM   16  C25 UNL     1      -5.157  49.741 -23.611  1.00  0.00     0.020 C 
HETATM   17  C26 UNL     1      -3.857  49.209 -24.289  1.00  0.00    -0.016 C 
HETATM   18  C27 UNL     1      -3.271  48.127 -23.341  1.00  0.00     0.020 C 
HETATM   19  C28 UNL     1      -2.801  50.373 -24.475  1.00  0.00     0.002 C 
HETATM   20  C29 UNL     1      -3.339  51.638 -25.180  1.00  0.00     0.007 C 
HETATM   21  C30 UNL     1      -2.351  52.794 -25.092  1.00  0.00     0.014 C 
HETATM   22  C31 UNL     1      -0.892  52.498 -25.486  1.00  0.00     0.003 C 
HETATM   23  C32 UNL     1       0.000  53.422 -24.594  1.00  0.00     0.020 C 
ENDROOT
BRANCH   3  24
HETATM   24  O1  UNL     1      -1.515  52.104 -27.843  1.00  0.00    -0.377 OA
HETATM   25  H2  UNL     1      -2.346  52.598 -27.772  1.00  0.00     0.211 HD
ENDBRANCH   3  24
BRANCH  13  26
HETATM   26  O2  UNL     1      -8.797  48.684 -24.834  1.00  0.00    -0.271 OA
BRANCH  26  27
HETATM   27  C13 UNL     1      -9.675  47.565 -24.777  1.00  0.00     0.303 C 
BRANCH  27  28
HETATM   28  C14 UNL     1     -10.646  47.568 -25.950  1.00  0.00     0.244 C 
HETATM   29  O3  UNL     1     -11.461  48.471 -26.134  1.00  0.00    -0.271 OA
HETATM   30  N2  UNL     1     -10.497  46.496 -26.807  1.00  0.00    -0.346 N 
HETATM   31  H16 UNL     1     -10.033  45.694 -26.380  1.00  0.00     0.163 HD
BRANCH  30  32
HETATM   32  C15 UNL     1     -11.516  46.218 -27.816  1.00  0.00     0.180 C 
BRANCH  32  33
HETATM   33  C16 UNL     1     -11.671  44.682 -27.899  1.00  0.00     0.241 C 
HETATM   34  O4  UNL     1     -12.766  44.119 -27.838  1.00  0.00    -0.271 OA
HETATM   35  N3  UNL     1     -10.489  43.988 -28.042  1.00  0.00    -0.353 N 
HETATM   36  H18 UNL     1      -9.617  44.498 -28.085  1.00  0.00     0.163 HD
BRANCH  35  37
HETATM   37  C17 UNL     1     -10.461  42.529 -28.211  1.00  0.00     0.103 C 
BRANCH  37  38
HETATM   38  C18 UNL     1     -11.260  42.099 -29.460  1.00  0.00     0.096 C 
BRANCH  38  39
HETATM   39  S1  UNL     1     -11.592  40.307 -29.491  1.00  0.00    -0.180 SA
HETATM   40  H22 UNL     1     -12.253  40.270 -28.317  1.00  0.00     0.101 HD
ENDBRANCH  38  39
ENDBRANCH  37  38
BRANCH  37  41
HETATM   41  C19 UNL     1     -11.018  41.840 -26.954  1.00  0.00     0.136 C 
BRANCH  41  42
HETATM   42  C20 UNL     1      -9.980  41.728 -25.872  1.00  0.00     0.141 C 
HETATM   43  O5  UNL     1      -9.430  40.715 -25.479  1.00  0.00    -0.650 OA
BRANCH  42  44
HETATM   44  O6  UNL     1      -9.685  42.927 -25.329  1.00  0.00    -0.776 OA
HETATM   45  H25 UNL     1      -8.958  42.741 -24.702  1.00  0.00     0.167 HD
ENDBRANCH  42  44
ENDBRANCH  41  42
ENDBRANCH  37  41
ENDBRANCH  35  37
ENDBRANCH  32  33
BRANCH  32  46
HETATM   46  C21 UNL     1     -11.170  46.879 -29.167  1.00  0.00     0.009 C 
HETATM   47  C22 UNL     1      -9.715  47.358 -29.203  1.00  0.00     0.012 C 
HETATM   48  C23 UNL     1     -12.108  48.026 -29.556  1.00  0.00     0.012 C 
ENDBRANCH  32  46
ENDBRANCH  30  32
ENDBRANCH  27  28
ENDBRANCH  26  27
ENDBRANCH  13  26
TORSDOF 13
ENDMDL
MODEL 7
REMARK minimizedAffinity -7.79959059
REMARK CNNscore 0.187390566
REMARK CNNaffinity 6.49756384
REMARK  13 active torsions:
REMARK  status: ('A' for Active; 'I' for Inactive)
REMARK    1  A    between atoms: C3_3  and  O1_4 
REMARK    2  A    between atoms: N1_14  and  O2_16 
REMARK    3  A    between atoms: O2_16  and  C13_17 
REMARK    4  A    between atoms: C13_17  and  C14_18 
REMARK       I    between atoms: C14_18  and  N2_20 
REMARK    5  A    between atoms: N2_20  and  C15_21 
REMARK    6  A    between atoms: C15_21  and  C16_22 
REMARK    7  A    between atoms: C15_21  and  C21_32 
REMARK       I    between atoms: C16_22  and  N3_24 
REMARK    8  A    between atoms: N3_24  and  C17_25 
REMARK    9  A    between atoms: C17_25  and  C18_26 
REMARK   10  A    between atoms: C17_25  and  C19_28 
REMARK   11  A    between atoms: C18_26  and  S1_27 
REMARK   12  A    between atoms: C19_28  and  C20_29 
REMARK   13  A    between atoms: C20_29  and  O6_31 
ROOT
HETATM    1  C1  UNL     1      -0.431  55.351 -27.791  1.00  0.00     0.015 C 
HETATM    2  C2  UNL     1      -0.442  54.217 -27.396  1.00  0.00    -0.078 C 
HETATM    3  C3  UNL     1      -0.502  52.808 -26.970  1.00  0.00     0.128 C 
HETATM    4  C4  UNL     1       0.860  52.118 -27.081  1.00  0.00     0.052 C 
HETATM    5  C5  UNL     1       0.810  50.932 -26.108  1.00  0.00     0.010 C 
HETATM    6  C6  UNL     1      -0.422  51.135 -25.200  1.00  0.00     0.002 C 
HETATM    7  C7  UNL     1      -1.477  49.985 -25.231  1.00  0.00    -0.004 C 
HETATM    8  C8  UNL     1      -1.786  49.331 -26.596  1.00  0.00     0.010 C 
HETATM    9  C9  UNL     1      -2.790  48.182 -26.490  1.00  0.00     0.035 C 
HETATM   10  C10 UNL     1      -4.036  48.546 -25.718  1.00  0.00    -0.069 C 
HETATM   11  C11 UNL     1      -5.247  48.243 -26.212  1.00  0.00     0.030 C 
HETATM   12  C12 UNL     1      -6.485  48.450 -25.414  1.00  0.00     0.032 C 
HETATM   13  N1  UNL     1      -7.631  48.317 -26.020  1.00  0.00    -0.271 N 
ATOM     14  H1  UNL     1      -7.733  48.076 -27.006  1.00  0.00     0.194 HD
HETATM   15  C24 UNL     1      -6.316  48.753 -23.939  1.00  0.00     0.060 C 
HETATM   16  C25 UNL     1      -5.166  49.736 -23.769  1.00  0.00     0.020 C 
HETATM   17  C26 UNL     1      -3.819  49.233 -24.372  1.00  0.00    -0.016 C 
HETATM   18  C27 UNL     1      -3.248  48.186 -23.377  1.00  0.00     0.020 C 
HETATM   19  C28 UNL     1      -2.790  50.427 -24.526  1.00  0.00     0.002 C 
HETATM   20  C29 UNL     1      -3.330  51.662 -25.280  1.00  0.00     0.007 C 
HETATM   21  C30 UNL     1      -2.383  52.850 -25.164  1.00  0.00     0.014 C 
HETATM   22  C31 UNL     1      -0.898  52.593 -25.481  1.00  0.00     0.003 C 
HETATM   23  C32 UNL     1      -0.080  53.559 -24.562  1.00  0.00     0.020 C 
ENDROOT
BRANCH   3  24
HETATM   24  O1  UNL     1      -1.390  52.141 -27.857  1.00  0.00    -0.377 OA
HETATM   25  H2  UNL     1      -2.239  52.610 -27.837  1.00  0.00     0.211 HD
ENDBRANCH   3  24
BRANCH  13  26
HETATM   26  O2  UNL     1      -8.707  48.547 -25.151  1.00  0.00    -0.271 OA
BRANCH  26  27
HETATM   27  C13 UNL     1      -9.791  49.128 -25.868  1.00  0.00     0.303 C 
BRANCH  27  28
HETATM   28  C14 UNL     1     -10.836  48.082 -26.228  1.00  0.00     0.244 C 
HETATM   29  O3  UNL     1     -11.016  47.066 -25.557  1.00  0.00    -0.271 OA
HETATM   30  N2  UNL     1     -11.590  48.398 -27.341  1.00  0.00    -0.346 N 
HETATM   31  H16 UNL     1     -11.139  49.073 -27.960  1.00  0.00     0.163 HD
BRANCH  30  32
HETATM   32  C15 UNL     1     -12.439  47.384 -27.962  1.00  0.00     0.180 C 
BRANCH  32  33
HETATM   33  C16 UNL     1     -13.504  46.976 -26.920  1.00  0.00     0.241 C 
HETATM   34  O4  UNL     1     -13.651  47.570 -25.850  1.00  0.00    -0.271 OA
HETATM   35  N3  UNL     1     -14.277  45.892 -27.277  1.00  0.00    -0.353 N 
HETATM   36  H18 UNL     1     -14.115  45.439 -28.166  1.00  0.00     0.163 HD
BRANCH  35  37
HETATM   37  C17 UNL     1     -15.384  45.418 -26.436  1.00  0.00     0.103 C 
BRANCH  37  38
HETATM   38  C18 UNL     1     -15.003  44.116 -25.698  1.00  0.00     0.096 C 
BRANCH  38  39
HETATM   39  S1  UNL     1     -16.453  43.258 -25.004  1.00  0.00    -0.180 SA
HETATM   40  H22 UNL     1     -17.100  43.112 -26.177  1.00  0.00     0.101 HD
ENDBRANCH  38  39
ENDBRANCH  37  38
BRANCH  37  41
HETATM   41  C19 UNL     1     -16.643  45.200 -27.292  1.00  0.00     0.136 C 
BRANCH  41  42
HETATM   42  C20 UNL     1     -16.340  44.424 -28.543  1.00  0.00     0.141 C 
HETATM   43  O5  UNL     1     -17.136  43.856 -29.270  1.00  0.00    -0.650 OA
BRANCH  42  44
HETATM   44  O6  UNL     1     -15.020  44.402 -28.816  1.00  0.00    -0.776 OA
HETATM   45  H25 UNL     1     -14.954  43.941 -29.676  1.00  0.00     0.167 HD
ENDBRANCH  42  44
ENDBRANCH  41  42
ENDBRANCH  37  41
ENDBRANCH  35  37
ENDBRANCH  32  33
BRANCH  32  46
HETATM   46  C21 UNL     1     -11.605  46.198 -28.493  1.00  0.00     0.009 C 
HETATM   47  C22 UNL     1     -11.440  45.106 -27.430  1.00  0.00     0.012 C 
HETATM   48  C23 UNL     1     -10.234  46.600 -29.047  1.00  0.00     0.012 C 
ENDBRANCH  32  46
ENDBRANCH  30  32
ENDBRANCH  27  28
ENDBRANCH  26  27
ENDBRANCH  13  26
TORSDOF 13
ENDMDL
MODEL 8
REMARK minimizedAffinity -7.35583639
REMARK CNNscore 0.184924781
REMARK CNNaffinity 5.70313215
REMARK  13 active torsions:
REMARK  status: ('A' for Active; 'I' for Inactive)
REMARK    1  A    between atoms: C3_3  and  O1_4 
REMARK    2  A    between atoms: N1_14  and  O2_16 
REMARK    3  A    between atoms: O2_16  and  C13_17 
REMARK    4  A    between atoms: C13_17  and  C14_18 
REMARK       I    between atoms: C14_18  and  N2_20 
REMARK    5  A    between atoms: N2_20  and  C15_21 
REMARK    6  A    between atoms: C15_21  and  C16_22 
REMARK    7  A    between atoms: C15_21  and  C21_32 
REMARK       I    between atoms: C16_22  and  N3_24 
REMARK    8  A    between atoms: N3_24  and  C17_25 
REMARK    9  A    between atoms: C17_25  and  C18_26 
REMARK   10  A    between atoms: C17_25  and  C19_28 
REMARK   11  A    between atoms: C18_26  and  S1_27 
REMARK   12  A    between atoms: C19_28  and  C20_29 
REMARK   13  A    between atoms: C20_29  and  O6_31 
ROOT
HETATM    1  C1  UNL     1     -17.446  42.555 -24.047  1.00  0.00     0.015 C 
HETATM    2  C2  UNL     1     -16.899  42.954 -25.038  1.00  0.00    -0.078 C 
HETATM    3  C3  UNL     1     -16.164  43.404 -26.233  1.00  0.00     0.128 C 
HETATM    4  C4  UNL     1     -16.773  42.848 -27.523  1.00  0.00     0.052 C 
HETATM    5  C5  UNL     1     -16.333  43.804 -28.640  1.00  0.00     0.010 C 
HETATM    6  C6  UNL     1     -15.775  45.075 -27.964  1.00  0.00     0.002 C 
HETATM    7  C7  UNL     1     -14.298  45.431 -28.319  1.00  0.00    -0.004 C 
HETATM    8  C8  UNL     1     -13.286  44.270 -28.435  1.00  0.00     0.010 C 
HETATM    9  C9  UNL     1     -11.888  44.737 -28.842  1.00  0.00     0.035 C 
HETATM   10  C10 UNL     1     -11.373  45.882 -28.002  1.00  0.00    -0.069 C 
HETATM   11  C11 UNL     1     -10.130  45.840 -27.495  1.00  0.00     0.030 C 
HETATM   12  C12 UNL     1      -9.538  47.009 -26.793  1.00  0.00     0.032 C 
HETATM   13  N1  UNL     1      -8.410  46.835 -26.162  1.00  0.00    -0.271 N 
ATOM     14  H1  UNL     1      -7.906  45.949 -26.125  1.00  0.00     0.194 HD
HETATM   15  C24 UNL     1     -10.271  48.329 -26.906  1.00  0.00     0.060 C 
HETATM   16  C25 UNL     1     -11.766  48.075 -26.765  1.00  0.00     0.020 C 
HETATM   17  C26 UNL     1     -12.327  47.057 -27.804  1.00  0.00    -0.016 C 
HETATM   18  C27 UNL     1     -12.448  47.818 -29.153  1.00  0.00     0.020 C 
HETATM   19  C28 UNL     1     -13.756  46.534 -27.366  1.00  0.00     0.002 C 
HETATM   20  C29 UNL     1     -13.838  45.986 -25.925  1.00  0.00     0.007 C 
HETATM   21  C30 UNL     1     -15.280  45.745 -25.496  1.00  0.00     0.014 C 
HETATM   22  C31 UNL     1     -16.172  44.944 -26.462  1.00  0.00     0.003 C 
HETATM   23  C32 UNL     1     -17.621  45.506 -26.289  1.00  0.00     0.020 C 
ENDROOT
BRANCH   3  24
HETATM   24  O1  UNL     1     -14.843  42.890 -26.130  1.00  0.00    -0.377 OA
HETATM   25  H2  UNL     1     -14.472  43.190 -25.285  1.00  0.00     0.211 HD
ENDBRANCH   3  24
BRANCH  13  26
HETATM   26  O2  UNL     1      -7.975  48.015 -25.543  1.00  0.00    -0.271 OA
BRANCH  26  27
HETATM   27  C13 UNL     1      -6.684  47.816 -24.978  1.00  0.00     0.303 C 
BRANCH  27  28
HETATM   28  C14 UNL     1      -6.288  48.983 -24.084  1.00  0.00     0.244 C 
HETATM   29  O3  UNL     1      -7.106  49.796 -23.655  1.00  0.00    -0.271 OA
HETATM   30  N2  UNL     1      -4.946  49.018 -23.764  1.00  0.00    -0.346 N 
HETATM   31  H16 UNL     1      -4.357  48.503 -24.419  1.00  0.00     0.163 HD
BRANCH  30  32
HETATM   32  C15 UNL     1      -4.372  50.210 -23.145  1.00  0.00     0.180 C 
BRANCH  32  33
HETATM   33  C16 UNL     1      -3.112  50.587 -23.958  1.00  0.00     0.241 C 
HETATM   34  O4  UNL     1      -2.230  49.771 -24.235  1.00  0.00    -0.271 OA
HETATM   35  N3  UNL     1      -3.047  51.908 -24.347  1.00  0.00    -0.353 N 
HETATM   36  H18 UNL     1      -3.797  52.536 -24.092  1.00  0.00     0.163 HD
BRANCH  35  37
HETATM   37  C17 UNL     1      -1.956  52.417 -25.188  1.00  0.00     0.103 C 
BRANCH  37  38
HETATM   38  C18 UNL     1      -1.557  51.385 -26.264  1.00  0.00     0.096 C 
BRANCH  38  39
HETATM   39  S1  UNL     1      -2.785  51.268 -27.606  1.00  0.00    -0.180 SA
HETATM   40  H22 UNL     1      -2.716  52.564 -27.967  1.00  0.00     0.101 HD
ENDBRANCH  38  39
ENDBRANCH  37  38
BRANCH  37  41
HETATM   41  C19 UNL     1      -0.742  52.780 -24.316  1.00  0.00     0.136 C 
BRANCH  41  42
HETATM   42  C20 UNL     1       0.240  53.642 -25.059  1.00  0.00     0.141 C 
HETATM   43  O5  UNL     1       0.133  54.827 -25.318  1.00  0.00    -0.650 OA
BRANCH  42  44
HETATM   44  O6  UNL     1       1.329  52.948 -25.447  1.00  0.00    -0.776 OA
HETATM   45  H25 UNL     1       1.919  53.618 -25.847  1.00  0.00     0.167 HD
ENDBRANCH  42  44
ENDBRANCH  41  42
ENDBRANCH  37  41
ENDBRANCH  35  37
ENDBRANCH  32  33
BRANCH  32  46
HETATM   46  C21 UNL     1      -4.096  49.990 -21.642  1.00  0.00     0.009 C 
HETATM   47  C22 UNL     1      -4.163  51.305 -20.859  1.00  0.00     0.012 C 
HETATM   48  C23 UNL     1      -2.772  49.275 -21.352  1.00  0.00     0.012 C 
ENDBRANCH  32  46
ENDBRANCH  30  32
ENDBRANCH  27  28
ENDBRANCH  26  27
ENDBRANCH  13  26
TORSDOF 13
ENDMDL
MODEL 9
REMARK minimizedAffinity -7.3506031
REMARK CNNscore 0.183783919
REMARK CNNaffinity 4.71097279
REMARK  13 active torsions:
REMARK  status: ('A' for Active; 'I' for Inactive)
REMARK    1  A    between atoms: C3_3  and  O1_4 
REMARK    2  A    between atoms: N1_14  and  O2_16 
REMARK    3  A    between atoms: O2_16  and  C13_17 
REMARK    4  A    between atoms: C13_17  and  C14_18 
REMARK       I    between atoms: C14_18  and  N2_20 
REMARK    5  A    between atoms: N2_20  and  C15_21 
REMARK    6  A    between atoms: C15_21  and  C16_22 
REMARK    7  A    between atoms: C15_21  and  C21_32 
REMARK       I    between atoms: C16_22  and  N3_24 
REMARK    8  A    between atoms: N3_24  and  C17_25 
REMARK    9  A    between atoms: C17_25  and  C18_26 
REMARK   10  A    between atoms: C17_25  and  C19_28 
REMARK   11  A    between atoms: C18_26  and  S1_27 
REMARK   12  A    between atoms: C19_28  and  C20_29 
REMARK   13  A    between atoms: C20_29  and  O6_31 
ROOT
HETATM    1  C1  UNL     1     -19.437  39.031 -20.635  1.00  0.00     0.015 C 
HETATM    2  C2  UNL     1     -19.751  40.017 -21.245  1.00  0.00    -0.078 C 
HETATM    3  C3  UNL     1     -20.102  41.195 -22.056  1.00  0.00     0.128 C 
HETATM    4  C4  UNL     1     -21.615  41.329 -22.246  1.00  0.00     0.052 C 
HETATM    5  C5  UNL     1     -21.869  42.811 -22.559  1.00  0.00     0.010 C 
HETATM    6  C6  UNL     1     -20.576  43.581 -22.215  1.00  0.00     0.002 C 
HETATM    7  C7  UNL     1     -19.934  44.378 -23.393  1.00  0.00    -0.004 C 
HETATM    8  C8  UNL     1     -19.936  43.720 -24.791  1.00  0.00     0.010 C 
HETATM    9  C9  UNL     1     -19.333  44.619 -25.871  1.00  0.00     0.035 C 
HETATM   10  C10 UNL     1     -17.986  45.188 -25.492  1.00  0.00    -0.069 C 
HETATM   11  C11 UNL     1     -16.965  45.138 -26.362  1.00  0.00     0.030 C 
HETATM   12  C12 UNL     1     -15.672  45.820 -26.083  1.00  0.00     0.032 C 
HETATM   13  N1  UNL     1     -14.667  45.571 -26.875  1.00  0.00    -0.271 N 
ATOM     14  H1  UNL     1     -14.713  44.943 -27.677  1.00  0.00     0.194 HD
HETATM   15  C24 UNL     1     -15.638  46.791 -24.921  1.00  0.00     0.060 C 
HETATM   16  C25 UNL     1     -16.413  46.190 -23.756  1.00  0.00     0.020 C 
HETATM   17  C26 UNL     1     -17.887  45.823 -24.107  1.00  0.00    -0.016 C 
HETATM   18  C27 UNL     1     -18.685  47.156 -24.125  1.00  0.00     0.020 C 
HETATM   19  C28 UNL     1     -18.504  44.856 -23.016  1.00  0.00     0.002 C 
HETATM   20  C29 UNL     1     -17.660  43.601 -22.703  1.00  0.00     0.007 C 
HETATM   21  C30 UNL     1     -18.182  42.864 -21.476  1.00  0.00     0.014 C 
HETATM   22  C31 UNL     1     -19.692  42.561 -21.433  1.00  0.00     0.003 C 
HETATM   23  C32 UNL     1     -20.106  42.611 -19.926  1.00  0.00     0.020 C 
ENDROOT
BRANCH   3  24
HETATM   24  O1  UNL     1     -19.526  41.004 -23.342  1.00  0.00    -0.377 OA
HETATM   25  H2  UNL     1     -18.575  40.859 -23.223  1.00  0.00     0.211 HD
ENDBRANCH   3  24
BRANCH  13  26
HETATM   26  O2  UNL     1     -13.517  46.273 -26.489  1.00  0.00    -0.271 OA
BRANCH  26  27
HETATM   27  C13 UNL     1     -12.992  46.989 -27.602  1.00  0.00     0.303 C 
BRANCH  27  28
HETATM   28  C14 UNL     1     -11.789  47.829 -27.198  1.00  0.00     0.244 C 
HETATM   29  O3  UNL     1     -11.900  48.945 -26.692  1.00  0.00    -0.271 OA
HETATM   30  N2  UNL     1     -10.573  47.209 -27.406  1.00  0.00    -0.346 N 
HETATM   31  H16 UNL     1     -10.610  46.461 -28.099  1.00  0.00     0.163 HD
BRANCH  30  32
HETATM   32  C15 UNL     1      -9.334  47.979 -27.321  1.00  0.00     0.180 C 
BRANCH  32  33
HETATM   33  C16 UNL     1      -8.518  47.676 -28.599  1.00  0.00     0.241 C 
HETATM   34  O4  UNL     1      -8.316  46.530 -29.003  1.00  0.00    -0.271 OA
HETATM   35  N3  UNL     1      -8.031  48.789 -29.251  1.00  0.00    -0.353 N 
HETATM   36  H18 UNL     1      -8.225  49.707 -28.876  1.00  0.00     0.163 HD
BRANCH  35  37
HETATM   37  C17 UNL     1      -7.298  48.685 -30.520  1.00  0.00     0.103 C 
BRANCH  37  38
HETATM   38  C18 UNL     1      -8.209  48.146 -31.644  1.00  0.00     0.096 C 
BRANCH  38  39
HETATM   39  S1  UNL     1      -7.268  47.642 -33.122  1.00  0.00    -0.180 SA
HETATM   40  H22 UNL     1      -6.498  46.735 -32.490  1.00  0.00     0.101 HD
ENDBRANCH  38  39
ENDBRANCH  37  38
BRANCH  37  41
HETATM   41  C19 UNL     1      -6.066  47.781 -30.348  1.00  0.00     0.136 C 
BRANCH  41  42
HETATM   42  C20 UNL     1      -4.916  48.519 -29.722  1.00  0.00     0.141 C 
HETATM   43  O5  UNL     1      -4.317  48.224 -28.703  1.00  0.00    -0.650 OA
BRANCH  42  44
HETATM   44  O6  UNL     1      -4.575  49.615 -30.428  1.00  0.00    -0.776 OA
HETATM   45  H25 UNL     1      -3.783  49.965 -29.974  1.00  0.00     0.167 HD
ENDBRANCH  42  44
ENDBRANCH  41  42
ENDBRANCH  37  41
ENDBRANCH  35  37
ENDBRANCH  32  33
BRANCH  32  46
HETATM   46  C21 UNL     1      -8.571  47.678 -26.014  1.00  0.00     0.009 C 
HETATM   47  C22 UNL     1      -8.758  48.797 -24.982  1.00  0.00     0.012 C 
HETATM   48  C23 UNL     1      -7.078  47.399 -26.216  1.00  0.00     0.012 C 
ENDBRANCH  32  46
ENDBRANCH  30  32
ENDBRANCH  27  28
ENDBRANCH  26  27
ENDBRANCH  13  26
TORSDOF 13
ENDMDL
