MODEL 1
REMARK minimizedAffinity -9.9000864
REMARK  9 active torsions:
REMARK  status: ('A' for Active; 'I' for Inactive)
REMARK    1  A    between atoms: C2_2  and  C3_3 
REMARK    2  A    between atoms: C2_2  and  C9_12 
REMARK    3  A    between atoms: C3_3  and  C4_4 
REMARK    4  A    between atoms: C4_4  and  O1_5 
REMARK    5  A    between atoms: C4_4  and  C5_6 
REMARK    6  A    between atoms: C5_6  and  O2_7 
REMARK    7  A    between atoms: C5_6  and  C6_8 
REMARK    8  A    between atoms: C6_8  and  O3_11 
REMARK    9  A    between atoms: C15_18  and  O4_19 
ROOT
HETATM    1  C9  UNL     1      -0.663  49.530 -18.547  1.00  0.00    -0.002 C 
HETATM    2  C10 UNL     1      -1.958  48.668 -18.432  1.00  0.00     0.006 C 
HETATM    3  C11 UNL     1      -2.854  48.996 -19.641  1.00  0.00     0.011 C 
HETATM    4  C12 UNL     1      -1.944  49.765 -20.607  1.00  0.00    -0.030 C 
HETATM    5  C13 UNL     1      -1.123  48.692 -21.391  1.00  0.00     0.016 C 
HETATM    6  C14 UNL     1      -2.662  50.720 -21.612  1.00  0.00     0.032 C 
HETATM    7  C15 UNL     1      -3.732  50.047 -22.502  1.00  0.00     0.124 C 
HETATM    8  C16 UNL     1      -3.268  49.427 -23.816  1.00  0.00     0.038 C 
HETATM    9  C17 UNL     1      -2.094  50.081 -24.568  1.00  0.00     0.012 C 
HETATM   10  C18 UNL     1      -2.379  50.443 -26.070  1.00  0.00     0.018 C 
HETATM   11  C19 UNL     1      -2.584  49.163 -26.902  1.00  0.00     0.023 C 
HETATM   12  C20 UNL     1      -3.595  51.364 -26.264  1.00  0.00     0.023 C 
HETATM   13  C21 UNL     1      -1.141  51.157 -26.649  1.00  0.00     0.135 C 
HETATM   14  O5  UNL     1      -1.189  51.809 -27.697  1.00  0.00    -0.297 OA
HETATM   15  C22 UNL     1       0.166  50.966 -25.918  1.00  0.00     0.080 C 
HETATM   16  C23 UNL     1       0.041  51.449 -24.473  1.00  0.00     0.018 C 
HETATM   17  C24 UNL     1      -1.350  51.220 -23.877  1.00  0.00    -0.026 A 
HETATM   18  C25 UNL     1      -2.109  52.462 -23.468  1.00  0.00     0.021 A 
HETATM   19  C26 UNL     1      -1.602  51.532 -22.389  1.00  0.00    -0.025 A 
HETATM   20  C27 UNL     1      -0.512  52.172 -21.516  1.00  0.00     0.011 C 
HETATM   21  C28 UNL     1       0.047  51.277 -20.400  1.00  0.00     0.011 C 
HETATM   22  C29 UNL     1      -1.080  50.617 -19.588  1.00  0.00    -0.032 C 
HETATM   23  C30 UNL     1      -1.882  51.732 -18.842  1.00  0.00     0.016 C 
ENDROOT
BRANCH   1  24
HETATM   24  C2  UNL     1      -0.110  49.945 -17.144  1.00  0.00    -0.011 C 
HETATM   25  C1  UNL     1      -0.981  49.414 -16.001  1.00  0.00     0.010 C 
BRANCH  24  26
HETATM   26  C3  UNL     1       0.013  51.494 -17.061  1.00  0.00     0.039 C 
BRANCH  26  27
HETATM   27  C4  UNL     1       1.448  52.050 -16.945  1.00  0.00     0.150 C 
BRANCH  27  28
HETATM   28  O1  UNL     1       1.662  53.053 -17.942  1.00  0.00    -0.393 OA
HETATM   29  H8  UNL     1       0.950  53.713 -17.857  1.00  0.00     0.210 HD
ENDBRANCH  27  28
BRANCH  27  30
HETATM   30  C5  UNL     1       1.727  52.623 -15.525  1.00  0.00     0.180 C 
BRANCH  30  31
HETATM   31  O2  UNL     1       0.529  52.595 -14.743  1.00  0.00    -0.390 OA
HETATM   32  H10 UNL     1      -0.008  53.367 -14.993  1.00  0.00     0.210 HD
ENDBRANCH  30  31
BRANCH  30  33
HETATM   33  C6  UNL     1       2.885  51.897 -14.767  1.00  0.00     0.079 C 
HETATM   34  C7  UNL     1       4.200  51.887 -15.552  1.00  0.00     0.048 C 
HETATM   35  C8  UNL     1       2.486  50.448 -14.453  1.00  0.00     0.048 C 
BRANCH  33  36
HETATM   36  O3  UNL     1       3.116  52.535 -13.502  1.00  0.00    -0.388 OA
HETATM   37  H17 UNL     1       3.340  53.469 -13.695  1.00  0.00     0.210 HD
ENDBRANCH  33  36
ENDBRANCH  30  33
ENDBRANCH  27  30
ENDBRANCH  26  27
ENDBRANCH  24  26
ENDBRANCH   1  24
BRANCH   7  38
HETATM   38  O4  UNL     1      -4.761  51.007 -22.798  1.00  0.00    -0.395 OA
HETATM   39  H28 UNL     1      -5.506  50.529 -23.202  1.00  0.00     0.210 HD
ENDBRANCH   7  38
TORSDOF 9
ENDMDL
MODEL 2
REMARK minimizedAffinity -9.77065372
REMARK  9 active torsions:
REMARK  status: ('A' for Active; 'I' for Inactive)
REMARK    1  A    between atoms: C2_2  and  C3_3 
REMARK    2  A    between atoms: C2_2  and  C9_12 
REMARK    3  A    between atoms: C3_3  and  C4_4 
REMARK    4  A    between atoms: C4_4  and  O1_5 
REMARK    5  A    between atoms: C4_4  and  C5_6 
REMARK    6  A    between atoms: C5_6  and  O2_7 
REMARK    7  A    between atoms: C5_6  and  C6_8 
REMARK    8  A    between atoms: C6_8  and  O3_11 
REMARK    9  A    between atoms: C15_18  and  O4_19 
ROOT
HETATM    1  C9  UNL     1      -3.623  51.735 -24.176  1.00  0.00    -0.002 C 
HETATM    2  C10 UNL     1      -5.109  51.320 -23.939  1.00  0.00     0.006 C 
HETATM    3  C11 UNL     1      -5.142  50.338 -22.753  1.00  0.00     0.011 C 
HETATM    4  C12 UNL     1      -3.757  50.457 -22.104  1.00  0.00    -0.030 C 
HETATM    5  C13 UNL     1      -3.808  51.716 -21.181  1.00  0.00     0.016 C 
HETATM    6  C14 UNL     1      -3.275  49.219 -21.285  1.00  0.00     0.032 C 
HETATM    7  C15 UNL     1      -4.225  48.777 -20.148  1.00  0.00     0.124 C 
HETATM    8  C16 UNL     1      -4.043  49.432 -18.783  1.00  0.00     0.038 C 
HETATM    9  C17 UNL     1      -2.626  49.842 -18.342  1.00  0.00     0.012 C 
HETATM   10  C18 UNL     1      -2.169  49.280 -16.949  1.00  0.00     0.018 C 
HETATM   11  C19 UNL     1      -3.016  49.891 -15.817  1.00  0.00     0.023 C 
HETATM   12  C20 UNL     1      -2.235  47.746 -16.849  1.00  0.00     0.023 C 
HETATM   13  C21 UNL     1      -0.711  49.713 -16.696  1.00  0.00     0.135 C 
HETATM   14  O5  UNL     1      -0.005  49.176 -15.836  1.00  0.00    -0.297 OA
HETATM   15  C22 UNL     1      -0.193  50.882 -17.498  1.00  0.00     0.080 C 
HETATM   16  C23 UNL     1      -0.288  50.583 -18.994  1.00  0.00     0.018 C 
HETATM   17  C24 UNL     1      -1.499  49.721 -19.363  1.00  0.00    -0.026 A 
HETATM   18  C25 UNL     1      -1.191  48.372 -19.971  1.00  0.00     0.021 A 
HETATM   19  C26 UNL     1      -1.810  49.439 -20.845  1.00  0.00    -0.025 A 
HETATM   20  C27 UNL     1      -0.866  49.917 -21.960  1.00  0.00     0.011 C 
HETATM   21  C28 UNL     1      -1.436  51.004 -22.883  1.00  0.00     0.011 C 
HETATM   22  C29 UNL     1      -2.843  50.637 -23.386  1.00  0.00    -0.032 C 
HETATM   23  C30 UNL     1      -2.740  49.363 -24.285  1.00  0.00     0.016 C 
ENDROOT
BRANCH   1  24
HETATM   24  C2  UNL     1      -3.322  51.991 -25.688  1.00  0.00    -0.011 C 
HETATM   25  C1  UNL     1      -3.382  50.702 -26.515  1.00  0.00     0.010 C 
BRANCH  24  26
HETATM   26  C3  UNL     1      -1.932  52.673 -25.843  1.00  0.00     0.039 C 
BRANCH  26  27
HETATM   27  C4  UNL     1      -1.334  52.666 -27.265  1.00  0.00     0.150 C 
BRANCH  27  28
HETATM   28  O1  UNL     1      -2.096  53.528 -28.116  1.00  0.00    -0.393 OA
HETATM   29  H8  UNL     1      -2.145  54.402 -27.686  1.00  0.00     0.210 HD
ENDBRANCH  27  28
BRANCH  27  30
HETATM   30  C5  UNL     1       0.164  53.091 -27.260  1.00  0.00     0.180 C 
BRANCH  30  31
HETATM   31  O2  UNL     1       0.310  54.353 -26.603  1.00  0.00    -0.390 OA
HETATM   32  H10 UNL     1       0.075  55.050 -27.241  1.00  0.00     0.210 HD
ENDBRANCH  30  31
BRANCH  30  33
HETATM   33  C6  UNL     1       1.117  52.033 -26.617  1.00  0.00     0.079 C 
HETATM   34  C7  UNL     1       2.399  51.811 -27.428  1.00  0.00     0.048 C 
HETATM   35  C8  UNL     1       0.392  50.689 -26.464  1.00  0.00     0.048 C 
BRANCH  33  36
HETATM   36  O3  UNL     1       1.485  52.447 -25.293  1.00  0.00    -0.388 OA
HETATM   37  H17 UNL     1       1.921  53.320 -25.382  1.00  0.00     0.210 HD
ENDBRANCH  33  36
ENDBRANCH  30  33
ENDBRANCH  27  30
ENDBRANCH  26  27
ENDBRANCH  24  26
ENDBRANCH   1  24
BRANCH   7  38
HETATM   38  O4  UNL     1      -4.117  47.353 -19.980  1.00  0.00    -0.395 OA
HETATM   39  H28 UNL     1      -4.840  47.068 -19.395  1.00  0.00     0.210 HD
ENDBRANCH   7  38
TORSDOF 9
ENDMDL
MODEL 3
REMARK minimizedAffinity -9.62352657
REMARK  9 active torsions:
REMARK  status: ('A' for Active; 'I' for Inactive)
REMARK    1  A    between atoms: C2_2  and  C3_3 
REMARK    2  A    between atoms: C2_2  and  C9_12 
REMARK    3  A    between atoms: C3_3  and  C4_4 
REMARK    4  A    between atoms: C4_4  and  O1_5 
REMARK    5  A    between atoms: C4_4  and  C5_6 
REMARK    6  A    between atoms: C5_6  and  O2_7 
REMARK    7  A    between atoms: C5_6  and  C6_8 
REMARK    8  A    between atoms: C6_8  and  O3_11 
REMARK    9  A    between atoms: C15_18  and  O4_19 
ROOT
HETATM    1  C9  UNL     1      -1.744  51.482 -22.780  1.00  0.00    -0.002 C 
HETATM    2  C10 UNL     1      -2.671  52.540 -23.456  1.00  0.00     0.006 C 
HETATM    3  C11 UNL     1      -4.062  51.903 -23.638  1.00  0.00     0.011 C 
HETATM    4  C12 UNL     1      -4.031  50.637 -22.772  1.00  0.00    -0.030 C 
HETATM    5  C13 UNL     1      -4.330  51.094 -21.308  1.00  0.00     0.016 C 
HETATM    6  C14 UNL     1      -5.019  49.500 -23.184  1.00  0.00     0.032 C 
HETATM    7  C15 UNL     1      -6.506  49.918 -23.249  1.00  0.00     0.124 C 
HETATM    8  C16 UNL     1      -7.324  49.815 -21.966  1.00  0.00     0.038 C 
HETATM    9  C17 UNL     1      -6.992  48.693 -20.965  1.00  0.00     0.012 C 
HETATM   10  C18 UNL     1      -8.205  47.785 -20.551  1.00  0.00     0.018 C 
HETATM   11  C19 UNL     1      -9.236  48.599 -19.747  1.00  0.00     0.023 C 
HETATM   12  C20 UNL     1      -8.915  47.119 -21.742  1.00  0.00     0.023 C 
HETATM   13  C21 UNL     1      -7.692  46.671 -19.617  1.00  0.00     0.135 C 
HETATM   14  O5  UNL     1      -8.353  45.656 -19.379  1.00  0.00    -0.297 OA
HETATM   15  C22 UNL     1      -6.365  46.903 -18.936  1.00  0.00     0.080 C 
HETATM   16  C23 UNL     1      -5.266  47.118 -19.976  1.00  0.00     0.018 C 
HETATM   17  C24 UNL     1      -5.755  47.841 -21.234  1.00  0.00    -0.026 A 
HETATM   18  C25 UNL     1      -5.657  47.062 -22.526  1.00  0.00     0.021 A 
HETATM   19  C26 UNL     1      -4.742  48.249 -22.321  1.00  0.00    -0.025 A 
HETATM   20  C27 UNL     1      -3.263  47.849 -22.218  1.00  0.00     0.011 C 
HETATM   21  C28 UNL     1      -2.280  49.011 -22.008  1.00  0.00     0.011 C 
HETATM   22  C29 UNL     1      -2.539  50.156 -23.002  1.00  0.00    -0.032 C 
HETATM   23  C30 UNL     1      -2.246  49.642 -24.448  1.00  0.00     0.016 C 
ENDROOT
BRANCH   1  24
HETATM   24  C2  UNL     1      -0.263  51.610 -23.262  1.00  0.00    -0.011 C 
HETATM   25  C1  UNL     1       0.459  52.790 -22.602  1.00  0.00     0.010 C 
BRANCH  24  26
HETATM   26  C3  UNL     1      -0.221  51.745 -24.812  1.00  0.00     0.039 C 
BRANCH  26  27
HETATM   27  C4  UNL     1       0.514  52.986 -25.359  1.00  0.00     0.150 C 
BRANCH  27  28
HETATM   28  O1  UNL     1       1.648  52.578 -26.131  1.00  0.00    -0.393 OA
HETATM   29  H8  UNL     1       1.337  51.946 -26.804  1.00  0.00     0.210 HD
ENDBRANCH  27  28
BRANCH  27  30
HETATM   30  C5  UNL     1      -0.431  53.884 -26.210  1.00  0.00     0.180 C 
BRANCH  30  31
HETATM   31  O2  UNL     1       0.227  55.111 -26.538  1.00  0.00    -0.390 OA
HETATM   32  H10 UNL     1       0.157  55.701 -25.767  1.00  0.00     0.210 HD
ENDBRANCH  30  31
BRANCH  30  33
HETATM   33  C6  UNL     1      -0.960  53.191 -27.507  1.00  0.00     0.079 C 
HETATM   34  C7  UNL     1      -1.875  51.996 -27.217  1.00  0.00     0.048 C 
HETATM   35  C8  UNL     1       0.215  52.713 -28.371  1.00  0.00     0.048 C 
BRANCH  33  36
HETATM   36  O3  UNL     1      -1.688  54.137 -28.304  1.00  0.00    -0.388 OA
HETATM   37  H17 UNL     1      -2.423  54.469 -27.746  1.00  0.00     0.210 HD
ENDBRANCH  33  36
ENDBRANCH  30  33
ENDBRANCH  27  30
ENDBRANCH  26  27
ENDBRANCH  24  26
ENDBRANCH   1  24
BRANCH   7  38
HETATM   38  O4  UNL     1      -7.163  49.139 -24.263  1.00  0.00    -0.395 OA
HETATM   39  H28 UNL     1      -8.040  49.531 -24.416  1.00  0.00     0.210 HD
ENDBRANCH   7  38
TORSDOF 9
ENDMDL
MODEL 4
REMARK minimizedAffinity -9.5704813
REMARK  9 active torsions:
REMARK  status: ('A' for Active; 'I' for Inactive)
REMARK    1  A    between atoms: C2_2  and  C3_3 
REMARK    2  A    between atoms: C2_2  and  C9_12 
REMARK    3  A    between atoms: C3_3  and  C4_4 
REMARK    4  A    between atoms: C4_4  and  O1_5 
REMARK    5  A    between atoms: C4_4  and  C5_6 
REMARK    6  A    between atoms: C5_6  and  O2_7 
REMARK    7  A    between atoms: C5_6  and  C6_8 
REMARK    8  A    between atoms: C6_8  and  O3_11 
REMARK    9  A    between atoms: C15_18  and  O4_19 
ROOT
HETATM    1  C9  UNL     1      -1.058  50.677 -22.835  1.00  0.00    -0.002 C 
HETATM    2  C10 UNL     1      -0.776  50.065 -21.427  1.00  0.00     0.006 C 
HETATM    3  C11 UNL     1      -2.107  49.526 -20.870  1.00  0.00     0.011 C 
HETATM    4  C12 UNL     1      -3.060  49.515 -22.072  1.00  0.00    -0.030 C 
HETATM    5  C13 UNL     1      -2.757  48.205 -22.866  1.00  0.00     0.016 C 
HETATM    6  C14 UNL     1      -4.584  49.592 -21.738  1.00  0.00     0.032 C 
HETATM    7  C15 UNL     1      -5.103  48.486 -20.791  1.00  0.00     0.124 C 
HETATM    8  C16 UNL     1      -5.566  47.178 -21.423  1.00  0.00     0.038 C 
HETATM    9  C17 UNL     1      -6.221  47.220 -22.816  1.00  0.00     0.012 C 
HETATM   10  C18 UNL     1      -7.629  46.532 -22.916  1.00  0.00     0.018 C 
HETATM   11  C19 UNL     1      -7.502  45.013 -22.698  1.00  0.00     0.023 C 
HETATM   12  C20 UNL     1      -8.664  47.093 -21.925  1.00  0.00     0.023 C 
HETATM   13  C21 UNL     1      -8.177  46.732 -24.343  1.00  0.00     0.135 C 
HETATM   14  O5  UNL     1      -9.368  46.562 -24.620  1.00  0.00    -0.297 OA
HETATM   15  C22 UNL     1      -7.177  47.078 -25.420  1.00  0.00     0.080 C 
HETATM   16  C23 UNL     1      -6.443  48.371 -25.067  1.00  0.00     0.018 C 
HETATM   17  C24 UNL     1      -6.223  48.551 -23.563  1.00  0.00    -0.026 A 
HETATM   18  C25 UNL     1      -6.893  49.753 -22.934  1.00  0.00     0.021 A 
HETATM   19  C26 UNL     1      -5.385  49.739 -23.052  1.00  0.00    -0.025 A 
HETATM   20  C27 UNL     1      -4.853  50.809 -24.017  1.00  0.00     0.011 C 
HETATM   21  C28 UNL     1      -3.326  50.846 -24.181  1.00  0.00     0.011 C 
HETATM   22  C29 UNL     1      -2.612  50.838 -22.820  1.00  0.00    -0.032 C 
HETATM   23  C30 UNL     1      -2.963  52.157 -22.059  1.00  0.00     0.016 C 
ENDROOT
BRANCH   1  24
HETATM   24  C2  UNL     1      -0.135  51.903 -23.134  1.00  0.00    -0.011 C 
HETATM   25  C1  UNL     1       0.260  52.654 -21.857  1.00  0.00     0.010 C 
BRANCH  24  26
HETATM   26  C3  UNL     1      -0.841  52.865 -24.134  1.00  0.00     0.039 C 
BRANCH  26  27
HETATM   27  C4  UNL     1       0.021  53.359 -25.314  1.00  0.00     0.150 C 
BRANCH  27  28
HETATM   28  O1  UNL     1       1.277  52.675 -25.316  1.00  0.00    -0.393 OA
HETATM   29  H8  UNL     1       1.095  51.717 -25.304  1.00  0.00     0.210 HD
ENDBRANCH  27  28
BRANCH  27  30
HETATM   30  C5  UNL     1      -0.707  53.168 -26.676  1.00  0.00     0.180 C 
BRANCH  30  31
HETATM   31  O2  UNL     1      -0.416  54.268 -27.543  1.00  0.00    -0.390 OA
HETATM   32  H10 UNL     1      -0.997  55.007 -27.292  1.00  0.00     0.210 HD
ENDBRANCH  30  31
BRANCH  30  33
HETATM   33  C6  UNL     1      -0.373  51.816 -27.386  1.00  0.00     0.079 C 
HETATM   34  C7  UNL     1      -0.237  50.644 -26.409  1.00  0.00     0.048 C 
HETATM   35  C8  UNL     1       0.931  51.945 -28.186  1.00  0.00     0.048 C 
BRANCH  33  36
HETATM   36  O3  UNL     1      -1.400  51.497 -28.337  1.00  0.00    -0.388 OA
HETATM   37  H17 UNL     1      -2.241  51.445 -27.836  1.00  0.00     0.210 HD
ENDBRANCH  33  36
ENDBRANCH  30  33
ENDBRANCH  27  30
ENDBRANCH  26  27
ENDBRANCH  24  26
ENDBRANCH   1  24
BRANCH   7  38
HETATM   38  O4  UNL     1      -6.187  49.015 -20.009  1.00  0.00    -0.395 OA
HETATM   39  H28 UNL     1      -6.382  48.376 -19.302  1.00  0.00     0.210 HD
ENDBRANCH   7  38
TORSDOF 9
ENDMDL
MODEL 5
REMARK minimizedAffinity -9.56302166
REMARK  9 active torsions:
REMARK  status: ('A' for Active; 'I' for Inactive)
REMARK    1  A    between atoms: C2_2  and  C3_3 
REMARK    2  A    between atoms: C2_2  and  C9_12 
REMARK    3  A    between atoms: C3_3  and  C4_4 
REMARK    4  A    between atoms: C4_4  and  O1_5 
REMARK    5  A    between atoms: C4_4  and  C5_6 
REMARK    6  A    between atoms: C5_6  and  O2_7 
REMARK    7  A    between atoms: C5_6  and  C6_8 
REMARK    8  A    between atoms: C6_8  and  O3_11 
REMARK    9  A    between atoms: C15_18  and  O4_19 
ROOT
HETATM    1  C9  UNL     1       0.315  51.468 -18.650  1.00  0.00    -0.002 C 
HETATM    2  C10 UNL     1      -1.098  50.899 -18.313  1.00  0.00     0.006 C 
HETATM    3  C11 UNL     1      -1.987  51.074 -19.559  1.00  0.00     0.011 C 
HETATM    4  C12 UNL     1      -1.012  51.414 -20.693  1.00  0.00    -0.030 C 
HETATM    5  C13 UNL     1      -0.422  50.057 -21.192  1.00  0.00     0.016 C 
HETATM    6  C14 UNL     1      -1.612  52.206 -21.898  1.00  0.00     0.032 C 
HETATM    7  C15 UNL     1      -2.823  51.533 -22.585  1.00  0.00     0.124 C 
HETATM    8  C16 UNL     1      -2.536  50.541 -23.707  1.00  0.00     0.038 C 
HETATM    9  C17 UNL     1      -1.309  50.778 -24.607  1.00  0.00     0.012 C 
HETATM   10  C18 UNL     1      -1.606  50.807 -26.149  1.00  0.00     0.018 C 
HETATM   11  C19 UNL     1      -2.063  49.420 -26.636  1.00  0.00     0.023 C 
HETATM   12  C20 UNL     1      -2.660  51.851 -26.557  1.00  0.00     0.023 C 
HETATM   13  C21 UNL     1      -0.297  51.132 -26.898  1.00  0.00     0.135 C 
HETATM   14  O5  UNL     1      -0.289  51.508 -28.074  1.00  0.00    -0.297 OA
HETATM   15  C22 UNL     1       0.995  50.901 -26.153  1.00  0.00     0.080 C 
HETATM   16  C23 UNL     1       1.026  51.735 -24.872  1.00  0.00     0.018 C 
HETATM   17  C24 UNL     1      -0.351  51.903 -24.226  1.00  0.00    -0.026 A 
HETATM   18  C25 UNL     1      -0.871  53.320 -24.133  1.00  0.00     0.021 A 
HETATM   19  C26 UNL     1      -0.472  52.607 -22.861  1.00  0.00    -0.025 A 
HETATM   20  C27 UNL     1       0.753  53.240 -22.183  1.00  0.00     0.011 C 
HETATM   21  C28 UNL     1       1.211  52.560 -20.884  1.00  0.00     0.011 C 
HETATM   22  C29 UNL     1       0.032  52.325 -19.925  1.00  0.00    -0.032 C 
HETATM   23  C30 UNL     1      -0.534  53.709 -19.472  1.00  0.00     0.016 C 
ENDROOT
BRANCH   1  24
HETATM   24  C2  UNL     1       0.999  52.109 -17.398  1.00  0.00    -0.011 C 
HETATM   25  C1  UNL     1       2.432  52.566 -17.694  1.00  0.00     0.010 C 
BRANCH  24  26
HETATM   26  C3  UNL     1       0.984  51.100 -16.213  1.00  0.00     0.039 C 
BRANCH  26  27
HETATM   27  C4  UNL     1       1.464  51.652 -14.854  1.00  0.00     0.150 C 
BRANCH  27  28
HETATM   28  O1  UNL     1       0.654  52.766 -14.470  1.00  0.00    -0.393 OA
HETATM   29  H8  UNL     1      -0.278  52.481 -14.500  1.00  0.00     0.210 HD
ENDBRANCH  27  28
BRANCH  27  30
HETATM   30  C5  UNL     1       1.443  50.555 -13.750  1.00  0.00     0.180 C 
BRANCH  30  31
HETATM   31  O2  UNL     1       1.303  49.263 -14.349  1.00  0.00    -0.390 OA
HETATM   32  H10 UNL     1       0.361  49.131 -14.554  1.00  0.00     0.210 HD
ENDBRANCH  30  31
BRANCH  30  33
HETATM   33  C6  UNL     1       2.690  50.583 -12.808  1.00  0.00     0.079 C 
HETATM   34  C7  UNL     1       2.959  51.969 -12.212  1.00  0.00     0.048 C 
HETATM   35  C8  UNL     1       3.940  50.122 -13.570  1.00  0.00     0.048 C 
BRANCH  33  36
HETATM   36  O3  UNL     1       2.508  49.653 -11.730  1.00  0.00    -0.388 OA
HETATM   37  H17 UNL     1       1.692  49.924 -11.259  1.00  0.00     0.210 HD
ENDBRANCH  33  36
ENDBRANCH  30  33
ENDBRANCH  27  30
ENDBRANCH  26  27
ENDBRANCH  24  26
ENDBRANCH   1  24
BRANCH   7  38
HETATM   38  O4  UNL     1      -3.691  52.556 -23.101  1.00  0.00    -0.395 OA
HETATM   39  H28 UNL     1      -4.525  52.131 -23.367  1.00  0.00     0.210 HD
ENDBRANCH   7  38
TORSDOF 9
ENDMDL
MODEL 6
REMARK minimizedAffinity -9.32717228
REMARK  9 active torsions:
REMARK  status: ('A' for Active; 'I' for Inactive)
REMARK    1  A    between atoms: C2_2  and  C3_3 
REMARK    2  A    between atoms: C2_2  and  C9_12 
REMARK    3  A    between atoms: C3_3  and  C4_4 
REMARK    4  A    between atoms: C4_4  and  O1_5 
REMARK    5  A    between atoms: C4_4  and  C5_6 
REMARK    6  A    between atoms: C5_6  and  O2_7 
REMARK    7  A    between atoms: C5_6  and  C6_8 
REMARK    8  A    between atoms: C6_8  and  O3_11 
REMARK    9  A    between atoms: C15_18  and  O4_19 
ROOT
HETATM    1  C9  UNL     1      -2.477  49.890 -23.889  1.00  0.00    -0.002 C 
HETATM    2  C10 UNL     1      -1.194  50.772 -23.999  1.00  0.00     0.006 C 
HETATM    3  C11 UNL     1      -0.852  51.287 -22.588  1.00  0.00     0.011 C 
HETATM    4  C12 UNL     1      -1.711  50.440 -21.641  1.00  0.00    -0.030 C 
HETATM    5  C13 UNL     1      -0.946  49.094 -21.434  1.00  0.00     0.016 C 
HETATM    6  C14 UNL     1      -2.039  51.082 -20.255  1.00  0.00     0.032 C 
HETATM    7  C15 UNL     1      -0.808  51.508 -19.424  1.00  0.00     0.124 C 
HETATM    8  C16 UNL     1      -0.181  50.463 -18.507  1.00  0.00     0.038 C 
HETATM    9  C17 UNL     1      -1.094  49.412 -17.849  1.00  0.00     0.012 C 
HETATM   10  C18 UNL     1      -0.978  49.307 -16.287  1.00  0.00     0.018 C 
HETATM   11  C19 UNL     1       0.412  48.779 -15.885  1.00  0.00     0.023 C 
HETATM   12  C20 UNL     1      -1.237  50.636 -15.556  1.00  0.00     0.023 C 
HETATM   13  C21 UNL     1      -2.008  48.276 -15.783  1.00  0.00     0.135 C 
HETATM   14  O5  UNL     1      -2.343  48.207 -14.597  1.00  0.00    -0.297 OA
HETATM   15  C22 UNL     1      -2.544  47.292 -16.794  1.00  0.00     0.080 C 
HETATM   16  C23 UNL     1      -3.221  48.032 -17.948  1.00  0.00     0.018 C 
HETATM   17  C24 UNL     1      -2.558  49.370 -18.280  1.00  0.00    -0.026 A 
HETATM   18  C25 UNL     1      -3.420  50.600 -18.099  1.00  0.00     0.021 A 
HETATM   19  C26 UNL     1      -3.040  50.178 -19.501  1.00  0.00    -0.025 A 
HETATM   20  C27 UNL     1      -4.247  49.717 -20.331  1.00  0.00     0.011 C 
HETATM   21  C28 UNL     1      -3.927  49.273 -21.767  1.00  0.00     0.011 C 
HETATM   22  C29 UNL     1      -3.041  50.300 -22.491  1.00  0.00    -0.032 C 
HETATM   23  C30 UNL     1      -3.843  51.631 -22.654  1.00  0.00     0.016 C 
ENDROOT
BRANCH   1  24
HETATM   24  C2  UNL     1      -3.370  49.995 -25.167  1.00  0.00    -0.011 C 
HETATM   25  C1  UNL     1      -3.261  48.749 -26.052  1.00  0.00     0.010 C 
BRANCH  24  26
HETATM   26  C3  UNL     1      -2.989  51.271 -25.974  1.00  0.00     0.039 C 
BRANCH  26  27
HETATM   27  C4  UNL     1      -2.047  51.050 -27.176  1.00  0.00     0.150 C 
BRANCH  27  28
HETATM   28  O1  UNL     1      -2.814  50.757 -28.347  1.00  0.00    -0.393 OA
HETATM   29  H8  UNL     1      -3.472  51.468 -28.457  1.00  0.00     0.210 HD
ENDBRANCH  27  28
BRANCH  27  30
HETATM   30  C5  UNL     1      -1.129  52.283 -27.419  1.00  0.00     0.180 C 
BRANCH  30  31
HETATM   31  O2  UNL     1      -1.533  53.365 -26.575  1.00  0.00    -0.390 OA
HETATM   32  H10 UNL     1      -2.296  53.801 -26.993  1.00  0.00     0.210 HD
ENDBRANCH  30  31
BRANCH  30  33
HETATM   33  C6  UNL     1       0.393  51.986 -27.227  1.00  0.00     0.079 C 
HETATM   34  C7  UNL     1       1.172  51.974 -28.547  1.00  0.00     0.048 C 
HETATM   35  C8  UNL     1       0.585  50.632 -26.529  1.00  0.00     0.048 C 
BRANCH  33  36
HETATM   36  O3  UNL     1       0.978  52.972 -26.364  1.00  0.00    -0.388 OA
HETATM   37  H17 UNL     1       0.830  53.843 -26.790  1.00  0.00     0.210 HD
ENDBRANCH  33  36
ENDBRANCH  30  33
ENDBRANCH  27  30
ENDBRANCH  26  27
ENDBRANCH  24  26
ENDBRANCH   1  24
BRANCH   7  38
HETATM   38  O4  UNL     1      -1.159  52.652 -18.627  1.00  0.00    -0.395 OA
HETATM   39  H28 UNL     1      -0.337  53.014 -18.251  1.00  0.00     0.210 HD
ENDBRANCH   7  38
TORSDOF 9
ENDMDL
MODEL 7
REMARK minimizedAffinity -9.28525066
REMARK  9 active torsions:
REMARK  status: ('A' for Active; 'I' for Inactive)
REMARK    1  A    between atoms: C2_2  and  C3_3 
REMARK    2  A    between atoms: C2_2  and  C9_12 
REMARK    3  A    between atoms: C3_3  and  C4_4 
REMARK    4  A    between atoms: C4_4  and  O1_5 
REMARK    5  A    between atoms: C4_4  and  C5_6 
REMARK    6  A    between atoms: C5_6  and  O2_7 
REMARK    7  A    between atoms: C5_6  and  C6_8 
REMARK    8  A    between atoms: C6_8  and  O3_11 
REMARK    9  A    between atoms: C15_18  and  O4_19 
ROOT
HETATM    1  C9  UNL     1      -4.253  47.860 -20.023  1.00  0.00    -0.002 C 
HETATM    2  C10 UNL     1      -4.828  46.914 -21.123  1.00  0.00     0.006 C 
HETATM    3  C11 UNL     1      -4.719  47.642 -22.477  1.00  0.00     0.011 C 
HETATM    4  C12 UNL     1      -3.785  48.830 -22.210  1.00  0.00    -0.030 C 
HETATM    5  C13 UNL     1      -2.328  48.274 -22.286  1.00  0.00     0.016 C 
HETATM    6  C14 UNL     1      -3.938  50.051 -23.171  1.00  0.00     0.032 C 
HETATM    7  C15 UNL     1      -3.770  49.725 -24.673  1.00  0.00     0.124 C 
HETATM    8  C16 UNL     1      -2.360  49.770 -25.251  1.00  0.00     0.038 C 
HETATM    9  C17 UNL     1      -1.357  50.787 -24.676  1.00  0.00     0.012 C 
HETATM   10  C18 UNL     1      -0.675  51.726 -25.734  1.00  0.00     0.018 C 
HETATM   11  C19 UNL     1       0.239  50.910 -26.668  1.00  0.00     0.023 C 
HETATM   12  C20 UNL     1      -1.674  52.525 -26.588  1.00  0.00     0.023 C 
HETATM   13  C21 UNL     1       0.231  52.730 -24.992  1.00  0.00     0.135 C 
HETATM   14  O5  UNL     1       0.651  53.759 -25.531  1.00  0.00    -0.297 OA
HETATM   15  C22 UNL     1       0.650  52.368 -23.588  1.00  0.00     0.080 C 
HETATM   16  C23 UNL     1      -0.579  52.176 -22.700  1.00  0.00     0.018 C 
HETATM   17  C24 UNL     1      -1.778  51.587 -23.446  1.00  0.00    -0.026 A 
HETATM   18  C25 UNL     1      -3.010  52.461 -23.516  1.00  0.00     0.021 A 
HETATM   19  C26 UNL     1      -3.052  51.211 -22.665  1.00  0.00    -0.025 A 
HETATM   20  C27 UNL     1      -3.182  51.516 -21.165  1.00  0.00     0.011 C 
HETATM   21  C28 UNL     1      -3.229  50.286 -20.245  1.00  0.00     0.011 C 
HETATM   22  C29 UNL     1      -4.240  49.243 -20.749  1.00  0.00    -0.032 C 
HETATM   23  C30 UNL     1      -5.676  49.853 -20.671  1.00  0.00     0.016 C 
ENDROOT
BRANCH   1  24
HETATM   24  C2  UNL     1      -4.995  47.686 -18.658  1.00  0.00    -0.011 C 
HETATM   25  C1  UNL     1      -6.362  48.378 -18.652  1.00  0.00     0.010 C 
BRANCH  24  26
HETATM   26  C3  UNL     1      -4.106  48.228 -17.501  1.00  0.00     0.039 C 
BRANCH  26  27
HETATM   27  C4  UNL     1      -3.175  47.197 -16.829  1.00  0.00     0.150 C 
BRANCH  27  28
HETATM   28  O1  UNL     1      -2.573  46.365 -17.825  1.00  0.00    -0.393 OA
HETATM   29  H8  UNL     1      -2.147  46.948 -18.481  1.00  0.00     0.210 HD
ENDBRANCH  27  28
BRANCH  27  30
HETATM   30  C5  UNL     1      -2.083  47.889 -15.962  1.00  0.00     0.180 C 
BRANCH  30  31
HETATM   31  O2  UNL     1      -1.298  46.901 -15.288  1.00  0.00    -0.390 OA
HETATM   32  H10 UNL     1      -1.794  46.612 -14.502  1.00  0.00     0.210 HD
ENDBRANCH  30  31
BRANCH  30  33
HETATM   33  C6  UNL     1      -1.158  48.857 -16.768  1.00  0.00     0.079 C 
HETATM   34  C7  UNL     1       0.267  48.927 -16.209  1.00  0.00     0.048 C 
HETATM   35  C8  UNL     1      -1.754  50.272 -16.780  1.00  0.00     0.048 C 
BRANCH  33  36
HETATM   36  O3  UNL     1      -1.087  48.438 -18.139  1.00  0.00    -0.388 OA
HETATM   37  H17 UNL     1      -0.737  47.522 -18.135  1.00  0.00     0.210 HD
ENDBRANCH  33  36
ENDBRANCH  30  33
ENDBRANCH  27  30
ENDBRANCH  26  27
ENDBRANCH  24  26
ENDBRANCH   1  24
BRANCH   7  38
HETATM   38  O4  UNL     1      -4.597  50.619 -25.438  1.00  0.00    -0.395 OA
HETATM   39  H28 UNL     1      -4.621  50.292 -26.353  1.00  0.00     0.210 HD
ENDBRANCH   7  38
TORSDOF 9
ENDMDL
MODEL 8
REMARK minimizedAffinity -9.25439548
REMARK  9 active torsions:
REMARK  status: ('A' for Active; 'I' for Inactive)
REMARK    1  A    between atoms: C2_2  and  C3_3 
REMARK    2  A    between atoms: C2_2  and  C9_12 
REMARK    3  A    between atoms: C3_3  and  C4_4 
REMARK    4  A    between atoms: C4_4  and  O1_5 
REMARK    5  A    between atoms: C4_4  and  C5_6 
REMARK    6  A    between atoms: C5_6  and  O2_7 
REMARK    7  A    between atoms: C5_6  and  C6_8 
REMARK    8  A    between atoms: C6_8  and  O3_11 
REMARK    9  A    between atoms: C15_18  and  O4_19 
ROOT
HETATM    1  C9  UNL     1      -4.393  48.105 -19.877  1.00  0.00    -0.002 C 
HETATM    2  C10 UNL     1      -4.920  47.086 -20.934  1.00  0.00     0.006 C 
HETATM    3  C11 UNL     1      -4.769  47.727 -22.327  1.00  0.00     0.011 C 
HETATM    4  C12 UNL     1      -3.857  48.940 -22.104  1.00  0.00    -0.030 C 
HETATM    5  C13 UNL     1      -2.393  48.397 -22.094  1.00  0.00     0.016 C 
HETATM    6  C14 UNL     1      -3.986  50.095 -23.146  1.00  0.00     0.032 C 
HETATM    7  C15 UNL     1      -3.763  49.677 -24.617  1.00  0.00     0.124 C 
HETATM    8  C16 UNL     1      -2.333  49.701 -25.148  1.00  0.00     0.038 C 
HETATM    9  C17 UNL     1      -1.361  50.764 -24.605  1.00  0.00     0.012 C 
HETATM   10  C18 UNL     1      -0.649  51.641 -25.696  1.00  0.00     0.018 C 
HETATM   11  C19 UNL     1       0.304  50.778 -26.543  1.00  0.00     0.023 C 
HETATM   12  C20 UNL     1      -1.625  52.373 -26.633  1.00  0.00     0.023 C 
HETATM   13  C21 UNL     1       0.220  52.701 -24.989  1.00  0.00     0.135 C 
HETATM   14  O5  UNL     1       0.649  53.697 -25.577  1.00  0.00    -0.297 OA
HETATM   15  C22 UNL     1       0.593  52.434 -23.551  1.00  0.00     0.080 C 
HETATM   16  C23 UNL     1      -0.665  52.284 -22.695  1.00  0.00     0.018 C 
HETATM   17  C24 UNL     1      -1.832  51.635 -23.443  1.00  0.00    -0.026 A 
HETATM   18  C25 UNL     1      -3.069  52.489 -23.611  1.00  0.00     0.021 A 
HETATM   19  C26 UNL     1      -3.129  51.295 -22.684  1.00  0.00    -0.025 A 
HETATM   20  C27 UNL     1      -3.316  51.693 -21.212  1.00  0.00     0.011 C 
HETATM   21  C28 UNL     1      -3.383  50.525 -20.218  1.00  0.00     0.011 C 
HETATM   22  C29 UNL     1      -4.366  49.439 -20.689  1.00  0.00    -0.032 C 
HETATM   23  C30 UNL     1      -5.810  50.038 -20.700  1.00  0.00     0.016 C 
ENDROOT
BRANCH   1  24
HETATM   24  C2  UNL     1      -5.181  48.011 -18.530  1.00  0.00    -0.011 C 
HETATM   25  C1  UNL     1      -4.248  47.990 -17.315  1.00  0.00     0.010 C 
BRANCH  24  26
HETATM   26  C3  UNL     1      -6.092  46.749 -18.538  1.00  0.00     0.039 C 
BRANCH  26  27
HETATM   27  C4  UNL     1      -7.591  47.004 -18.798  1.00  0.00     0.150 C 
BRANCH  27  28
HETATM   28  O1  UNL     1      -8.116  45.982 -19.651  1.00  0.00    -0.393 OA
HETATM   29  H8  UNL     1      -7.902  45.120 -19.249  1.00  0.00     0.210 HD
ENDBRANCH  27  28
BRANCH  27  30
HETATM   30  C5  UNL     1      -8.400  47.074 -17.470  1.00  0.00     0.180 C 
BRANCH  30  31
HETATM   31  O2  UNL     1      -7.512  47.297 -16.370  1.00  0.00    -0.390 OA
HETATM   32  H10 UNL     1      -7.116  46.441 -16.130  1.00  0.00     0.210 HD
ENDBRANCH  30  31
BRANCH  30  33
HETATM   33  C6  UNL     1      -9.532  48.151 -17.476  1.00  0.00     0.079 C 
HETATM   34  C7  UNL     1     -10.729  47.755 -18.347  1.00  0.00     0.048 C 
HETATM   35  C8  UNL     1      -8.983  49.496 -17.974  1.00  0.00     0.048 C 
BRANCH  33  36
HETATM   36  O3  UNL     1     -10.000  48.377 -16.138  1.00  0.00    -0.388 OA
HETATM   37  H17 UNL     1     -10.323  47.514 -15.803  1.00  0.00     0.210 HD
ENDBRANCH  33  36
ENDBRANCH  30  33
ENDBRANCH  27  30
ENDBRANCH  26  27
ENDBRANCH  24  26
ENDBRANCH   1  24
BRANCH   7  38
HETATM   38  O4  UNL     1      -4.570  50.511 -25.465  1.00  0.00    -0.395 OA
HETATM   39  H28 UNL     1      -4.558  50.126 -26.359  1.00  0.00     0.210 HD
ENDBRANCH   7  38
TORSDOF 9
ENDMDL
MODEL 9
REMARK minimizedAffinity -9.23402119
REMARK  9 active torsions:
REMARK  status: ('A' for Active; 'I' for Inactive)
REMARK    1  A    between atoms: C2_2  and  C3_3 
REMARK    2  A    between atoms: C2_2  and  C9_12 
REMARK    3  A    between atoms: C3_3  and  C4_4 
REMARK    4  A    between atoms: C4_4  and  O1_5 
REMARK    5  A    between atoms: C4_4  and  C5_6 
REMARK    6  A    between atoms: C5_6  and  O2_7 
REMARK    7  A    between atoms: C5_6  and  C6_8 
REMARK    8  A    between atoms: C6_8  and  O3_11 
REMARK    9  A    between atoms: C15_18  and  O4_19 
ROOT
HETATM    1  C9  UNL     1      -5.530  48.195 -21.451  1.00  0.00    -0.002 C 
HETATM    2  C10 UNL     1      -5.758  47.293 -22.704  1.00  0.00     0.006 C 
HETATM    3  C11 UNL     1      -5.158  48.017 -23.924  1.00  0.00     0.011 C 
HETATM    4  C12 UNL     1      -4.301  49.143 -23.331  1.00  0.00    -0.030 C 
HETATM    5  C13 UNL     1      -2.937  48.496 -22.929  1.00  0.00     0.016 C 
HETATM    6  C14 UNL     1      -4.050  50.374 -24.257  1.00  0.00     0.032 C 
HETATM    7  C15 UNL     1      -3.408  50.045 -25.624  1.00  0.00     0.124 C 
HETATM    8  C16 UNL     1      -1.885  50.003 -25.695  1.00  0.00     0.038 C 
HETATM    9  C17 UNL     1      -1.076  50.952 -24.793  1.00  0.00     0.012 C 
HETATM   10  C18 UNL     1      -0.025  51.850 -25.538  1.00  0.00     0.018 C 
HETATM   11  C19 UNL     1       1.100  50.982 -26.132  1.00  0.00     0.023 C 
HETATM   12  C20 UNL     1      -0.631  52.715 -26.656  1.00  0.00     0.023 C 
HETATM   13  C21 UNL     1       0.636  52.792 -24.511  1.00  0.00     0.135 C 
HETATM   14  O5  UNL     1       1.272  53.794 -24.852  1.00  0.00    -0.297 OA
HETATM   15  C22 UNL     1       0.539  52.399 -23.057  1.00  0.00     0.080 C 
HETATM   16  C23 UNL     1      -0.926  52.281 -22.636  1.00  0.00     0.018 C 
HETATM   17  C24 UNL     1      -1.838  51.772 -23.755  1.00  0.00    -0.026 A 
HETATM   18  C25 UNL     1      -2.922  52.722 -24.211  1.00  0.00     0.021 A 
HETATM   19  C26 UNL     1      -3.319  51.474 -23.454  1.00  0.00    -0.025 A 
HETATM   20  C27 UNL     1      -3.928  51.781 -22.077  1.00  0.00     0.011 C 
HETATM   21  C28 UNL     1      -4.352  50.553 -21.257  1.00  0.00     0.011 C 
HETATM   22  C29 UNL     1      -5.194  49.578 -22.096  1.00  0.00    -0.032 C 
HETATM   23  C30 UNL     1      -6.535  50.278 -22.488  1.00  0.00     0.016 C 
ENDROOT
BRANCH   1  24
HETATM   24  C2  UNL     1      -6.696  48.064 -20.418  1.00  0.00    -0.011 C 
HETATM   25  C1  UNL     1      -7.186  49.429 -19.923  1.00  0.00     0.010 C 
BRANCH  24  26
HETATM   26  C3  UNL     1      -6.242  47.182 -19.218  1.00  0.00     0.039 C 
BRANCH  26  27
HETATM   27  C4  UNL     1      -5.786  47.945 -17.957  1.00  0.00     0.150 C 
BRANCH  27  28
HETATM   28  O1  UNL     1      -6.036  47.152 -16.793  1.00  0.00    -0.393 OA
HETATM   29  H8  UNL     1      -5.617  46.282 -16.930  1.00  0.00     0.210 HD
ENDBRANCH  27  28
BRANCH  27  30
HETATM   30  C5  UNL     1      -4.282  48.337 -18.037  1.00  0.00     0.180 C 
BRANCH  30  31
HETATM   31  O2  UNL     1      -3.955  49.235 -16.972  1.00  0.00    -0.390 OA
HETATM   32  H10 UNL     1      -4.242  50.127 -17.236  1.00  0.00     0.210 HD
ENDBRANCH  30  31
BRANCH  30  33
HETATM   33  C6  UNL     1      -3.309  47.115 -18.032  1.00  0.00     0.079 C 
HETATM   34  C7  UNL     1      -3.736  46.006 -18.999  1.00  0.00     0.048 C 
HETATM   35  C8  UNL     1      -3.207  46.524 -16.619  1.00  0.00     0.048 C 
BRANCH  33  36
HETATM   36  O3  UNL     1      -1.985  47.542 -18.387  1.00  0.00    -0.388 OA
HETATM   37  H17 UNL     1      -2.050  47.949 -19.276  1.00  0.00     0.210 HD
ENDBRANCH  33  36
ENDBRANCH  30  33
ENDBRANCH  27  30
ENDBRANCH  26  27
ENDBRANCH  24  26
ENDBRANCH   1  24
BRANCH   7  38
HETATM   38  O4  UNL     1      -3.877  50.993 -26.598  1.00  0.00    -0.395 OA
HETATM   39  H28 UNL     1      -3.611  50.671 -27.477  1.00  0.00     0.210 HD
ENDBRANCH   7  38
TORSDOF 9
ENDMDL
