MODEL 1
REMARK minimizedAffinity -8.93463707
REMARK CNNscore 0.76451683
REMARK CNNaffinity 7.40646982
REMARK  12 active torsions:
REMARK  status: ('A' for Active; 'I' for Inactive)
REMARK    1  A    between atoms: N1_6  and  O1_8 
REMARK    2  A    between atoms: O1_8  and  C6_9 
REMARK    3  A    between atoms: C6_9  and  C7_10 
REMARK       I    between atoms: C7_10  and  N2_12 
REMARK    4  A    between atoms: N2_12  and  C8_13 
REMARK    5  A    between atoms: C8_13  and  C9_14 
REMARK    6  A    between atoms: C12_17  and  C13_18 
REMARK    7  A    between atoms: C13_18  and  O4_20 
REMARK    8  A    between atoms: C22_29  and  O5_30 
REMARK    9  A    between atoms: C29_37  and  O6_38 
REMARK   10  A    between atoms: C29_37  and  C30_39 
REMARK   11  A    between atoms: C30_39  and  C31_41 
REMARK   12  A    between atoms: C31_41  and  O8_42 
ROOT
HETATM    1  C1  UNL     1      -7.451   6.945  16.654  1.00  0.00     0.020 C 
HETATM    2  C2  UNL     1      -7.562   7.721  15.322  1.00  0.00    -0.014 C 
HETATM    3  C3  UNL     1      -8.275   9.083  15.568  1.00  0.00     0.020 C 
HETATM    4  C4  UNL     1      -9.757   8.948  15.886  1.00  0.00     0.060 C 
HETATM    5  C5  UNL     1     -10.483   8.160  14.816  1.00  0.00     0.032 C 
HETATM    6  N1  UNL     1     -11.744   8.422  14.654  1.00  0.00    -0.271 N 
ATOM      7  H1  UNL     1     -12.249   9.139  15.176  1.00  0.00     0.194 HD
HETATM    8  C16 UNL     1      -9.707   7.109  14.097  1.00  0.00     0.030 C 
HETATM    9  C17 UNL     1      -8.405   6.881  14.349  1.00  0.00    -0.069 C 
HETATM   10  C18 UNL     1      -7.721   5.712  13.673  1.00  0.00     0.035 C 
HETATM   11  C19 UNL     1      -6.362   6.083  13.087  1.00  0.00     0.010 C 
HETATM   12  C20 UNL     1      -5.472   6.721  14.160  1.00  0.00    -0.002 C 
HETATM   13  C21 UNL     1      -6.145   8.013  14.686  1.00  0.00     0.031 C 
HETATM   14  C22 UNL     1      -5.189   8.844  15.580  1.00  0.00     0.124 C 
HETATM   15  C23 UNL     1      -3.869   8.152  15.945  1.00  0.00     0.045 C 
HETATM   16  C24 UNL     1      -3.090   7.402  14.813  1.00  0.00     0.001 C 
HETATM   17  C25 UNL     1      -2.475   6.154  15.495  1.00  0.00     0.019 C 
HETATM   18  C26 UNL     1      -4.034   6.958  13.662  1.00  0.00     0.002 C 
HETATM   19  C27 UNL     1      -3.887   8.002  12.539  1.00  0.00     0.009 C 
HETATM   20  C28 UNL     1      -2.768   8.953  12.949  1.00  0.00     0.047 C 
HETATM   21  C29 UNL     1      -1.996   8.246  14.071  1.00  0.00     0.128 C 
ENDROOT
BRANCH   6  22
HETATM   22  O1  UNL     1     -12.333   7.605  13.676  1.00  0.00    -0.271 OA
BRANCH  22  23
HETATM   23  C6  UNL     1     -12.618   6.339  14.259  1.00  0.00     0.303 C 
BRANCH  23  24
HETATM   24  C7  UNL     1     -14.083   6.000  14.026  1.00  0.00     0.244 C 
HETATM   25  O2  UNL     1     -14.796   6.637  13.253  1.00  0.00    -0.271 OA
HETATM   26  N2  UNL     1     -14.526   4.902  14.735  1.00  0.00    -0.355 N 
HETATM   27  H10 UNL     1     -13.850   4.361  15.259  1.00  0.00     0.162 HD
BRANCH  26  28
HETATM   28  C8  UNL     1     -15.846   4.351  14.540  1.00  0.00     0.161 C 
BRANCH  28  29
HETATM   29  C9  UNL     1     -15.957   2.978  15.155  1.00  0.00    -0.040 A 
HETATM   30  C10 UNL     1     -17.037   2.646  15.985  1.00  0.00     0.010 A 
HETATM   31  C11 UNL     1     -17.114   1.379  16.571  1.00  0.00     0.019 A 
HETATM   32  C12 UNL     1     -16.106   0.432  16.344  1.00  0.00     0.037 A 
HETATM   33  C14 UNL     1     -15.021   0.761  15.523  1.00  0.00     0.019 A 
HETATM   34  C15 UNL     1     -14.949   2.026  14.935  1.00  0.00     0.010 A 
BRANCH  32  35
HETATM   35  C13 UNL     1     -16.229  -0.894  16.994  1.00  0.00     0.176 C 
HETATM   36  O3  UNL     1     -16.453  -1.091  18.175  1.00  0.00    -0.646 OA
BRANCH  35  37
HETATM   37  O4  UNL     1     -16.057  -1.915  16.137  1.00  0.00    -0.773 OA
HETATM   38  H15 UNL     1     -16.157  -2.712  16.699  1.00  0.00     0.167 HD
ENDBRANCH  35  37
ENDBRANCH  32  35
ENDBRANCH  28  29
ENDBRANCH  26  28
ENDBRANCH  23  24
ENDBRANCH  22  23
ENDBRANCH   6  22
BRANCH  14  39
HETATM   39  O5  UNL     1      -4.890  10.079  14.935  1.00  0.00    -0.395 OA
HETATM   40  H26 UNL     1      -5.716  10.588  14.854  1.00  0.00     0.210 HD
ENDBRANCH  14  39
BRANCH  21  41
HETATM   41  O6  UNL     1      -1.434   9.262  14.892  1.00  0.00    -0.381 OA
HETATM   42  H37 UNL     1      -0.916   8.827  15.598  1.00  0.00     0.211 HD
ENDBRANCH  21  41
BRANCH  21  43
HETATM   43  C30 UNL     1      -0.868   7.387  13.408  1.00  0.00     0.184 C 
HETATM   44  O7  UNL     1      -1.107   6.550  12.529  1.00  0.00    -0.292 OA
BRANCH  43  45
HETATM   45  C31 UNL     1       0.564   7.506  13.951  1.00  0.00     0.245 C 
BRANCH  45  46
HETATM   46  O8  UNL     1       0.976   6.546  14.905  1.00  0.00    -0.393 OA
HETATM   47  H40 UNL     1       0.485   6.740  15.727  1.00  0.00     0.209 HD
ENDBRANCH  45  46
ENDBRANCH  43  45
ENDBRANCH  21  43
TORSDOF 12
ENDMDL
MODEL 2
REMARK minimizedAffinity -8.5617733
REMARK CNNscore 0.732858479
REMARK CNNaffinity 6.43460894
REMARK  12 active torsions:
REMARK  status: ('A' for Active; 'I' for Inactive)
REMARK    1  A    between atoms: N1_6  and  O1_8 
REMARK    2  A    between atoms: O1_8  and  C6_9 
REMARK    3  A    between atoms: C6_9  and  C7_10 
REMARK       I    between atoms: C7_10  and  N2_12 
REMARK    4  A    between atoms: N2_12  and  C8_13 
REMARK    5  A    between atoms: C8_13  and  C9_14 
REMARK    6  A    between atoms: C12_17  and  C13_18 
REMARK    7  A    between atoms: C13_18  and  O4_20 
REMARK    8  A    between atoms: C22_29  and  O5_30 
REMARK    9  A    between atoms: C29_37  and  O6_38 
REMARK   10  A    between atoms: C29_37  and  C30_39 
REMARK   11  A    between atoms: C30_39  and  C31_41 
REMARK   12  A    between atoms: C31_41  and  O8_42 
ROOT
HETATM    1  C1  UNL     1      -1.975   7.023  15.523  1.00  0.00     0.020 C 
HETATM    2  C2  UNL     1      -1.512   8.388  14.965  1.00  0.00    -0.014 C 
HETATM    3  C3  UNL     1      -0.929   9.254  16.120  1.00  0.00     0.020 C 
HETATM    4  C4  UNL     1      -1.979   9.748  17.104  1.00  0.00     0.060 C 
HETATM    5  C5  UNL     1      -3.093  10.493  16.398  1.00  0.00     0.032 C 
HETATM    6  N1  UNL     1      -3.717  11.397  17.089  1.00  0.00    -0.271 N 
ATOM      7  H1  UNL     1      -3.479  11.647  18.049  1.00  0.00     0.194 HD
HETATM    8  C16 UNL     1      -3.418  10.074  15.005  1.00  0.00     0.030 C 
HETATM    9  C17 UNL     1      -2.737   9.102  14.371  1.00  0.00    -0.069 C 
HETATM   10  C18 UNL     1      -3.210   8.644  13.007  1.00  0.00     0.035 C 
HETATM   11  C19 UNL     1      -2.071   8.518  12.000  1.00  0.00     0.010 C 
HETATM   12  C20 UNL     1      -0.964   7.612  12.553  1.00  0.00    -0.002 C 
HETATM   13  C21 UNL     1      -0.396   8.228  13.856  1.00  0.00     0.031 C 
HETATM   14  C22 UNL     1       0.891   7.506  14.328  1.00  0.00     0.124 C 
HETATM   15  C23 UNL     1       1.235   6.220  13.565  1.00  0.00     0.045 C 
HETATM   16  C24 UNL     1       1.124   6.234  12.003  1.00  0.00     0.001 C 
HETATM   17  C25 UNL     1       0.603   4.828  11.616  1.00  0.00     0.019 C 
HETATM   18  C26 UNL     1       0.127   7.317  11.508  1.00  0.00     0.002 C 
HETATM   19  C27 UNL     1       0.970   8.531  11.073  1.00  0.00     0.009 C 
HETATM   20  C28 UNL     1       2.435   8.118  11.160  1.00  0.00     0.047 C 
HETATM   21  C29 UNL     1       2.445   6.586  11.234  1.00  0.00     0.128 C 
ENDROOT
BRANCH   6  22
HETATM   22  O1  UNL     1      -4.760  11.991  16.361  1.00  0.00    -0.271 OA
BRANCH  22  23
HETATM   23  C6  UNL     1      -4.771  13.385  16.646  1.00  0.00     0.303 C 
BRANCH  23  24
HETATM   24  C7  UNL     1      -4.360  13.603  18.095  1.00  0.00     0.244 C 
HETATM   25  O2  UNL     1      -3.196  13.816  18.428  1.00  0.00    -0.271 OA
HETATM   26  N2  UNL     1      -5.410  13.567  18.989  1.00  0.00    -0.355 N 
HETATM   27  H10 UNL     1      -6.352  13.504  18.625  1.00  0.00     0.162 HD
BRANCH  26  28
HETATM   28  C8  UNL     1      -5.232  13.886  20.386  1.00  0.00     0.161 C 
BRANCH  28  29
HETATM   29  C9  UNL     1      -6.462  13.533  21.184  1.00  0.00    -0.040 A 
HETATM   30  C10 UNL     1      -6.384  13.305  22.565  1.00  0.00     0.010 A 
HETATM   31  C11 UNL     1      -7.527  12.951  23.288  1.00  0.00     0.019 A 
HETATM   32  C12 UNL     1      -8.760  12.810  22.638  1.00  0.00     0.037 A 
HETATM   33  C14 UNL     1      -8.843  13.028  21.258  1.00  0.00     0.019 A 
HETATM   34  C15 UNL     1      -7.700  13.385  20.538  1.00  0.00     0.010 A 
BRANCH  32  35
HETATM   35  C13 UNL     1      -9.941  12.425  23.447  1.00  0.00     0.176 C 
HETATM   36  O3  UNL     1     -10.746  13.192  23.944  1.00  0.00    -0.646 OA
BRANCH  35  37
HETATM   37  O4  UNL     1     -10.056  11.095  23.606  1.00  0.00    -0.773 OA
HETATM   38  H15 UNL     1     -10.861  10.994  24.156  1.00  0.00     0.167 HD
ENDBRANCH  35  37
ENDBRANCH  32  35
ENDBRANCH  28  29
ENDBRANCH  26  28
ENDBRANCH  23  24
ENDBRANCH  22  23
ENDBRANCH   6  22
BRANCH  14  39
HETATM   39  O5  UNL     1       1.997   8.400  14.233  1.00  0.00    -0.395 OA
HETATM   40  H26 UNL     1       1.846   9.138  14.849  1.00  0.00     0.210 HD
ENDBRANCH  14  39
BRANCH  21  41
HETATM   41  O6  UNL     1       3.616   6.213  11.950  1.00  0.00    -0.381 OA
HETATM   42  H37 UNL     1       3.649   5.236  11.984  1.00  0.00     0.211 HD
ENDBRANCH  21  41
BRANCH  21  43
HETATM   43  C30 UNL     1       2.496   6.037   9.770  1.00  0.00     0.184 C 
HETATM   44  O7  UNL     1       1.674   6.375   8.909  1.00  0.00    -0.292 OA
BRANCH  43  45
HETATM   45  C31 UNL     1       3.529   4.954   9.425  1.00  0.00     0.245 C 
BRANCH  45  46
HETATM   46  O8  UNL     1       3.566   4.497   8.086  1.00  0.00    -0.393 OA
HETATM   47  H40 UNL     1       2.750   3.978   7.946  1.00  0.00     0.209 HD
ENDBRANCH  45  46
ENDBRANCH  43  45
ENDBRANCH  21  43
TORSDOF 12
ENDMDL
MODEL 3
REMARK minimizedAffinity -8.04043388
REMARK CNNscore 0.692759097
REMARK CNNaffinity 6.84409142
REMARK  12 active torsions:
REMARK  status: ('A' for Active; 'I' for Inactive)
REMARK    1  A    between atoms: N1_6  and  O1_8 
REMARK    2  A    between atoms: O1_8  and  C6_9 
REMARK    3  A    between atoms: C6_9  and  C7_10 
REMARK       I    between atoms: C7_10  and  N2_12 
REMARK    4  A    between atoms: N2_12  and  C8_13 
REMARK    5  A    between atoms: C8_13  and  C9_14 
REMARK    6  A    between atoms: C12_17  and  C13_18 
REMARK    7  A    between atoms: C13_18  and  O4_20 
REMARK    8  A    between atoms: C22_29  and  O5_30 
REMARK    9  A    between atoms: C29_37  and  O6_38 
REMARK   10  A    between atoms: C29_37  and  C30_39 
REMARK   11  A    between atoms: C30_39  and  C31_41 
REMARK   12  A    between atoms: C31_41  and  O8_42 
ROOT
HETATM    1  C1  UNL     1      -4.006  11.504  16.306  1.00  0.00     0.020 C 
HETATM    2  C2  UNL     1      -2.604  10.999  16.718  1.00  0.00    -0.014 C 
HETATM    3  C3  UNL     1      -2.531  10.866  18.267  1.00  0.00     0.020 C 
HETATM    4  C4  UNL     1      -2.523  12.201  18.996  1.00  0.00     0.060 C 
HETATM    5  C5  UNL     1      -1.413  13.100  18.493  1.00  0.00     0.032 C 
HETATM    6  N1  UNL     1      -0.946  13.974  19.332  1.00  0.00    -0.271 N 
ATOM      7  H1  UNL     1      -1.259  14.060  20.299  1.00  0.00     0.194 HD
HETATM    8  C16 UNL     1      -1.008  12.951  17.066  1.00  0.00     0.030 C 
HETATM    9  C17 UNL     1      -1.568  12.035  16.254  1.00  0.00    -0.069 C 
HETATM   10  C18 UNL     1      -1.196  12.032  14.786  1.00  0.00     0.035 C 
HETATM   11  C19 UNL     1      -0.890  10.634  14.258  1.00  0.00     0.010 C 
HETATM   12  C20 UNL     1      -2.057   9.683  14.553  1.00  0.00    -0.002 C 
HETATM   13  C21 UNL     1      -2.271   9.590  16.084  1.00  0.00     0.031 C 
HETATM   14  C22 UNL     1      -3.257   8.456  16.465  1.00  0.00     0.124 C 
HETATM   15  C23 UNL     1      -3.982   7.797  15.285  1.00  0.00     0.045 C 
HETATM   16  C24 UNL     1      -3.143   7.427  14.015  1.00  0.00     0.001 C 
HETATM   17  C25 UNL     1      -4.081   7.694  12.812  1.00  0.00     0.019 C 
HETATM   18  C26 UNL     1      -1.868   8.305  13.893  1.00  0.00     0.002 C 
HETATM   19  C27 UNL     1      -0.697   7.466  14.436  1.00  0.00     0.009 C 
HETATM   20  C28 UNL     1      -1.237   6.070  14.727  1.00  0.00     0.047 C 
HETATM   21  C29 UNL     1      -2.575   5.965  13.983  1.00  0.00     0.128 C 
ENDROOT
BRANCH   6  22
HETATM   22  O1  UNL     1       0.041  14.787  18.753  1.00  0.00    -0.271 OA
BRANCH  22  23
HETATM   23  C6  UNL     1       1.313  14.205  19.012  1.00  0.00     0.303 C 
BRANCH  23  24
HETATM   24  C7  UNL     1       1.560  14.189  20.514  1.00  0.00     0.244 C 
HETATM   25  O2  UNL     1       1.002  14.967  21.285  1.00  0.00    -0.271 OA
HETATM   26  N2  UNL     1       2.439  13.209  20.929  1.00  0.00    -0.355 N 
HETATM   27  H10 UNL     1       2.766  12.534  20.249  1.00  0.00     0.162 HD
BRANCH  26  28
HETATM   28  C8  UNL     1       2.691  12.956  22.328  1.00  0.00     0.161 C 
BRANCH  28  29
HETATM   29  C9  UNL     1       4.172  12.871  22.605  1.00  0.00    -0.040 A 
HETATM   30  C10 UNL     1       4.964  14.027  22.646  1.00  0.00     0.010 A 
HETATM   31  C11 UNL     1       6.340  13.932  22.877  1.00  0.00     0.019 A 
HETATM   32  C12 UNL     1       6.942  12.680  23.059  1.00  0.00     0.037 A 
HETATM   33  C14 UNL     1       6.156  11.522  23.012  1.00  0.00     0.019 A 
HETATM   34  C15 UNL     1       4.782  11.620  22.785  1.00  0.00     0.010 A 
BRANCH  32  35
HETATM   35  C13 UNL     1       8.405  12.631  23.293  1.00  0.00     0.176 C 
HETATM   36  O3  UNL     1       9.082  13.528  23.762  1.00  0.00    -0.646 OA
BRANCH  35  37
HETATM   37  O4  UNL     1       8.956  11.463  22.920  1.00  0.00    -0.773 OA
HETATM   38  H15 UNL     1       9.908  11.578  23.123  1.00  0.00     0.167 HD
ENDBRANCH  35  37
ENDBRANCH  32  35
ENDBRANCH  28  29
ENDBRANCH  26  28
ENDBRANCH  23  24
ENDBRANCH  22  23
ENDBRANCH   6  22
BRANCH  14  39
HETATM   39  O5  UNL     1      -2.560   7.446  17.191  1.00  0.00    -0.395 OA
HETATM   40  H26 UNL     1      -2.242   7.835  18.024  1.00  0.00     0.210 HD
ENDBRANCH  14  39
BRANCH  21  41
HETATM   41  O6  UNL     1      -3.381   5.044  14.707  1.00  0.00    -0.381 OA
HETATM   42  H37 UNL     1      -4.229   4.947  14.230  1.00  0.00     0.211 HD
ENDBRANCH  21  41
BRANCH  21  43
HETATM   43  C30 UNL     1      -2.280   5.427  12.543  1.00  0.00     0.184 C 
HETATM   44  O7  UNL     1      -1.333   5.842  11.865  1.00  0.00    -0.292 OA
BRANCH  43  45
HETATM   45  C31 UNL     1      -3.270   4.438  11.910  1.00  0.00     0.245 C 
BRANCH  45  46
HETATM   46  O8  UNL     1      -3.387   3.163  12.512  1.00  0.00    -0.393 OA
HETATM   47  H40 UNL     1      -2.554   2.688  12.322  1.00  0.00     0.209 HD
ENDBRANCH  45  46
ENDBRANCH  43  45
ENDBRANCH  21  43
TORSDOF 12
ENDMDL
MODEL 4
REMARK minimizedAffinity -10.8596001
REMARK CNNscore 0.662230432
REMARK CNNaffinity 7.24953985
REMARK  12 active torsions:
REMARK  status: ('A' for Active; 'I' for Inactive)
REMARK    1  A    between atoms: N1_6  and  O1_8 
REMARK    2  A    between atoms: O1_8  and  C6_9 
REMARK    3  A    between atoms: C6_9  and  C7_10 
REMARK       I    between atoms: C7_10  and  N2_12 
REMARK    4  A    between atoms: N2_12  and  C8_13 
REMARK    5  A    between atoms: C8_13  and  C9_14 
REMARK    6  A    between atoms: C12_17  and  C13_18 
REMARK    7  A    between atoms: C13_18  and  O4_20 
REMARK    8  A    between atoms: C22_29  and  O5_30 
REMARK    9  A    between atoms: C29_37  and  O6_38 
REMARK   10  A    between atoms: C29_37  and  C30_39 
REMARK   11  A    between atoms: C30_39  and  C31_41 
REMARK   12  A    between atoms: C31_41  and  O8_42 
ROOT
HETATM    1  C1  UNL     1      -1.320   8.841  15.184  1.00  0.00     0.020 C 
HETATM    2  C2  UNL     1      -2.052   7.999  14.114  1.00  0.00    -0.014 C 
HETATM    3  C3  UNL     1      -3.212   8.834  13.496  1.00  0.00     0.020 C 
HETATM    4  C4  UNL     1      -4.374   9.065  14.449  1.00  0.00     0.060 C 
HETATM    5  C5  UNL     1      -4.904   7.759  15.003  1.00  0.00     0.032 C 
HETATM    6  N1  UNL     1      -6.155   7.739  15.352  1.00  0.00    -0.271 N 
ATOM      7  H1  UNL     1      -6.790   8.530  15.243  1.00  0.00     0.194 HD
HETATM    8  C16 UNL     1      -3.931   6.641  15.165  1.00  0.00     0.030 C 
HETATM    9  C17 UNL     1      -2.640   6.757  14.803  1.00  0.00    -0.069 C 
HETATM   10  C18 UNL     1      -1.686   5.624  15.118  1.00  0.00     0.035 C 
HETATM   11  C19 UNL     1      -0.793   5.260  13.936  1.00  0.00     0.010 C 
HETATM   12  C20 UNL     1      -0.054   6.501  13.419  1.00  0.00    -0.002 C 
HETATM   13  C21 UNL     1      -1.086   7.554  12.944  1.00  0.00     0.031 C 
HETATM   14  C22 UNL     1      -0.414   8.721  12.177  1.00  0.00     0.124 C 
HETATM   15  C23 UNL     1       1.120   8.729  12.214  1.00  0.00     0.045 C 
HETATM   16  C24 UNL     1       1.873   7.377  11.977  1.00  0.00     0.001 C 
HETATM   17  C25 UNL     1       3.105   7.424  12.915  1.00  0.00     0.019 C 
HETATM   18  C26 UNL     1       0.985   6.154  12.338  1.00  0.00     0.002 C 
HETATM   19  C27 UNL     1       0.408   5.618  11.014  1.00  0.00     0.009 C 
HETATM   20  C28 UNL     1       1.062   6.406   9.884  1.00  0.00     0.047 C 
HETATM   21  C29 UNL     1       2.294   7.087  10.494  1.00  0.00     0.128 C 
ENDROOT
BRANCH   6  22
HETATM   22  O1  UNL     1      -6.531   6.501  15.897  1.00  0.00    -0.271 OA
BRANCH  22  23
HETATM   23  C6  UNL     1      -7.922   6.311  15.665  1.00  0.00     0.303 C 
BRANCH  23  24
HETATM   24  C7  UNL     1      -8.124   5.751  14.265  1.00  0.00     0.244 C 
HETATM   25  O2  UNL     1      -8.504   6.443  13.323  1.00  0.00    -0.271 OA
HETATM   26  N2  UNL     1      -7.817   4.411  14.145  1.00  0.00    -0.355 N 
HETATM   27  H10 UNL     1      -7.399   3.939  14.937  1.00  0.00     0.162 HD
BRANCH  26  28
HETATM   28  C8  UNL     1      -7.819   3.741  12.866  1.00  0.00     0.161 C 
BRANCH  28  29
HETATM   29  C9  UNL     1      -6.423   3.328  12.469  1.00  0.00    -0.040 A 
HETATM   30  C10 UNL     1      -6.198   2.147  11.749  1.00  0.00     0.010 A 
HETATM   31  C11 UNL     1      -4.897   1.762  11.411  1.00  0.00     0.019 A 
HETATM   32  C12 UNL     1      -3.804   2.548  11.798  1.00  0.00     0.037 A 
HETATM   33  C14 UNL     1      -4.021   3.725  12.524  1.00  0.00     0.019 A 
HETATM   34  C15 UNL     1      -5.322   4.109  12.857  1.00  0.00     0.010 A 
BRANCH  32  35
HETATM   35  C13 UNL     1      -2.444   2.093  11.422  1.00  0.00     0.176 C 
HETATM   36  O3  UNL     1      -1.436   2.776  11.431  1.00  0.00    -0.646 OA
BRANCH  35  37
HETATM   37  O4  UNL     1      -2.410   0.803  11.043  1.00  0.00    -0.773 OA
HETATM   38  H15 UNL     1      -1.468   0.650  10.822  1.00  0.00     0.167 HD
ENDBRANCH  35  37
ENDBRANCH  32  35
ENDBRANCH  28  29
ENDBRANCH  26  28
ENDBRANCH  23  24
ENDBRANCH  22  23
ENDBRANCH   6  22
BRANCH  14  39
HETATM   39  O5  UNL     1      -0.835   8.697  10.815  1.00  0.00    -0.395 OA
HETATM   40  H26 UNL     1      -1.794   8.858  10.791  1.00  0.00     0.210 HD
ENDBRANCH  14  39
BRANCH  21  41
HETATM   41  O6  UNL     1       2.525   8.274   9.745  1.00  0.00    -0.381 OA
HETATM   42  H37 UNL     1       3.324   8.707  10.107  1.00  0.00     0.211 HD
ENDBRANCH  21  41
BRANCH  21  43
HETATM   43  C30 UNL     1       3.503   6.103  10.355  1.00  0.00     0.184 C 
HETATM   44  O7  UNL     1       4.580   6.295  10.933  1.00  0.00    -0.292 OA
BRANCH  43  45
HETATM   45  C31 UNL     1       3.385   4.925   9.377  1.00  0.00     0.245 C 
BRANCH  45  46
HETATM   46  O8  UNL     1       3.195   3.638   9.933  1.00  0.00    -0.393 OA
HETATM   47  H40 UNL     1       4.037   3.394  10.365  1.00  0.00     0.209 HD
ENDBRANCH  45  46
ENDBRANCH  43  45
ENDBRANCH  21  43
TORSDOF 12
ENDMDL
MODEL 5
REMARK minimizedAffinity -8.75484085
REMARK CNNscore 0.551084995
REMARK CNNaffinity 6.86292982
REMARK  12 active torsions:
REMARK  status: ('A' for Active; 'I' for Inactive)
REMARK    1  A    between atoms: N1_6  and  O1_8 
REMARK    2  A    between atoms: O1_8  and  C6_9 
REMARK    3  A    between atoms: C6_9  and  C7_10 
REMARK       I    between atoms: C7_10  and  N2_12 
REMARK    4  A    between atoms: N2_12  and  C8_13 
REMARK    5  A    between atoms: C8_13  and  C9_14 
REMARK    6  A    between atoms: C12_17  and  C13_18 
REMARK    7  A    between atoms: C13_18  and  O4_20 
REMARK    8  A    between atoms: C22_29  and  O5_30 
REMARK    9  A    between atoms: C29_37  and  O6_38 
REMARK   10  A    between atoms: C29_37  and  C30_39 
REMARK   11  A    between atoms: C30_39  and  C31_41 
REMARK   12  A    between atoms: C31_41  and  O8_42 
ROOT
HETATM    1  C1  UNL     1      -2.936   7.551  16.055  1.00  0.00     0.020 C 
HETATM    2  C2  UNL     1      -3.456   7.885  14.638  1.00  0.00    -0.014 C 
HETATM    3  C3  UNL     1      -4.238   9.231  14.673  1.00  0.00     0.020 C 
HETATM    4  C4  UNL     1      -5.572   9.144  15.398  1.00  0.00     0.060 C 
HETATM    5  C5  UNL     1      -6.443   8.045  14.827  1.00  0.00     0.032 C 
HETATM    6  N1  UNL     1      -7.727   8.200  14.940  1.00  0.00    -0.271 N 
ATOM      7  H1  UNL     1      -8.167   9.022  15.355  1.00  0.00     0.194 HD
HETATM    8  C16 UNL     1      -5.752   6.855  14.253  1.00  0.00     0.030 C 
HETATM    9  C17 UNL     1      -4.410   6.761  14.202  1.00  0.00    -0.069 C 
HETATM   10  C18 UNL     1      -3.783   5.468  13.725  1.00  0.00     0.035 C 
HETATM   11  C19 UNL     1      -2.659   5.695  12.718  1.00  0.00     0.010 C 
HETATM   12  C20 UNL     1      -1.613   6.659  13.290  1.00  0.00    -0.002 C 
HETATM   13  C21 UNL     1      -2.280   8.024  13.591  1.00  0.00     0.031 C 
HETATM   14  C22 UNL     1      -1.236   9.119  13.927  1.00  0.00     0.124 C 
HETATM   15  C23 UNL     1       0.203   8.617  14.107  1.00  0.00     0.045 C 
HETATM   16  C24 UNL     1       0.762   7.590  13.066  1.00  0.00     0.001 C 
HETATM   17  C25 UNL     1       1.664   6.629  13.881  1.00  0.00     0.019 C 
HETATM   18  C26 UNL     1      -0.377   6.786  12.381  1.00  0.00     0.002 C 
HETATM   19  C27 UNL     1      -0.628   7.448  11.013  1.00  0.00     0.009 C 
HETATM   20  C28 UNL     1       0.442   8.518  10.826  1.00  0.00     0.047 C 
HETATM   21  C29 UNL     1       1.540   8.211  11.853  1.00  0.00     0.128 C 
ENDROOT
BRANCH   6  22
HETATM   22  O1  UNL     1      -8.440   7.106  14.425  1.00  0.00    -0.271 OA
BRANCH  22  23
HETATM   23  C6  UNL     1      -9.656   6.979  15.151  1.00  0.00     0.303 C 
BRANCH  23  24
HETATM   24  C7  UNL     1     -10.299   8.350  15.296  1.00  0.00     0.244 C 
HETATM   25  O2  UNL     1     -10.426   9.126  14.350  1.00  0.00    -0.271 OA
HETATM   26  N2  UNL     1     -10.748   8.630  16.571  1.00  0.00    -0.355 N 
HETATM   27  H10 UNL     1     -10.713   7.896  17.267  1.00  0.00     0.162 HD
BRANCH  26  28
HETATM   28  C8  UNL     1     -11.502   9.825  16.867  1.00  0.00     0.161 C 
BRANCH  28  29
HETATM   29  C9  UNL     1     -11.266  10.276  18.287  1.00  0.00    -0.040 A 
HETATM   30  C10 UNL     1     -10.817  11.574  18.565  1.00  0.00     0.010 A 
HETATM   31  C11 UNL     1     -10.576  11.971  19.884  1.00  0.00     0.019 A 
HETATM   32  C12 UNL     1     -10.772  11.071  20.940  1.00  0.00     0.037 A 
HETATM   33  C14 UNL     1     -11.213   9.771  20.668  1.00  0.00     0.019 A 
HETATM   34  C15 UNL     1     -11.456   9.378  19.350  1.00  0.00     0.010 A 
BRANCH  32  35
HETATM   35  C13 UNL     1     -10.495  11.537  22.320  1.00  0.00     0.176 C 
HETATM   36  O3  UNL     1     -10.479  10.841  23.318  1.00  0.00    -0.646 OA
BRANCH  35  37
HETATM   37  O4  UNL     1     -10.259  12.859  22.388  1.00  0.00    -0.773 OA
HETATM   38  H15 UNL     1     -10.103  13.020  23.342  1.00  0.00     0.167 HD
ENDBRANCH  35  37
ENDBRANCH  32  35
ENDBRANCH  28  29
ENDBRANCH  26  28
ENDBRANCH  23  24
ENDBRANCH  22  23
ENDBRANCH   6  22
BRANCH  14  39
HETATM   39  O5  UNL     1      -1.246  10.113  12.905  1.00  0.00    -0.395 OA
HETATM   40  H26 UNL     1      -2.119  10.543  12.908  1.00  0.00     0.210 HD
ENDBRANCH  14  39
BRANCH  21  41
HETATM   41  O6  UNL     1       2.165   9.447  12.174  1.00  0.00    -0.381 OA
HETATM   42  H37 UNL     1       2.885   9.264  12.809  1.00  0.00     0.211 HD
ENDBRANCH  21  41
BRANCH  21  43
HETATM   43  C30 UNL     1       2.562   7.234  11.182  1.00  0.00     0.184 C 
HETATM   44  O7  UNL     1       3.710   7.584  10.882  1.00  0.00    -0.292 OA
BRANCH  43  45
HETATM   45  C31 UNL     1       2.083   5.831  10.779  1.00  0.00     0.245 C 
BRANCH  45  46
HETATM   46  O8  UNL     1       1.966   5.560   9.395  1.00  0.00    -0.393 OA
HETATM   47  H40 UNL     1       1.204   6.079   9.073  1.00  0.00     0.209 HD
ENDBRANCH  45  46
ENDBRANCH  43  45
ENDBRANCH  21  43
TORSDOF 12
ENDMDL
MODEL 6
REMARK minimizedAffinity -9.64431477
REMARK CNNscore 0.52874738
REMARK CNNaffinity 7.11379099
REMARK  12 active torsions:
REMARK  status: ('A' for Active; 'I' for Inactive)
REMARK    1  A    between atoms: N1_6  and  O1_8 
REMARK    2  A    between atoms: O1_8  and  C6_9 
REMARK    3  A    between atoms: C6_9  and  C7_10 
REMARK       I    between atoms: C7_10  and  N2_12 
REMARK    4  A    between atoms: N2_12  and  C8_13 
REMARK    5  A    between atoms: C8_13  and  C9_14 
REMARK    6  A    between atoms: C12_17  and  C13_18 
REMARK    7  A    between atoms: C13_18  and  O4_20 
REMARK    8  A    between atoms: C22_29  and  O5_30 
REMARK    9  A    between atoms: C29_37  and  O6_38 
REMARK   10  A    between atoms: C29_37  and  C30_39 
REMARK   11  A    between atoms: C30_39  and  C31_41 
REMARK   12  A    between atoms: C31_41  and  O8_42 
ROOT
HETATM    1  C1  UNL     1      -1.872   5.470  14.763  1.00  0.00     0.020 C 
HETATM    2  C2  UNL     1      -2.558   5.958  13.466  1.00  0.00    -0.014 C 
HETATM    3  C3  UNL     1      -3.659   7.001  13.817  1.00  0.00     0.020 C 
HETATM    4  C4  UNL     1      -4.871   6.400  14.512  1.00  0.00     0.060 C 
HETATM    5  C5  UNL     1      -5.463   5.262  13.707  1.00  0.00     0.032 C 
HETATM    6  N1  UNL     1      -6.733   5.037  13.863  1.00  0.00    -0.271 N 
ATOM      7  H1  UNL     1      -7.342   5.596  14.460  1.00  0.00     0.194 HD
HETATM    8  C16 UNL     1      -4.528   4.460  12.868  1.00  0.00     0.030 C 
HETATM    9  C17 UNL     1      -3.214   4.745  12.787  1.00  0.00    -0.069 C 
HETATM   10  C18 UNL     1      -2.307   3.808  12.019  1.00  0.00     0.035 C 
HETATM   11  C19 UNL     1      -1.353   4.546  11.084  1.00  0.00     0.010 C 
HETATM   12  C20 UNL     1      -0.557   5.604  11.858  1.00  0.00    -0.002 C 
HETATM   13  C21 UNL     1      -1.533   6.637  12.472  1.00  0.00     0.031 C 
HETATM   14  C22 UNL     1      -0.790   7.870  13.046  1.00  0.00     0.124 C 
HETATM   15  C23 UNL     1       0.739   7.747  13.094  1.00  0.00     0.045 C 
HETATM   16  C24 UNL     1       1.473   7.166  11.839  1.00  0.00     0.001 C 
HETATM   17  C25 UNL     1       2.647   6.327  12.403  1.00  0.00     0.019 C 
HETATM   18  C26 UNL     1       0.538   6.258  10.994  1.00  0.00     0.002 C 
HETATM   19  C27 UNL     1       0.029   7.114   9.819  1.00  0.00     0.009 C 
HETATM   20  C28 UNL     1       0.768   8.446   9.878  1.00  0.00     0.047 C 
HETATM   21  C29 UNL     1       1.976   8.226  10.798  1.00  0.00     0.128 C 
ENDROOT
BRANCH   6  22
HETATM   22  O1  UNL     1      -7.169   3.934  13.112  1.00  0.00    -0.271 OA
BRANCH  22  23
HETATM   23  C6  UNL     1      -8.561   4.085  12.857  1.00  0.00     0.303 C 
BRANCH  23  24
HETATM   24  C7  UNL     1      -8.917   5.564  12.887  1.00  0.00     0.244 C 
HETATM   25  O2  UNL     1      -8.727   6.311  11.929  1.00  0.00    -0.271 OA
HETATM   26  N2  UNL     1      -9.494   5.981  14.070  1.00  0.00    -0.355 N 
HETATM   27  H10 UNL     1      -9.724   5.283  14.766  1.00  0.00     0.162 HD
BRANCH  26  28
HETATM   28  C8  UNL     1     -10.019   7.316  14.231  1.00  0.00     0.161 C 
BRANCH  28  29
HETATM   29  C9  UNL     1     -11.467   7.382  13.812  1.00  0.00    -0.040 A 
HETATM   30  C10 UNL     1     -12.356   6.344  14.124  1.00  0.00     0.010 A 
HETATM   31  C11 UNL     1     -13.688   6.405  13.706  1.00  0.00     0.019 A 
HETATM   32  C12 UNL     1     -14.146   7.500  12.961  1.00  0.00     0.037 A 
HETATM   33  C14 UNL     1     -13.262   8.536  12.640  1.00  0.00     0.019 A 
HETATM   34  C15 UNL     1     -11.932   8.474  13.062  1.00  0.00     0.010 A 
BRANCH  32  35
HETATM   35  C13 UNL     1     -15.566   7.514  12.534  1.00  0.00     0.176 C 
HETATM   36  O3  UNL     1     -16.530   7.625  13.269  1.00  0.00    -0.646 OA
BRANCH  35  37
HETATM   37  O4  UNL     1     -15.714   7.381  11.205  1.00  0.00    -0.773 OA
HETATM   38  H15 UNL     1     -16.685   7.400  11.074  1.00  0.00     0.167 HD
ENDBRANCH  35  37
ENDBRANCH  32  35
ENDBRANCH  28  29
ENDBRANCH  26  28
ENDBRANCH  23  24
ENDBRANCH  22  23
ENDBRANCH   6  22
BRANCH  14  39
HETATM   39  O5  UNL     1      -1.129   9.025  12.283  1.00  0.00    -0.395 OA
HETATM   40  H26 UNL     1      -2.081   9.193  12.392  1.00  0.00     0.210 HD
ENDBRANCH  14  39
BRANCH  21  41
HETATM   41  O6  UNL     1       2.279   9.481  11.393  1.00  0.00    -0.381 OA
HETATM   42  H37 UNL     1       3.064   9.362  11.963  1.00  0.00     0.211 HD
ENDBRANCH  21  41
BRANCH  21  43
HETATM   43  C30 UNL     1       3.169   7.734   9.912  1.00  0.00     0.184 C 
HETATM   44  O7  UNL     1       3.304   8.085   8.733  1.00  0.00    -0.292 OA
BRANCH  43  45
HETATM   45  C31 UNL     1       4.134   6.688  10.490  1.00  0.00     0.245 C 
BRANCH  45  46
HETATM   46  O8  UNL     1       5.519   6.928  10.331  1.00  0.00    -0.393 OA
HETATM   47  H40 UNL     1       5.716   6.807   9.382  1.00  0.00     0.209 HD
ENDBRANCH  45  46
ENDBRANCH  43  45
ENDBRANCH  21  43
TORSDOF 12
ENDMDL
MODEL 7
REMARK minimizedAffinity -10.5458822
REMARK CNNscore 0.491939396
REMARK CNNaffinity 7.04135895
REMARK  12 active torsions:
REMARK  status: ('A' for Active; 'I' for Inactive)
REMARK    1  A    between atoms: N1_6  and  O1_8 
REMARK    2  A    between atoms: O1_8  and  C6_9 
REMARK    3  A    between atoms: C6_9  and  C7_10 
REMARK       I    between atoms: C7_10  and  N2_12 
REMARK    4  A    between atoms: N2_12  and  C8_13 
REMARK    5  A    between atoms: C8_13  and  C9_14 
REMARK    6  A    between atoms: C12_17  and  C13_18 
REMARK    7  A    between atoms: C13_18  and  O4_20 
REMARK    8  A    between atoms: C22_29  and  O5_30 
REMARK    9  A    between atoms: C29_37  and  O6_38 
REMARK   10  A    between atoms: C29_37  and  C30_39 
REMARK   11  A    between atoms: C30_39  and  C31_41 
REMARK   12  A    between atoms: C31_41  and  O8_42 
ROOT
HETATM    1  C1  UNL     1      -2.200   5.403  12.213  1.00  0.00     0.020 C 
HETATM    2  C2  UNL     1      -1.752   6.460  13.248  1.00  0.00    -0.014 C 
HETATM    3  C3  UNL     1      -1.815   5.850  14.679  1.00  0.00     0.020 C 
HETATM    4  C4  UNL     1      -3.231   5.615  15.182  1.00  0.00     0.060 C 
HETATM    5  C5  UNL     1      -4.061   6.880  15.113  1.00  0.00     0.032 C 
HETATM    6  N1  UNL     1      -5.034   6.985  15.966  1.00  0.00    -0.271 N 
ATOM      7  H1  UNL     1      -5.240   6.291  16.684  1.00  0.00     0.194 HD
HETATM    8  C16 UNL     1      -3.734   7.853  14.032  1.00  0.00     0.030 C 
HETATM    9  C17 UNL     1      -2.722   7.650  13.167  1.00  0.00    -0.069 C 
HETATM   10  C18 UNL     1      -2.535   8.617  12.017  1.00  0.00     0.035 C 
HETATM   11  C19 UNL     1      -1.082   9.045  11.838  1.00  0.00     0.010 C 
HETATM   12  C20 UNL     1      -0.174   7.816  11.703  1.00  0.00    -0.002 C 
HETATM   13  C21 UNL     1      -0.274   6.958  12.988  1.00  0.00     0.031 C 
HETATM   14  C22 UNL     1       0.804   5.844  13.028  1.00  0.00     0.124 C 
HETATM   15  C23 UNL     1       1.606   5.665  11.733  1.00  0.00     0.045 C 
HETATM   16  C24 UNL     1       2.133   6.948  11.006  1.00  0.00     0.001 C 
HETATM   17  C25 UNL     1       2.020   6.638   9.493  1.00  0.00     0.019 C 
HETATM   18  C26 UNL     1       1.276   8.197  11.351  1.00  0.00     0.002 C 
HETATM   19  C27 UNL     1       2.039   8.972  12.442  1.00  0.00     0.009 C 
HETATM   20  C28 UNL     1       3.387   8.284  12.626  1.00  0.00     0.047 C 
HETATM   21  C29 UNL     1       3.586   7.395  11.391  1.00  0.00     0.128 C 
ENDROOT
BRANCH   6  22
HETATM   22  O1  UNL     1      -5.769   8.168  15.786  1.00  0.00    -0.271 OA
BRANCH  22  23
HETATM   23  C6  UNL     1      -7.100   7.943  16.233  1.00  0.00     0.303 C 
BRANCH  23  24
HETATM   24  C7  UNL     1      -7.631   6.665  15.602  1.00  0.00     0.244 C 
HETATM   25  O2  UNL     1      -7.705   5.603  16.217  1.00  0.00    -0.271 OA
HETATM   26  N2  UNL     1      -8.046   6.813  14.294  1.00  0.00    -0.355 N 
HETATM   27  H10 UNL     1      -8.063   7.744  13.896  1.00  0.00     0.162 HD
BRANCH  26  28
HETATM   28  C8  UNL     1      -8.702   5.745  13.578  1.00  0.00     0.161 C 
BRANCH  28  29
HETATM   29  C9  UNL     1      -7.697   4.751  13.049  1.00  0.00    -0.040 A 
HETATM   30  C10 UNL     1      -8.057   3.415  12.821  1.00  0.00     0.010 A 
HETATM   31  C11 UNL     1      -7.110   2.498  12.356  1.00  0.00     0.019 A 
HETATM   32  C12 UNL     1      -5.788   2.902  12.125  1.00  0.00     0.037 A 
HETATM   33  C14 UNL     1      -5.421   4.233  12.359  1.00  0.00     0.019 A 
HETATM   34  C15 UNL     1      -6.371   5.148  12.819  1.00  0.00     0.010 A 
BRANCH  32  35
HETATM   35  C13 UNL     1      -4.819   1.890  11.641  1.00  0.00     0.176 C 
HETATM   36  O3  UNL     1      -3.609   1.944  11.766  1.00  0.00    -0.646 OA
BRANCH  35  37
HETATM   37  O4  UNL     1      -5.410   0.859  11.012  1.00  0.00    -0.773 OA
HETATM   38  H15 UNL     1      -4.660   0.287  10.747  1.00  0.00     0.167 HD
ENDBRANCH  35  37
ENDBRANCH  32  35
ENDBRANCH  28  29
ENDBRANCH  26  28
ENDBRANCH  23  24
ENDBRANCH  22  23
ENDBRANCH   6  22
BRANCH  14  39
HETATM   39  O5  UNL     1       1.713   6.104  14.094  1.00  0.00    -0.395 OA
HETATM   40  H26 UNL     1       1.222   6.053  14.933  1.00  0.00     0.210 HD
ENDBRANCH  14  39
BRANCH  21  41
HETATM   41  O6  UNL     1       4.410   6.308  11.792  1.00  0.00    -0.381 OA
HETATM   42  H37 UNL     1       4.567   5.744  11.008  1.00  0.00     0.211 HD
ENDBRANCH  21  41
BRANCH  21  43
HETATM   43  C30 UNL     1       4.301   8.253  10.294  1.00  0.00     0.184 C 
HETATM   44  O7  UNL     1       3.863   8.348   9.141  1.00  0.00    -0.292 OA
BRANCH  43  45
HETATM   45  C31 UNL     1       5.652   8.901  10.631  1.00  0.00     0.245 C 
BRANCH  45  46
HETATM   46  O8  UNL     1       5.714  10.315  10.616  1.00  0.00    -0.393 OA
HETATM   47  H40 UNL     1       5.643  10.587   9.681  1.00  0.00     0.209 HD
ENDBRANCH  45  46
ENDBRANCH  43  45
ENDBRANCH  21  43
TORSDOF 12
ENDMDL
MODEL 8
REMARK minimizedAffinity -10.6901989
REMARK CNNscore 0.427243352
REMARK CNNaffinity 6.97548914
REMARK  12 active torsions:
REMARK  status: ('A' for Active; 'I' for Inactive)
REMARK    1  A    between atoms: N1_6  and  O1_8 
REMARK    2  A    between atoms: O1_8  and  C6_9 
REMARK    3  A    between atoms: C6_9  and  C7_10 
REMARK       I    between atoms: C7_10  and  N2_12 
REMARK    4  A    between atoms: N2_12  and  C8_13 
REMARK    5  A    between atoms: C8_13  and  C9_14 
REMARK    6  A    between atoms: C12_17  and  C13_18 
REMARK    7  A    between atoms: C13_18  and  O4_20 
REMARK    8  A    between atoms: C22_29  and  O5_30 
REMARK    9  A    between atoms: C29_37  and  O6_38 
REMARK   10  A    between atoms: C29_37  and  C30_39 
REMARK   11  A    between atoms: C30_39  and  C31_41 
REMARK   12  A    between atoms: C31_41  and  O8_42 
ROOT
HETATM    1  C1  UNL     1      -2.926   7.881  15.872  1.00  0.00     0.020 C 
HETATM    2  C2  UNL     1      -3.334   7.612  14.406  1.00  0.00    -0.014 C 
HETATM    3  C3  UNL     1      -4.356   8.691  13.941  1.00  0.00     0.020 C 
HETATM    4  C4  UNL     1      -5.724   8.555  14.593  1.00  0.00     0.060 C 
HETATM    5  C5  UNL     1      -6.297   7.168  14.396  1.00  0.00     0.032 C 
HETATM    6  N1  UNL     1      -7.592   7.067  14.392  1.00  0.00    -0.271 N 
ATOM      7  H1  UNL     1      -8.226   7.861  14.480  1.00  0.00     0.194 HD
HETATM    8  C16 UNL     1      -5.330   6.037  14.296  1.00  0.00     0.030 C 
HETATM    9  C17 UNL     1      -3.998   6.228  14.339  1.00  0.00    -0.069 C 
HETATM   10  C18 UNL     1      -3.085   5.020  14.363  1.00  0.00     0.035 C 
HETATM   11  C19 UNL     1      -1.916   5.146  13.390  1.00  0.00     0.010 C 
HETATM   12  C20 UNL     1      -1.147   6.448  13.643  1.00  0.00    -0.002 C 
HETATM   13  C21 UNL     1      -2.092   7.656  13.427  1.00  0.00     0.031 C 
HETATM   14  C22 UNL     1      -1.322   9.001  13.413  1.00  0.00     0.124 C 
HETATM   15  C23 UNL     1       0.155   8.913  13.817  1.00  0.00     0.045 C 
HETATM   16  C24 UNL     1       1.017   7.751  13.218  1.00  0.00     0.001 C 
HETATM   17  C25 UNL     1       1.984   7.331  14.352  1.00  0.00     0.019 C 
HETATM   18  C26 UNL     1       0.139   6.540  12.801  1.00  0.00     0.002 C 
HETATM   19  C27 UNL     1      -0.074   6.648  11.279  1.00  0.00     0.009 C 
HETATM   20  C28 UNL     1       0.787   7.805  10.784  1.00  0.00     0.047 C 
HETATM   21  C29 UNL     1       1.796   8.097  11.901  1.00  0.00     0.128 C 
ENDROOT
BRANCH   6  22
HETATM   22  O1  UNL     1      -8.018   5.736  14.252  1.00  0.00    -0.271 OA
BRANCH  22  23
HETATM   23  C6  UNL     1      -8.205   5.466  12.868  1.00  0.00     0.303 C 
BRANCH  23  24
HETATM   24  C7  UNL     1      -7.854   4.012  12.590  1.00  0.00     0.244 C 
HETATM   25  O2  UNL     1      -8.565   3.078  12.952  1.00  0.00    -0.271 OA
HETATM   26  N2  UNL     1      -6.685   3.843  11.875  1.00  0.00    -0.355 N 
HETATM   27  H10 UNL     1      -6.218   4.664  11.512  1.00  0.00     0.162 HD
BRANCH  26  28
HETATM   28  C8  UNL     1      -6.263   2.545  11.403  1.00  0.00     0.161 C 
BRANCH  28  29
HETATM   29  C9  UNL     1      -4.761   2.473  11.288  1.00  0.00    -0.040 A 
HETATM   30  C10 UNL     1      -4.048   1.393  11.828  1.00  0.00     0.010 A 
HETATM   31  C11 UNL     1      -2.654   1.351  11.738  1.00  0.00     0.019 A 
HETATM   32  C12 UNL     1      -1.953   2.395  11.118  1.00  0.00     0.037 A 
HETATM   33  C14 UNL     1      -2.659   3.479  10.584  1.00  0.00     0.019 A 
HETATM   34  C15 UNL     1      -4.052   3.516  10.671  1.00  0.00     0.010 A 
BRANCH  32  35
HETATM   35  C13 UNL     1      -0.475   2.308  11.056  1.00  0.00     0.176 C 
HETATM   36  O3  UNL     1       0.303   3.215  11.290  1.00  0.00    -0.646 OA
BRANCH  35  37
HETATM   37  O4  UNL     1      -0.037   1.089  10.693  1.00  0.00    -0.773 OA
HETATM   38  H15 UNL     1       0.939   1.184  10.688  1.00  0.00     0.167 HD
ENDBRANCH  35  37
ENDBRANCH  32  35
ENDBRANCH  28  29
ENDBRANCH  26  28
ENDBRANCH  23  24
ENDBRANCH  22  23
ENDBRANCH   6  22
BRANCH  14  39
HETATM   39  O5  UNL     1      -1.404   9.580  12.113  1.00  0.00    -0.395 OA
HETATM   40  H26 UNL     1      -2.337   9.786  11.930  1.00  0.00     0.210 HD
ENDBRANCH  14  39
BRANCH  21  41
HETATM   41  O6  UNL     1       2.133   9.475  11.806  1.00  0.00    -0.381 OA
HETATM   42  H37 UNL     1       2.797   9.672  12.497  1.00  0.00     0.211 HD
ENDBRANCH  21  41
BRANCH  21  43
HETATM   43  C30 UNL     1       3.057   7.203  11.652  1.00  0.00     0.184 C 
HETATM   44  O7  UNL     1       2.971   6.046  11.223  1.00  0.00    -0.292 OA
BRANCH  43  45
HETATM   45  C31 UNL     1       4.435   7.741  12.067  1.00  0.00     0.245 C 
BRANCH  45  46
HETATM   46  O8  UNL     1       5.364   6.810  12.586  1.00  0.00    -0.393 OA
HETATM   47  H40 UNL     1       5.032   6.547  13.467  1.00  0.00     0.209 HD
ENDBRANCH  45  46
ENDBRANCH  43  45
ENDBRANCH  21  43
TORSDOF 12
ENDMDL
MODEL 9
REMARK minimizedAffinity -9.14260483
REMARK CNNscore 0.389793932
REMARK CNNaffinity 6.67114496
REMARK  12 active torsions:
REMARK  status: ('A' for Active; 'I' for Inactive)
REMARK    1  A    between atoms: N1_6  and  O1_8 
REMARK    2  A    between atoms: O1_8  and  C6_9 
REMARK    3  A    between atoms: C6_9  and  C7_10 
REMARK       I    between atoms: C7_10  and  N2_12 
REMARK    4  A    between atoms: N2_12  and  C8_13 
REMARK    5  A    between atoms: C8_13  and  C9_14 
REMARK    6  A    between atoms: C12_17  and  C13_18 
REMARK    7  A    between atoms: C13_18  and  O4_20 
REMARK    8  A    between atoms: C22_29  and  O5_30 
REMARK    9  A    between atoms: C29_37  and  O6_38 
REMARK   10  A    between atoms: C29_37  and  C30_39 
REMARK   11  A    between atoms: C30_39  and  C31_41 
REMARK   12  A    between atoms: C31_41  and  O8_42 
ROOT
HETATM    1  C1  UNL     1      -4.701   5.299  13.327  1.00  0.00     0.020 C 
HETATM    2  C2  UNL     1      -4.393   6.473  14.284  1.00  0.00    -0.014 C 
HETATM    3  C3  UNL     1      -4.733   6.060  15.746  1.00  0.00     0.020 C 
HETATM    4  C4  UNL     1      -6.225   5.927  16.011  1.00  0.00     0.060 C 
HETATM    5  C5  UNL     1      -6.970   7.191  15.635  1.00  0.00     0.032 C 
HETATM    6  N1  UNL     1      -8.072   7.432  16.279  1.00  0.00    -0.271 N 
ATOM      7  H1  UNL     1      -8.433   6.843  17.030  1.00  0.00     0.194 HD
HETATM    8  C16 UNL     1      -6.414   8.004  14.516  1.00  0.00     0.030 C 
HETATM    9  C17 UNL     1      -5.277   7.664  13.879  1.00  0.00    -0.069 C 
HETATM   10  C18 UNL     1      -4.847   8.466  12.670  1.00  0.00     0.035 C 
HETATM   11  C19 UNL     1      -3.366   8.832  12.702  1.00  0.00     0.010 C 
HETATM   12  C20 UNL     1      -2.507   7.575  12.888  1.00  0.00    -0.002 C 
HETATM   13  C21 UNL     1      -2.870   6.897  14.232  1.00  0.00     0.031 C 
HETATM   14  C22 UNL     1      -1.870   5.774  14.606  1.00  0.00     0.124 C 
HETATM   15  C23 UNL     1      -0.862   5.406  13.510  1.00  0.00     0.045 C 
HETATM   16  C24 UNL     1      -0.157   6.569  12.733  1.00  0.00     0.001 C 
HETATM   17  C25 UNL     1      -0.018   6.063  11.275  1.00  0.00     0.019 C 
HETATM   18  C26 UNL     1      -1.002   7.872  12.758  1.00  0.00     0.002 C 
HETATM   19  C27 UNL     1      -0.406   8.767  13.861  1.00  0.00     0.009 C 
HETATM   20  C28 UNL     1       0.856   8.078  14.369  1.00  0.00     0.047 C 
HETATM   21  C29 UNL     1       1.226   7.029  13.313  1.00  0.00     0.128 C 
ENDROOT
BRANCH   6  22
HETATM   22  O1  UNL     1      -8.707   8.597  15.821  1.00  0.00    -0.271 OA
BRANCH  22  23
HETATM   23  C6  UNL     1     -10.107   8.458  16.033  1.00  0.00     0.303 C 
BRANCH  23  24
HETATM   24  C7  UNL     1     -10.710   7.660  14.886  1.00  0.00     0.244 C 
HETATM   25  O2  UNL     1     -10.043   7.263  13.932  1.00  0.00    -0.271 OA
HETATM   26  N2  UNL     1     -12.059   7.401  15.028  1.00  0.00    -0.355 N 
HETATM   27  H10 UNL     1     -12.511   7.660  15.896  1.00  0.00     0.162 HD
BRANCH  26  28
HETATM   28  C8  UNL     1     -12.770   6.546  14.109  1.00  0.00     0.161 C 
BRANCH  28  29
HETATM   29  C9  UNL     1     -13.837   7.315  13.368  1.00  0.00    -0.040 A 
HETATM   30  C10 UNL     1     -14.993   6.675  12.901  1.00  0.00     0.010 A 
HETATM   31  C11 UNL     1     -15.961   7.393  12.193  1.00  0.00     0.019 A 
HETATM   32  C12 UNL     1     -15.779   8.758  11.932  1.00  0.00     0.037 A 
HETATM   33  C14 UNL     1     -14.623   9.401  12.389  1.00  0.00     0.019 A 
HETATM   34  C15 UNL     1     -13.659   8.681  13.100  1.00  0.00     0.010 A 
BRANCH  32  35
HETATM   35  C13 UNL     1     -16.830   9.473  11.170  1.00  0.00     0.176 C 
HETATM   36  O3  UNL     1     -17.683   8.955  10.473  1.00  0.00    -0.646 OA
BRANCH  35  37
HETATM   37  O4  UNL     1     -16.759  10.809  11.309  1.00  0.00    -0.773 OA
HETATM   38  H15 UNL     1     -17.496  11.141  10.754  1.00  0.00     0.167 HD
ENDBRANCH  35  37
ENDBRANCH  32  35
ENDBRANCH  28  29
ENDBRANCH  26  28
ENDBRANCH  23  24
ENDBRANCH  22  23
ENDBRANCH   6  22
BRANCH  14  39
HETATM   39  O5  UNL     1      -1.150   6.151  15.777  1.00  0.00    -0.395 OA
HETATM   40  H26 UNL     1      -1.782   6.223  16.513  1.00  0.00     0.210 HD
ENDBRANCH  14  39
BRANCH  21  41
HETATM   41  O6  UNL     1       1.915   5.985  13.989  1.00  0.00    -0.381 OA
HETATM   42  H37 UNL     1       2.180   5.319  13.324  1.00  0.00     0.211 HD
ENDBRANCH  21  41
BRANCH  21  43
HETATM   43  C30 UNL     1       2.161   7.716  12.263  1.00  0.00     0.184 C 
HETATM   44  O7  UNL     1       2.144   8.937  12.063  1.00  0.00    -0.292 OA
BRANCH  43  45
HETATM   45  C31 UNL     1       3.043   6.830  11.371  1.00  0.00     0.245 C 
BRANCH  45  46
HETATM   46  O8  UNL     1       4.318   6.473  11.871  1.00  0.00    -0.393 OA
HETATM   47  H40 UNL     1       4.859   7.286  11.861  1.00  0.00     0.209 HD
ENDBRANCH  45  46
ENDBRANCH  43  45
ENDBRANCH  21  43
TORSDOF 12
ENDMDL
