MODEL 1
REMARK minimizedAffinity -11.0170355
REMARK  8 active torsions:
REMARK  status: ('A' for Active; 'I' for Inactive)
REMARK    1  A    between atoms: C2_2  and  C3_3 
REMARK    2  A    between atoms: C2_2  and  C9_12 
REMARK    3  A    between atoms: C3_3  and  C4_4 
REMARK    4  A    between atoms: C4_4  and  O1_5 
REMARK    5  A    between atoms: C4_4  and  C5_6 
REMARK    6  A    between atoms: C5_6  and  O2_7 
REMARK    7  A    between atoms: C5_6  and  C6_8 
REMARK    8  A    between atoms: C6_8  and  O3_11 
ROOT
HETATM    1  C9  UNL     1       0.451   7.272  11.826  1.00  0.00    -0.002 C 
HETATM    2  C10 UNL     1       0.467   6.010  10.961  1.00  0.00     0.007 C 
HETATM    3  C11 UNL     1      -0.964   5.505  11.074  1.00  0.00     0.015 C 
HETATM    4  C12 UNL     1      -1.291   5.595  12.583  1.00  0.00    -0.005 C 
HETATM    5  C13 UNL     1      -0.670   4.355  13.291  1.00  0.00     0.021 C 
HETATM    6  C14 UNL     1      -2.812   5.583  12.851  1.00  0.00    -0.000 C 
HETATM    7  C15 UNL     1      -3.508   6.561  13.484  1.00  0.00    -0.060 C 
HETATM    8  C16 UNL     1      -2.768   7.803  13.945  1.00  0.00     0.036 C 
HETATM    9  C17 UNL     1      -1.564   8.111  13.071  1.00  0.00     0.015 C 
HETATM   10  C18 UNL     1      -0.542   6.948  13.016  1.00  0.00    -0.028 C 
HETATM   11  C19 UNL     1       0.112   6.838  14.408  1.00  0.00     0.016 C 
HETATM   12  C20 UNL     1      -5.027   6.501  13.827  1.00  0.00    -0.014 C 
HETATM   13  C21 UNL     1      -5.707   7.828  13.389  1.00  0.00     0.020 C 
HETATM   14  C22 UNL     1      -5.129   6.319  15.362  1.00  0.00     0.021 C 
HETATM   15  C23 UNL     1      -6.509   5.983  15.908  1.00  0.00     0.080 C 
HETATM   16  C24 UNL     1      -7.569   5.873  14.846  1.00  0.00     0.135 C 
HETATM   17  O4  UNL     1      -8.687   6.354  15.041  1.00  0.00    -0.297 OA
HETATM   18  C25 UNL     1      -7.237   5.045  13.597  1.00  0.00     0.018 C 
HETATM   19  C26 UNL     1      -7.543   3.584  13.987  1.00  0.00     0.023 C 
HETATM   20  C27 UNL     1      -8.226   5.419  12.465  1.00  0.00     0.023 C 
HETATM   21  C28 UNL     1      -5.762   5.318  13.100  1.00  0.00     0.020 C 
HETATM   22  C29 UNL     1      -4.881   4.071  13.115  1.00  0.00     0.090 C 
HETATM   23  C30 UNL     1      -3.565   4.351  12.441  1.00  0.00     0.157 C 
HETATM   24  O5  UNL     1      -3.110   3.560  11.618  1.00  0.00    -0.293 OA
ENDROOT
BRANCH   1  25
HETATM   25  C2  UNL     1       1.855   7.907  12.020  1.00  0.00    -0.011 C 
HETATM   26  C1  UNL     1       2.069   8.356  13.473  1.00  0.00     0.010 C 
BRANCH  25  27
HETATM   27  C3  UNL     1       3.057   7.088  11.507  1.00  0.00     0.039 C 
BRANCH  27  28
HETATM   28  C4  UNL     1       3.514   7.466  10.082  1.00  0.00     0.150 C 
BRANCH  28  29
HETATM   29  O1  UNL     1       4.887   7.048   9.943  1.00  0.00    -0.393 OA
HETATM   30  H8  UNL     1       4.908   6.098  10.166  1.00  0.00     0.210 HD
ENDBRANCH  28  29
BRANCH  28  31
HETATM   31  C5  UNL     1       2.672   6.785   8.964  1.00  0.00     0.180 C 
BRANCH  31  32
HETATM   32  O2  UNL     1       3.441   5.723   8.370  1.00  0.00    -0.390 OA
HETATM   33  H10 UNL     1       4.327   6.112   8.211  1.00  0.00     0.210 HD
ENDBRANCH  31  32
BRANCH  31  34
HETATM   34  C6  UNL     1       2.163   7.768   7.868  1.00  0.00     0.079 C 
HETATM   35  C7  UNL     1       1.940   7.078   6.518  1.00  0.00     0.048 C 
HETATM   36  C8  UNL     1       0.845   8.419   8.309  1.00  0.00     0.048 C 
BRANCH  34  37
HETATM   37  O3  UNL     1       3.130   8.810   7.677  1.00  0.00    -0.388 OA
HETATM   38  H17 UNL     1       3.057   9.423   8.431  1.00  0.00     0.210 HD
ENDBRANCH  34  37
ENDBRANCH  31  34
ENDBRANCH  28  31
ENDBRANCH  27  28
ENDBRANCH  25  27
ENDBRANCH   1  25
TORSDOF 8
ENDMDL
MODEL 2
REMARK minimizedAffinity -10.0834122
REMARK  8 active torsions:
REMARK  status: ('A' for Active; 'I' for Inactive)
REMARK    1  A    between atoms: C2_2  and  C3_3 
REMARK    2  A    between atoms: C2_2  and  C9_12 
REMARK    3  A    between atoms: C3_3  and  C4_4 
REMARK    4  A    between atoms: C4_4  and  O1_5 
REMARK    5  A    between atoms: C4_4  and  C5_6 
REMARK    6  A    between atoms: C5_6  and  O2_7 
REMARK    7  A    between atoms: C5_6  and  C6_8 
REMARK    8  A    between atoms: C6_8  and  O3_11 
ROOT
HETATM    1  C9  UNL     1      -3.410   7.664  15.166  1.00  0.00    -0.002 C 
HETATM    2  C10 UNL     1      -3.213   6.188  15.520  1.00  0.00     0.007 C 
HETATM    3  C11 UNL     1      -1.936   5.829  14.774  1.00  0.00     0.015 C 
HETATM    4  C12 UNL     1      -2.129   6.430  13.362  1.00  0.00    -0.005 C 
HETATM    5  C13 UNL     1      -3.026   5.461  12.537  1.00  0.00     0.021 C 
HETATM    6  C14 UNL     1      -0.789   6.592  12.610  1.00  0.00    -0.000 C 
HETATM    7  C15 UNL     1      -0.287   7.762  12.140  1.00  0.00    -0.060 C 
HETATM    8  C16 UNL     1      -1.059   9.043  12.390  1.00  0.00     0.036 C 
HETATM    9  C17 UNL     1      -1.880   8.977  13.667  1.00  0.00     0.015 C 
HETATM   10  C18 UNL     1      -2.894   7.806  13.677  1.00  0.00    -0.028 C 
HETATM   11  C19 UNL     1      -3.982   8.126  12.631  1.00  0.00     0.016 C 
HETATM   12  C20 UNL     1       1.024   7.902  11.307  1.00  0.00    -0.014 C 
HETATM   13  C21 UNL     1       1.891   9.046  11.902  1.00  0.00     0.020 C 
HETATM   14  C22 UNL     1       0.594   8.244   9.858  1.00  0.00     0.021 C 
HETATM   15  C23 UNL     1       1.688   8.185   8.802  1.00  0.00     0.080 C 
HETATM   16  C24 UNL     1       3.034   7.789   9.347  1.00  0.00     0.135 C 
HETATM   17  O4  UNL     1       4.050   8.369   8.958  1.00  0.00    -0.297 OA
HETATM   18  C25 UNL     1       3.088   6.578  10.288  1.00  0.00     0.018 C 
HETATM   19  C26 UNL     1       3.155   5.347   9.360  1.00  0.00     0.023 C 
HETATM   20  C27 UNL     1       4.420   6.612  11.078  1.00  0.00     0.023 C 
HETATM   21  C28 UNL     1       1.885   6.589  11.313  1.00  0.00     0.020 C 
HETATM   22  C29 UNL     1       0.974   5.370  11.185  1.00  0.00     0.090 C 
HETATM   23  C30 UNL     1      -0.020   5.338  12.314  1.00  0.00     0.157 C 
HETATM   24  O5  UNL     1      -0.220   4.295  12.932  1.00  0.00    -0.293 OA
ENDROOT
BRANCH   1  25
HETATM   25  C2  UNL     1      -4.755   8.248  15.676  1.00  0.00    -0.011 C 
HETATM   26  C1  UNL     1      -4.674   9.772  15.845  1.00  0.00     0.010 C 
BRANCH  25  27
HETATM   27  C3  UNL     1      -6.022   7.841  14.896  1.00  0.00     0.039 C 
BRANCH  27  28
HETATM   28  C4  UNL     1      -6.531   6.420  15.218  1.00  0.00     0.150 C 
BRANCH  28  29
HETATM   29  O1  UNL     1      -6.664   6.323  16.651  1.00  0.00    -0.393 OA
HETATM   30  H8  UNL     1      -7.242   7.061  16.922  1.00  0.00     0.210 HD
ENDBRANCH  28  29
BRANCH  28  31
HETATM   31  C5  UNL     1      -7.907   6.096  14.568  1.00  0.00     0.180 C 
BRANCH  31  32
HETATM   32  O2  UNL     1      -8.811   5.620  15.582  1.00  0.00    -0.390 OA
HETATM   33  H10 UNL     1      -8.293   4.964  16.095  1.00  0.00     0.210 HD
ENDBRANCH  31  32
BRANCH  31  34
HETATM   34  C6  UNL     1      -7.826   5.079  13.391  1.00  0.00     0.079 C 
HETATM   35  C7  UNL     1      -8.501   5.599  12.117  1.00  0.00     0.048 C 
HETATM   36  C8  UNL     1      -6.361   4.753  13.070  1.00  0.00     0.048 C 
BRANCH  34  37
HETATM   37  O3  UNL     1      -8.479   3.860  13.770  1.00  0.00    -0.388 OA
HETATM   38  H17 UNL     1      -7.886   3.384  14.380  1.00  0.00     0.210 HD
ENDBRANCH  34  37
ENDBRANCH  31  34
ENDBRANCH  28  31
ENDBRANCH  27  28
ENDBRANCH  25  27
ENDBRANCH   1  25
TORSDOF 8
ENDMDL
MODEL 3
REMARK minimizedAffinity -10.0489359
REMARK  8 active torsions:
REMARK  status: ('A' for Active; 'I' for Inactive)
REMARK    1  A    between atoms: C2_2  and  C3_3 
REMARK    2  A    between atoms: C2_2  and  C9_12 
REMARK    3  A    between atoms: C3_3  and  C4_4 
REMARK    4  A    between atoms: C4_4  and  O1_5 
REMARK    5  A    between atoms: C4_4  and  C5_6 
REMARK    6  A    between atoms: C5_6  and  O2_7 
REMARK    7  A    between atoms: C5_6  and  C6_8 
REMARK    8  A    between atoms: C6_8  and  O3_11 
ROOT
HETATM    1  C9  UNL     1       0.698   7.313  11.475  1.00  0.00    -0.002 C 
HETATM    2  C10 UNL     1       0.677   6.045  10.618  1.00  0.00     0.007 C 
HETATM    3  C11 UNL     1      -0.751   5.547  10.788  1.00  0.00     0.015 C 
HETATM    4  C12 UNL     1      -1.020   5.648  12.308  1.00  0.00    -0.005 C 
HETATM    5  C13 UNL     1      -0.377   4.410  13.001  1.00  0.00     0.021 C 
HETATM    6  C14 UNL     1      -2.530   5.643  12.634  1.00  0.00    -0.000 C 
HETATM    7  C15 UNL     1      -3.197   6.628  13.286  1.00  0.00    -0.060 C 
HETATM    8  C16 UNL     1      -2.437   7.871  13.710  1.00  0.00     0.036 C 
HETATM    9  C17 UNL     1      -1.265   8.168  12.789  1.00  0.00     0.015 C 
HETATM   10  C18 UNL     1      -0.250   7.001  12.703  1.00  0.00    -0.028 C 
HETATM   11  C19 UNL     1       0.455   6.897  14.071  1.00  0.00     0.016 C 
HETATM   12  C20 UNL     1      -4.703   6.576  13.686  1.00  0.00    -0.014 C 
HETATM   13  C21 UNL     1      -5.394   7.903  13.265  1.00  0.00     0.020 C 
HETATM   14  C22 UNL     1      -4.747   6.405  15.225  1.00  0.00     0.021 C 
HETATM   15  C23 UNL     1      -6.107   6.078  15.826  1.00  0.00     0.080 C 
HETATM   16  C24 UNL     1      -7.207   5.965  14.805  1.00  0.00     0.135 C 
HETATM   17  O4  UNL     1      -8.315   6.451  15.039  1.00  0.00    -0.297 OA
HETATM   18  C25 UNL     1      -6.925   5.127  13.550  1.00  0.00     0.018 C 
HETATM   19  C26 UNL     1      -7.221   3.670  13.962  1.00  0.00     0.023 C 
HETATM   20  C27 UNL     1      -7.955   5.497  12.455  1.00  0.00     0.023 C 
HETATM   21  C28 UNL     1      -5.469   5.391  12.996  1.00  0.00     0.020 C 
HETATM   22  C29 UNL     1      -4.592   4.141  12.986  1.00  0.00     0.090 C 
HETATM   23  C30 UNL     1      -3.302   4.411  12.261  1.00  0.00     0.157 C 
HETATM   24  O5  UNL     1      -2.882   3.613  11.427  1.00  0.00    -0.293 OA
ENDROOT
BRANCH   1  25
HETATM   25  C2  UNL     1       2.111   7.944  11.611  1.00  0.00    -0.011 C 
HETATM   26  C1  UNL     1       2.089   9.164  12.543  1.00  0.00     0.010 C 
BRANCH  25  27
HETATM   27  C3  UNL     1       3.261   6.984  11.976  1.00  0.00     0.039 C 
BRANCH  27  28
HETATM   28  C4  UNL     1       4.206   6.658  10.800  1.00  0.00     0.150 C 
BRANCH  28  29
HETATM   29  O1  UNL     1       3.889   7.566   9.726  1.00  0.00    -0.393 OA
HETATM   30  H8  UNL     1       3.958   8.466  10.099  1.00  0.00     0.210 HD
ENDBRANCH  28  29
BRANCH  28  31
HETATM   31  C5  UNL     1       5.712   6.818  11.157  1.00  0.00     0.180 C 
BRANCH  31  32
HETATM   32  O2  UNL     1       6.115   5.732  12.013  1.00  0.00    -0.390 OA
HETATM   33  H10 UNL     1       5.407   5.668  12.690  1.00  0.00     0.210 HD
ENDBRANCH  31  32
BRANCH  31  34
HETATM   34  C6  UNL     1       6.066   8.186  11.812  1.00  0.00     0.079 C 
HETATM   35  C7  UNL     1       5.517   9.377  11.020  1.00  0.00     0.048 C 
HETATM   36  C8  UNL     1       5.508   8.250  13.242  1.00  0.00     0.048 C 
BRANCH  34  37
HETATM   37  O3  UNL     1       7.491   8.324  11.886  1.00  0.00    -0.388 OA
HETATM   38  H17 UNL     1       7.806   7.757  12.614  1.00  0.00     0.210 HD
ENDBRANCH  34  37
ENDBRANCH  31  34
ENDBRANCH  28  31
ENDBRANCH  27  28
ENDBRANCH  25  27
ENDBRANCH   1  25
TORSDOF 8
ENDMDL
MODEL 4
REMARK minimizedAffinity -9.70814228
REMARK  8 active torsions:
REMARK  status: ('A' for Active; 'I' for Inactive)
REMARK    1  A    between atoms: C2_2  and  C3_3 
REMARK    2  A    between atoms: C2_2  and  C9_12 
REMARK    3  A    between atoms: C3_3  and  C4_4 
REMARK    4  A    between atoms: C4_4  and  O1_5 
REMARK    5  A    between atoms: C4_4  and  C5_6 
REMARK    6  A    between atoms: C5_6  and  O2_7 
REMARK    7  A    between atoms: C5_6  and  C6_8 
REMARK    8  A    between atoms: C6_8  and  O3_11 
ROOT
HETATM    1  C9  UNL     1       0.700   7.587  11.870  1.00  0.00    -0.002 C 
HETATM    2  C10 UNL     1       0.773   6.343  10.982  1.00  0.00     0.007 C 
HETATM    3  C11 UNL     1      -0.642   5.788  11.063  1.00  0.00     0.015 C 
HETATM    4  C12 UNL     1      -0.995   5.838  12.568  1.00  0.00    -0.005 C 
HETATM    5  C13 UNL     1      -0.343   4.606  13.263  1.00  0.00     0.021 C 
HETATM    6  C14 UNL     1      -2.519   5.768  12.811  1.00  0.00    -0.000 C 
HETATM    7  C15 UNL     1      -3.257   6.710  13.451  1.00  0.00    -0.060 C 
HETATM    8  C16 UNL     1      -2.568   7.968  13.946  1.00  0.00     0.036 C 
HETATM    9  C17 UNL     1      -1.362   8.333  13.097  1.00  0.00     0.015 C 
HETATM   10  C18 UNL     1      -0.299   7.207  13.037  1.00  0.00    -0.028 C 
HETATM   11  C19 UNL     1       0.336   7.093  14.438  1.00  0.00     0.016 C 
HETATM   12  C20 UNL     1      -4.779   6.591  13.767  1.00  0.00    -0.014 C 
HETATM   13  C21 UNL     1      -5.497   7.903  13.343  1.00  0.00     0.020 C 
HETATM   14  C22 UNL     1      -4.898   6.378  15.297  1.00  0.00     0.021 C 
HETATM   15  C23 UNL     1      -6.274   5.985  15.815  1.00  0.00     0.080 C 
HETATM   16  C24 UNL     1      -7.314   5.859  14.733  1.00  0.00     0.135 C 
HETATM   17  O4  UNL     1      -8.450   6.298  14.919  1.00  0.00    -0.297 OA
HETATM   18  C25 UNL     1      -6.933   5.066  13.475  1.00  0.00     0.018 C 
HETATM   19  C26 UNL     1      -7.195   3.588  13.834  1.00  0.00     0.023 C 
HETATM   20  C27 UNL     1      -7.917   5.428  12.335  1.00  0.00     0.023 C 
HETATM   21  C28 UNL     1      -5.461   5.399  13.007  1.00  0.00     0.020 C 
HETATM   22  C29 UNL     1      -4.538   4.182  13.014  1.00  0.00     0.090 C 
HETATM   23  C30 UNL     1      -3.222   4.519  12.366  1.00  0.00     0.157 C 
HETATM   24  O5  UNL     1      -2.728   3.760  11.537  1.00  0.00    -0.293 OA
ENDROOT
BRANCH   1  25
HETATM   25  C2  UNL     1       2.078   8.266  12.098  1.00  0.00    -0.011 C 
HETATM   26  C1  UNL     1       1.927   9.600  12.844  1.00  0.00     0.010 C 
BRANCH  25  27
HETATM   27  C3  UNL     1       3.178   7.393  12.736  1.00  0.00     0.039 C 
BRANCH  27  28
HETATM   28  C4  UNL     1       4.012   8.117  13.813  1.00  0.00     0.150 C 
BRANCH  28  29
HETATM   29  O1  UNL     1       4.119   7.231  14.946  1.00  0.00    -0.393 OA
HETATM   30  H8  UNL     1       4.488   6.394  14.604  1.00  0.00     0.210 HD
ENDBRANCH  28  29
BRANCH  28  31
HETATM   31  C5  UNL     1       5.446   8.489  13.336  1.00  0.00     0.180 C 
BRANCH  31  32
HETATM   32  O2  UNL     1       5.361   9.189  12.080  1.00  0.00    -0.390 OA
HETATM   33  H10 UNL     1       4.737   8.661  11.538  1.00  0.00     0.210 HD
ENDBRANCH  31  32
BRANCH  31  34
HETATM   34  C6  UNL     1       6.409   7.272  13.216  1.00  0.00     0.079 C 
HETATM   35  C7  UNL     1       6.178   6.462  11.936  1.00  0.00     0.048 C 
HETATM   36  C8  UNL     1       7.869   7.746  13.238  1.00  0.00     0.048 C 
BRANCH  34  37
HETATM   37  O3  UNL     1       6.211   6.396  14.334  1.00  0.00    -0.388 OA
HETATM   38  H17 UNL     1       6.632   6.807  15.111  1.00  0.00     0.210 HD
ENDBRANCH  34  37
ENDBRANCH  31  34
ENDBRANCH  28  31
ENDBRANCH  27  28
ENDBRANCH  25  27
ENDBRANCH   1  25
TORSDOF 8
ENDMDL
MODEL 5
REMARK minimizedAffinity -9.35800076
REMARK  8 active torsions:
REMARK  status: ('A' for Active; 'I' for Inactive)
REMARK    1  A    between atoms: C2_2  and  C3_3 
REMARK    2  A    between atoms: C2_2  and  C9_12 
REMARK    3  A    between atoms: C3_3  and  C4_4 
REMARK    4  A    between atoms: C4_4  and  O1_5 
REMARK    5  A    between atoms: C4_4  and  C5_6 
REMARK    6  A    between atoms: C5_6  and  O2_7 
REMARK    7  A    between atoms: C5_6  and  C6_8 
REMARK    8  A    between atoms: C6_8  and  O3_11 
ROOT
HETATM    1  C9  UNL     1       2.668   7.097  12.014  1.00  0.00    -0.002 C 
HETATM    2  C10 UNL     1       2.512   8.618  11.959  1.00  0.00     0.007 C 
HETATM    3  C11 UNL     1       1.102   8.833  12.486  1.00  0.00     0.015 C 
HETATM    4  C12 UNL     1       0.244   7.782  11.743  1.00  0.00    -0.005 C 
HETATM    5  C13 UNL     1      -0.075   8.330  10.321  1.00  0.00     0.021 C 
HETATM    6  C14 UNL     1      -1.098   7.513  12.461  1.00  0.00    -0.000 C 
HETATM    7  C15 UNL     1      -1.511   6.309  12.931  1.00  0.00    -0.060 C 
HETATM    8  C16 UNL     1      -0.587   5.113  12.794  1.00  0.00     0.036 C 
HETATM    9  C17 UNL     1       0.878   5.518  12.798  1.00  0.00     0.015 C 
HETATM   10  C18 UNL     1       1.234   6.520  11.672  1.00  0.00    -0.028 C 
HETATM   11  C19 UNL     1       1.129   5.767  10.330  1.00  0.00     0.016 C 
HETATM   12  C20 UNL     1      -2.903   6.030  13.575  1.00  0.00    -0.014 C 
HETATM   13  C21 UNL     1      -2.708   5.239  14.899  1.00  0.00     0.020 C 
HETATM   14  C22 UNL     1      -3.705   5.187  12.552  1.00  0.00     0.021 C 
HETATM   15  C23 UNL     1      -5.185   5.000  12.849  1.00  0.00     0.080 C 
HETATM   16  C24 UNL     1      -5.640   5.685  14.111  1.00  0.00     0.135 C 
HETATM   17  O4  UNL     1      -6.418   5.112  14.875  1.00  0.00    -0.297 OA
HETATM   18  C25 UNL     1      -5.197   7.138  14.326  1.00  0.00     0.018 C 
HETATM   19  C26 UNL     1      -6.221   7.993  13.550  1.00  0.00     0.023 C 
HETATM   20  C27 UNL     1      -5.361   7.499  15.824  1.00  0.00     0.023 C 
HETATM   21  C28 UNL     1      -3.687   7.349  13.910  1.00  0.00     0.020 C 
HETATM   22  C29 UNL     1      -3.509   8.361  12.781  1.00  0.00     0.090 C 
HETATM   23  C30 UNL     1      -2.050   8.668  12.577  1.00  0.00     0.157 C 
HETATM   24  O5  UNL     1      -1.672   9.831  12.462  1.00  0.00    -0.293 OA
ENDROOT
BRANCH   1  25
HETATM   25  C2  UNL     1       3.983   6.585  11.366  1.00  0.00    -0.011 C 
HETATM   26  C1  UNL     1       3.708   5.861  10.041  1.00  0.00     0.010 C 
BRANCH  25  27
HETATM   27  C3  UNL     1       5.121   7.616  11.212  1.00  0.00     0.039 C 
BRANCH  27  28
HETATM   28  C4  UNL     1       6.393   7.274  12.016  1.00  0.00     0.150 C 
BRANCH  28  29
HETATM   29  O1  UNL     1       7.458   7.058  11.069  1.00  0.00    -0.393 OA
HETATM   30  H8  UNL     1       7.499   7.862  10.516  1.00  0.00     0.210 HD
ENDBRANCH  28  29
BRANCH  28  31
HETATM   31  C5  UNL     1       6.822   8.402  12.999  1.00  0.00     0.180 C 
BRANCH  31  32
HETATM   32  O2  UNL     1       8.011   9.040  12.499  1.00  0.00    -0.390 OA
HETATM   33  H10 UNL     1       8.603   8.302  12.238  1.00  0.00     0.210 HD
ENDBRANCH  31  32
BRANCH  31  34
HETATM   34  C6  UNL     1       7.039   7.916  14.463  1.00  0.00     0.079 C 
HETATM   35  C7  UNL     1       8.509   7.609  14.768  1.00  0.00     0.048 C 
HETATM   36  C8  UNL     1       6.546   8.980  15.454  1.00  0.00     0.048 C 
BRANCH  34  37
HETATM   37  O3  UNL     1       6.282   6.719  14.685  1.00  0.00    -0.388 OA
HETATM   38  H17 UNL     1       5.347   6.973  14.781  1.00  0.00     0.210 HD
ENDBRANCH  34  37
ENDBRANCH  31  34
ENDBRANCH  28  31
ENDBRANCH  27  28
ENDBRANCH  25  27
ENDBRANCH   1  25
TORSDOF 8
ENDMDL
MODEL 6
REMARK minimizedAffinity -9.35288811
REMARK  8 active torsions:
REMARK  status: ('A' for Active; 'I' for Inactive)
REMARK    1  A    between atoms: C2_2  and  C3_3 
REMARK    2  A    between atoms: C2_2  and  C9_12 
REMARK    3  A    between atoms: C3_3  and  C4_4 
REMARK    4  A    between atoms: C4_4  and  O1_5 
REMARK    5  A    between atoms: C4_4  and  C5_6 
REMARK    6  A    between atoms: C5_6  and  O2_7 
REMARK    7  A    between atoms: C5_6  and  C6_8 
REMARK    8  A    between atoms: C6_8  and  O3_11 
ROOT
HETATM    1  C9  UNL     1      -3.281   8.509  14.680  1.00  0.00    -0.002 C 
HETATM    2  C10 UNL     1      -2.411   9.497  15.461  1.00  0.00     0.007 C 
HETATM    3  C11 UNL     1      -1.089   9.448  14.709  1.00  0.00     0.015 C 
HETATM    4  C12 UNL     1      -0.819   7.941  14.491  1.00  0.00    -0.005 C 
HETATM    5  C13 UNL     1      -0.231   7.355  15.809  1.00  0.00     0.021 C 
HETATM    6  C14 UNL     1       0.204   7.690  13.361  1.00  0.00    -0.000 C 
HETATM    7  C15 UNL     1      -0.029   6.968  12.236  1.00  0.00    -0.060 C 
HETATM    8  C16 UNL     1      -1.410   6.378  12.017  1.00  0.00     0.036 C 
HETATM    9  C17 UNL     1      -2.498   7.205  12.680  1.00  0.00     0.015 C 
HETATM   10  C18 UNL     1      -2.292   7.367  14.207  1.00  0.00    -0.028 C 
HETATM   11  C19 UNL     1      -2.520   5.987  14.855  1.00  0.00     0.016 C 
HETATM   12  C20 UNL     1       1.035   6.647  11.143  1.00  0.00    -0.014 C 
HETATM   13  C21 UNL     1       0.441   6.956   9.740  1.00  0.00     0.020 C 
HETATM   14  C22 UNL     1       1.364   5.139  11.272  1.00  0.00     0.021 C 
HETATM   15  C23 UNL     1       2.561   4.642  10.476  1.00  0.00     0.080 C 
HETATM   16  C24 UNL     1       3.248   5.720   9.681  1.00  0.00     0.135 C 
HETATM   17  O4  UNL     1       3.630   5.488   8.532  1.00  0.00    -0.297 OA
HETATM   18  C25 UNL     1       3.553   7.042  10.398  1.00  0.00     0.018 C 
HETATM   19  C26 UNL     1       4.887   6.803  11.137  1.00  0.00     0.023 C 
HETATM   20  C27 UNL     1       3.823   8.140   9.339  1.00  0.00     0.023 C 
HETATM   21  C28 UNL     1       2.345   7.496  11.310  1.00  0.00     0.020 C 
HETATM   22  C29 UNL     1       2.713   7.597  12.789  1.00  0.00     0.090 C 
HETATM   23  C30 UNL     1       1.589   8.228  13.566  1.00  0.00     0.157 C 
HETATM   24  O5  UNL     1       1.822   9.122  14.376  1.00  0.00    -0.293 OA
ENDROOT
BRANCH   1  25
HETATM   25  C2  UNL     1      -4.659   8.240  15.344  1.00  0.00    -0.011 C 
HETATM   26  C1  UNL     1      -5.215   9.507  16.010  1.00  0.00     0.010 C 
BRANCH  25  27
HETATM   27  C3  UNL     1      -5.726   7.558  14.463  1.00  0.00     0.039 C 
BRANCH  27  28
HETATM   28  C4  UNL     1      -6.098   6.131  14.915  1.00  0.00     0.150 C 
BRANCH  28  29
HETATM   29  O1  UNL     1      -5.955   6.081  16.349  1.00  0.00    -0.393 OA
HETATM   30  H8  UNL     1      -6.506   6.804  16.705  1.00  0.00     0.210 HD
ENDBRANCH  28  29
BRANCH  28  31
HETATM   31  C5  UNL     1      -7.556   5.728  14.547  1.00  0.00     0.180 C 
BRANCH  31  32
HETATM   32  O2  UNL     1      -8.195   5.151  15.700  1.00  0.00    -0.390 OA
HETATM   33  H10 UNL     1      -7.539   4.517  16.061  1.00  0.00     0.210 HD
ENDBRANCH  31  32
BRANCH  31  34
HETATM   34  C6  UNL     1      -7.657   4.763  13.329  1.00  0.00     0.079 C 
HETATM   35  C7  UNL     1      -8.392   5.391  12.140  1.00  0.00     0.048 C 
HETATM   36  C8  UNL     1      -6.254   4.341  12.868  1.00  0.00     0.048 C 
BRANCH  34  37
HETATM   37  O3  UNL     1      -8.370   3.581  13.715  1.00  0.00    -0.388 OA
HETATM   38  H17 UNL     1      -7.769   3.034  14.253  1.00  0.00     0.210 HD
ENDBRANCH  34  37
ENDBRANCH  31  34
ENDBRANCH  28  31
ENDBRANCH  27  28
ENDBRANCH  25  27
ENDBRANCH   1  25
TORSDOF 8
ENDMDL
MODEL 7
REMARK minimizedAffinity -9.32232666
REMARK  8 active torsions:
REMARK  status: ('A' for Active; 'I' for Inactive)
REMARK    1  A    between atoms: C2_2  and  C3_3 
REMARK    2  A    between atoms: C2_2  and  C9_12 
REMARK    3  A    between atoms: C3_3  and  C4_4 
REMARK    4  A    between atoms: C4_4  and  O1_5 
REMARK    5  A    between atoms: C4_4  and  C5_6 
REMARK    6  A    between atoms: C5_6  and  O2_7 
REMARK    7  A    between atoms: C5_6  and  C6_8 
REMARK    8  A    between atoms: C6_8  and  O3_11 
ROOT
HETATM    1  C9  UNL     1      -4.893   6.644  13.531  1.00  0.00    -0.002 C 
HETATM    2  C10 UNL     1      -5.213   8.096  13.168  1.00  0.00     0.007 C 
HETATM    3  C11 UNL     1      -3.833   8.722  13.031  1.00  0.00     0.015 C 
HETATM    4  C12 UNL     1      -3.053   8.222  14.270  1.00  0.00    -0.005 C 
HETATM    5  C13 UNL     1      -3.462   9.099  15.490  1.00  0.00     0.021 C 
HETATM    6  C14 UNL     1      -1.525   8.348  14.086  1.00  0.00    -0.000 C 
HETATM    7  C15 UNL     1      -0.639   7.321  14.140  1.00  0.00    -0.060 C 
HETATM    8  C16 UNL     1      -1.162   5.914  14.357  1.00  0.00     0.036 C 
HETATM    9  C17 UNL     1      -2.568   5.734  13.808  1.00  0.00     0.015 C 
HETATM   10  C18 UNL     1      -3.591   6.717  14.429  1.00  0.00    -0.028 C 
HETATM   11  C19 UNL     1      -3.786   6.316  15.905  1.00  0.00     0.016 C 
HETATM   12  C20 UNL     1       0.910   7.470  14.039  1.00  0.00    -0.014 C 
HETATM   13  C21 UNL     1       1.461   6.436  13.017  1.00  0.00     0.020 C 
HETATM   14  C22 UNL     1       1.475   7.189  15.454  1.00  0.00     0.021 C 
HETATM   15  C23 UNL     1       2.946   7.517  15.667  1.00  0.00     0.080 C 
HETATM   16  C24 UNL     1       3.623   8.079  14.445  1.00  0.00     0.135 C 
HETATM   17  O4  UNL     1       4.760   7.710  14.147  1.00  0.00    -0.297 OA
HETATM   18  C25 UNL     1       2.896   9.197  13.685  1.00  0.00     0.018 C 
HETATM   19  C26 UNL     1       3.263  10.498  14.429  1.00  0.00     0.023 C 
HETATM   20  C27 UNL     1       3.498   9.314  12.263  1.00  0.00     0.023 C 
HETATM   21  C28 UNL     1       1.348   8.901  13.564  1.00  0.00     0.020 C 
HETATM   22  C29 UNL     1       0.478   9.961  14.235  1.00  0.00     0.090 C 
HETATM   23  C30 UNL     1      -0.973   9.732  13.907  1.00  0.00     0.157 C 
HETATM   24  O5  UNL     1      -1.683  10.670  13.553  1.00  0.00    -0.293 OA
ENDROOT
BRANCH   1  25
HETATM   25  C2  UNL     1      -6.148   5.806  13.894  1.00  0.00    -0.011 C 
HETATM   26  C1  UNL     1      -7.231   6.677  14.547  1.00  0.00     0.010 C 
BRANCH  25  27
HETATM   27  C3  UNL     1      -6.740   4.931  12.770  1.00  0.00     0.039 C 
BRANCH  27  28
HETATM   28  C4  UNL     1      -6.852   3.434  13.130  1.00  0.00     0.150 C 
BRANCH  28  29
HETATM   29  O1  UNL     1      -8.164   3.222  13.690  1.00  0.00    -0.393 OA
HETATM   30  H8  UNL     1      -8.801   3.556  13.030  1.00  0.00     0.210 HD
ENDBRANCH  28  29
BRANCH  28  31
HETATM   31  C5  UNL     1      -6.676   2.491  11.905  1.00  0.00     0.180 C 
BRANCH  31  32
HETATM   32  O2  UNL     1      -7.152   1.176  12.246  1.00  0.00    -0.390 OA
HETATM   33  H10 UNL     1      -6.765   0.988  13.128  1.00  0.00     0.210 HD
ENDBRANCH  31  32
BRANCH  31  34
HETATM   34  C6  UNL     1      -5.216   2.418  11.367  1.00  0.00     0.079 C 
HETATM   35  C7  UNL     1      -5.032   3.193  10.059  1.00  0.00     0.048 C 
HETATM   36  C8  UNL     1      -4.238   2.978  12.410  1.00  0.00     0.048 C 
BRANCH  34  37
HETATM   37  O3  UNL     1      -4.867   1.049  11.123  1.00  0.00    -0.388 OA
HETATM   38  H17 UNL     1      -4.698   0.627  11.985  1.00  0.00     0.210 HD
ENDBRANCH  34  37
ENDBRANCH  31  34
ENDBRANCH  28  31
ENDBRANCH  27  28
ENDBRANCH  25  27
ENDBRANCH   1  25
TORSDOF 8
ENDMDL
MODEL 8
REMARK minimizedAffinity -9.24852467
REMARK  8 active torsions:
REMARK  status: ('A' for Active; 'I' for Inactive)
REMARK    1  A    between atoms: C2_2  and  C3_3 
REMARK    2  A    between atoms: C2_2  and  C9_12 
REMARK    3  A    between atoms: C3_3  and  C4_4 
REMARK    4  A    between atoms: C4_4  and  O1_5 
REMARK    5  A    between atoms: C4_4  and  C5_6 
REMARK    6  A    between atoms: C5_6  and  O2_7 
REMARK    7  A    between atoms: C5_6  and  C6_8 
REMARK    8  A    between atoms: C6_8  and  O3_11 
ROOT
HETATM    1  C9  UNL     1      -2.685   9.401  14.970  1.00  0.00    -0.002 C 
HETATM    2  C10 UNL     1      -1.769  10.543  15.415  1.00  0.00     0.007 C 
HETATM    3  C11 UNL     1      -0.598  10.432  14.450  1.00  0.00     0.015 C 
HETATM    4  C12 UNL     1      -0.258   8.923  14.422  1.00  0.00    -0.005 C 
HETATM    5  C13 UNL     1       0.593   8.591  15.683  1.00  0.00     0.021 C 
HETATM    6  C14 UNL     1       0.568   8.535  13.176  1.00  0.00    -0.000 C 
HETATM    7  C15 UNL     1       0.198   7.627  12.238  1.00  0.00    -0.060 C 
HETATM    8  C16 UNL     1      -1.151   6.946  12.371  1.00  0.00     0.036 C 
HETATM    9  C17 UNL     1      -2.167   7.821  13.086  1.00  0.00     0.015 C 
HETATM   10  C18 UNL     1      -1.711   8.243  14.505  1.00  0.00    -0.028 C 
HETATM   11  C19 UNL     1      -1.719   6.981  15.390  1.00  0.00     0.016 C 
HETATM   12  C20 UNL     1       1.076   7.179  11.031  1.00  0.00    -0.014 C 
HETATM   13  C21 UNL     1       0.226   7.223   9.731  1.00  0.00     0.020 C 
HETATM   14  C22 UNL     1       1.535   5.730  11.329  1.00  0.00     0.021 C 
HETATM   15  C23 UNL     1       2.610   5.163  10.413  1.00  0.00     0.080 C 
HETATM   16  C24 UNL     1       3.065   6.125   9.348  1.00  0.00     0.135 C 
HETATM   17  O4  UNL     1       3.257   5.724   8.199  1.00  0.00    -0.297 OA
HETATM   18  C25 UNL     1       3.390   7.560   9.783  1.00  0.00     0.018 C 
HETATM   19  C26 UNL     1       4.846   7.509  10.293  1.00  0.00     0.023 C 
HETATM   20  C27 UNL     1       3.388   8.478   8.536  1.00  0.00     0.023 C 
HETATM   21  C28 UNL     1       2.329   8.103  10.821  1.00  0.00     0.020 C 
HETATM   22  C29 UNL     1       2.939   8.465  12.173  1.00  0.00     0.090 C 
HETATM   23  C30 UNL     1       1.924   9.163  13.037  1.00  0.00     0.157 C 
HETATM   24  O5  UNL     1       2.226  10.189  13.642  1.00  0.00    -0.293 OA
ENDROOT
BRANCH   1  25
HETATM   25  C2  UNL     1      -3.902   9.182  15.909  1.00  0.00    -0.011 C 
HETATM   26  C1  UNL     1      -3.941  10.235  17.027  1.00  0.00     0.010 C 
BRANCH  25  27
HETATM   27  C3  UNL     1      -5.280   9.040  15.230  1.00  0.00     0.039 C 
BRANCH  27  28
HETATM   28  C4  UNL     1      -5.826   7.597  15.211  1.00  0.00     0.150 C 
BRANCH  28  29
HETATM   29  O1  UNL     1      -4.946   6.790  16.020  1.00  0.00    -0.393 OA
HETATM   30  H8  UNL     1      -4.903   7.225  16.893  1.00  0.00     0.210 HD
ENDBRANCH  28  29
BRANCH  28  31
HETATM   31  C5  UNL     1      -7.271   7.478  15.776  1.00  0.00     0.180 C 
BRANCH  31  32
HETATM   32  O2  UNL     1      -7.208   7.091  17.161  1.00  0.00    -0.390 OA
HETATM   33  H10 UNL     1      -6.560   6.355  17.189  1.00  0.00     0.210 HD
ENDBRANCH  31  32
BRANCH  31  34
HETATM   34  C6  UNL     1      -8.184   6.500  14.979  1.00  0.00     0.079 C 
HETATM   35  C7  UNL     1      -9.561   7.099  14.674  1.00  0.00     0.048 C 
HETATM   36  C8  UNL     1      -7.515   6.110  13.654  1.00  0.00     0.048 C 
BRANCH  34  37
HETATM   37  O3  UNL     1      -8.383   5.304  15.744  1.00  0.00    -0.388 OA
HETATM   38  H17 UNL     1      -7.564   4.777  15.688  1.00  0.00     0.210 HD
ENDBRANCH  34  37
ENDBRANCH  31  34
ENDBRANCH  28  31
ENDBRANCH  27  28
ENDBRANCH  25  27
ENDBRANCH   1  25
TORSDOF 8
ENDMDL
MODEL 9
REMARK minimizedAffinity -9.22677803
REMARK  8 active torsions:
REMARK  status: ('A' for Active; 'I' for Inactive)
REMARK    1  A    between atoms: C2_2  and  C3_3 
REMARK    2  A    between atoms: C2_2  and  C9_12 
REMARK    3  A    between atoms: C3_3  and  C4_4 
REMARK    4  A    between atoms: C4_4  and  O1_5 
REMARK    5  A    between atoms: C4_4  and  C5_6 
REMARK    6  A    between atoms: C5_6  and  O2_7 
REMARK    7  A    between atoms: C5_6  and  C6_8 
REMARK    8  A    between atoms: C6_8  and  O3_11 
ROOT
HETATM    1  C9  UNL     1      -1.684   4.854  13.064  1.00  0.00    -0.002 C 
HETATM    2  C10 UNL     1      -1.132   4.046  11.887  1.00  0.00     0.007 C 
HETATM    3  C11 UNL     1       0.324   4.484  11.831  1.00  0.00     0.015 C 
HETATM    4  C12 UNL     1       0.273   6.024  11.959  1.00  0.00    -0.005 C 
HETATM    5  C13 UNL     1      -0.085   6.619  10.565  1.00  0.00     0.021 C 
HETATM    6  C14 UNL     1       1.632   6.617  12.393  1.00  0.00    -0.000 C 
HETATM    7  C15 UNL     1       1.847   7.356  13.512  1.00  0.00    -0.060 C 
HETATM    8  C16 UNL     1       0.687   7.605  14.458  1.00  0.00     0.036 C 
HETATM    9  C17 UNL     1      -0.334   6.480  14.422  1.00  0.00     0.015 C 
HETATM   10  C18 UNL     1      -0.922   6.241  13.009  1.00  0.00    -0.028 C 
HETATM   11  C19 UNL     1      -1.799   7.460  12.658  1.00  0.00     0.016 C 
HETATM   12  C20 UNL     1       3.202   8.023  13.896  1.00  0.00    -0.014 C 
HETATM   13  C21 UNL     1       3.530   7.702  15.381  1.00  0.00     0.020 C 
HETATM   14  C22 UNL     1       3.018   9.549  13.699  1.00  0.00     0.021 C 
HETATM   15  C23 UNL     1       4.281  10.393  13.772  1.00  0.00     0.080 C 
HETATM   16  C24 UNL     1       5.531   9.591  14.023  1.00  0.00     0.135 C 
HETATM   17  O4  UNL     1       6.382  10.009  14.809  1.00  0.00    -0.297 OA
HETATM   18  C25 UNL     1       5.741   8.326  13.178  1.00  0.00     0.018 C 
HETATM   19  C26 UNL     1       6.379   8.820  11.863  1.00  0.00     0.023 C 
HETATM   20  C27 UNL     1       6.793   7.426  13.872  1.00  0.00     0.023 C 
HETATM   21  C28 UNL     1       4.397   7.512  13.015  1.00  0.00     0.020 C 
HETATM   22  C29 UNL     1       3.949   7.374  11.562  1.00  0.00     0.090 C 
HETATM   23  C30 UNL     1       2.789   6.420  11.459  1.00  0.00     0.157 C 
HETATM   24  O5  UNL     1       2.783   5.544  10.598  1.00  0.00    -0.293 OA
ENDROOT
BRANCH   1  25
HETATM   25  C2  UNL     1      -3.220   4.717  13.242  1.00  0.00    -0.011 C 
HETATM   26  C1  UNL     1      -3.942   6.028  12.897  1.00  0.00     0.010 C 
BRANCH  25  27
HETATM   27  C3  UNL     1      -3.889   3.513  12.548  1.00  0.00     0.039 C 
BRANCH  27  28
HETATM   28  C4  UNL     1      -5.317   3.795  12.035  1.00  0.00     0.150 C 
BRANCH  28  29
HETATM   29  O1  UNL     1      -5.404   3.277  10.691  1.00  0.00    -0.393 OA
HETATM   30  H8  UNL     1      -5.141   2.339  10.743  1.00  0.00     0.210 HD
ENDBRANCH  28  29
BRANCH  28  31
HETATM   31  C5  UNL     1      -6.425   3.126  12.898  1.00  0.00     0.180 C 
BRANCH  31  32
HETATM   32  O2  UNL     1      -6.981   2.012  12.177  1.00  0.00    -0.390 OA
HETATM   33  H10 UNL     1      -7.140   2.351  11.270  1.00  0.00     0.210 HD
ENDBRANCH  31  32
BRANCH  31  34
HETATM   34  C6  UNL     1      -7.553   4.102  13.346  1.00  0.00     0.079 C 
HETATM   35  C7  UNL     1      -7.406   4.541  14.806  1.00  0.00     0.048 C 
HETATM   36  C8  UNL     1      -7.557   5.353  12.456  1.00  0.00     0.048 C 
BRANCH  34  37
HETATM   37  O3  UNL     1      -8.825   3.455  13.205  1.00  0.00    -0.388 OA
HETATM   38  H17 UNL     1      -9.048   3.441  12.256  1.00  0.00     0.210 HD
ENDBRANCH  34  37
ENDBRANCH  31  34
ENDBRANCH  28  31
ENDBRANCH  27  28
ENDBRANCH  25  27
ENDBRANCH   1  25
TORSDOF 8
ENDMDL
