MODEL 1
REMARK minimizedAffinity -8.51161194
REMARK CNNscore 0.726705611
REMARK CNNaffinity 7.34148836
REMARK  10 active torsions:
REMARK  status: ('A' for Active; 'I' for Inactive)
REMARK    1  A    between atoms: C2_2  and  C3_3 
REMARK    2  A    between atoms: C3_3  and  C4_4 
REMARK    3  A    between atoms: C4_4  and  O1_5 
REMARK    4  A    between atoms: O1_5  and  C5_6 
REMARK    5  A    between atoms: C5_6  and  C6_7 
REMARK    6  A    between atoms: C10_11  and  C12_13 
REMARK    7  A    between atoms: C12_13  and  C13_15 
REMARK    8  A    between atoms: C13_15  and  S1_16 
REMARK    9  A    between atoms: S1_16  and  C14_17 
REMARK   10  A    between atoms: C15_20  and  C16_21 
ROOT
HETATM    1  C12 UNL     1       0.432  52.693 -22.719  1.00  0.00     0.171 C 
HETATM    2  O2  UNL     1       1.046  53.656 -22.248  1.00  0.00    -0.294 OA
ENDROOT
BRANCH   1   3
HETATM    3  C10 UNL     1      -0.035  52.728 -24.190  1.00  0.00     0.129 C 
HETATM    4  C9  UNL     1      -1.431  52.108 -24.290  1.00  0.00     0.076 C 
HETATM    5  C8  UNL     1      -1.431  51.360 -25.609  1.00  0.00     0.141 C 
HETATM    6  C7  UNL     1      -2.171  50.035 -25.535  1.00  0.00     0.065 C 
HETATM    7  C22 UNL     1       0.024  51.201 -25.908  1.00  0.00     0.279 C 
HETATM    8  C23 UNL     1      -2.156  52.055 -26.722  1.00  0.00     0.278 C 
HETATM    9  C6  UNL     1      -2.642  49.841 -26.965  1.00  0.00     0.157 C 
HETATM   10  O6  UNL     1      -2.892  51.164 -27.449  1.00  0.00    -0.313 OA
HETATM   11  O3  UNL     1       0.782  51.910 -25.027  1.00  0.00    -0.301 OA
HETATM   12  O4  UNL     1       0.497  50.508 -26.794  1.00  0.00    -0.264 OA
HETATM   13  O5  UNL     1      -2.126  53.252 -26.954  1.00  0.00    -0.264 OA
HETATM   14  C11 UNL     1       0.018  54.171 -24.691  1.00  0.00     0.055 C 
BRANCH   9  15
HETATM   15  C5  UNL     1      -3.910  48.994 -27.073  1.00  0.00     0.200 C 
BRANCH  15  16
HETATM   16  O1  UNL     1      -3.839  48.178 -28.240  1.00  0.00    -0.389 OA
BRANCH  16  17
HETATM   17  C4  UNL     1      -5.060  48.148 -28.983  1.00  0.00     0.167 C 
BRANCH  17  18
HETATM   18  C3  UNL     1      -6.230  47.710 -28.104  1.00  0.00     0.026 C 
BRANCH  18  19
HETATM   19  C2  UNL     1      -7.590  47.866 -28.786  1.00  0.00    -0.002 C 
HETATM   20  C1  UNL     1      -7.614  47.328 -30.208  1.00  0.00     0.005 C 
ENDBRANCH  18  19
ENDBRANCH  17  18
ENDBRANCH  16  17
ENDBRANCH  15  16
ENDBRANCH   9  15
ENDBRANCH   1   3
BRANCH   1  21
HETATM   21  C13 UNL     1       0.065  51.498 -21.858  1.00  0.00     0.164 C 
BRANCH  21  22
HETATM   22  S1  UNL     1      -1.090  51.916 -20.526  1.00  0.00    -0.085 SA
BRANCH  22  23
HETATM   23  C14 UNL     1      -0.015  52.127 -19.206  1.00  0.00     0.161 A 
HETATM   24  N1  UNL     1       0.144  51.357 -18.163  1.00  0.00    -0.320 N 
HETATM   25  C15 UNL     1       1.130  51.999 -17.439  1.00  0.00     0.134 A 
ATOM     26  H1  UNL     1      -0.343  50.490 -17.937  1.00  0.00     0.169 HD
HETATM   27  N2  UNL     1       1.541  53.154 -17.993  1.00  0.00    -0.283 N 
HETATM   28  N3  UNL     1       0.820  53.193 -19.126  1.00  0.00    -0.278 N 
ATOM     29  H2  UNL     1       2.224  53.826 -17.643  1.00  0.00     0.188 HD
HETATM   30  H26 UNL     1       0.938  53.962 -19.775  1.00  0.00     0.189 HD
BRANCH  25  31
HETATM   31  C16 UNL     1       1.590  51.474 -16.159  1.00  0.00     0.031 A 
HETATM   32  C17 UNL     1       0.808  50.478 -15.541  1.00  0.00     0.017 A 
HETATM   33  C18 UNL     1       1.177  49.930 -14.309  1.00  0.00     0.001 A 
HETATM   34  C19 UNL     1       2.336  50.363 -13.677  1.00  0.00     0.002 A 
HETATM   35  C20 UNL     1       3.131  51.338 -14.281  1.00  0.00     0.025 A 
HETATM   36  C21 UNL     1       2.766  51.892 -15.518  1.00  0.00     0.048 A 
HETATM   37 CL1  UNL     1       3.869  53.040 -16.198  1.00  0.00    -0.083 Cl
ENDBRANCH  25  31
ENDBRANCH  22  23
ENDBRANCH  21  22
ENDBRANCH   1  21
TORSDOF 10
ENDMDL
MODEL 2
REMARK minimizedAffinity -7.48789024
REMARK CNNscore 0.697963059
REMARK CNNaffinity 7.41477728
REMARK  10 active torsions:
REMARK  status: ('A' for Active; 'I' for Inactive)
REMARK    1  A    between atoms: C2_2  and  C3_3 
REMARK    2  A    between atoms: C3_3  and  C4_4 
REMARK    3  A    between atoms: C4_4  and  O1_5 
REMARK    4  A    between atoms: O1_5  and  C5_6 
REMARK    5  A    between atoms: C5_6  and  C6_7 
REMARK    6  A    between atoms: C10_11  and  C12_13 
REMARK    7  A    between atoms: C12_13  and  C13_15 
REMARK    8  A    between atoms: C13_15  and  S1_16 
REMARK    9  A    between atoms: S1_16  and  C14_17 
REMARK   10  A    between atoms: C15_20  and  C16_21 
ROOT
HETATM    1  C12 UNL     1       0.405  52.229 -18.502  1.00  0.00     0.171 C 
HETATM    2  O2  UNL     1       1.427  52.540 -17.882  1.00  0.00    -0.294 OA
ENDROOT
BRANCH   1   3
HETATM    3  C10 UNL     1      -0.475  51.066 -17.995  1.00  0.00     0.129 C 
HETATM    4  C9  UNL     1      -1.135  50.376 -19.191  1.00  0.00     0.076 C 
HETATM    5  C8  UNL     1      -2.517  49.987 -18.703  1.00  0.00     0.141 C 
HETATM    6  C7  UNL     1      -3.590  50.174 -19.762  1.00  0.00     0.065 C 
HETATM    7  C22 UNL     1      -2.714  50.866 -17.511  1.00  0.00     0.279 C 
HETATM    8  C23 UNL     1      -2.673  48.537 -18.359  1.00  0.00     0.278 C 
HETATM    9  C6  UNL     1      -4.629  49.142 -19.363  1.00  0.00     0.157 C 
HETATM   10  O6  UNL     1      -3.874  48.063 -18.804  1.00  0.00    -0.313 OA
HETATM   11  O3  UNL     1      -1.566  51.531 -17.202  1.00  0.00    -0.301 OA
HETATM   12  O4  UNL     1      -3.760  51.013 -16.900  1.00  0.00    -0.264 OA
HETATM   13  O5  UNL     1      -1.849  47.849 -17.780  1.00  0.00    -0.264 OA
HETATM   14  C11 UNL     1       0.388  50.122 -17.159  1.00  0.00     0.055 C 
BRANCH   9  15
HETATM   15  C5  UNL     1      -5.466  48.642 -20.540  1.00  0.00     0.200 C 
BRANCH  15  16
HETATM   16  O1  UNL     1      -4.987  49.230 -21.748  1.00  0.00    -0.389 OA
BRANCH  16  17
HETATM   17  C4  UNL     1      -4.613  48.267 -22.735  1.00  0.00     0.167 C 
BRANCH  17  18
HETATM   18  C3  UNL     1      -3.162  48.460 -23.173  1.00  0.00     0.026 C 
BRANCH  18  19
HETATM   19  C2  UNL     1      -3.003  48.637 -24.683  1.00  0.00    -0.002 C 
HETATM   20  C1  UNL     1      -4.325  48.593 -25.435  1.00  0.00     0.005 C 
ENDBRANCH  18  19
ENDBRANCH  17  18
ENDBRANCH  16  17
ENDBRANCH  15  16
ENDBRANCH   9  15
ENDBRANCH   1   3
BRANCH   1  21
HETATM   21  C13 UNL     1       0.028  52.928 -19.796  1.00  0.00     0.164 C 
BRANCH  21  22
HETATM   22  S1  UNL     1       1.388  53.901 -20.494  1.00  0.00    -0.085 SA
BRANCH  22  23
HETATM   23  C14 UNL     1       1.056  53.783 -22.173  1.00  0.00     0.161 A 
HETATM   24  N1  UNL     1       0.373  52.861 -22.797  1.00  0.00    -0.320 N 
HETATM   25  C15 UNL     1       0.423  53.267 -24.117  1.00  0.00     0.134 A 
ATOM     26  H1  UNL     1      -0.087  52.040 -22.405  1.00  0.00     0.169 HD
HETATM   27  N2  UNL     1       1.150  54.382 -24.312  1.00  0.00    -0.283 N 
HETATM   28  N3  UNL     1       1.513  54.702 -23.059  1.00  0.00    -0.278 N 
ATOM     29  H2  UNL     1       1.368  54.861 -25.186  1.00  0.00     0.188 HD
HETATM   30  H26 UNL     1       2.066  55.534 -22.889  1.00  0.00     0.189 HD
BRANCH  25  31
HETATM   31  C16 UNL     1      -0.203  52.480 -25.173  1.00  0.00     0.031 A 
HETATM   32  C17 UNL     1      -1.602  52.564 -25.311  1.00  0.00     0.017 A 
HETATM   33  C18 UNL     1      -2.277  51.835 -26.293  1.00  0.00     0.001 A 
HETATM   34  C19 UNL     1      -1.566  51.012 -27.158  1.00  0.00     0.002 A 
HETATM   35  C20 UNL     1      -0.177  50.927 -27.046  1.00  0.00     0.025 A 
HETATM   36  C21 UNL     1       0.507  51.658 -26.062  1.00  0.00     0.048 A 
HETATM   37 CL1  UNL     1       2.233  51.525 -26.069  1.00  0.00    -0.083 Cl
ENDBRANCH  25  31
ENDBRANCH  22  23
ENDBRANCH  21  22
ENDBRANCH   1  21
TORSDOF 10
ENDMDL
MODEL 3
REMARK minimizedAffinity -8.15287876
REMARK CNNscore 0.610093474
REMARK CNNaffinity 6.95781755
REMARK  10 active torsions:
REMARK  status: ('A' for Active; 'I' for Inactive)
REMARK    1  A    between atoms: C2_2  and  C3_3 
REMARK    2  A    between atoms: C3_3  and  C4_4 
REMARK    3  A    between atoms: C4_4  and  O1_5 
REMARK    4  A    between atoms: O1_5  and  C5_6 
REMARK    5  A    between atoms: C5_6  and  C6_7 
REMARK    6  A    between atoms: C10_11  and  C12_13 
REMARK    7  A    between atoms: C12_13  and  C13_15 
REMARK    8  A    between atoms: C13_15  and  S1_16 
REMARK    9  A    between atoms: S1_16  and  C14_17 
REMARK   10  A    between atoms: C15_20  and  C16_21 
ROOT
HETATM    1  C12 UNL     1       0.249  52.597 -23.112  1.00  0.00     0.171 C 
HETATM    2  O2  UNL     1       0.819  53.295 -23.958  1.00  0.00    -0.294 OA
ENDROOT
BRANCH   1   3
HETATM    3  C10 UNL     1      -1.215  52.165 -23.336  1.00  0.00     0.129 C 
HETATM    4  C9  UNL     1      -1.239  50.777 -23.978  1.00  0.00     0.076 C 
HETATM    5  C8  UNL     1      -2.410  50.812 -24.941  1.00  0.00     0.141 C 
HETATM    6  C7  UNL     1      -2.126  50.080 -26.242  1.00  0.00     0.065 C 
HETATM    7  C22 UNL     1      -2.645  52.275 -25.134  1.00  0.00     0.279 C 
HETATM    8  C23 UNL     1      -3.641  50.109 -24.454  1.00  0.00     0.278 C 
HETATM    9  C6  UNL     1      -3.511  49.645 -26.683  1.00  0.00     0.157 C 
HETATM   10  O6  UNL     1      -4.221  49.397 -25.466  1.00  0.00    -0.313 OA
HETATM   11  O3  UNL     1      -1.881  53.007 -24.276  1.00  0.00    -0.301 OA
HETATM   12  O4  UNL     1      -3.388  52.774 -25.963  1.00  0.00    -0.264 OA
HETATM   13  O5  UNL     1      -4.074  50.137 -23.315  1.00  0.00    -0.264 OA
HETATM   14  C11 UNL     1      -1.955  52.220 -22.000  1.00  0.00     0.055 C 
BRANCH   9  15
HETATM   15  C5  UNL     1      -3.501  48.385 -27.550  1.00  0.00     0.200 C 
BRANCH  15  16
HETATM   16  O1  UNL     1      -4.261  48.616 -28.734  1.00  0.00    -0.389 OA
BRANCH  16  17
HETATM   17  C4  UNL     1      -5.497  47.899 -28.759  1.00  0.00     0.167 C 
BRANCH  17  18
HETATM   18  C3  UNL     1      -6.156  47.981 -30.135  1.00  0.00     0.026 C 
BRANCH  18  19
HETATM   19  C2  UNL     1      -5.322  47.339 -31.244  1.00  0.00    -0.002 C 
HETATM   20  C1  UNL     1      -5.612  45.858 -31.434  1.00  0.00     0.005 C 
ENDBRANCH  18  19
ENDBRANCH  17  18
ENDBRANCH  16  17
ENDBRANCH  15  16
ENDBRANCH   9  15
ENDBRANCH   1   3
BRANCH   1  21
HETATM   21  C13 UNL     1       0.943  52.209 -21.819  1.00  0.00     0.164 C 
BRANCH  21  22
HETATM   22  S1  UNL     1       1.071  53.585 -20.647  1.00  0.00    -0.085 SA
BRANCH  22  23
HETATM   23  C14 UNL     1       0.891  52.766 -19.150  1.00  0.00     0.161 A 
HETATM   24  N1  UNL     1       1.511  52.998 -18.024  1.00  0.00    -0.320 N 
HETATM   25  C15 UNL     1       0.978  52.055 -17.166  1.00  0.00     0.134 A 
ATOM     26  H1  UNL     1       2.218  53.706 -17.825  1.00  0.00     0.169 HD
HETATM   27  N2  UNL     1       0.087  51.235 -17.752  1.00  0.00    -0.283 N 
HETATM   28  N3  UNL     1       0.030  51.729 -19.000  1.00  0.00    -0.278 N 
ATOM     29  H2  UNL     1      -0.416  50.443 -17.351  1.00  0.00     0.188 HD
HETATM   30  H26 UNL     1      -0.593  51.312 -19.682  1.00  0.00     0.189 HD
BRANCH  25  31
HETATM   31  C16 UNL     1       1.433  51.948 -15.785  1.00  0.00     0.031 A 
HETATM   32  C17 UNL     1       0.459  51.741 -14.789  1.00  0.00     0.017 A 
HETATM   33  C18 UNL     1       0.813  51.635 -13.441  1.00  0.00     0.001 A 
HETATM   34  C19 UNL     1       2.148  51.730 -13.066  1.00  0.00     0.002 A 
HETATM   35  C20 UNL     1       3.129  51.920 -14.041  1.00  0.00     0.025 A 
HETATM   36  C21 UNL     1       2.779  52.026 -15.396  1.00  0.00     0.048 A 
HETATM   37 CL1  UNL     1       4.089  52.190 -16.515  1.00  0.00    -0.083 Cl
ENDBRANCH  25  31
ENDBRANCH  22  23
ENDBRANCH  21  22
ENDBRANCH   1  21
TORSDOF 10
ENDMDL
MODEL 4
REMARK minimizedAffinity -8.21282005
REMARK CNNscore 0.554099143
REMARK CNNaffinity 7.21129084
REMARK  10 active torsions:
REMARK  status: ('A' for Active; 'I' for Inactive)
REMARK    1  A    between atoms: C2_2  and  C3_3 
REMARK    2  A    between atoms: C3_3  and  C4_4 
REMARK    3  A    between atoms: C4_4  and  O1_5 
REMARK    4  A    between atoms: O1_5  and  C5_6 
REMARK    5  A    between atoms: C5_6  and  C6_7 
REMARK    6  A    between atoms: C10_11  and  C12_13 
REMARK    7  A    between atoms: C12_13  and  C13_15 
REMARK    8  A    between atoms: C13_15  and  S1_16 
REMARK    9  A    between atoms: S1_16  and  C14_17 
REMARK   10  A    between atoms: C15_20  and  C16_21 
ROOT
HETATM    1  C12 UNL     1       0.625  52.830 -22.673  1.00  0.00     0.171 C 
HETATM    2  O2  UNL     1       1.132  53.854 -22.204  1.00  0.00    -0.294 OA
ENDROOT
BRANCH   1   3
HETATM    3  C10 UNL     1       0.166  52.807 -24.146  1.00  0.00     0.129 C 
HETATM    4  C9  UNL     1      -1.238  52.205 -24.227  1.00  0.00     0.076 C 
HETATM    5  C8  UNL     1      -1.244  51.401 -25.513  1.00  0.00     0.141 C 
HETATM    6  C7  UNL     1      -2.004  50.091 -25.385  1.00  0.00     0.065 C 
HETATM    7  C22 UNL     1       0.210  51.206 -25.797  1.00  0.00     0.279 C 
HETATM    8  C23 UNL     1      -1.953  52.058 -26.658  1.00  0.00     0.278 C 
HETATM    9  C6  UNL     1      -2.472  49.843 -26.808  1.00  0.00     0.157 C 
HETATM   10  O6  UNL     1      -2.699  51.147 -27.350  1.00  0.00    -0.313 OA
HETATM   11  O3  UNL     1       0.975  51.941 -24.942  1.00  0.00    -0.301 OA
HETATM   12  O4  UNL     1       0.677  50.468 -26.649  1.00  0.00    -0.264 OA
HETATM   13  O5  UNL     1      -1.903  53.243 -26.942  1.00  0.00    -0.264 OA
HETATM   14  C11 UNL     1       0.243  54.226 -24.710  1.00  0.00     0.055 C 
BRANCH   9  15
HETATM   15  C5  UNL     1      -3.752  49.011 -26.886  1.00  0.00     0.200 C 
BRANCH  15  16
HETATM   16  O1  UNL     1      -3.884  48.230 -25.700  1.00  0.00    -0.389 OA
BRANCH  16  17
HETATM   17  C4  UNL     1      -4.812  48.781 -24.762  1.00  0.00     0.167 C 
BRANCH  17  18
HETATM   18  C3  UNL     1      -4.610  48.185 -23.370  1.00  0.00     0.026 C 
BRANCH  18  19
HETATM   19  C2  UNL     1      -3.888  49.129 -22.407  1.00  0.00    -0.002 C 
HETATM   20  C1  UNL     1      -2.494  48.652 -22.031  1.00  0.00     0.005 C 
ENDBRANCH  18  19
ENDBRANCH  17  18
ENDBRANCH  16  17
ENDBRANCH  15  16
ENDBRANCH   9  15
ENDBRANCH   1   3
BRANCH   1  21
HETATM   21  C13 UNL     1       0.382  51.606 -21.807  1.00  0.00     0.164 C 
BRANCH  21  22
HETATM   22  S1  UNL     1      -0.854  51.892 -20.514  1.00  0.00    -0.085 SA
BRANCH  22  23
HETATM   23  C14 UNL     1       0.148  52.204 -19.157  1.00  0.00     0.161 A 
HETATM   24  N1  UNL     1       0.188  51.563 -18.020  1.00  0.00    -0.320 N 
HETATM   25  C15 UNL     1       1.168  52.232 -17.312  1.00  0.00     0.134 A 
ATOM     26  H1  UNL     1      -0.370  50.762 -17.725  1.00  0.00     0.169 HD
HETATM   27  N2  UNL     1       1.690  53.282 -17.972  1.00  0.00    -0.283 N 
HETATM   28  N3  UNL     1       1.046  53.220 -19.149  1.00  0.00    -0.278 N 
ATOM     29  H2  UNL     1       2.393  53.951 -17.659  1.00  0.00     0.188 HD
HETATM   30  H26 UNL     1       1.256  53.893 -19.877  1.00  0.00     0.189 HD
BRANCH  25  31
HETATM   31  C16 UNL     1       1.510  51.847 -15.948  1.00  0.00     0.031 A 
HETATM   32  C17 UNL     1       0.461  51.442 -15.099  1.00  0.00     0.017 A 
HETATM   33  C18 UNL     1       0.705  51.065 -13.776  1.00  0.00     0.001 A 
HETATM   34  C19 UNL     1       2.003  51.081 -13.279  1.00  0.00     0.002 A 
HETATM   35  C20 UNL     1       3.057  51.465 -14.109  1.00  0.00     0.025 A 
HETATM   36  C21 UNL     1       2.818  51.844 -15.439  1.00  0.00     0.048 A 
HETATM   37 CL1  UNL     1       4.213  52.231 -16.389  1.00  0.00    -0.083 Cl
ENDBRANCH  25  31
ENDBRANCH  22  23
ENDBRANCH  21  22
ENDBRANCH   1  21
TORSDOF 10
ENDMDL
MODEL 5
REMARK minimizedAffinity -7.16138649
REMARK CNNscore 0.400023818
REMARK CNNaffinity 6.4019599
REMARK  10 active torsions:
REMARK  status: ('A' for Active; 'I' for Inactive)
REMARK    1  A    between atoms: C2_2  and  C3_3 
REMARK    2  A    between atoms: C3_3  and  C4_4 
REMARK    3  A    between atoms: C4_4  and  O1_5 
REMARK    4  A    between atoms: O1_5  and  C5_6 
REMARK    5  A    between atoms: C5_6  and  C6_7 
REMARK    6  A    between atoms: C10_11  and  C12_13 
REMARK    7  A    between atoms: C12_13  and  C13_15 
REMARK    8  A    between atoms: C13_15  and  S1_16 
REMARK    9  A    between atoms: S1_16  and  C14_17 
REMARK   10  A    between atoms: C15_20  and  C16_21 
ROOT
HETATM    1  C12 UNL     1      -1.621  51.161 -17.608  1.00  0.00     0.171 C 
HETATM    2  O2  UNL     1      -2.634  51.609 -18.157  1.00  0.00    -0.294 OA
ENDROOT
BRANCH   1   3
HETATM    3  C10 UNL     1      -1.738  50.459 -16.239  1.00  0.00     0.129 C 
HETATM    4  C9  UNL     1      -2.958  51.005 -15.495  1.00  0.00     0.076 C 
HETATM    5  C8  UNL     1      -2.539  51.050 -14.038  1.00  0.00     0.141 C 
HETATM    6  C7  UNL     1      -3.059  52.279 -13.313  1.00  0.00     0.065 C 
HETATM    7  C22 UNL     1      -1.048  51.004 -14.114  1.00  0.00     0.279 C 
HETATM    8  C23 UNL     1      -3.090  49.939 -13.196  1.00  0.00     0.278 C 
HETATM    9  C6  UNL     1      -3.154  51.798 -11.877  1.00  0.00     0.157 C 
HETATM   10  O6  UNL     1      -3.490  50.411 -11.978  1.00  0.00    -0.313 OA
HETATM   11  O3  UNL     1      -0.633  50.764 -15.389  1.00  0.00    -0.301 OA
HETATM   12  O4  UNL     1      -0.282  51.187 -13.182  1.00  0.00    -0.264 OA
HETATM   13  O5  UNL     1      -3.194  48.773 -13.533  1.00  0.00    -0.264 OA
HETATM   14  C11 UNL     1      -1.798  48.948 -16.462  1.00  0.00     0.055 C 
BRANCH   9  15
HETATM   15  C5  UNL     1      -4.215  52.538 -11.061  1.00  0.00     0.200 C 
BRANCH  15  16
HETATM   16  O1  UNL     1      -3.679  53.774 -10.594  1.00  0.00    -0.389 OA
BRANCH  16  17
HETATM   17  C4  UNL     1      -2.410  53.633  -9.952  1.00  0.00     0.167 C 
BRANCH  17  18
HETATM   18  C3  UNL     1      -1.432  54.710 -10.417  1.00  0.00     0.026 C 
BRANCH  18  19
HETATM   19  C2  UNL     1      -0.132  54.141 -10.987  1.00  0.00    -0.002 C 
HETATM   20  C1  UNL     1       1.099  54.943 -10.593  1.00  0.00     0.005 C 
ENDBRANCH  18  19
ENDBRANCH  17  18
ENDBRANCH  16  17
ENDBRANCH  15  16
ENDBRANCH   9  15
ENDBRANCH   1   3
BRANCH   1  21
HETATM   21  C13 UNL     1      -0.247  51.347 -18.226  1.00  0.00     0.164 C 
BRANCH  21  22
HETATM   22  S1  UNL     1      -0.103  52.880 -19.180  1.00  0.00    -0.085 SA
BRANCH  22  23
HETATM   23  C14 UNL     1      -0.384  52.309 -20.773  1.00  0.00     0.161 A 
HETATM   24  N1  UNL     1      -1.332  51.514 -21.191  1.00  0.00    -0.320 N 
HETATM   25  C15 UNL     1      -1.079  51.399 -22.544  1.00  0.00     0.134 A 
ATOM     26  H1  UNL     1      -2.079  51.082 -20.648  1.00  0.00     0.169 HD
HETATM   27  N2  UNL     1       0.017  52.067 -22.948  1.00  0.00    -0.283 N 
HETATM   28  N3  UNL     1       0.418  52.658 -21.810  1.00  0.00    -0.278 N 
ATOM     29  H2  UNL     1       0.434  52.113 -23.877  1.00  0.00     0.188 HD
HETATM   30  H26 UNL     1       1.233  53.262 -21.813  1.00  0.00     0.189 HD
BRANCH  25  31
HETATM   31  C16 UNL     1      -1.906  50.554 -23.397  1.00  0.00     0.031 A 
HETATM   32  C17 UNL     1      -2.341  51.088 -24.626  1.00  0.00     0.017 A 
HETATM   33  C18 UNL     1      -3.142  50.344 -25.495  1.00  0.00     0.001 A 
HETATM   34  C19 UNL     1      -3.519  49.051 -25.155  1.00  0.00     0.002 A 
HETATM   35  C20 UNL     1      -3.086  48.499 -23.949  1.00  0.00     0.025 A 
HETATM   36  C21 UNL     1      -2.280  49.241 -23.072  1.00  0.00     0.048 A 
HETATM   37 CL1  UNL     1      -1.749  48.422 -21.641  1.00  0.00    -0.083 Cl
ENDBRANCH  25  31
ENDBRANCH  22  23
ENDBRANCH  21  22
ENDBRANCH   1  21
TORSDOF 10
ENDMDL
MODEL 6
REMARK minimizedAffinity -7.6419425
REMARK CNNscore 0.383431584
REMARK CNNaffinity 6.44592905
REMARK  10 active torsions:
REMARK  status: ('A' for Active; 'I' for Inactive)
REMARK    1  A    between atoms: C2_2  and  C3_3 
REMARK    2  A    between atoms: C3_3  and  C4_4 
REMARK    3  A    between atoms: C4_4  and  O1_5 
REMARK    4  A    between atoms: O1_5  and  C5_6 
REMARK    5  A    between atoms: C5_6  and  C6_7 
REMARK    6  A    between atoms: C10_11  and  C12_13 
REMARK    7  A    between atoms: C12_13  and  C13_15 
REMARK    8  A    between atoms: C13_15  and  S1_16 
REMARK    9  A    between atoms: S1_16  and  C14_17 
REMARK   10  A    between atoms: C15_20  and  C16_21 
ROOT
HETATM    1  C12 UNL     1      -1.693  51.304 -18.034  1.00  0.00     0.171 C 
HETATM    2  O2  UNL     1      -2.841  51.409 -17.591  1.00  0.00    -0.294 OA
ENDROOT
BRANCH   1   3
HETATM    3  C10 UNL     1      -0.589  50.666 -17.164  1.00  0.00     0.129 C 
HETATM    4  C9  UNL     1      -0.904  50.917 -15.688  1.00  0.00     0.076 C 
HETATM    5  C8  UNL     1       0.446  51.143 -15.034  1.00  0.00     0.141 C 
HETATM    6  C7  UNL     1       0.414  52.232 -13.976  1.00  0.00     0.065 C 
HETATM    7  C22 UNL     1       1.330  51.478 -16.191  1.00  0.00     0.279 C 
HETATM    8  C23 UNL     1       0.966  49.973 -14.256  1.00  0.00     0.278 C 
HETATM    9  C6  UNL     1       1.536  51.817 -13.042  1.00  0.00     0.157 C 
HETATM   10  O6  UNL     1       1.536  50.387 -13.085  1.00  0.00    -0.313 OA
HETATM   11  O3  UNL     1       0.678  51.289 -17.372  1.00  0.00    -0.301 OA
HETATM   12  O4  UNL     1       2.472  51.900 -16.116  1.00  0.00    -0.264 OA
HETATM   13  O5  UNL     1       0.887  48.802 -14.589  1.00  0.00    -0.264 OA
HETATM   14  C11 UNL     1      -0.483  49.182 -17.511  1.00  0.00     0.055 C 
BRANCH   9  15
HETATM   15  C5  UNL     1       1.336  52.299 -11.606  1.00  0.00     0.200 C 
BRANCH  15  16
HETATM   16  O1  UNL     1       1.123  53.710 -11.603  1.00  0.00    -0.389 OA
BRANCH  16  17
HETATM   17  C4  UNL     1       0.910  54.245 -10.295  1.00  0.00     0.167 C 
BRANCH  17  18
HETATM   18  C3  UNL     1       2.182  54.891  -9.748  1.00  0.00     0.026 C 
BRANCH  18  19
HETATM   19  C2  UNL     1       2.767  55.956 -10.676  1.00  0.00    -0.002 C 
HETATM   20  C1  UNL     1       4.213  55.687 -11.063  1.00  0.00     0.005 C 
ENDBRANCH  18  19
ENDBRANCH  17  18
ENDBRANCH  16  17
ENDBRANCH  15  16
ENDBRANCH   9  15
ENDBRANCH   1   3
BRANCH   1  21
HETATM   21  C13 UNL     1      -1.327  51.853 -19.402  1.00  0.00     0.164 C 
BRANCH  21  22
HETATM   22  S1  UNL     1      -1.758  50.727 -20.754  1.00  0.00    -0.085 SA
BRANCH  22  23
HETATM   23  C14 UNL     1      -0.940  51.459 -22.072  1.00  0.00     0.161 A 
HETATM   24  N1  UNL     1      -0.931  51.087 -23.324  1.00  0.00    -0.320 N 
HETATM   25  C15 UNL     1      -0.125  52.031 -23.932  1.00  0.00     0.134 A 
ATOM     26  H1  UNL     1      -1.405  50.291 -23.750  1.00  0.00     0.169 HD
HETATM   27  N2  UNL     1       0.385  52.936 -23.077  1.00  0.00    -0.283 N 
HETATM   28  N3  UNL     1      -0.172  52.566 -21.912  1.00  0.00    -0.278 N 
ATOM     29  H2  UNL     1       1.029  53.704 -23.266  1.00  0.00     0.188 HD
HETATM   30  H26 UNL     1       0.019  53.095 -21.069  1.00  0.00     0.189 HD
BRANCH  25  31
HETATM   31  C16 UNL     1       0.178  51.959 -25.356  1.00  0.00     0.031 A 
HETATM   32  C17 UNL     1       1.520  51.757 -25.731  1.00  0.00     0.017 A 
HETATM   33  C18 UNL     1       1.893  51.685 -27.076  1.00  0.00     0.001 A 
HETATM   34  C19 UNL     1       0.930  51.809 -28.070  1.00  0.00     0.002 A 
HETATM   35  C20 UNL     1      -0.408  51.996 -27.718  1.00  0.00     0.025 A 
HETATM   36  C21 UNL     1      -0.788  52.068 -26.368  1.00  0.00     0.048 A 
HETATM   37 CL1  UNL     1      -2.484  52.229 -26.058  1.00  0.00    -0.083 Cl
ENDBRANCH  25  31
ENDBRANCH  22  23
ENDBRANCH  21  22
ENDBRANCH   1  21
TORSDOF 10
ENDMDL
MODEL 7
REMARK minimizedAffinity -7.89539051
REMARK CNNscore 0.309720606
REMARK CNNaffinity 6.67296648
REMARK  10 active torsions:
REMARK  status: ('A' for Active; 'I' for Inactive)
REMARK    1  A    between atoms: C2_2  and  C3_3 
REMARK    2  A    between atoms: C3_3  and  C4_4 
REMARK    3  A    between atoms: C4_4  and  O1_5 
REMARK    4  A    between atoms: O1_5  and  C5_6 
REMARK    5  A    between atoms: C5_6  and  C6_7 
REMARK    6  A    between atoms: C10_11  and  C12_13 
REMARK    7  A    between atoms: C12_13  and  C13_15 
REMARK    8  A    between atoms: C13_15  and  S1_16 
REMARK    9  A    between atoms: S1_16  and  C14_17 
REMARK   10  A    between atoms: C15_20  and  C16_21 
ROOT
HETATM    1  C12 UNL     1      -2.852  50.043 -26.248  1.00  0.00     0.171 C 
HETATM    2  O2  UNL     1      -2.616  48.930 -26.730  1.00  0.00    -0.294 OA
ENDROOT
BRANCH   1   3
HETATM    3  C10 UNL     1      -3.612  50.154 -24.909  1.00  0.00     0.129 C 
HETATM    4  C9  UNL     1      -2.667  49.792 -23.762  1.00  0.00     0.076 C 
HETATM    5  C8  UNL     1      -3.533  49.051 -22.762  1.00  0.00     0.141 C 
HETATM    6  C7  UNL     1      -2.815  47.879 -22.114  1.00  0.00     0.065 C 
HETATM    7  C22 UNL     1      -4.712  48.633 -23.580  1.00  0.00     0.279 C 
HETATM    8  C23 UNL     1      -3.942  49.860 -21.568  1.00  0.00     0.278 C 
HETATM    9  C6  UNL     1      -3.514  47.766 -20.772  1.00  0.00     0.157 C 
HETATM   10  O6  UNL     1      -3.864  49.110 -20.429  1.00  0.00    -0.313 OA
HETATM   11  O3  UNL     1      -4.670  49.200 -24.818  1.00  0.00    -0.301 OA
HETATM   12  O4  UNL     1      -5.589  47.863 -23.224  1.00  0.00    -0.264 OA
HETATM   13  O5  UNL     1      -4.281  51.030 -21.582  1.00  0.00    -0.264 OA
HETATM   14  C11 UNL     1      -4.194  51.562 -24.787  1.00  0.00     0.055 C 
BRANCH   9  15
HETATM   15  C5  UNL     1      -2.632  47.158 -19.681  1.00  0.00     0.200 C 
BRANCH  15  16
HETATM   16  O1  UNL     1      -1.797  48.172 -19.125  1.00  0.00    -0.389 OA
BRANCH  16  17
HETATM   17  C4  UNL     1      -1.986  48.349 -17.719  1.00  0.00     0.167 C 
BRANCH  17  18
HETATM   18  C3  UNL     1      -1.382  49.669 -17.243  1.00  0.00     0.026 C 
BRANCH  18  19
HETATM   19  C2  UNL     1       0.117  49.579 -16.953  1.00  0.00    -0.002 C 
HETATM   20  C1  UNL     1       0.613  50.665 -16.011  1.00  0.00     0.005 C 
ENDBRANCH  18  19
ENDBRANCH  17  18
ENDBRANCH  16  17
ENDBRANCH  15  16
ENDBRANCH   9  15
ENDBRANCH   1   3
BRANCH   1  21
HETATM   21  C13 UNL     1      -2.466  51.314 -26.983  1.00  0.00     0.164 C 
BRANCH  21  22
HETATM   22  S1  UNL     1      -0.689  51.419 -27.325  1.00  0.00    -0.085 SA
BRANCH  22  23
HETATM   23  C14 UNL     1      -0.105  52.086 -25.856  1.00  0.00     0.161 A 
HETATM   24  N1  UNL     1      -0.353  51.691 -24.636  1.00  0.00    -0.320 N 
HETATM   25  C15 UNL     1       0.374  52.574 -23.861  1.00  0.00     0.134 A 
ATOM     26  H1  UNL     1      -0.941  50.916 -24.329  1.00  0.00     0.169 HD
HETATM   27  N2  UNL     1       1.019  53.515 -24.575  1.00  0.00    -0.283 N 
HETATM   28  N3  UNL     1       0.721  53.161 -25.836  1.00  0.00    -0.278 N 
ATOM     29  H2  UNL     1       1.587  54.294 -24.244  1.00  0.00     0.188 HD
HETATM   30  H26 UNL     1       1.097  53.692 -26.613  1.00  0.00     0.189 HD
BRANCH  25  31
HETATM   31  C16 UNL     1       0.346  52.500 -22.405  1.00  0.00     0.031 A 
HETATM   32  C17 UNL     1      -0.271  51.379 -21.818  1.00  0.00     0.017 A 
HETATM   33  C18 UNL     1      -0.346  51.239 -20.429  1.00  0.00     0.001 A 
HETATM   34  C19 UNL     1       0.200  52.214 -19.604  1.00  0.00     0.002 A 
HETATM   35  C20 UNL     1       0.829  53.325 -20.167  1.00  0.00     0.025 A 
HETATM   36  C21 UNL     1       0.907  53.471 -21.561  1.00  0.00     0.048 A 
HETATM   37 CL1  UNL     1       1.773  54.855 -22.139  1.00  0.00    -0.083 Cl
ENDBRANCH  25  31
ENDBRANCH  22  23
ENDBRANCH  21  22
ENDBRANCH   1  21
TORSDOF 10
ENDMDL
MODEL 8
REMARK minimizedAffinity -7.53120565
REMARK CNNscore 0.231142774
REMARK CNNaffinity 6.0317893
REMARK  10 active torsions:
REMARK  status: ('A' for Active; 'I' for Inactive)
REMARK    1  A    between atoms: C2_2  and  C3_3 
REMARK    2  A    between atoms: C3_3  and  C4_4 
REMARK    3  A    between atoms: C4_4  and  O1_5 
REMARK    4  A    between atoms: O1_5  and  C5_6 
REMARK    5  A    between atoms: C5_6  and  C6_7 
REMARK    6  A    between atoms: C10_11  and  C12_13 
REMARK    7  A    between atoms: C12_13  and  C13_15 
REMARK    8  A    between atoms: C13_15  and  S1_16 
REMARK    9  A    between atoms: S1_16  and  C14_17 
REMARK   10  A    between atoms: C15_20  and  C16_21 
ROOT
HETATM    1  C12 UNL     1      -2.642  50.118 -17.286  1.00  0.00     0.171 C 
HETATM    2  O2  UNL     1      -3.168  51.175 -16.921  1.00  0.00    -0.294 OA
ENDROOT
BRANCH   1   3
HETATM    3  C10 UNL     1      -3.215  49.355 -18.499  1.00  0.00     0.129 C 
HETATM    4  C9  UNL     1      -2.898  50.132 -19.779  1.00  0.00     0.076 C 
HETATM    5  C8  UNL     1      -4.115  49.942 -20.662  1.00  0.00     0.141 C 
HETATM    6  C7  UNL     1      -4.485  51.198 -21.434  1.00  0.00     0.065 C 
HETATM    7  C22 UNL     1      -5.173  49.520 -19.695  1.00  0.00     0.279 C 
HETATM    8  C23 UNL     1      -3.937  48.944 -21.766  1.00  0.00     0.278 C 
HETATM    9  C6  UNL     1      -5.172  50.636 -22.666  1.00  0.00     0.157 C 
HETATM   10  O6  UNL     1      -4.505  49.397 -22.923  1.00  0.00    -0.313 OA
HETATM   11  O3  UNL     1      -4.640  49.291 -18.462  1.00  0.00    -0.301 OA
HETATM   12  O4  UNL     1      -6.363  49.418 -19.941  1.00  0.00    -0.264 OA
HETATM   13  O5  UNL     1      -3.354  47.877 -21.674  1.00  0.00    -0.264 OA
HETATM   14  C11 UNL     1      -2.648  47.936 -18.503  1.00  0.00     0.055 C 
BRANCH   9  15
HETATM   15  C5  UNL     1      -5.068  51.552 -23.885  1.00  0.00     0.200 C 
BRANCH  15  16
HETATM   16  O1  UNL     1      -3.792  52.189 -23.894  1.00  0.00    -0.389 OA
BRANCH  16  17
HETATM   17  C4  UNL     1      -3.071  51.992 -25.112  1.00  0.00     0.167 C 
BRANCH  17  18
HETATM   18  C3  UNL     1      -2.084  50.832 -24.990  1.00  0.00     0.026 C 
BRANCH  18  19
HETATM   19  C2  UNL     1      -2.076  49.913 -26.212  1.00  0.00    -0.002 C 
HETATM   20  C1  UNL     1      -2.887  48.642 -26.012  1.00  0.00     0.005 C 
ENDBRANCH  18  19
ENDBRANCH  17  18
ENDBRANCH  16  17
ENDBRANCH  15  16
ENDBRANCH   9  15
ENDBRANCH   1   3
BRANCH   1  21
HETATM   21  C13 UNL     1      -1.477  49.516 -16.521  1.00  0.00     0.164 C 
BRANCH  21  22
HETATM   22  S1  UNL     1      -0.524  50.751 -15.600  1.00  0.00    -0.085 SA
BRANCH  22  23
HETATM   23  C14 UNL     1       0.235  51.607 -16.878  1.00  0.00     0.161 A 
HETATM   24  N1  UNL     1      -0.104  51.643 -18.139  1.00  0.00    -0.320 N 
HETATM   25  C15 UNL     1       0.840  52.481 -18.700  1.00  0.00     0.134 A 
ATOM     26  H1  UNL     1      -0.880  51.166 -18.599  1.00  0.00     0.169 HD
HETATM   27  N2  UNL     1       1.762  52.919 -17.824  1.00  0.00    -0.283 N 
HETATM   28  N3  UNL     1       1.335  52.373 -16.673  1.00  0.00    -0.278 N 
ATOM     29  H2  UNL     1       2.575  53.512 -17.991  1.00  0.00     0.188 HD
HETATM   30  H26 UNL     1       1.837  52.553 -15.810  1.00  0.00     0.189 HD
BRANCH  25  31
HETATM   31  C16 UNL     1       0.840  52.768 -20.129  1.00  0.00     0.031 A 
HETATM   32  C17 UNL     1       1.242  54.055 -20.539  1.00  0.00     0.017 A 
HETATM   33  C18 UNL     1       1.263  54.410 -21.891  1.00  0.00     0.001 A 
HETATM   34  C19 UNL     1       0.887  53.485 -22.857  1.00  0.00     0.002 A 
HETATM   35  C20 UNL     1       0.499  52.200 -22.471  1.00  0.00     0.025 A 
HETATM   36  C21 UNL     1       0.477  51.838 -21.115  1.00  0.00     0.048 A 
HETATM   37 CL1  UNL     1       0.048  50.196 -20.768  1.00  0.00    -0.083 Cl
ENDBRANCH  25  31
ENDBRANCH  22  23
ENDBRANCH  21  22
ENDBRANCH   1  21
TORSDOF 10
ENDMDL
MODEL 9
REMARK minimizedAffinity -8.00708771
REMARK CNNscore 0.229370266
REMARK CNNaffinity 6.62833738
REMARK  10 active torsions:
REMARK  status: ('A' for Active; 'I' for Inactive)
REMARK    1  A    between atoms: C2_2  and  C3_3 
REMARK    2  A    between atoms: C3_3  and  C4_4 
REMARK    3  A    between atoms: C4_4  and  O1_5 
REMARK    4  A    between atoms: O1_5  and  C5_6 
REMARK    5  A    between atoms: C5_6  and  C6_7 
REMARK    6  A    between atoms: C10_11  and  C12_13 
REMARK    7  A    between atoms: C12_13  and  C13_15 
REMARK    8  A    between atoms: C13_15  and  S1_16 
REMARK    9  A    between atoms: S1_16  and  C14_17 
REMARK   10  A    between atoms: C15_20  and  C16_21 
ROOT
HETATM    1  C12 UNL     1      -2.195  51.099 -18.911  1.00  0.00     0.171 C 
HETATM    2  O2  UNL     1      -2.905  51.583 -18.024  1.00  0.00    -0.294 OA
ENDROOT
BRANCH   1   3
HETATM    3  C10 UNL     1      -2.841  50.579 -20.213  1.00  0.00     0.129 C 
HETATM    4  C9  UNL     1      -1.781  50.525 -21.315  1.00  0.00     0.076 C 
HETATM    5  C8  UNL     1      -2.514  50.923 -22.581  1.00  0.00     0.141 C 
HETATM    6  C7  UNL     1      -1.678  51.803 -23.495  1.00  0.00     0.065 C 
HETATM    7  C22 UNL     1      -3.734  51.612 -22.063  1.00  0.00     0.279 C 
HETATM    8  C23 UNL     1      -2.862  49.781 -23.487  1.00  0.00     0.278 C 
HETATM    9  C6  UNL     1      -2.250  51.491 -24.865  1.00  0.00     0.157 C 
HETATM   10  O6  UNL     1      -2.643  50.118 -24.793  1.00  0.00    -0.313 OA
HETATM   11  O3  UNL     1      -3.831  51.477 -20.711  1.00  0.00    -0.301 OA
HETATM   12  O4  UNL     1      -4.532  52.247 -22.733  1.00  0.00    -0.264 OA
HETATM   13  O5  UNL     1      -3.266  48.687 -23.133  1.00  0.00    -0.264 OA
HETATM   14  C11 UNL     1      -3.487  49.222 -19.935  1.00  0.00     0.055 C 
BRANCH   9  15
HETATM   15  C5  UNL     1      -1.244  51.691 -25.999  1.00  0.00     0.200 C 
BRANCH  15  16
HETATM   16  O1  UNL     1      -0.982  53.083 -26.163  1.00  0.00    -0.389 OA
BRANCH  16  17
HETATM   17  C4  UNL     1       0.001  53.358 -27.164  1.00  0.00     0.167 C 
BRANCH  17  18
HETATM   18  C3  UNL     1       0.410  52.084 -27.901  1.00  0.00     0.026 C 
BRANCH  18  19
HETATM   19  C2  UNL     1       1.918  51.832 -27.883  1.00  0.00    -0.002 C 
HETATM   20  C1  UNL     1       2.441  51.416 -26.516  1.00  0.00     0.005 C 
ENDBRANCH  18  19
ENDBRANCH  17  18
ENDBRANCH  16  17
ENDBRANCH  15  16
ENDBRANCH   9  15
ENDBRANCH   1   3
BRANCH   1  21
HETATM   21  C13 UNL     1      -0.697  50.942 -18.719  1.00  0.00     0.164 C 
BRANCH  21  22
HETATM   22  S1  UNL     1       0.202  52.508 -18.874  1.00  0.00    -0.085 SA
BRANCH  22  23
HETATM   23  C14 UNL     1       1.231  52.439 -17.503  1.00  0.00     0.161 A 
HETATM   24  N1  UNL     1       1.128  51.667 -16.454  1.00  0.00    -0.320 N 
HETATM   25  C15 UNL     1       2.215  52.030 -15.683  1.00  0.00     0.134 A 
ATOM     26  H1  UNL     1       0.416  50.965 -16.253  1.00  0.00     0.169 HD
HETATM   27  N2  UNL     1       2.947  53.025 -16.215  1.00  0.00    -0.283 N 
HETATM   28  N3  UNL     1       2.317  53.243 -17.381  1.00  0.00    -0.278 N 
ATOM     29  H2  UNL     1       3.768  53.494 -15.831  1.00  0.00     0.188 HD
HETATM   30  H26 UNL     1       2.667  53.944 -18.023  1.00  0.00     0.189 HD
BRANCH  25  31
HETATM   31  C16 UNL     1       2.456  51.416 -14.382  1.00  0.00     0.031 A 
HETATM   32  C17 UNL     1       3.631  50.655 -14.224  1.00  0.00     0.017 A 
HETATM   33  C18 UNL     1       3.929  50.029 -13.011  1.00  0.00     0.001 A 
HETATM   34  C19 UNL     1       3.062  50.156 -11.933  1.00  0.00     0.002 A 
HETATM   35  C20 UNL     1       1.901  50.919 -12.066  1.00  0.00     0.025 A 
HETATM   36  C21 UNL     1       1.596  51.551 -13.281  1.00  0.00     0.048 A 
HETATM   37 CL1  UNL     1       0.165  52.526 -13.300  1.00  0.00    -0.083 Cl
ENDBRANCH  25  31
ENDBRANCH  22  23
ENDBRANCH  21  22
ENDBRANCH   1  21
TORSDOF 10
ENDMDL
