MODEL 1
REMARK minimizedAffinity -5.80245399
REMARK CNNscore 0.652630687
REMARK CNNaffinity 6.18582106
REMARK  11 active torsions:
REMARK  status: ('A' for Active; 'I' for Inactive)
REMARK    1  A    between atoms: C4_4  and  C5_5 
REMARK    2  A    between atoms: C5_5  and  O2_7 
REMARK    3  A    between atoms: O2_7  and  C6_8 
REMARK    4  A    between atoms: C6_8  and  C7_9 
REMARK    5  A    between atoms: C17_19  and  O3_21 
REMARK    6  A    between atoms: C19_22  and  C20_23 
REMARK    7  A    between atoms: C20_23  and  C21_24 
REMARK    8  A    between atoms: C21_24  and  C22_25 
REMARK    9  A    between atoms: C22_25  and  C24_27 
REMARK   10  A    between atoms: C24_27  and  C25_28 
REMARK   11  A    between atoms: C25_28  and  O4_29 
ROOT
HETATM    1  C7  UNL     1      13.879  -5.760   7.496  1.00  0.00    -0.018 C 
HETATM    2  C8  UNL     1      14.969  -6.849   7.615  1.00  0.00     0.018 C 
HETATM    3  C9  UNL     1      12.504  -6.470   7.571  1.00  0.00     0.012 C 
HETATM    4  C10 UNL     1      11.408  -5.638   6.936  1.00  0.00     0.002 C 
HETATM    5  C11 UNL     1      11.618  -5.506   5.431  1.00  0.00     0.010 C 
HETATM    6  C12 UNL     1      13.097  -5.269   4.961  1.00  0.00    -0.033 C 
HETATM    7  C13 UNL     1      13.627  -6.599   4.360  1.00  0.00     0.016 C 
HETATM    8  C14 UNL     1      13.985  -4.860   6.192  1.00  0.00     0.004 C 
HETATM    9  C15 UNL     1      15.444  -4.572   5.779  1.00  0.00     0.009 C 
HETATM   10  C16 UNL     1      15.597  -3.859   4.435  1.00  0.00     0.038 C 
HETATM   11  C17 UNL     1      14.340  -3.108   3.996  1.00  0.00     0.059 C 
HETATM   12  C18 UNL     1      14.662  -2.265   2.751  1.00  0.00     0.046 C 
HETATM   13  C19 UNL     1      13.103  -4.082   3.853  1.00  0.00     0.028 C 
ENDROOT
BRANCH   1  14
HETATM   14  C6  UNL     1      14.043  -4.811   8.731  1.00  0.00     0.188 C 
BRANCH  14  15
HETATM   15  O2  UNL     1      15.141  -5.232   9.558  1.00  0.00    -0.317 OA
BRANCH  15  16
HETATM   16  C5  UNL     1      16.114  -4.297   9.707  1.00  0.00     0.283 C 
HETATM   17  O1  UNL     1      16.134  -3.192   9.195  1.00  0.00    -0.260 OA
BRANCH  16  18
HETATM   18  C4  UNL     1      17.130  -4.864  10.629  1.00  0.00     0.084 C 
HETATM   19  C2  UNL     1      18.170  -5.652  10.295  1.00  0.00    -0.082 C 
HETATM   20  C1  UNL     1      18.480  -6.170   8.917  1.00  0.00     0.043 C 
HETATM   21  C3  UNL     1      19.152  -6.092  11.350  1.00  0.00     0.043 C 
ENDBRANCH  16  18
ENDBRANCH  15  16
ENDBRANCH  14  15
ENDBRANCH   1  14
BRANCH  13  22
HETATM   22  C20 UNL     1      12.888  -4.554   2.379  1.00  0.00     0.009 C 
BRANCH  22  23
HETATM   23  C21 UNL     1      13.917  -5.535   1.789  1.00  0.00     0.005 C 
BRANCH  23  24
HETATM   24  C22 UNL     1      14.170  -5.457   0.262  1.00  0.00    -0.017 C 
HETATM   25  C23 UNL     1      14.966  -4.205  -0.121  1.00  0.00     0.010 C 
BRANCH  24  26
HETATM   26  C24 UNL     1      12.872  -5.589  -0.558  1.00  0.00     0.030 C 
BRANCH  26  27
HETATM   27  C25 UNL     1      12.824  -6.799  -1.489  1.00  0.00     0.164 C 
BRANCH  27  28
HETATM   28  O4  UNL     1      12.542  -7.993  -0.775  1.00  0.00    -0.401 OA
HETATM   29  H44 UNL     1      11.729  -7.846  -0.261  1.00  0.00     0.209 HD
ENDBRANCH  27  28
ENDBRANCH  26  27
ENDBRANCH  24  26
ENDBRANCH  23  24
ENDBRANCH  22  23
ENDBRANCH  13  22
BRANCH  11  30
HETATM   30  O3  UNL     1      14.009  -2.149   5.019  1.00  0.00    -0.390 OA
HETATM   31  H30 UNL     1      14.772  -1.560   5.143  1.00  0.00     0.210 HD
ENDBRANCH  11  30
TORSDOF 11
ENDMDL
MODEL 2
REMARK minimizedAffinity -8.37223244
REMARK CNNscore 0.620538116
REMARK CNNaffinity 6.49099398
REMARK  11 active torsions:
REMARK  status: ('A' for Active; 'I' for Inactive)
REMARK    1  A    between atoms: C4_4  and  C5_5 
REMARK    2  A    between atoms: C5_5  and  O2_7 
REMARK    3  A    between atoms: O2_7  and  C6_8 
REMARK    4  A    between atoms: C6_8  and  C7_9 
REMARK    5  A    between atoms: C17_19  and  O3_21 
REMARK    6  A    between atoms: C19_22  and  C20_23 
REMARK    7  A    between atoms: C20_23  and  C21_24 
REMARK    8  A    between atoms: C21_24  and  C22_25 
REMARK    9  A    between atoms: C22_25  and  C24_27 
REMARK   10  A    between atoms: C24_27  and  C25_28 
REMARK   11  A    between atoms: C25_28  and  O4_29 
ROOT
HETATM    1  C7  UNL     1       0.193   6.395  12.098  1.00  0.00    -0.018 C 
HETATM    2  C8  UNL     1       1.259   5.838  13.069  1.00  0.00     0.018 C 
HETATM    3  C9  UNL     1      -0.178   7.819  12.584  1.00  0.00     0.012 C 
HETATM    4  C10 UNL     1      -1.546   8.242  12.086  1.00  0.00     0.002 C 
HETATM    5  C11 UNL     1      -2.647   7.393  12.713  1.00  0.00     0.010 C 
HETATM    6  C12 UNL     1      -2.345   5.858  12.837  1.00  0.00    -0.033 C 
HETATM    7  C13 UNL     1      -2.027   5.553  14.326  1.00  0.00     0.016 C 
HETATM    8  C14 UNL     1      -1.102   5.489  11.949  1.00  0.00     0.004 C 
HETATM    9  C15 UNL     1      -0.786   3.978  12.001  1.00  0.00     0.009 C 
HETATM   10  C16 UNL     1      -2.016   3.071  12.038  1.00  0.00     0.038 C 
HETATM   11  C17 UNL     1      -3.283   3.738  11.505  1.00  0.00     0.059 C 
HETATM   12  C18 UNL     1      -4.401   2.688  11.393  1.00  0.00     0.046 C 
HETATM   13  C19 UNL     1      -3.651   5.032  12.337  1.00  0.00     0.028 C 
ENDROOT
BRANCH   1  14
HETATM   14  C6  UNL     1       0.863   6.485  10.685  1.00  0.00     0.188 C 
BRANCH  14  15
HETATM   15  O2  UNL     1       2.031   5.651  10.618  1.00  0.00    -0.317 OA
BRANCH  15  16
HETATM   16  C5  UNL     1       2.978   6.090   9.749  1.00  0.00     0.283 C 
HETATM   17  O1  UNL     1       4.148   6.306  10.009  1.00  0.00    -0.260 OA
BRANCH  16  18
HETATM   18  C4  UNL     1       2.325   6.229   8.423  1.00  0.00     0.084 C 
HETATM   19  C2  UNL     1       2.340   7.317   7.629  1.00  0.00    -0.082 C 
HETATM   20  C1  UNL     1       2.976   8.641   7.954  1.00  0.00     0.043 C 
HETATM   21  C3  UNL     1       1.677   7.272   6.276  1.00  0.00     0.043 C 
ENDBRANCH  16  18
ENDBRANCH  15  16
ENDBRANCH  14  15
ENDBRANCH   1  14
BRANCH  13  22
HETATM   22  C20 UNL     1      -4.713   4.742  13.444  1.00  0.00     0.009 C 
BRANCH  22  23
HETATM   23  C21 UNL     1      -5.900   5.715  13.564  1.00  0.00     0.005 C 
BRANCH  23  24
HETATM   24  C22 UNL     1      -7.191   5.173  14.229  1.00  0.00    -0.017 C 
HETATM   25  C23 UNL     1      -7.299   5.601  15.696  1.00  0.00     0.010 C 
BRANCH  24  26
HETATM   26  C24 UNL     1      -7.347   3.650  14.059  1.00  0.00     0.030 C 
BRANCH  26  27
HETATM   27  C25 UNL     1      -8.084   3.220  12.792  1.00  0.00     0.164 C 
BRANCH  27  28
HETATM   28  O4  UNL     1      -8.022   1.813  12.608  1.00  0.00    -0.401 OA
HETATM   29  H44 UNL     1      -8.343   1.392  13.424  1.00  0.00     0.209 HD
ENDBRANCH  27  28
ENDBRANCH  26  27
ENDBRANCH  24  26
ENDBRANCH  23  24
ENDBRANCH  22  23
ENDBRANCH  13  22
BRANCH  11  30
HETATM   30  O3  UNL     1      -3.033   4.161  10.151  1.00  0.00    -0.390 OA
HETATM   31  H30 UNL     1      -2.775   3.381   9.631  1.00  0.00     0.210 HD
ENDBRANCH  11  30
TORSDOF 11
ENDMDL
MODEL 3
REMARK minimizedAffinity -8.21470356
REMARK CNNscore 0.618625998
REMARK CNNaffinity 6.5841918
REMARK  11 active torsions:
REMARK  status: ('A' for Active; 'I' for Inactive)
REMARK    1  A    between atoms: C4_4  and  C5_5 
REMARK    2  A    between atoms: C5_5  and  O2_7 
REMARK    3  A    between atoms: O2_7  and  C6_8 
REMARK    4  A    between atoms: C6_8  and  C7_9 
REMARK    5  A    between atoms: C17_19  and  O3_21 
REMARK    6  A    between atoms: C19_22  and  C20_23 
REMARK    7  A    between atoms: C20_23  and  C21_24 
REMARK    8  A    between atoms: C21_24  and  C22_25 
REMARK    9  A    between atoms: C22_25  and  C24_27 
REMARK   10  A    between atoms: C24_27  and  C25_28 
REMARK   11  A    between atoms: C25_28  and  O4_29 
ROOT
HETATM    1  C7  UNL     1      -0.841   5.840  12.298  1.00  0.00    -0.018 C 
HETATM    2  C8  UNL     1       0.207   5.217  13.248  1.00  0.00     0.018 C 
HETATM    3  C9  UNL     1      -1.288   7.187  12.919  1.00  0.00     0.012 C 
HETATM    4  C10 UNL     1      -2.651   7.614  12.411  1.00  0.00     0.002 C 
HETATM    5  C11 UNL     1      -3.741   6.662  12.893  1.00  0.00     0.010 C 
HETATM    6  C12 UNL     1      -3.384   5.135  12.862  1.00  0.00    -0.033 C 
HETATM    7  C13 UNL     1      -3.113   4.678  14.321  1.00  0.00     0.016 C 
HETATM    8  C14 UNL     1      -2.092   4.910  11.994  1.00  0.00     0.004 C 
HETATM    9  C15 UNL     1      -1.718   3.415  11.895  1.00  0.00     0.009 C 
HETATM   10  C16 UNL     1      -2.912   2.466  11.778  1.00  0.00     0.038 C 
HETATM   11  C17 UNL     1      -4.183   3.144  11.267  1.00  0.00     0.059 C 
HETATM   12  C18 UNL     1      -5.252   2.074  10.991  1.00  0.00     0.046 C 
HETATM   13  C19 UNL     1      -4.634   4.323  12.217  1.00  0.00     0.028 C 
ENDROOT
BRANCH   1  14
HETATM   14  C6  UNL     1      -0.120   6.109  10.935  1.00  0.00     0.188 C 
BRANCH  14  15
HETATM   15  O2  UNL     1      -0.053   7.518  10.659  1.00  0.00    -0.317 OA
BRANCH  15  16
HETATM   16  C5  UNL     1       1.177   7.953  10.285  1.00  0.00     0.283 C 
HETATM   17  O1  UNL     1       2.089   8.261  11.031  1.00  0.00    -0.260 OA
BRANCH  16  18
HETATM   18  C4  UNL     1       1.209   7.955   8.801  1.00  0.00     0.084 C 
HETATM   19  C2  UNL     1       1.913   7.123   8.010  1.00  0.00    -0.082 C 
HETATM   20  C1  UNL     1       2.864   6.054   8.475  1.00  0.00     0.043 C 
HETATM   21  C3  UNL     1       1.783   7.217   6.511  1.00  0.00     0.043 C 
ENDBRANCH  16  18
ENDBRANCH  15  16
ENDBRANCH  14  15
ENDBRANCH   1  14
BRANCH  13  22
HETATM   22  C20 UNL     1      -5.727   3.875  13.239  1.00  0.00     0.009 C 
BRANCH  22  23
HETATM   23  C21 UNL     1      -7.197   3.944  12.785  1.00  0.00     0.005 C 
BRANCH  23  24
HETATM   24  C22 UNL     1      -8.066   5.081  13.380  1.00  0.00    -0.017 C 
HETATM   25  C23 UNL     1      -8.784   5.880  12.288  1.00  0.00     0.010 C 
BRANCH  24  26
HETATM   26  C24 UNL     1      -7.271   5.992  14.333  1.00  0.00     0.030 C 
BRANCH  26  27
HETATM   27  C25 UNL     1      -7.590   5.800  15.815  1.00  0.00     0.164 C 
BRANCH  27  28
HETATM   28  O4  UNL     1      -6.508   6.212  16.637  1.00  0.00    -0.401 OA
HETATM   29  H44 UNL     1      -6.277   7.124  16.388  1.00  0.00     0.209 HD
ENDBRANCH  27  28
ENDBRANCH  26  27
ENDBRANCH  24  26
ENDBRANCH  23  24
ENDBRANCH  22  23
ENDBRANCH  13  22
BRANCH  11  30
HETATM   30  O3  UNL     1      -3.895   3.722   9.979  1.00  0.00    -0.390 OA
HETATM   31  H30 UNL     1      -3.586   3.014   9.389  1.00  0.00     0.210 HD
ENDBRANCH  11  30
TORSDOF 11
ENDMDL
MODEL 4
REMARK minimizedAffinity -7.42833948
REMARK CNNscore 0.591113687
REMARK CNNaffinity 6.70859003
REMARK  11 active torsions:
REMARK  status: ('A' for Active; 'I' for Inactive)
REMARK    1  A    between atoms: C4_4  and  C5_5 
REMARK    2  A    between atoms: C5_5  and  O2_7 
REMARK    3  A    between atoms: O2_7  and  C6_8 
REMARK    4  A    between atoms: C6_8  and  C7_9 
REMARK    5  A    between atoms: C17_19  and  O3_21 
REMARK    6  A    between atoms: C19_22  and  C20_23 
REMARK    7  A    between atoms: C20_23  and  C21_24 
REMARK    8  A    between atoms: C21_24  and  C22_25 
REMARK    9  A    between atoms: C22_25  and  C24_27 
REMARK   10  A    between atoms: C24_27  and  C25_28 
REMARK   11  A    between atoms: C25_28  and  O4_29 
ROOT
HETATM    1  C7  UNL     1      -1.699   8.481  14.370  1.00  0.00    -0.018 C 
HETATM    2  C8  UNL     1      -1.155   8.446  15.816  1.00  0.00     0.018 C 
HETATM    3  C9  UNL     1      -3.131   9.071  14.428  1.00  0.00     0.012 C 
HETATM    4  C10 UNL     1      -3.955   8.663  13.223  1.00  0.00     0.002 C 
HETATM    5  C11 UNL     1      -4.227   7.162  13.225  1.00  0.00     0.010 C 
HETATM    6  C12 UNL     1      -3.025   6.246  13.646  1.00  0.00    -0.033 C 
HETATM    7  C13 UNL     1      -3.296   5.736  15.087  1.00  0.00     0.016 C 
HETATM    8  C14 UNL     1      -1.692   7.078  13.627  1.00  0.00     0.004 C 
HETATM    9  C15 UNL     1      -0.467   6.212  13.994  1.00  0.00     0.009 C 
HETATM   10  C16 UNL     1      -0.506   4.786  13.441  1.00  0.00     0.038 C 
HETATM   11  C17 UNL     1      -1.434   4.624  12.237  1.00  0.00     0.059 C 
HETATM   12  C18 UNL     1      -1.244   3.222  11.637  1.00  0.00     0.046 C 
HETATM   13  C19 UNL     1      -2.924   5.010  12.598  1.00  0.00     0.028 C 
ENDROOT
BRANCH   1  14
HETATM   14  C6  UNL     1      -0.772   9.444  13.555  1.00  0.00     0.188 C 
BRANCH  14  15
HETATM   15  O2  UNL     1       0.107   8.702  12.694  1.00  0.00    -0.317 OA
BRANCH  15  16
HETATM   16  C5  UNL     1      -0.200   8.793  11.375  1.00  0.00     0.283 C 
HETATM   17  O1  UNL     1      -1.254   9.186  10.908  1.00  0.00    -0.260 OA
BRANCH  16  18
HETATM   18  C4  UNL     1       0.995   8.351  10.614  1.00  0.00     0.084 C 
HETATM   19  C2  UNL     1       1.079   8.167   9.282  1.00  0.00    -0.082 C 
HETATM   20  C1  UNL     1      -0.047   8.316   8.296  1.00  0.00     0.043 C 
HETATM   21  C3  UNL     1       2.393   7.775   8.657  1.00  0.00     0.043 C 
ENDBRANCH  16  18
ENDBRANCH  15  16
ENDBRANCH  14  15
ENDBRANCH   1  14
BRANCH  13  22
HETATM   22  C20 UNL     1      -3.787   3.761  12.964  1.00  0.00     0.009 C 
BRANCH  22  23
HETATM   23  C21 UNL     1      -5.278   3.991  13.272  1.00  0.00     0.005 C 
BRANCH  23  24
HETATM   24  C22 UNL     1      -6.267   3.886  12.084  1.00  0.00    -0.017 C 
HETATM   25  C23 UNL     1      -7.671   3.483  12.545  1.00  0.00     0.010 C 
BRANCH  24  26
HETATM   26  C24 UNL     1      -5.744   2.970  10.961  1.00  0.00     0.030 C 
BRANCH  26  27
HETATM   27  C25 UNL     1      -5.902   1.474  11.230  1.00  0.00     0.164 C 
BRANCH  27  28
HETATM   28  O4  UNL     1      -4.641   0.835  11.365  1.00  0.00    -0.401 OA
HETATM   29  H44 UNL     1      -4.136   1.317  12.042  1.00  0.00     0.209 HD
ENDBRANCH  27  28
ENDBRANCH  26  27
ENDBRANCH  24  26
ENDBRANCH  23  24
ENDBRANCH  22  23
ENDBRANCH  13  22
BRANCH  11  30
HETATM   30  O3  UNL     1      -0.997   5.532  11.208  1.00  0.00    -0.390 OA
HETATM   31  H30 UNL     1      -0.071   5.329  10.995  1.00  0.00     0.210 HD
ENDBRANCH  11  30
TORSDOF 11
ENDMDL
MODEL 5
REMARK minimizedAffinity -5.87454176
REMARK CNNscore 0.55999589
REMARK CNNaffinity 6.52208519
REMARK  11 active torsions:
REMARK  status: ('A' for Active; 'I' for Inactive)
REMARK    1  A    between atoms: C4_4  and  C5_5 
REMARK    2  A    between atoms: C5_5  and  O2_7 
REMARK    3  A    between atoms: O2_7  and  C6_8 
REMARK    4  A    between atoms: C6_8  and  C7_9 
REMARK    5  A    between atoms: C17_19  and  O3_21 
REMARK    6  A    between atoms: C19_22  and  C20_23 
REMARK    7  A    between atoms: C20_23  and  C21_24 
REMARK    8  A    between atoms: C21_24  and  C22_25 
REMARK    9  A    between atoms: C22_25  and  C24_27 
REMARK   10  A    between atoms: C24_27  and  C25_28 
REMARK   11  A    between atoms: C25_28  and  O4_29 
ROOT
HETATM    1  C7  UNL     1     -12.511   9.937  14.502  1.00  0.00    -0.018 C 
HETATM    2  C8  UNL     1     -13.619   9.615  15.530  1.00  0.00     0.018 C 
HETATM    3  C9  UNL     1     -13.051   9.551  13.102  1.00  0.00     0.012 C 
HETATM    4  C10 UNL     1     -11.927   9.298  12.117  1.00  0.00     0.002 C 
HETATM    5  C11 UNL     1     -11.126   8.059  12.502  1.00  0.00     0.010 C 
HETATM    6  C12 UNL     1     -10.825   7.883  14.032  1.00  0.00    -0.033 C 
HETATM    7  C13 UNL     1     -11.760   6.769  14.578  1.00  0.00     0.016 C 
HETATM    8  C14 UNL     1     -11.119   9.229  14.789  1.00  0.00     0.004 C 
HETATM    9  C15 UNL     1     -10.798   9.125  16.296  1.00  0.00     0.009 C 
HETATM   10  C16 UNL     1      -9.555   8.298  16.627  1.00  0.00     0.038 C 
HETATM   11  C17 UNL     1      -8.581   8.165  15.457  1.00  0.00     0.059 C 
HETATM   12  C18 UNL     1      -7.285   7.500  15.950  1.00  0.00     0.046 C 
HETATM   13  C19 UNL     1      -9.263   7.474  14.210  1.00  0.00     0.028 C 
ENDROOT
BRANCH   1  14
HETATM   14  C6  UNL     1     -12.268  11.482  14.559  1.00  0.00     0.188 C 
BRANCH  14  15
HETATM   15  O2  UNL     1     -13.174  12.176  13.685  1.00  0.00    -0.317 OA
BRANCH  15  16
HETATM   16  C5  UNL     1     -13.459  13.445  14.075  1.00  0.00     0.283 C 
HETATM   17  O1  UNL     1     -14.467  13.811  14.652  1.00  0.00    -0.260 OA
BRANCH  16  18
HETATM   18  C4  UNL     1     -12.302  14.292  13.691  1.00  0.00     0.084 C 
HETATM   19  C2  UNL     1     -12.117  14.914  12.510  1.00  0.00    -0.082 C 
HETATM   20  C1  UNL     1     -13.023  14.826  11.312  1.00  0.00     0.043 C 
HETATM   21  C3  UNL     1     -10.912  15.794  12.303  1.00  0.00     0.043 C 
ENDBRANCH  16  18
ENDBRANCH  15  16
ENDBRANCH  14  15
ENDBRANCH   1  14
BRANCH  13  22
HETATM   22  C20 UNL     1      -8.970   5.942  14.147  1.00  0.00     0.009 C 
BRANCH  22  23
HETATM   23  C21 UNL     1      -8.159   5.420  12.947  1.00  0.00     0.005 C 
BRANCH  23  24
HETATM   24  C22 UNL     1      -6.952   4.499  13.259  1.00  0.00    -0.017 C 
HETATM   25  C23 UNL     1      -5.634   5.278  13.293  1.00  0.00     0.010 C 
BRANCH  24  26
HETATM   26  C24 UNL     1      -6.880   3.284  12.315  1.00  0.00     0.030 C 
BRANCH  26  27
HETATM   27  C25 UNL     1      -5.474   2.931  11.833  1.00  0.00     0.164 C 
BRANCH  27  28
HETATM   28  O4  UNL     1      -5.465   2.608  10.450  1.00  0.00    -0.401 OA
HETATM   29  H44 UNL     1      -5.884   3.344   9.971  1.00  0.00     0.209 HD
ENDBRANCH  27  28
ENDBRANCH  26  27
ENDBRANCH  24  26
ENDBRANCH  23  24
ENDBRANCH  22  23
ENDBRANCH  13  22
BRANCH  11  30
HETATM   30  O3  UNL     1      -8.188   9.489  15.047  1.00  0.00    -0.390 OA
HETATM   31  H30 UNL     1      -7.793   9.940  15.813  1.00  0.00     0.210 HD
ENDBRANCH  11  30
TORSDOF 11
ENDMDL
MODEL 6
REMARK minimizedAffinity -8.23708344
REMARK CNNscore 0.544154346
REMARK CNNaffinity 6.47957468
REMARK  11 active torsions:
REMARK  status: ('A' for Active; 'I' for Inactive)
REMARK    1  A    between atoms: C4_4  and  C5_5 
REMARK    2  A    between atoms: C5_5  and  O2_7 
REMARK    3  A    between atoms: O2_7  and  C6_8 
REMARK    4  A    between atoms: C6_8  and  C7_9 
REMARK    5  A    between atoms: C17_19  and  O3_21 
REMARK    6  A    between atoms: C19_22  and  C20_23 
REMARK    7  A    between atoms: C20_23  and  C21_24 
REMARK    8  A    between atoms: C21_24  and  C22_25 
REMARK    9  A    between atoms: C22_25  and  C24_27 
REMARK   10  A    between atoms: C24_27  and  C25_28 
REMARK   11  A    between atoms: C25_28  and  O4_29 
ROOT
HETATM    1  C7  UNL     1       0.353   7.947  12.688  1.00  0.00    -0.018 C 
HETATM    2  C8  UNL     1       1.382   7.882  13.840  1.00  0.00     0.018 C 
HETATM    3  C9  UNL     1      -0.655   9.073  13.030  1.00  0.00     0.012 C 
HETATM    4  C10 UNL     1      -1.974   8.884  12.308  1.00  0.00     0.002 C 
HETATM    5  C11 UNL     1      -2.702   7.640  12.808  1.00  0.00     0.010 C 
HETATM    6  C12 UNL     1      -1.809   6.376  13.064  1.00  0.00    -0.033 C 
HETATM    7  C13 UNL     1      -1.636   6.216  14.599  1.00  0.00     0.016 C 
HETATM    8  C14 UNL     1      -0.399   6.579  12.398  1.00  0.00     0.004 C 
HETATM    9  C15 UNL     1       0.509   5.344  12.583  1.00  0.00     0.009 C 
HETATM   10  C16 UNL     1      -0.215   4.000  12.485  1.00  0.00     0.038 C 
HETATM   11  C17 UNL     1      -1.541   4.075  11.730  1.00  0.00     0.059 C 
HETATM   12  C18 UNL     1      -2.080   2.652  11.510  1.00  0.00     0.046 C 
HETATM   13  C19 UNL     1      -2.547   5.081  12.420  1.00  0.00     0.028 C 
ENDROOT
BRANCH   1  14
HETATM   14  C6  UNL     1       1.141   8.330  11.391  1.00  0.00     0.188 C 
BRANCH  14  15
HETATM   15  O2  UNL     1       0.269   8.934  10.421  1.00  0.00    -0.317 OA
BRANCH  15  16
HETATM   16  C5  UNL     1       0.241   8.293   9.224  1.00  0.00     0.283 C 
HETATM   17  O1  UNL     1      -0.478   8.564   8.280  1.00  0.00    -0.260 OA
BRANCH  16  18
HETATM   18  C4  UNL     1       1.268   7.222   9.276  1.00  0.00     0.084 C 
HETATM   19  C2  UNL     1       2.027   6.785   8.253  1.00  0.00    -0.082 C 
HETATM   20  C1  UNL     1       1.944   7.255   6.826  1.00  0.00     0.043 C 
HETATM   21  C3  UNL     1       3.076   5.729   8.489  1.00  0.00     0.043 C 
ENDBRANCH  16  18
ENDBRANCH  15  16
ENDBRANCH  14  15
ENDBRANCH   1  14
BRANCH  13  22
HETATM   22  C20 UNL     1      -3.553   4.354  13.369  1.00  0.00     0.009 C 
BRANCH  22  23
HETATM   23  C21 UNL     1      -5.034   4.330  12.951  1.00  0.00     0.005 C 
BRANCH  23  24
HETATM   24  C22 UNL     1      -5.939   5.463  13.496  1.00  0.00    -0.017 C 
HETATM   25  C23 UNL     1      -5.378   6.070  14.786  1.00  0.00     0.010 C 
BRANCH  24  26
HETATM   26  C24 UNL     1      -7.406   5.021  13.657  1.00  0.00     0.030 C 
BRANCH  26  27
HETATM   27  C25 UNL     1      -7.609   3.511  13.772  1.00  0.00     0.164 C 
BRANCH  27  28
HETATM   28  O4  UNL     1      -8.677   3.066  12.949  1.00  0.00    -0.401 OA
HETATM   29  H44 UNL     1      -8.507   3.383  12.045  1.00  0.00     0.209 HD
ENDBRANCH  27  28
ENDBRANCH  26  27
ENDBRANCH  24  26
ENDBRANCH  23  24
ENDBRANCH  22  23
ENDBRANCH  13  22
BRANCH  11  30
HETATM   30  O3  UNL     1      -1.277   4.581  10.407  1.00  0.00    -0.390 OA
HETATM   31  H30 UNL     1      -0.635   3.991   9.977  1.00  0.00     0.210 HD
ENDBRANCH  11  30
TORSDOF 11
ENDMDL
MODEL 7
REMARK minimizedAffinity -8.12457752
REMARK CNNscore 0.516793013
REMARK CNNaffinity 6.46713829
REMARK  11 active torsions:
REMARK  status: ('A' for Active; 'I' for Inactive)
REMARK    1  A    between atoms: C4_4  and  C5_5 
REMARK    2  A    between atoms: C5_5  and  O2_7 
REMARK    3  A    between atoms: O2_7  and  C6_8 
REMARK    4  A    between atoms: C6_8  and  C7_9 
REMARK    5  A    between atoms: C17_19  and  O3_21 
REMARK    6  A    between atoms: C19_22  and  C20_23 
REMARK    7  A    between atoms: C20_23  and  C21_24 
REMARK    8  A    between atoms: C21_24  and  C22_25 
REMARK    9  A    between atoms: C22_25  and  C24_27 
REMARK   10  A    between atoms: C24_27  and  C25_28 
REMARK   11  A    between atoms: C25_28  and  O4_29 
ROOT
HETATM    1  C7  UNL     1      -0.236   6.216  12.466  1.00  0.00    -0.018 C 
HETATM    2  C8  UNL     1       0.734   5.602  13.501  1.00  0.00     0.018 C 
HETATM    3  C9  UNL     1      -0.641   7.619  12.986  1.00  0.00     0.012 C 
HETATM    4  C10 UNL     1      -1.956   8.080  12.388  1.00  0.00     0.002 C 
HETATM    5  C11 UNL     1      -3.115   7.213  12.870  1.00  0.00     0.010 C 
HETATM    6  C12 UNL     1      -2.835   5.671  12.946  1.00  0.00    -0.033 C 
HETATM    7  C13 UNL     1      -2.655   5.291  14.440  1.00  0.00     0.016 C 
HETATM    8  C14 UNL     1      -1.518   5.332  12.157  1.00  0.00     0.004 C 
HETATM    9  C15 UNL     1      -1.218   3.817  12.162  1.00  0.00     0.009 C 
HETATM   10  C16 UNL     1      -2.452   2.922  12.044  1.00  0.00     0.038 C 
HETATM   11  C17 UNL     1      -3.661   3.628  11.432  1.00  0.00     0.059 C 
HETATM   12  C18 UNL     1      -4.770   2.597  11.168  1.00  0.00     0.046 C 
HETATM   13  C19 UNL     1      -4.095   4.883  12.290  1.00  0.00     0.028 C 
ENDROOT
BRANCH   1  14
HETATM   14  C6  UNL     1       0.559   6.367  11.126  1.00  0.00     0.188 C 
BRANCH  14  15
HETATM   15  O2  UNL     1       1.909   5.898  11.276  1.00  0.00    -0.317 OA
BRANCH  15  16
HETATM   16  C5  UNL     1       2.554   5.678  10.102  1.00  0.00     0.283 C 
HETATM   17  O1  UNL     1       2.762   4.594   9.588  1.00  0.00    -0.260 OA
BRANCH  16  18
HETATM   18  C4  UNL     1       2.931   7.005   9.552  1.00  0.00     0.084 C 
HETATM   19  C2  UNL     1       2.739   7.438   8.291  1.00  0.00    -0.082 C 
HETATM   20  C1  UNL     1       2.153   6.637   7.161  1.00  0.00     0.043 C 
HETATM   21  C3  UNL     1       3.123   8.844   7.911  1.00  0.00     0.043 C 
ENDBRANCH  16  18
ENDBRANCH  15  16
ENDBRANCH  14  15
ENDBRANCH   1  14
BRANCH  13  22
HETATM   22  C20 UNL     1      -5.255   4.552  13.281  1.00  0.00     0.009 C 
BRANCH  22  23
HETATM   23  C21 UNL     1      -6.435   5.538  13.352  1.00  0.00     0.005 C 
BRANCH  23  24
HETATM   24  C22 UNL     1      -7.844   4.936  13.583  1.00  0.00    -0.017 C 
HETATM   25  C23 UNL     1      -7.950   3.508  13.038  1.00  0.00     0.010 C 
BRANCH  24  26
HETATM   26  C24 UNL     1      -8.967   5.843  13.047  1.00  0.00     0.030 C 
BRANCH  26  27
HETATM   27  C25 UNL     1      -9.547   6.817  14.072  1.00  0.00     0.164 C 
BRANCH  27  28
HETATM   28  O4  UNL     1      -9.488   6.283  15.387  1.00  0.00    -0.401 OA
HETATM   29  H44 UNL     1      -8.569   6.016  15.558  1.00  0.00     0.209 HD
ENDBRANCH  27  28
ENDBRANCH  26  27
ENDBRANCH  24  26
ENDBRANCH  23  24
ENDBRANCH  22  23
ENDBRANCH  13  22
BRANCH  11  30
HETATM   30  O3  UNL     1      -3.286   4.113  10.129  1.00  0.00    -0.390 OA
HETATM   31  H30 UNL     1      -2.987   3.357   9.596  1.00  0.00     0.210 HD
ENDBRANCH  11  30
TORSDOF 11
ENDMDL
MODEL 8
REMARK minimizedAffinity -6.03024721
REMARK CNNscore 0.468731135
REMARK CNNaffinity 6.1922431
REMARK  11 active torsions:
REMARK  status: ('A' for Active; 'I' for Inactive)
REMARK    1  A    between atoms: C4_4  and  C5_5 
REMARK    2  A    between atoms: C5_5  and  O2_7 
REMARK    3  A    between atoms: O2_7  and  C6_8 
REMARK    4  A    between atoms: C6_8  and  C7_9 
REMARK    5  A    between atoms: C17_19  and  O3_21 
REMARK    6  A    between atoms: C19_22  and  C20_23 
REMARK    7  A    between atoms: C20_23  and  C21_24 
REMARK    8  A    between atoms: C21_24  and  C22_25 
REMARK    9  A    between atoms: C22_25  and  C24_27 
REMARK   10  A    between atoms: C24_27  and  C25_28 
REMARK   11  A    between atoms: C25_28  and  O4_29 
ROOT
HETATM    1  C7  UNL     1      -0.478   6.864  12.903  1.00  0.00    -0.018 C 
HETATM    2  C8  UNL     1      -1.431   5.779  12.353  1.00  0.00     0.018 C 
HETATM    3  C9  UNL     1       0.480   6.175  13.907  1.00  0.00     0.012 C 
HETATM    4  C10 UNL     1       1.068   7.166  14.892  1.00  0.00     0.002 C 
HETATM    5  C11 UNL     1      -0.009   7.731  15.813  1.00  0.00     0.010 C 
HETATM    6  C12 UNL     1      -1.379   8.083  15.135  1.00  0.00    -0.033 C 
HETATM    7  C13 UNL     1      -2.403   6.983  15.526  1.00  0.00     0.016 C 
HETATM    8  C14 UNL     1      -1.207   8.105  13.572  1.00  0.00     0.004 C 
HETATM    9  C15 UNL     1      -2.519   8.490  12.854  1.00  0.00     0.009 C 
HETATM   10  C16 UNL     1      -3.343   9.564  13.565  1.00  0.00     0.038 C 
HETATM   11  C17 UNL     1      -2.527  10.421  14.531  1.00  0.00     0.059 C 
HETATM   12  C18 UNL     1      -3.393  11.589  15.030  1.00  0.00     0.046 C 
HETATM   13  C19 UNL     1      -1.858   9.542  15.662  1.00  0.00     0.028 C 
ENDROOT
BRANCH   1  14
HETATM   14  C6  UNL     1       0.345   7.408  11.687  1.00  0.00     0.188 C 
BRANCH  14  15
HETATM   15  O2  UNL     1       1.157   6.371  11.112  1.00  0.00    -0.317 OA
BRANCH  15  16
HETATM   16  C5  UNL     1       2.211   6.828  10.387  1.00  0.00     0.283 C 
HETATM   17  O1  UNL     1       3.242   7.296  10.834  1.00  0.00    -0.260 OA
BRANCH  16  18
HETATM   18  C4  UNL     1       1.879   6.624   8.955  1.00  0.00     0.084 C 
HETATM   19  C2  UNL     1       2.263   7.398   7.921  1.00  0.00    -0.082 C 
HETATM   20  C1  UNL     1       3.061   8.669   8.017  1.00  0.00     0.043 C 
HETATM   21  C3  UNL     1       1.892   7.012   6.513  1.00  0.00     0.043 C 
ENDBRANCH  16  18
ENDBRANCH  15  16
ENDBRANCH  14  15
ENDBRANCH   1  14
BRANCH  13  22
HETATM   22  C20 UNL     1      -2.704   9.525  16.975  1.00  0.00     0.009 C 
BRANCH  22  23
HETATM   23  C21 UNL     1      -1.948   9.638  18.311  1.00  0.00     0.005 C 
BRANCH  23  24
HETATM   24  C22 UNL     1      -1.721  11.065  18.874  1.00  0.00    -0.017 C 
HETATM   25  C23 UNL     1      -2.944  11.962  18.661  1.00  0.00     0.010 C 
BRANCH  24  26
HETATM   26  C24 UNL     1      -0.431  11.712  18.337  1.00  0.00     0.030 C 
BRANCH  26  27
HETATM   27  C25 UNL     1       0.719  11.775  19.341  1.00  0.00     0.164 C 
BRANCH  27  28
HETATM   28  O4  UNL     1       1.010  10.493  19.879  1.00  0.00    -0.401 OA
HETATM   29  H44 UNL     1       1.157   9.886  19.133  1.00  0.00     0.209 HD
ENDBRANCH  27  28
ENDBRANCH  26  27
ENDBRANCH  24  26
ENDBRANCH  23  24
ENDBRANCH  22  23
ENDBRANCH  13  22
BRANCH  11  30
HETATM   30  O3  UNL     1      -1.458  11.041  13.789  1.00  0.00    -0.390 OA
HETATM   31  H30 UNL     1      -1.851  11.562  13.068  1.00  0.00     0.210 HD
ENDBRANCH  11  30
TORSDOF 11
ENDMDL
MODEL 9
REMARK minimizedAffinity -7.06821823
REMARK CNNscore 0.426235646
REMARK CNNaffinity 6.58852625
REMARK  11 active torsions:
REMARK  status: ('A' for Active; 'I' for Inactive)
REMARK    1  A    between atoms: C4_4  and  C5_5 
REMARK    2  A    between atoms: C5_5  and  O2_7 
REMARK    3  A    between atoms: O2_7  and  C6_8 
REMARK    4  A    between atoms: C6_8  and  C7_9 
REMARK    5  A    between atoms: C17_19  and  O3_21 
REMARK    6  A    between atoms: C19_22  and  C20_23 
REMARK    7  A    between atoms: C20_23  and  C21_24 
REMARK    8  A    between atoms: C21_24  and  C22_25 
REMARK    9  A    between atoms: C22_25  and  C24_27 
REMARK   10  A    between atoms: C24_27  and  C25_28 
REMARK   11  A    between atoms: C25_28  and  O4_29 
ROOT
HETATM    1  C7  UNL     1      -8.950   7.883  15.220  1.00  0.00    -0.018 C 
HETATM    2  C8  UNL     1      -9.049   7.807  16.760  1.00  0.00     0.018 C 
HETATM    3  C9  UNL     1     -10.018   6.924  14.638  1.00  0.00     0.012 C 
HETATM    4  C10 UNL     1      -9.675   6.493  13.226  1.00  0.00     0.002 C 
HETATM    5  C11 UNL     1      -8.420   5.626  13.203  1.00  0.00     0.010 C 
HETATM    6  C12 UNL     1      -7.250   6.085  14.143  1.00  0.00    -0.033 C 
HETATM    7  C13 UNL     1      -7.218   5.130  15.367  1.00  0.00     0.016 C 
HETATM    8  C14 UNL     1      -7.511   7.556  14.634  1.00  0.00     0.004 C 
HETATM    9  C15 UNL     1      -6.366   8.075  15.531  1.00  0.00     0.009 C 
HETATM   10  C16 UNL     1      -4.967   7.631  15.099  1.00  0.00     0.038 C 
HETATM   11  C17 UNL     1      -4.884   7.219  13.630  1.00  0.00     0.059 C 
HETATM   12  C18 UNL     1      -3.412   6.993  13.249  1.00  0.00     0.046 C 
HETATM   13  C19 UNL     1      -5.859   6.016  13.309  1.00  0.00     0.028 C 
ENDROOT
BRANCH   1  14
HETATM   14  C6  UNL     1      -9.295   9.355  14.811  1.00  0.00     0.188 C 
BRANCH  14  15
HETATM   15  O2  UNL     1      -9.026  10.263  15.892  1.00  0.00    -0.317 OA
BRANCH  15  16
HETATM   16  C5  UNL     1      -9.788  11.387  15.877  1.00  0.00     0.283 C 
HETATM   17  O1  UNL     1      -9.396  12.519  15.662  1.00  0.00    -0.260 OA
BRANCH  16  18
HETATM   18  C4  UNL     1     -11.188  10.970  16.141  1.00  0.00     0.084 C 
HETATM   19  C2  UNL     1     -11.754  10.766  17.346  1.00  0.00    -0.082 C 
HETATM   20  C1  UNL     1     -11.058  10.860  18.677  1.00  0.00     0.043 C 
HETATM   21  C3  UNL     1     -13.214  10.406  17.443  1.00  0.00     0.043 C 
ENDBRANCH  16  18
ENDBRANCH  15  16
ENDBRANCH  14  15
ENDBRANCH   1  14
BRANCH  13  22
HETATM   22  C20 UNL     1      -5.130   4.635  13.355  1.00  0.00     0.009 C 
BRANCH  22  23
HETATM   23  C21 UNL     1      -5.836   3.435  12.700  1.00  0.00     0.005 C 
BRANCH  23  24
HETATM   24  C22 UNL     1      -5.140   2.791  11.474  1.00  0.00    -0.017 C 
HETATM   25  C23 UNL     1      -5.855   1.515  11.018  1.00  0.00     0.010 C 
BRANCH  24  26
HETATM   26  C24 UNL     1      -3.635   2.557  11.707  1.00  0.00     0.030 C 
BRANCH  26  27
HETATM   27  C25 UNL     1      -2.714   3.392  10.819  1.00  0.00     0.164 C 
BRANCH  27  28
HETATM   28  O4  UNL     1      -1.969   2.575   9.928  1.00  0.00    -0.401 OA
HETATM   29  H44 UNL     1      -2.600   2.015   9.443  1.00  0.00     0.209 HD
ENDBRANCH  27  28
ENDBRANCH  26  27
ENDBRANCH  24  26
ENDBRANCH  23  24
ENDBRANCH  22  23
ENDBRANCH  13  22
BRANCH  11  30
HETATM   30  O3  UNL     1      -5.310   8.335  12.825  1.00  0.00    -0.390 OA
HETATM   31  H30 UNL     1      -4.740   9.095  13.032  1.00  0.00     0.210 HD
ENDBRANCH  11  30
TORSDOF 11
ENDMDL
