MODEL 1
REMARK minimizedAffinity -8.81296921
REMARK CNNscore 0.619058967
REMARK CNNaffinity 7.68815851
REMARK  10 active torsions:
REMARK  status: ('A' for Active; 'I' for Inactive)
REMARK    1  A    between atoms: C2_2  and  O2_4 
REMARK    2  A    between atoms: O2_4  and  C3_5 
REMARK    3  A    between atoms: C3_5  and  C4_6 
REMARK    4  A    between atoms: C4_6  and  N1_7 
REMARK       I    between atoms: N1_7  and  C6_9 
REMARK    5  A    between atoms: C6_9  and  C7_11 
REMARK    6  A    between atoms: C19_24  and  O5_25 
REMARK    7  A    between atoms: O5_25  and  C20_26 
REMARK    8  A    between atoms: C20_26  and  C21_28 
REMARK    9  A    between atoms: C21_28  and  C22_29 
REMARK   10  A    between atoms: C22_29  and  O7_32 
ROOT
HETATM    1  C7  UNL     1      -6.665   8.225  15.493  1.00  0.00     0.077 C 
HETATM    2  C8  UNL     1      -5.455   8.207  14.891  1.00  0.00    -0.070 C 
HETATM    3  C9  UNL     1      -5.225   7.774  13.466  1.00  0.00     0.035 C 
HETATM    4  C10 UNL     1      -3.754   7.548  13.096  1.00  0.00     0.010 C 
HETATM    5  C11 UNL     1      -2.959   6.825  14.205  1.00  0.00     0.006 C 
HETATM    6  C12 UNL     1      -3.115   7.541  15.579  1.00  0.00     0.068 C 
HETATM    7  C13 UNL     1      -1.858   8.077  16.242  1.00  0.00     0.132 C 
HETATM    8  O4  UNL     1      -1.892   8.427  17.428  1.00  0.00    -0.298 OA
HETATM    9  C14 UNL     1      -0.558   8.190  15.487  1.00  0.00     0.085 C 
HETATM   10  C15 UNL     1      -0.588   7.743  14.020  1.00  0.00     0.011 C 
HETATM   11  C16 UNL     1       0.851   7.731  13.352  1.00  0.00    -0.016 C 
HETATM   12  C17 UNL     1       1.932   6.996  14.179  1.00  0.00     0.018 C 
HETATM   13  C18 UNL     1       1.352   9.196  13.221  1.00  0.00     0.018 C 
HETATM   14  C19 UNL     1       0.771   7.138  11.909  1.00  0.00     0.140 C 
HETATM   15  C25 UNL     1       0.071   5.779  11.892  1.00  0.00     0.034 C 
HETATM   16  C26 UNL     1      -1.358   5.931  12.390  1.00  0.00     0.012 C 
HETATM   17  C27 UNL     1      -1.461   6.458  13.845  1.00  0.00    -0.035 C 
HETATM   18  C28 UNL     1      -1.039   5.297  14.789  1.00  0.00     0.016 C 
HETATM   19  C29 UNL     1      -4.221   8.627  15.662  1.00  0.00     0.022 C 
HETATM   20  C30 UNL     1      -3.779  10.041  15.241  1.00  0.00     0.015 C 
ENDROOT
BRANCH   1  21
HETATM   21  C6  UNL     1      -7.972   7.901  14.836  1.00  0.00     0.243 C 
HETATM   22  N1  UNL     1      -8.150   6.601  14.369  1.00  0.00    -0.351 N 
HETATM   23  C5  UNL     1      -9.450   6.258  13.806  1.00  0.00     0.153 C 
HETATM   24  O3  UNL     1      -8.843   8.766  14.728  1.00  0.00    -0.268 OA
BRANCH  22  25
HETATM   25  C4  UNL     1      -7.167   5.509  14.441  1.00  0.00     0.152 C 
BRANCH  25  26
HETATM   26  C3  UNL     1      -7.670   4.179  13.865  1.00  0.00     0.198 C 
BRANCH  26  27
HETATM   27  O2  UNL     1      -7.179   4.010  12.524  1.00  0.00    -0.320 OA
BRANCH  27  28
HETATM   28  C2  UNL     1      -5.837   3.814  12.401  1.00  0.00     0.254 C 
HETATM   29  C1  UNL     1      -5.533   3.205  11.065  1.00  0.00     0.126 C 
HETATM   30  O1  UNL     1      -4.990   4.105  13.233  1.00  0.00    -0.266 OA
ENDBRANCH  27  28
ENDBRANCH  26  27
ENDBRANCH  25  26
ENDBRANCH  22  25
ENDBRANCH   1  21
BRANCH  14  31
HETATM   31  O5  UNL     1       2.100   7.004  11.362  1.00  0.00    -0.315 OA
BRANCH  31  32
HETATM   32  C20 UNL     1       2.189   6.483  10.109  1.00  0.00     0.262 C 
HETATM   33  O6  UNL     1       1.725   5.409   9.754  1.00  0.00    -0.265 OA
BRANCH  32  34
HETATM   34  C21 UNL     1       2.961   7.407   9.208  1.00  0.00     0.148 C 
BRANCH  34  35
HETATM   35  C22 UNL     1       2.140   7.953   8.037  1.00  0.00     0.059 C 
HETATM   36  C23 UNL     1       0.785   8.505   8.486  1.00  0.00     0.045 C 
HETATM   37  C24 UNL     1       1.943   6.920   6.925  1.00  0.00     0.045 C 
BRANCH  35  38
HETATM   38  O7  UNL     1       2.865   9.061   7.478  1.00  0.00    -0.390 OA
HETATM   39  H36 UNL     1       3.706   8.732   7.113  1.00  0.00     0.210 HD
ENDBRANCH  35  38
ENDBRANCH  34  35
ENDBRANCH  32  34
ENDBRANCH  31  32
ENDBRANCH  14  31
TORSDOF 10
ENDMDL
MODEL 2
REMARK minimizedAffinity -6.50021219
REMARK CNNscore 0.555301964
REMARK CNNaffinity 6.78778696
REMARK  10 active torsions:
REMARK  status: ('A' for Active; 'I' for Inactive)
REMARK    1  A    between atoms: C2_2  and  O2_4 
REMARK    2  A    between atoms: O2_4  and  C3_5 
REMARK    3  A    between atoms: C3_5  and  C4_6 
REMARK    4  A    between atoms: C4_6  and  N1_7 
REMARK       I    between atoms: N1_7  and  C6_9 
REMARK    5  A    between atoms: C6_9  and  C7_11 
REMARK    6  A    between atoms: C19_24  and  O5_25 
REMARK    7  A    between atoms: O5_25  and  C20_26 
REMARK    8  A    between atoms: C20_26  and  C21_28 
REMARK    9  A    between atoms: C21_28  and  C22_29 
REMARK   10  A    between atoms: C22_29  and  O7_32 
ROOT
HETATM    1  C7  UNL     1     -15.553  -7.189  29.117  1.00  0.00     0.077 C 
HETATM    2  C8  UNL     1     -14.724  -7.988  28.409  1.00  0.00    -0.070 C 
HETATM    3  C9  UNL     1     -14.483  -7.859  26.927  1.00  0.00     0.035 C 
HETATM    4  C10 UNL     1     -13.751  -9.048  26.292  1.00  0.00     0.010 C 
HETATM    5  C11 UNL     1     -14.243 -10.411  26.824  1.00  0.00     0.006 C 
HETATM    6  C12 UNL     1     -14.206 -10.463  28.380  1.00  0.00     0.068 C 
HETATM    7  C13 UNL     1     -13.324 -11.515  29.030  1.00  0.00     0.132 C 
HETATM    8  O4  UNL     1     -13.448 -11.758  30.237  1.00  0.00    -0.298 OA
HETATM    9  C14 UNL     1     -12.296 -12.280  28.237  1.00  0.00     0.085 C 
HETATM   10  C15 UNL     1     -12.192 -11.925  26.747  1.00  0.00     0.011 C 
HETATM   11  C16 UNL     1     -11.215 -12.889  25.953  1.00  0.00    -0.016 C 
HETATM   12  C17 UNL     1     -11.471 -14.395  26.192  1.00  0.00     0.018 C 
HETATM   13  C18 UNL     1      -9.760 -12.633  26.436  1.00  0.00     0.018 C 
HETATM   14  C19 UNL     1     -11.259 -12.563  24.426  1.00  0.00     0.140 C 
HETATM   15  C25 UNL     1     -12.691 -12.556  23.889  1.00  0.00     0.034 C 
HETATM   16  C26 UNL     1     -13.499 -11.480  24.596  1.00  0.00     0.012 C 
HETATM   17  C27 UNL     1     -13.609 -11.686  26.130  1.00  0.00    -0.035 C 
HETATM   18  C28 UNL     1     -14.589 -12.867  26.370  1.00  0.00     0.016 C 
HETATM   19  C29 UNL     1     -13.980  -9.110  29.104  1.00  0.00     0.022 C 
HETATM   20  C30 UNL     1     -12.504  -8.723  29.318  1.00  0.00     0.015 C 
ENDROOT
BRANCH   1  21
HETATM   21  C6  UNL     1     -16.298  -6.008  28.575  1.00  0.00     0.243 C 
HETATM   22  N1  UNL     1     -16.579  -4.967  29.456  1.00  0.00    -0.351 N 
HETATM   23  C5  UNL     1     -17.229  -3.779  28.914  1.00  0.00     0.153 C 
HETATM   24  O3  UNL     1     -16.635  -5.977  27.389  1.00  0.00    -0.268 OA
BRANCH  22  25
HETATM   25  C4  UNL     1     -16.231  -4.919  30.885  1.00  0.00     0.152 C 
BRANCH  25  26
HETATM   26  C3  UNL     1     -15.161  -3.875  31.230  1.00  0.00     0.198 C 
BRANCH  26  27
HETATM   27  O2  UNL     1     -13.954  -4.151  30.500  1.00  0.00    -0.320 OA
BRANCH  27  28
HETATM   28  C2  UNL     1     -12.850  -4.419  31.253  1.00  0.00     0.254 C 
HETATM   29  C1  UNL     1     -11.907  -5.290  30.479  1.00  0.00     0.126 C 
HETATM   30  O1  UNL     1     -12.633  -4.003  32.382  1.00  0.00    -0.266 OA
ENDBRANCH  27  28
ENDBRANCH  26  27
ENDBRANCH  25  26
ENDBRANCH  22  25
ENDBRANCH   1  21
BRANCH  14  31
HETATM   31  O5  UNL     1     -10.475 -13.531  23.697  1.00  0.00    -0.315 OA
BRANCH  31  32
HETATM   32  C20 UNL     1     -10.001 -13.138  22.485  1.00  0.00     0.262 C 
HETATM   33  O6  UNL     1     -10.648 -13.101  21.449  1.00  0.00    -0.265 OA
BRANCH  32  34
HETATM   34  C21 UNL     1      -8.547 -12.763  22.584  1.00  0.00     0.148 C 
BRANCH  34  35
HETATM   35  C22 UNL     1      -8.306 -11.254  22.670  1.00  0.00     0.059 C 
HETATM   36  C23 UNL     1      -7.965 -10.800  24.091  1.00  0.00     0.045 C 
HETATM   37  C24 UNL     1      -9.481 -10.438  22.126  1.00  0.00     0.045 C 
BRANCH  35  38
HETATM   38  O7  UNL     1      -7.156 -10.952  21.862  1.00  0.00    -0.390 OA
HETATM   39  H36 UNL     1      -7.364 -11.160  20.932  1.00  0.00     0.210 HD
ENDBRANCH  35  38
ENDBRANCH  34  35
ENDBRANCH  32  34
ENDBRANCH  31  32
ENDBRANCH  14  31
TORSDOF 10
ENDMDL
MODEL 3
REMARK minimizedAffinity -7.89858723
REMARK CNNscore 0.503963292
REMARK CNNaffinity 7.56551504
REMARK  10 active torsions:
REMARK  status: ('A' for Active; 'I' for Inactive)
REMARK    1  A    between atoms: C2_2  and  O2_4 
REMARK    2  A    between atoms: O2_4  and  C3_5 
REMARK    3  A    between atoms: C3_5  and  C4_6 
REMARK    4  A    between atoms: C4_6  and  N1_7 
REMARK       I    between atoms: N1_7  and  C6_9 
REMARK    5  A    between atoms: C6_9  and  C7_11 
REMARK    6  A    between atoms: C19_24  and  O5_25 
REMARK    7  A    between atoms: O5_25  and  C20_26 
REMARK    8  A    between atoms: C20_26  and  C21_28 
REMARK    9  A    between atoms: C21_28  and  C22_29 
REMARK   10  A    between atoms: C22_29  and  O7_32 
ROOT
HETATM    1  C7  UNL     1     -13.503   8.032  14.087  1.00  0.00     0.077 C 
HETATM    2  C8  UNL     1     -12.177   7.901  13.860  1.00  0.00    -0.070 C 
HETATM    3  C9  UNL     1     -11.588   7.215  12.654  1.00  0.00     0.035 C 
HETATM    4  C10 UNL     1     -10.086   6.921  12.757  1.00  0.00     0.010 C 
HETATM    5  C11 UNL     1      -9.667   6.409  14.151  1.00  0.00     0.006 C 
HETATM    6  C12 UNL     1     -10.155   7.363  15.281  1.00  0.00     0.068 C 
HETATM    7  C13 UNL     1      -9.102   8.006  16.166  1.00  0.00     0.132 C 
HETATM    8  O4  UNL     1      -9.441   8.566  17.215  1.00  0.00    -0.298 OA
HETATM    9  C14 UNL     1      -7.640   7.977  15.798  1.00  0.00     0.085 C 
HETATM   10  C15 UNL     1      -7.290   7.270  14.481  1.00  0.00     0.011 C 
HETATM   11  C16 UNL     1      -5.726   7.133  14.255  1.00  0.00    -0.016 C 
HETATM   12  C17 UNL     1      -4.955   6.557  15.466  1.00  0.00     0.018 C 
HETATM   13  C18 UNL     1      -5.129   8.548  14.017  1.00  0.00     0.018 C 
HETATM   14  C19 UNL     1      -5.438   6.288  12.973  1.00  0.00     0.140 C 
HETATM   15  C25 UNL     1      -6.179   4.951  12.997  1.00  0.00     0.034 C 
HETATM   16  C26 UNL     1      -7.679   5.195  13.041  1.00  0.00     0.012 C 
HETATM   17  C27 UNL     1      -8.149   5.978  14.295  1.00  0.00    -0.035 C 
HETATM   18  C28 UNL     1      -8.066   5.007  15.505  1.00  0.00     0.016 C 
HETATM   19  C29 UNL     1     -11.181   8.450  14.861  1.00  0.00     0.022 C 
HETATM   20  C30 UNL     1     -10.565   9.762  14.342  1.00  0.00     0.015 C 
ENDROOT
BRANCH   1  21
HETATM   21  C6  UNL     1     -14.594   7.598  13.157  1.00  0.00     0.243 C 
HETATM   22  N1  UNL     1     -15.398   6.535  13.562  1.00  0.00    -0.351 N 
HETATM   23  C5  UNL     1     -16.513   6.164  12.699  1.00  0.00     0.153 C 
HETATM   24  O3  UNL     1     -14.760   8.177  12.082  1.00  0.00    -0.268 OA
BRANCH  22  25
HETATM   25  C4  UNL     1     -15.269   5.776  14.816  1.00  0.00     0.152 C 
BRANCH  25  26
HETATM   26  C3  UNL     1     -16.154   4.526  14.881  1.00  0.00     0.198 C 
BRANCH  26  27
HETATM   27  O2  UNL     1     -15.334   3.345  14.913  1.00  0.00    -0.320 OA
BRANCH  27  28
HETATM   28  C2  UNL     1     -15.880   2.255  15.520  1.00  0.00     0.254 C 
HETATM   29  C1  UNL     1     -14.991   1.064  15.321  1.00  0.00     0.126 C 
HETATM   30  O1  UNL     1     -16.925   2.235  16.154  1.00  0.00    -0.266 OA
ENDBRANCH  27  28
ENDBRANCH  26  27
ENDBRANCH  25  26
ENDBRANCH  22  25
ENDBRANCH   1  21
BRANCH  14  31
HETATM   31  O5  UNL     1      -4.019   6.052  12.852  1.00  0.00    -0.315 OA
BRANCH  31  32
HETATM   32  C20 UNL     1      -3.605   4.765  12.988  1.00  0.00     0.262 C 
HETATM   33  O6  UNL     1      -3.017   4.308  13.957  1.00  0.00    -0.265 OA
BRANCH  32  34
HETATM   34  C21 UNL     1      -3.957   3.965  11.763  1.00  0.00     0.148 C 
BRANCH  34  35
HETATM   35  C22 UNL     1      -2.741   3.521  10.948  1.00  0.00     0.059 C 
HETATM   36  C23 UNL     1      -2.291   2.102  11.301  1.00  0.00     0.045 C 
HETATM   37  C24 UNL     1      -1.563   4.491  11.073  1.00  0.00     0.045 C 
BRANCH  35  38
HETATM   38  O7  UNL     1      -3.133   3.490   9.565  1.00  0.00    -0.390 OA
HETATM   39  H36 UNL     1      -3.356   4.396   9.283  1.00  0.00     0.210 HD
ENDBRANCH  35  38
ENDBRANCH  34  35
ENDBRANCH  32  34
ENDBRANCH  31  32
ENDBRANCH  14  31
TORSDOF 10
ENDMDL
MODEL 4
REMARK minimizedAffinity -6.69563866
REMARK CNNscore 0.498259544
REMARK CNNaffinity 6.15764856
REMARK  10 active torsions:
REMARK  status: ('A' for Active; 'I' for Inactive)
REMARK    1  A    between atoms: C2_2  and  O2_4 
REMARK    2  A    between atoms: O2_4  and  C3_5 
REMARK    3  A    between atoms: C3_5  and  C4_6 
REMARK    4  A    between atoms: C4_6  and  N1_7 
REMARK       I    between atoms: N1_7  and  C6_9 
REMARK    5  A    between atoms: C6_9  and  C7_11 
REMARK    6  A    between atoms: C19_24  and  O5_25 
REMARK    7  A    between atoms: O5_25  and  C20_26 
REMARK    8  A    between atoms: C20_26  and  C21_28 
REMARK    9  A    between atoms: C21_28  and  C22_29 
REMARK   10  A    between atoms: C22_29  and  O7_32 
ROOT
HETATM    1  C7  UNL     1       1.529   7.610  11.769  1.00  0.00     0.077 C 
HETATM    2  C8  UNL     1       0.712   8.189  12.677  1.00  0.00    -0.070 C 
HETATM    3  C9  UNL     1      -0.521   8.980  12.324  1.00  0.00     0.035 C 
HETATM    4  C10 UNL     1      -1.115   9.789  13.484  1.00  0.00     0.010 C 
HETATM    5  C11 UNL     1      -0.039  10.482  14.348  1.00  0.00     0.006 C 
HETATM    6  C12 UNL     1       1.042   9.471  14.831  1.00  0.00     0.068 C 
HETATM    7  C13 UNL     1       1.212   9.283  16.329  1.00  0.00     0.132 C 
HETATM    8  O4  UNL     1       2.207   8.690  16.763  1.00  0.00    -0.298 OA
HETATM    9  C14 UNL     1       0.194   9.808  17.309  1.00  0.00     0.085 C 
HETATM   10  C15 UNL     1      -1.017  10.529  16.702  1.00  0.00     0.011 C 
HETATM   11  C16 UNL     1      -1.947  11.198  17.800  1.00  0.00    -0.016 C 
HETATM   12  C17 UNL     1      -1.190  12.065  18.833  1.00  0.00     0.018 C 
HETATM   13  C18 UNL     1      -2.634  10.074  18.624  1.00  0.00     0.018 C 
HETATM   14  C19 UNL     1      -3.078  12.028  17.115  1.00  0.00     0.140 C 
HETATM   15  C25 UNL     1      -2.517  13.018  16.094  1.00  0.00     0.034 C 
HETATM   16  C26 UNL     1      -1.790  12.264  14.992  1.00  0.00     0.012 C 
HETATM   17  C27 UNL     1      -0.586  11.426  15.496  1.00  0.00    -0.035 C 
HETATM   18  C28 UNL     1       0.555  12.420  15.847  1.00  0.00     0.016 C 
HETATM   19  C29 UNL     1       1.024   8.074  14.155  1.00  0.00     0.022 C 
HETATM   20  C30 UNL     1       0.097   7.039  14.821  1.00  0.00     0.015 C 
ENDROOT
BRANCH   1  21
HETATM   21  C6  UNL     1       1.309   7.587  10.287  1.00  0.00     0.243 C 
HETATM   22  N1  UNL     1       2.268   6.949   9.506  1.00  0.00    -0.351 N 
HETATM   23  C5  UNL     1       2.016   6.850   8.073  1.00  0.00     0.153 C 
HETATM   24  O3  UNL     1       0.307   8.116   9.801  1.00  0.00    -0.268 OA
BRANCH  22  25
HETATM   25  C4  UNL     1       3.497   6.303   9.993  1.00  0.00     0.152 C 
BRANCH  25  26
HETATM   26  C3  UNL     1       3.711   4.884   9.454  1.00  0.00     0.198 C 
BRANCH  26  27
HETATM   27  O2  UNL     1       3.375   4.835   8.056  1.00  0.00    -0.320 OA
BRANCH  27  28
HETATM   28  C2  UNL     1       4.014   3.881   7.322  1.00  0.00     0.254 C 
HETATM   29  C1  UNL     1       4.800   2.983   8.230  1.00  0.00     0.126 C 
HETATM   30  O1  UNL     1       3.950   3.747   6.109  1.00  0.00    -0.266 OA
ENDBRANCH  27  28
ENDBRANCH  26  27
ENDBRANCH  25  26
ENDBRANCH  22  25
ENDBRANCH   1  21
BRANCH  14  31
HETATM   31  O5  UNL     1      -3.834  12.743  18.116  1.00  0.00    -0.315 OA
BRANCH  31  32
HETATM   32  C20 UNL     1      -4.936  13.409  17.681  1.00  0.00     0.262 C 
HETATM   33  O6  UNL     1      -5.640  13.076  16.739  1.00  0.00    -0.265 OA
BRANCH  32  34
HETATM   34  C21 UNL     1      -5.171  14.640  18.514  1.00  0.00     0.148 C 
BRANCH  34  35
HETATM   35  C22 UNL     1      -6.332  14.502  19.501  1.00  0.00     0.059 C 
HETATM   36  C23 UNL     1      -6.819  15.857  20.020  1.00  0.00     0.045 C 
HETATM   37  C24 UNL     1      -5.999  13.580  20.677  1.00  0.00     0.045 C 
BRANCH  35  38
HETATM   38  O7  UNL     1      -7.438  13.918  18.792  1.00  0.00    -0.390 OA
HETATM   39  H36 UNL     1      -7.189  13.019  18.509  1.00  0.00     0.210 HD
ENDBRANCH  35  38
ENDBRANCH  34  35
ENDBRANCH  32  34
ENDBRANCH  31  32
ENDBRANCH  14  31
TORSDOF 10
ENDMDL
MODEL 5
REMARK minimizedAffinity -7.52884102
REMARK CNNscore 0.48964107
REMARK CNNaffinity 6.40955591
REMARK  10 active torsions:
REMARK  status: ('A' for Active; 'I' for Inactive)
REMARK    1  A    between atoms: C2_2  and  O2_4 
REMARK    2  A    between atoms: O2_4  and  C3_5 
REMARK    3  A    between atoms: C3_5  and  C4_6 
REMARK    4  A    between atoms: C4_6  and  N1_7 
REMARK       I    between atoms: N1_7  and  C6_9 
REMARK    5  A    between atoms: C6_9  and  C7_11 
REMARK    6  A    between atoms: C19_24  and  O5_25 
REMARK    7  A    between atoms: O5_25  and  C20_26 
REMARK    8  A    between atoms: C20_26  and  C21_28 
REMARK    9  A    between atoms: C21_28  and  C22_29 
REMARK   10  A    between atoms: C22_29  and  O7_32 
ROOT
HETATM    1  C7  UNL     1      -5.018   8.857  14.180  1.00  0.00     0.077 C 
HETATM    2  C8  UNL     1      -3.887   9.140  14.864  1.00  0.00    -0.070 C 
HETATM    3  C9  UNL     1      -3.505   8.497  16.172  1.00  0.00     0.035 C 
HETATM    4  C10 UNL     1      -2.346   9.183  16.906  1.00  0.00     0.010 C 
HETATM    5  C11 UNL     1      -2.431  10.723  16.859  1.00  0.00     0.006 C 
HETATM    6  C12 UNL     1      -2.589  11.242  15.400  1.00  0.00     0.068 C 
HETATM    7  C13 UNL     1      -1.506  12.159  14.856  1.00  0.00     0.132 C 
HETATM    8  O4  UNL     1      -1.704  12.788  13.809  1.00  0.00    -0.298 OA
HETATM    9  C14 UNL     1      -0.188  12.328  15.567  1.00  0.00     0.085 C 
HETATM   10  C15 UNL     1      -0.008  11.516  16.857  1.00  0.00     0.011 C 
HETATM   11  C16 UNL     1       1.329  11.880  17.630  1.00  0.00    -0.016 C 
HETATM   12  C17 UNL     1       1.549  13.396  17.842  1.00  0.00     0.018 C 
HETATM   13  C18 UNL     1       2.541  11.398  16.786  1.00  0.00     0.018 C 
HETATM   14  C19 UNL     1       1.385  11.124  18.995  1.00  0.00     0.140 C 
HETATM   15  C25 UNL     1       0.115  11.344  19.818  1.00  0.00     0.034 C 
HETATM   16  C26 UNL     1      -1.088  10.805  19.061  1.00  0.00     0.012 C 
HETATM   17  C27 UNL     1      -1.328  11.496  17.694  1.00  0.00    -0.035 C 
HETATM   18  C28 UNL     1      -1.891  12.915  17.985  1.00  0.00     0.016 C 
HETATM   19  C29 UNL     1      -2.916  10.171  14.325  1.00  0.00     0.022 C 
HETATM   20  C30 UNL     1      -1.692   9.481  13.697  1.00  0.00     0.015 C 
ENDROOT
BRANCH   1  21
HETATM   21  C6  UNL     1      -6.029   7.819  14.558  1.00  0.00     0.243 C 
HETATM   22  N1  UNL     1      -5.805   6.515  14.122  1.00  0.00    -0.351 N 
HETATM   23  C5  UNL     1      -6.740   5.486  14.558  1.00  0.00     0.153 C 
HETATM   24  O3  UNL     1      -7.012   8.127  15.235  1.00  0.00    -0.268 OA
BRANCH  22  25
HETATM   25  C4  UNL     1      -4.672   6.055  13.303  1.00  0.00     0.152 C 
BRANCH  25  26
HETATM   26  C3  UNL     1      -4.573   4.530  13.178  1.00  0.00     0.198 C 
BRANCH  26  27
HETATM   27  O2  UNL     1      -5.331   4.082  12.041  1.00  0.00    -0.320 OA
BRANCH  27  28
HETATM   28  C2  UNL     1      -4.719   3.165  11.240  1.00  0.00     0.254 C 
HETATM   29  C1  UNL     1      -5.464   1.865  11.296  1.00  0.00     0.126 C 
HETATM   30  O1  UNL     1      -3.726   3.361  10.554  1.00  0.00    -0.266 OA
ENDBRANCH  27  28
ENDBRANCH  26  27
ENDBRANCH  25  26
ENDBRANCH  22  25
ENDBRANCH   1  21
BRANCH  14  31
HETATM   31  O5  UNL     1       2.533  11.565  19.752  1.00  0.00    -0.315 OA
BRANCH  31  32
HETATM   32  C20 UNL     1       3.205  10.608  20.445  1.00  0.00     0.262 C 
HETATM   33  O6  UNL     1       2.875   9.435  20.536  1.00  0.00    -0.265 OA
BRANCH  32  34
HETATM   34  C21 UNL     1       4.421  11.195  21.109  1.00  0.00     0.148 C 
BRANCH  34  35
HETATM   35  C22 UNL     1       4.273  11.364  22.623  1.00  0.00     0.059 C 
HETATM   36  C23 UNL     1       4.022  10.032  23.334  1.00  0.00     0.045 C 
HETATM   37  C24 UNL     1       3.185  12.372  22.999  1.00  0.00     0.045 C 
BRANCH  35  38
HETATM   38  O7  UNL     1       5.522  11.864  23.128  1.00  0.00    -0.390 OA
HETATM   39  H36 UNL     1       5.680  12.749  22.752  1.00  0.00     0.210 HD
ENDBRANCH  35  38
ENDBRANCH  34  35
ENDBRANCH  32  34
ENDBRANCH  31  32
ENDBRANCH  14  31
TORSDOF 10
ENDMDL
MODEL 6
REMARK minimizedAffinity -6.72129917
REMARK CNNscore 0.385079801
REMARK CNNaffinity 6.42650032
REMARK  10 active torsions:
REMARK  status: ('A' for Active; 'I' for Inactive)
REMARK    1  A    between atoms: C2_2  and  O2_4 
REMARK    2  A    between atoms: O2_4  and  C3_5 
REMARK    3  A    between atoms: C3_5  and  C4_6 
REMARK    4  A    between atoms: C4_6  and  N1_7 
REMARK       I    between atoms: N1_7  and  C6_9 
REMARK    5  A    between atoms: C6_9  and  C7_11 
REMARK    6  A    between atoms: C19_24  and  O5_25 
REMARK    7  A    between atoms: O5_25  and  C20_26 
REMARK    8  A    between atoms: C20_26  and  C21_28 
REMARK    9  A    between atoms: C21_28  and  C22_29 
REMARK   10  A    between atoms: C22_29  and  O7_32 
ROOT
HETATM    1  C7  UNL     1      -3.633   7.905  13.174  1.00  0.00     0.077 C 
HETATM    2  C8  UNL     1      -2.746   8.418  14.055  1.00  0.00    -0.070 C 
HETATM    3  C9  UNL     1      -2.320   7.731  15.327  1.00  0.00     0.035 C 
HETATM    4  C10 UNL     1      -1.548   8.623  16.307  1.00  0.00     0.010 C 
HETATM    5  C11 UNL     1      -2.138  10.045  16.420  1.00  0.00     0.006 C 
HETATM    6  C12 UNL     1      -2.296  10.711  15.022  1.00  0.00     0.068 C 
HETATM    7  C13 UNL     1      -1.529  11.996  14.762  1.00  0.00     0.132 C 
HETATM    8  O4  UNL     1      -1.808  12.687  13.774  1.00  0.00    -0.298 OA
HETATM    9  C14 UNL     1      -0.432  12.459  15.686  1.00  0.00     0.085 C 
HETATM   10  C15 UNL     1      -0.136  11.552  16.889  1.00  0.00     0.011 C 
HETATM   11  C16 UNL     1       0.906  12.193  17.899  1.00  0.00    -0.016 C 
HETATM   12  C17 UNL     1       0.581  13.648  18.312  1.00  0.00     0.018 C 
HETATM   13  C18 UNL     1       2.296  12.258  17.208  1.00  0.00     0.018 C 
HETATM   14  C19 UNL     1       1.059  11.288  19.162  1.00  0.00     0.140 C 
HETATM   15  C25 UNL     1      -0.295  10.962  19.795  1.00  0.00     0.034 C 
HETATM   16  C26 UNL     1      -1.155  10.198  18.801  1.00  0.00     0.012 C 
HETATM   17  C27 UNL     1      -1.458  10.984  17.499  1.00  0.00    -0.035 C 
HETATM   18  C28 UNL     1      -2.493  12.088  17.856  1.00  0.00     0.016 C 
HETATM   19  C29 UNL     1      -2.123   9.775  13.796  1.00  0.00     0.022 C 
HETATM   20  C30 UNL     1      -0.676   9.615  13.295  1.00  0.00     0.015 C 
ENDROOT
BRANCH   1  21
HETATM   21  C6  UNL     1      -4.274   6.553  13.269  1.00  0.00     0.243 C 
HETATM   22  N1  UNL     1      -5.546   6.484  13.830  1.00  0.00    -0.351 N 
HETATM   23  C5  UNL     1      -6.208   5.185  13.848  1.00  0.00     0.153 C 
HETATM   24  O3  UNL     1      -3.681   5.555  12.855  1.00  0.00    -0.268 OA
BRANCH  22  25
HETATM   25  C4  UNL     1      -6.325   7.614  14.361  1.00  0.00     0.152 C 
BRANCH  25  26
HETATM   26  C3  UNL     1      -7.411   7.206  15.364  1.00  0.00     0.198 C 
BRANCH  26  27
HETATM   27  O2  UNL     1      -8.596   7.991  15.150  1.00  0.00    -0.320 OA
BRANCH  27  28
HETATM   28  C2  UNL     1      -9.566   7.413  14.388  1.00  0.00     0.254 C 
HETATM   29  C1  UNL     1     -10.739   8.338  14.272  1.00  0.00     0.126 C 
HETATM   30  O1  UNL     1      -9.499   6.316  13.853  1.00  0.00    -0.266 OA
ENDBRANCH  27  28
ENDBRANCH  26  27
ENDBRANCH  25  26
ENDBRANCH  22  25
ENDBRANCH   1  21
BRANCH  14  31
HETATM   31  O5  UNL     1       1.900  11.944  20.135  1.00  0.00    -0.315 OA
BRANCH  31  32
HETATM   32  C20 UNL     1       2.906  11.199  20.666  1.00  0.00     0.262 C 
HETATM   33  O6  UNL     1       3.696  10.519  20.028  1.00  0.00    -0.265 OA
BRANCH  32  34
HETATM   34  C21 UNL     1       2.909  11.311  22.166  1.00  0.00     0.148 C 
BRANCH  34  35
HETATM   35  C22 UNL     1       3.129   9.976  22.882  1.00  0.00     0.059 C 
HETATM   36  C23 UNL     1       4.607   9.589  22.949  1.00  0.00     0.045 C 
HETATM   37  C24 UNL     1       2.315   8.837  22.264  1.00  0.00     0.045 C 
BRANCH  35  38
HETATM   38  O7  UNL     1       2.690  10.136  24.241  1.00  0.00    -0.390 OA
HETATM   39  H36 UNL     1       1.731  10.311  24.242  1.00  0.00     0.210 HD
ENDBRANCH  35  38
ENDBRANCH  34  35
ENDBRANCH  32  34
ENDBRANCH  31  32
ENDBRANCH  14  31
TORSDOF 10
ENDMDL
MODEL 7
REMARK minimizedAffinity -6.06427002
REMARK CNNscore 0.373981714
REMARK CNNaffinity 5.96706629
REMARK  10 active torsions:
REMARK  status: ('A' for Active; 'I' for Inactive)
REMARK    1  A    between atoms: C2_2  and  O2_4 
REMARK    2  A    between atoms: O2_4  and  C3_5 
REMARK    3  A    between atoms: C3_5  and  C4_6 
REMARK    4  A    between atoms: C4_6  and  N1_7 
REMARK       I    between atoms: N1_7  and  C6_9 
REMARK    5  A    between atoms: C6_9  and  C7_11 
REMARK    6  A    between atoms: C19_24  and  O5_25 
REMARK    7  A    between atoms: O5_25  and  C20_26 
REMARK    8  A    between atoms: C20_26  and  C21_28 
REMARK    9  A    between atoms: C21_28  and  C22_29 
REMARK   10  A    between atoms: C22_29  and  O7_32 
ROOT
HETATM    1  C7  UNL     1       1.754   7.734  13.723  1.00  0.00     0.077 C 
HETATM    2  C8  UNL     1       0.993   8.736  14.218  1.00  0.00    -0.070 C 
HETATM    3  C9  UNL     1       1.456  10.163  14.355  1.00  0.00     0.035 C 
HETATM    4  C10 UNL     1       0.545  11.051  15.211  1.00  0.00     0.010 C 
HETATM    5  C11 UNL     1       0.030  10.337  16.480  1.00  0.00     0.006 C 
HETATM    6  C12 UNL     1      -0.637   8.973  16.137  1.00  0.00     0.068 C 
HETATM    7  C13 UNL     1      -2.100   8.791  16.501  1.00  0.00     0.132 C 
HETATM    8  O4  UNL     1      -2.602   7.660  16.477  1.00  0.00    -0.298 OA
HETATM    9  C14 UNL     1      -2.964   9.961  16.898  1.00  0.00     0.085 C 
HETATM   10  C15 UNL     1      -2.279  11.334  16.903  1.00  0.00     0.011 C 
HETATM   11  C16 UNL     1      -3.203  12.479  17.495  1.00  0.00    -0.016 C 
HETATM   12  C17 UNL     1      -3.856  12.132  18.854  1.00  0.00     0.018 C 
HETATM   13  C18 UNL     1      -4.385  12.723  16.516  1.00  0.00     0.018 C 
HETATM   14  C19 UNL     1      -2.404  13.817  17.599  1.00  0.00     0.140 C 
HETATM   15  C25 UNL     1      -1.087  13.634  18.353  1.00  0.00     0.034 C 
HETATM   16  C26 UNL     1      -0.203  12.645  17.611  1.00  0.00     0.012 C 
HETATM   17  C27 UNL     1      -0.825  11.232  17.469  1.00  0.00    -0.035 C 
HETATM   18  C28 UNL     1      -0.758  10.555  18.866  1.00  0.00     0.016 C 
HETATM   19  C29 UNL     1      -0.417   8.449  14.692  1.00  0.00     0.022 C 
HETATM   20  C30 UNL     1      -1.443   8.943  13.655  1.00  0.00     0.015 C 
ENDROOT
BRANCH   1  21
HETATM   21  C6  UNL     1       3.134   7.885  13.160  1.00  0.00     0.243 C 
HETATM   22  N1  UNL     1       3.411   7.240  11.957  1.00  0.00    -0.351 N 
HETATM   23  C5  UNL     1       4.726   7.452  11.363  1.00  0.00     0.153 C 
HETATM   24  O3  UNL     1       3.976   8.562  13.753  1.00  0.00    -0.268 OA
BRANCH  22  25
HETATM   25  C4  UNL     1       2.479   6.402  11.185  1.00  0.00     0.152 C 
BRANCH  25  26
HETATM   26  C3  UNL     1       2.621   6.551   9.665  1.00  0.00     0.198 C 
BRANCH  26  27
HETATM   27  O2  UNL     1       2.368   7.913   9.281  1.00  0.00    -0.320 OA
BRANCH  27  28
HETATM   28  C2  UNL     1       2.605   8.218   7.974  1.00  0.00     0.254 C 
HETATM   29  C1  UNL     1       1.934   7.211   7.088  1.00  0.00     0.126 C 
HETATM   30  O1  UNL     1       3.244   9.176   7.565  1.00  0.00    -0.266 OA
ENDBRANCH  27  28
ENDBRANCH  26  27
ENDBRANCH  25  26
ENDBRANCH  22  25
ENDBRANCH   1  21
BRANCH  14  31
HETATM   31  O5  UNL     1      -3.207  14.815  18.265  1.00  0.00    -0.315 OA
BRANCH  31  32
HETATM   32  C20 UNL     1      -2.542  15.702  19.051  1.00  0.00     0.262 C 
HETATM   33  O6  UNL     1      -1.904  16.665  18.650  1.00  0.00    -0.265 OA
BRANCH  32  34
HETATM   34  C21 UNL     1      -2.682  15.329  20.502  1.00  0.00     0.148 C 
BRANCH  34  35
HETATM   35  C22 UNL     1      -3.457  16.357  21.329  1.00  0.00     0.059 C 
HETATM   36  C23 UNL     1      -3.598  15.938  22.794  1.00  0.00     0.045 C 
HETATM   37  C24 UNL     1      -4.835  16.668  20.739  1.00  0.00     0.045 C 
BRANCH  35  38
HETATM   38  O7  UNL     1      -2.698  17.577  21.328  1.00  0.00    -0.390 OA
HETATM   39  H36 UNL     1      -2.651  17.916  20.415  1.00  0.00     0.210 HD
ENDBRANCH  35  38
ENDBRANCH  34  35
ENDBRANCH  32  34
ENDBRANCH  31  32
ENDBRANCH  14  31
TORSDOF 10
ENDMDL
MODEL 8
REMARK minimizedAffinity -6.19079351
REMARK CNNscore 0.37159127
REMARK CNNaffinity 6.1996913
REMARK  10 active torsions:
REMARK  status: ('A' for Active; 'I' for Inactive)
REMARK    1  A    between atoms: C2_2  and  O2_4 
REMARK    2  A    between atoms: O2_4  and  C3_5 
REMARK    3  A    between atoms: C3_5  and  C4_6 
REMARK    4  A    between atoms: C4_6  and  N1_7 
REMARK       I    between atoms: N1_7  and  C6_9 
REMARK    5  A    between atoms: C6_9  and  C7_11 
REMARK    6  A    between atoms: C19_24  and  O5_25 
REMARK    7  A    between atoms: O5_25  and  C20_26 
REMARK    8  A    between atoms: C20_26  and  C21_28 
REMARK    9  A    between atoms: C21_28  and  C22_29 
REMARK   10  A    between atoms: C22_29  and  O7_32 
ROOT
HETATM    1  C7  UNL     1      -2.298   7.456  13.613  1.00  0.00     0.077 C 
HETATM    2  C8  UNL     1      -1.731   8.382  14.419  1.00  0.00    -0.070 C 
HETATM    3  C9  UNL     1      -0.532   8.123  15.294  1.00  0.00     0.035 C 
HETATM    4  C10 UNL     1      -0.254   9.215  16.335  1.00  0.00     0.010 C 
HETATM    5  C11 UNL     1      -1.538   9.742  17.011  1.00  0.00     0.006 C 
HETATM    6  C12 UNL     1      -2.594  10.192  15.959  1.00  0.00     0.068 C 
HETATM    7  C13 UNL     1      -3.035  11.645  15.979  1.00  0.00     0.132 C 
HETATM    8  O4  UNL     1      -4.036  11.991  15.339  1.00  0.00    -0.298 OA
HETATM    9  C14 UNL     1      -2.281  12.686  16.767  1.00  0.00     0.085 C 
HETATM   10  C15 UNL     1      -1.047  12.190  17.533  1.00  0.00     0.011 C 
HETATM   11  C16 UNL     1      -0.416  13.304  18.469  1.00  0.00    -0.016 C 
HETATM   12  C17 UNL     1      -1.437  14.024  19.381  1.00  0.00     0.018 C 
HETATM   13  C18 UNL     1       0.199  14.417  17.575  1.00  0.00     0.018 C 
HETATM   14  C19 UNL     1       0.745  12.700  19.320  1.00  0.00     0.140 C 
HETATM   15  C25 UNL     1       0.305  11.441  20.068  1.00  0.00     0.034 C 
HETATM   16  C26 UNL     1      -0.119  10.373  19.073  1.00  0.00     0.012 C 
HETATM   17  C27 UNL     1      -1.315  10.791  18.178  1.00  0.00    -0.035 C 
HETATM   18  C28 UNL     1      -2.591  10.759  19.065  1.00  0.00     0.016 C 
HETATM   19  C29 UNL     1      -2.314   9.779  14.490  1.00  0.00     0.022 C 
HETATM   20  C30 UNL     1      -1.443  10.765  13.689  1.00  0.00     0.015 C 
ENDROOT
BRANCH   1  21
HETATM   21  C6  UNL     1      -1.792   6.063  13.396  1.00  0.00     0.243 C 
HETATM   22  N1  UNL     1      -0.729   5.897  12.511  1.00  0.00    -0.351 N 
HETATM   23  C5  UNL     1      -0.178   4.555  12.360  1.00  0.00     0.153 C 
HETATM   24  O3  UNL     1      -2.307   5.115  13.991  1.00  0.00    -0.268 OA
BRANCH  22  25
HETATM   25  C4  UNL     1      -0.059   6.961  11.747  1.00  0.00     0.152 C 
BRANCH  25  26
HETATM   26  C3  UNL     1       0.421   6.523  10.358  1.00  0.00     0.198 C 
BRANCH  26  27
HETATM   27  O2  UNL     1       1.474   7.393   9.908  1.00  0.00    -0.320 OA
BRANCH  27  28
HETATM   28  C2  UNL     1       1.165   8.212   8.864  1.00  0.00     0.254 C 
HETATM   29  C1  UNL     1       2.200   8.076   7.788  1.00  0.00     0.126 C 
HETATM   30  O1  UNL     1       0.185   8.939   8.788  1.00  0.00    -0.266 OA
ENDBRANCH  27  28
ENDBRANCH  26  27
ENDBRANCH  25  26
ENDBRANCH  22  25
ENDBRANCH   1  21
BRANCH  14  31
HETATM   31  O5  UNL     1       1.222  13.682  20.265  1.00  0.00    -0.315 OA
BRANCH  31  32
HETATM   32  C20 UNL     1       2.520  13.570  20.652  1.00  0.00     0.262 C 
HETATM   33  O6  UNL     1       3.490  13.871  19.972  1.00  0.00    -0.265 OA
BRANCH  32  34
HETATM   34  C21 UNL     1       2.608  13.003  22.043  1.00  0.00     0.148 C 
BRANCH  34  35
HETATM   35  C22 UNL     1       3.625  11.867  22.180  1.00  0.00     0.059 C 
HETATM   36  C23 UNL     1       3.121  10.743  23.088  1.00  0.00     0.045 C 
HETATM   37  C24 UNL     1       4.993  12.357  22.660  1.00  0.00     0.045 C 
BRANCH  35  38
HETATM   38  O7  UNL     1       3.804  11.286  20.877  1.00  0.00    -0.390 OA
HETATM   39  H36 UNL     1       4.196  11.955  20.287  1.00  0.00     0.210 HD
ENDBRANCH  35  38
ENDBRANCH  34  35
ENDBRANCH  32  34
ENDBRANCH  31  32
ENDBRANCH  14  31
TORSDOF 10
ENDMDL
MODEL 9
REMARK minimizedAffinity -6.91245985
REMARK CNNscore 0.34119916
REMARK CNNaffinity 6.73755026
REMARK  10 active torsions:
REMARK  status: ('A' for Active; 'I' for Inactive)
REMARK    1  A    between atoms: C2_2  and  O2_4 
REMARK    2  A    between atoms: O2_4  and  C3_5 
REMARK    3  A    between atoms: C3_5  and  C4_6 
REMARK    4  A    between atoms: C4_6  and  N1_7 
REMARK       I    between atoms: N1_7  and  C6_9 
REMARK    5  A    between atoms: C6_9  and  C7_11 
REMARK    6  A    between atoms: C19_24  and  O5_25 
REMARK    7  A    between atoms: O5_25  and  C20_26 
REMARK    8  A    between atoms: C20_26  and  C21_28 
REMARK    9  A    between atoms: C21_28  and  C22_29 
REMARK   10  A    between atoms: C22_29  and  O7_32 
ROOT
HETATM    1  C7  UNL     1      -1.456   9.079  15.564  1.00  0.00     0.077 C 
HETATM    2  C8  UNL     1      -2.716   8.794  15.168  1.00  0.00    -0.070 C 
HETATM    3  C9  UNL     1      -3.936   9.561  15.606  1.00  0.00     0.035 C 
HETATM    4  C10 UNL     1      -5.272   8.881  15.278  1.00  0.00     0.010 C 
HETATM    5  C11 UNL     1      -5.249   7.358  15.533  1.00  0.00     0.006 C 
HETATM    6  C12 UNL     1      -4.051   6.676  14.811  1.00  0.00     0.068 C 
HETATM    7  C13 UNL     1      -4.365   5.613  13.772  1.00  0.00     0.132 C 
HETATM    8  O4  UNL     1      -3.463   4.877  13.356  1.00  0.00    -0.298 OA
HETATM    9  C14 UNL     1      -5.761   5.427  13.234  1.00  0.00     0.085 C 
HETATM   10  C15 UNL     1      -6.831   6.377  13.790  1.00  0.00     0.011 C 
HETATM   11  C16 UNL     1      -8.294   6.005  13.305  1.00  0.00    -0.016 C 
HETATM   12  C17 UNL     1      -8.666   4.514  13.485  1.00  0.00     0.018 C 
HETATM   13  C18 UNL     1      -8.399   6.277  11.779  1.00  0.00     0.018 C 
HETATM   14  C19 UNL     1      -9.345   6.918  14.012  1.00  0.00     0.140 C 
HETATM   15  C25 UNL     1      -9.177   6.908  15.531  1.00  0.00     0.034 C 
HETATM   16  C26 UNL     1      -7.802   7.444  15.899  1.00  0.00     0.012 C 
HETATM   17  C27 UNL     1      -6.629   6.609  15.323  1.00  0.00    -0.035 C 
HETATM   18  C28 UNL     1      -6.557   5.288  16.139  1.00  0.00     0.016 C 
HETATM   19  C29 UNL     1      -2.969   7.627  14.234  1.00  0.00     0.022 C 
HETATM   20  C30 UNL     1      -3.238   8.131  12.804  1.00  0.00     0.015 C 
ENDROOT
BRANCH   1  21
HETATM   21  C6  UNL     1      -1.054  10.236  16.427  1.00  0.00     0.243 C 
HETATM   22  N1  UNL     1      -0.097  11.112  15.922  1.00  0.00    -0.351 N 
HETATM   23  C5  UNL     1       0.235  12.285  16.722  1.00  0.00     0.153 C 
HETATM   24  O3  UNL     1      -1.569  10.391  17.537  1.00  0.00    -0.268 OA
BRANCH  22  25
HETATM   25  C4  UNL     1       0.580  11.004  14.620  1.00  0.00     0.152 C 
BRANCH  25  26
HETATM   26  C3  UNL     1       0.967   9.570  14.237  1.00  0.00     0.198 C 
BRANCH  26  27
HETATM   27  O2  UNL     1       2.120   9.587  13.377  1.00  0.00    -0.320 OA
BRANCH  27  28
HETATM   28  C2  UNL     1       1.962   9.005  12.156  1.00  0.00     0.254 C 
HETATM   29  C1  UNL     1       3.288   8.523  11.649  1.00  0.00     0.126 C 
HETATM   30  O1  UNL     1       0.905   8.865  11.558  1.00  0.00    -0.266 OA
ENDBRANCH  27  28
ENDBRANCH  26  27
ENDBRANCH  25  26
ENDBRANCH  22  25
ENDBRANCH   1  21
BRANCH  14  31
HETATM   31  O5  UNL     1     -10.679   6.483  13.671  1.00  0.00    -0.315 OA
BRANCH  31  32
HETATM   32  C20 UNL     1     -11.589   7.461  13.417  1.00  0.00     0.262 C 
HETATM   33  O6  UNL     1     -11.552   8.234  12.470  1.00  0.00    -0.265 OA
BRANCH  32  34
HETATM   34  C21 UNL     1     -12.655   7.478  14.478  1.00  0.00     0.148 C 
BRANCH  34  35
HETATM   35  C22 UNL     1     -13.985   6.871  14.024  1.00  0.00     0.059 C 
HETATM   36  C23 UNL     1     -15.186   7.712  14.460  1.00  0.00     0.045 C 
HETATM   37  C24 UNL     1     -14.160   5.424  14.491  1.00  0.00     0.045 C 
BRANCH  35  38
HETATM   38  O7  UNL     1     -13.992   6.869  12.587  1.00  0.00    -0.390 OA
HETATM   39  H36 UNL     1     -13.282   6.280  12.271  1.00  0.00     0.210 HD
ENDBRANCH  35  38
ENDBRANCH  34  35
ENDBRANCH  32  34
ENDBRANCH  31  32
ENDBRANCH  14  31
TORSDOF 10
ENDMDL
