MODEL 1
REMARK minimizedAffinity -9.52915001
REMARK  14 active torsions:
REMARK  status: ('A' for Active; 'I' for Inactive)
REMARK    1  A    between atoms: C2_2  and  O1_3 
REMARK    2  A    between atoms: O1_3  and  C3_4 
REMARK    3  A    between atoms: C4_6  and  C5_7 
REMARK    4  A    between atoms: C5_7  and  O3_8 
REMARK    5  A    between atoms: C5_7  and  C6_9 
REMARK    6  A    between atoms: C6_9  and  O4_10 
REMARK    7  A    between atoms: O4_10  and  C7_11 
REMARK    8  A    between atoms: C12_16  and  C13_17 
REMARK    9  A    between atoms: C13_17  and  O5_19 
REMARK   10  A    between atoms: C13_17  and  C15_20 
REMARK   11  A    between atoms: C15_20  and  O6_21 
REMARK   12  A    between atoms: C18_24  and  O7_26 
REMARK   13  A    between atoms: C22_29  and  O8_30 
REMARK   14  A    between atoms: C23_31  and  O9_32 
ROOT
HETATM    1  C7  UNL     1      -1.442   4.731  13.008  1.00  0.00     0.126 C 
HETATM    2  C8  UNL     1      -1.713   4.773  11.514  1.00  0.00     0.040 C 
HETATM    3  C9  UNL     1      -3.245   4.634  11.387  1.00  0.00     0.026 C 
HETATM    4  C10 UNL     1      -3.805   5.292  12.678  1.00  0.00    -0.001 C 
HETATM    5  C11 UNL     1      -4.983   4.639  13.409  1.00  0.00     0.013 C 
HETATM    6  C12 UNL     1      -6.267   4.473  12.560  1.00  0.00     0.022 C 
HETATM    7  C16 UNL     1      -6.184   3.146  11.775  1.00  0.00     0.010 C 
HETATM    8  C17 UNL     1      -5.184   3.141  10.627  1.00  0.00     0.038 C 
HETATM    9  C18 UNL     1      -3.687   3.209  10.969  1.00  0.00     0.058 C 
HETATM   10  C19 UNL     1      -3.242   2.078  11.903  1.00  0.00     0.046 C 
HETATM   11  C20 UNL     1      -2.565   5.605  13.567  1.00  0.00     0.015 C 
HETATM   12  C21 UNL     1      -2.707   5.435  15.077  1.00  0.00     0.013 C 
ENDROOT
BRANCH   1  13
HETATM   13  O4  UNL     1      -0.178   5.296  13.343  1.00  0.00    -0.383 OA
BRANCH  13  14
HETATM   14  C6  UNL     1      -0.079   6.684  12.991  1.00  0.00     0.202 C 
BRANCH  14  15
HETATM   15  C5  UNL     1       1.380   6.956  12.612  1.00  0.00     0.173 C 
BRANCH  15  16
HETATM   16  C4  UNL     1       1.898   5.979  11.546  1.00  0.00     0.187 C 
HETATM   17  O2  UNL     1       1.084   6.093  10.349  1.00  0.00    -0.348 OA
HETATM   18  C3  UNL     1       1.946   6.433   9.250  1.00  0.00     0.291 C 
HETATM   19  C23 UNL     1       3.302   5.827   9.623  1.00  0.00     0.204 C 
HETATM   20  C22 UNL     1       3.368   6.134  11.113  1.00  0.00     0.183 C 
BRANCH  18  21
HETATM   21  O1  UNL     1       2.067   7.843   9.102  1.00  0.00    -0.359 OA
BRANCH  21  22
HETATM   22  C2  UNL     1       2.574   8.205   7.820  1.00  0.00     0.166 C 
HETATM   23  C1  UNL     1       1.820   7.409   6.773  1.00  0.00     0.033 C 
ENDBRANCH  21  22
ENDBRANCH  18  21
BRANCH  19  24
HETATM   24  O9  UNL     1       3.310   4.406   9.414  1.00  0.00    -0.388 OA
HETATM   25  H42 UNL     1       2.424   4.065   9.637  1.00  0.00     0.210 HD
ENDBRANCH  19  24
BRANCH  20  26
HETATM   26  O8  UNL     1       3.901   7.439  11.335  1.00  0.00    -0.390 OA
HETATM   27  H40 UNL     1       3.175   8.079  11.145  1.00  0.00     0.210 HD
ENDBRANCH  20  26
ENDBRANCH  15  16
BRANCH  15  28
HETATM   28  O3  UNL     1       2.185   6.898  13.804  1.00  0.00    -0.391 OA
HETATM   29  H9  UNL     1       1.696   7.438  14.458  1.00  0.00     0.210 HD
ENDBRANCH  15  28
ENDBRANCH  14  15
ENDBRANCH  13  14
ENDBRANCH   1  13
BRANCH   9  30
HETATM   30  O7  UNL     1      -3.010   2.960   9.712  1.00  0.00    -0.390 OA
HETATM   31  H34 UNL     1      -3.251   2.068   9.409  1.00  0.00     0.210 HD
ENDBRANCH   9  30
BRANCH   6  32
HETATM   32  C13 UNL     1      -7.564   4.536  13.457  1.00  0.00     0.079 C 
HETATM   33  C14 UNL     1      -8.630   5.474  12.859  1.00  0.00     0.048 C 
BRANCH  32  34
HETATM   34  O5  UNL     1      -8.137   3.221  13.517  1.00  0.00    -0.388 OA
HETATM   35  H23 UNL     1      -8.950   3.266  14.051  1.00  0.00     0.210 HD
ENDBRANCH  32  34
BRANCH  32  36
HETATM   36  C15 UNL     1      -7.269   5.019  14.906  1.00  0.00     0.201 C 
BRANCH  36  37
HETATM   37  O6  UNL     1      -7.901   4.219  15.896  1.00  0.00    -0.398 OA
HETATM   38  H26 UNL     1      -7.457   3.354  15.913  1.00  0.00     0.209 HD
ENDBRANCH  36  37
ENDBRANCH  32  36
ENDBRANCH   6  32
TORSDOF 14
ENDMDL
MODEL 2
REMARK minimizedAffinity -9.40003109
REMARK  14 active torsions:
REMARK  status: ('A' for Active; 'I' for Inactive)
REMARK    1  A    between atoms: C2_2  and  O1_3 
REMARK    2  A    between atoms: O1_3  and  C3_4 
REMARK    3  A    between atoms: C4_6  and  C5_7 
REMARK    4  A    between atoms: C5_7  and  O3_8 
REMARK    5  A    between atoms: C5_7  and  C6_9 
REMARK    6  A    between atoms: C6_9  and  O4_10 
REMARK    7  A    between atoms: O4_10  and  C7_11 
REMARK    8  A    between atoms: C12_16  and  C13_17 
REMARK    9  A    between atoms: C13_17  and  O5_19 
REMARK   10  A    between atoms: C13_17  and  C15_20 
REMARK   11  A    between atoms: C15_20  and  O6_21 
REMARK   12  A    between atoms: C18_24  and  O7_26 
REMARK   13  A    between atoms: C22_29  and  O8_30 
REMARK   14  A    between atoms: C23_31  and  O9_32 
ROOT
HETATM    1  C7  UNL     1      -1.517   4.983  13.054  1.00  0.00     0.126 C 
HETATM    2  C8  UNL     1      -1.781   4.943  11.559  1.00  0.00     0.040 C 
HETATM    3  C9  UNL     1      -3.304   4.733  11.433  1.00  0.00     0.026 C 
HETATM    4  C10 UNL     1      -3.899   5.427  12.689  1.00  0.00    -0.001 C 
HETATM    5  C11 UNL     1      -5.053   4.760  13.446  1.00  0.00     0.013 C 
HETATM    6  C12 UNL     1      -6.324   4.499  12.601  1.00  0.00     0.022 C 
HETATM    7  C16 UNL     1      -6.180   3.141  11.881  1.00  0.00     0.010 C 
HETATM    8  C17 UNL     1      -5.174   3.124  10.738  1.00  0.00     0.038 C 
HETATM    9  C18 UNL     1      -3.683   3.272  11.082  1.00  0.00     0.058 C 
HETATM   10  C19 UNL     1      -3.196   2.207  12.070  1.00  0.00     0.046 C 
HETATM   11  C20 UNL     1      -2.679   5.835  13.567  1.00  0.00     0.015 C 
HETATM   12  C21 UNL     1      -2.822   5.731  15.083  1.00  0.00     0.013 C 
ENDROOT
BRANCH   1  13
HETATM   13  O4  UNL     1      -0.280   5.617  13.367  1.00  0.00    -0.383 OA
BRANCH  13  14
HETATM   14  C6  UNL     1       0.759   5.300  12.428  1.00  0.00     0.202 C 
BRANCH  14  15
HETATM   15  C5  UNL     1       1.504   6.601  12.114  1.00  0.00     0.173 C 
BRANCH  15  16
HETATM   16  C4  UNL     1       1.584   6.879  10.606  1.00  0.00     0.187 C 
HETATM   17  O2  UNL     1       2.563   7.923  10.358  1.00  0.00    -0.348 OA
HETATM   18  C3  UNL     1       3.559   7.402   9.462  1.00  0.00     0.291 C 
HETATM   19  C23 UNL     1       2.817   6.348   8.634  1.00  0.00     0.204 C 
HETATM   20  C22 UNL     1       1.946   5.691   9.695  1.00  0.00     0.183 C 
BRANCH  18  21
HETATM   21  O1  UNL     1       4.631   6.794  10.174  1.00  0.00    -0.359 OA
BRANCH  21  22
HETATM   22  C2  UNL     1       5.531   7.759  10.712  1.00  0.00     0.166 C 
HETATM   23  C1  UNL     1       6.848   7.067  11.002  1.00  0.00     0.033 C 
ENDBRANCH  21  22
ENDBRANCH  18  21
BRANCH  19  24
HETATM   24  O9  UNL     1       1.991   6.963   7.632  1.00  0.00    -0.388 OA
HETATM   25  H42 UNL     1       1.631   7.788   8.006  1.00  0.00     0.210 HD
ENDBRANCH  19  24
BRANCH  20  26
HETATM   26  O8  UNL     1       2.661   4.651  10.360  1.00  0.00    -0.390 OA
HETATM   27  H40 UNL     1       3.268   5.088  11.003  1.00  0.00     0.210 HD
ENDBRANCH  20  26
ENDBRANCH  15  16
BRANCH  15  28
HETATM   28  O3  UNL     1       2.818   6.533  12.699  1.00  0.00    -0.391 OA
HETATM   29  H9  UNL     1       2.665   6.215  13.613  1.00  0.00     0.210 HD
ENDBRANCH  15  28
ENDBRANCH  14  15
ENDBRANCH  13  14
ENDBRANCH   1  13
BRANCH   9  30
HETATM   30  O7  UNL     1      -2.990   2.992   9.841  1.00  0.00    -0.390 OA
HETATM   31  H34 UNL     1      -3.191   2.077   9.580  1.00  0.00     0.210 HD
ENDBRANCH   9  30
BRANCH   6  32
HETATM   32  C13 UNL     1      -7.628   4.549  13.489  1.00  0.00     0.079 C 
HETATM   33  C14 UNL     1      -8.700   5.475  12.883  1.00  0.00     0.048 C 
BRANCH  32  34
HETATM   34  O5  UNL     1      -8.186   3.229  13.548  1.00  0.00    -0.388 OA
HETATM   35  H23 UNL     1      -9.003   3.266  14.076  1.00  0.00     0.210 HD
ENDBRANCH  32  34
BRANCH  32  36
HETATM   36  C15 UNL     1      -7.347   5.039  14.940  1.00  0.00     0.201 C 
BRANCH  36  37
HETATM   37  O6  UNL     1      -7.976   4.233  15.927  1.00  0.00    -0.398 OA
HETATM   38  H26 UNL     1      -7.522   3.372  15.948  1.00  0.00     0.209 HD
ENDBRANCH  36  37
ENDBRANCH  32  36
ENDBRANCH   6  32
TORSDOF 14
ENDMDL
MODEL 3
REMARK minimizedAffinity -9.34995365
REMARK  14 active torsions:
REMARK  status: ('A' for Active; 'I' for Inactive)
REMARK    1  A    between atoms: C2_2  and  O1_3 
REMARK    2  A    between atoms: O1_3  and  C3_4 
REMARK    3  A    between atoms: C4_6  and  C5_7 
REMARK    4  A    between atoms: C5_7  and  O3_8 
REMARK    5  A    between atoms: C5_7  and  C6_9 
REMARK    6  A    between atoms: C6_9  and  O4_10 
REMARK    7  A    between atoms: O4_10  and  C7_11 
REMARK    8  A    between atoms: C12_16  and  C13_17 
REMARK    9  A    between atoms: C13_17  and  O5_19 
REMARK   10  A    between atoms: C13_17  and  C15_20 
REMARK   11  A    between atoms: C15_20  and  O6_21 
REMARK   12  A    between atoms: C18_24  and  O7_26 
REMARK   13  A    between atoms: C22_29  and  O8_30 
REMARK   14  A    between atoms: C23_31  and  O9_32 
ROOT
HETATM    1  C7  UNL     1      -0.916   5.922  13.082  1.00  0.00     0.126 C 
HETATM    2  C8  UNL     1      -1.155   5.862  14.581  1.00  0.00     0.040 C 
HETATM    3  C9  UNL     1      -2.645   5.491  14.729  1.00  0.00     0.026 C 
HETATM    4  C10 UNL     1      -2.957   4.623  13.478  1.00  0.00    -0.001 C 
HETATM    5  C11 UNL     1      -4.287   4.813  12.741  1.00  0.00     0.013 C 
HETATM    6  C12 UNL     1      -5.551   4.583  13.604  1.00  0.00     0.022 C 
HETATM    7  C16 UNL     1      -5.913   5.897  14.328  1.00  0.00     0.010 C 
HETATM    8  C17 UNL     1      -4.969   6.289  15.458  1.00  0.00     0.038 C 
HETATM    9  C18 UNL     1      -3.535   6.705  15.092  1.00  0.00     0.058 C 
HETATM   10  C19 UNL     1      -3.494   7.874  14.102  1.00  0.00     0.046 C 
HETATM   11  C20 UNL     1      -1.686   4.699  12.582  1.00  0.00     0.015 C 
HETATM   12  C21 UNL     1      -1.879   4.740  11.068  1.00  0.00     0.013 C 
ENDROOT
BRANCH   1  13
HETATM   13  O4  UNL     1       0.463   5.794  12.749  1.00  0.00    -0.383 OA
BRANCH  13  14
HETATM   14  C6  UNL     1       0.710   4.746  11.799  1.00  0.00     0.202 C 
BRANCH  14  15
HETATM   15  C5  UNL     1       1.995   5.105  11.047  1.00  0.00     0.173 C 
BRANCH  15  16
HETATM   16  C4  UNL     1       1.815   6.327  10.134  1.00  0.00     0.187 C 
HETATM   17  O2  UNL     1       2.489   7.472  10.721  1.00  0.00    -0.348 OA
HETATM   18  C3  UNL     1       3.454   7.960   9.774  1.00  0.00     0.291 C 
HETATM   19  C23 UNL     1       2.874   7.586   8.406  1.00  0.00     0.204 C 
HETATM   20  C22 UNL     1       2.320   6.196   8.685  1.00  0.00     0.183 C 
BRANCH  18  21
HETATM   21  O1  UNL     1       4.720   7.332   9.952  1.00  0.00    -0.359 OA
BRANCH  21  22
HETATM   22  C2  UNL     1       5.151   7.373  11.310  1.00  0.00     0.166 C 
HETATM   23  C1  UNL     1       6.167   6.266  11.517  1.00  0.00     0.033 C 
ENDBRANCH  21  22
ENDBRANCH  18  21
BRANCH  19  24
HETATM   24  O9  UNL     1       1.807   8.475   8.036  1.00  0.00    -0.388 OA
HETATM   25  H42 UNL     1       1.319   8.711   8.847  1.00  0.00     0.210 HD
ENDBRANCH  19  24
BRANCH  20  26
HETATM   26  O8  UNL     1       3.333   5.206   8.513  1.00  0.00    -0.390 OA
HETATM   27  H40 UNL     1       3.901   5.238   9.319  1.00  0.00     0.210 HD
ENDBRANCH  20  26
ENDBRANCH  15  16
BRANCH  15  28
HETATM   28  O3  UNL     1       2.426   3.955  10.295  1.00  0.00    -0.391 OA
HETATM   29  H9  UNL     1       2.372   3.211  10.930  1.00  0.00     0.210 HD
ENDBRANCH  15  28
ENDBRANCH  14  15
ENDBRANCH  13  14
ENDBRANCH   1  13
BRANCH   9  30
HETATM   30  O7  UNL     1      -2.977   7.224  16.325  1.00  0.00    -0.390 OA
HETATM   31  H34 UNL     1      -3.501   7.999  16.592  1.00  0.00     0.210 HD
ENDBRANCH   9  30
BRANCH   6  32
HETATM   32  C13 UNL     1      -6.756   4.050  12.734  1.00  0.00     0.079 C 
HETATM   33  C14 UNL     1      -7.755   5.171  12.390  1.00  0.00     0.048 C 
BRANCH  32  34
HETATM   34  O5  UNL     1      -6.232   3.549  11.496  1.00  0.00    -0.388 OA
HETATM   35  H23 UNL     1      -6.979   3.242  10.951  1.00  0.00     0.210 HD
ENDBRANCH  32  34
BRANCH  32  36
HETATM   36  C15 UNL     1      -7.548   2.911  13.440  1.00  0.00     0.201 C 
BRANCH  36  37
HETATM   37  O6  UNL     1      -8.067   1.952  12.529  1.00  0.00    -0.398 OA
HETATM   38  H26 UNL     1      -7.321   1.441  12.171  1.00  0.00     0.209 HD
ENDBRANCH  36  37
ENDBRANCH  32  36
ENDBRANCH   6  32
TORSDOF 14
ENDMDL
MODEL 4
REMARK minimizedAffinity -9.20110607
REMARK  14 active torsions:
REMARK  status: ('A' for Active; 'I' for Inactive)
REMARK    1  A    between atoms: C2_2  and  O1_3 
REMARK    2  A    between atoms: O1_3  and  C3_4 
REMARK    3  A    between atoms: C4_6  and  C5_7 
REMARK    4  A    between atoms: C5_7  and  O3_8 
REMARK    5  A    between atoms: C5_7  and  C6_9 
REMARK    6  A    between atoms: C6_9  and  O4_10 
REMARK    7  A    between atoms: O4_10  and  C7_11 
REMARK    8  A    between atoms: C12_16  and  C13_17 
REMARK    9  A    between atoms: C13_17  and  O5_19 
REMARK   10  A    between atoms: C13_17  and  C15_20 
REMARK   11  A    between atoms: C15_20  and  O6_21 
REMARK   12  A    between atoms: C18_24  and  O7_26 
REMARK   13  A    between atoms: C22_29  and  O8_30 
REMARK   14  A    between atoms: C23_31  and  O9_32 
ROOT
HETATM    1  C7  UNL     1      -1.394   6.456  13.714  1.00  0.00     0.126 C 
HETATM    2  C8  UNL     1      -1.941   6.811  15.086  1.00  0.00     0.040 C 
HETATM    3  C9  UNL     1      -3.431   6.411  15.033  1.00  0.00     0.026 C 
HETATM    4  C10 UNL     1      -3.477   5.207  14.051  1.00  0.00    -0.001 C 
HETATM    5  C11 UNL     1      -4.622   5.103  13.039  1.00  0.00     0.013 C 
HETATM    6  C12 UNL     1      -6.040   5.054  13.659  1.00  0.00     0.022 C 
HETATM    7  C16 UNL     1      -6.541   6.497  13.883  1.00  0.00     0.010 C 
HETATM    8  C17 UNL     1      -5.853   7.247  15.016  1.00  0.00     0.038 C 
HETATM    9  C18 UNL     1      -4.373   7.625  14.841  1.00  0.00     0.058 C 
HETATM   10  C19 UNL     1      -4.122   8.465  13.585  1.00  0.00     0.046 C 
HETATM   11  C20 UNL     1      -2.045   5.099  13.446  1.00  0.00     0.015 C 
HETATM   12  C21 UNL     1      -1.918   4.698  11.979  1.00  0.00     0.013 C 
ENDROOT
BRANCH   1  13
HETATM   13  O4  UNL     1       0.024   6.319  13.717  1.00  0.00    -0.383 OA
BRANCH  13  14
HETATM   14  C6  UNL     1       0.689   7.426  13.091  1.00  0.00     0.202 C 
BRANCH  14  15
HETATM   15  C5  UNL     1       0.662   7.179  11.579  1.00  0.00     0.173 C 
BRANCH  15  16
HETATM   16  C4  UNL     1       1.842   6.317  11.107  1.00  0.00     0.187 C 
HETATM   17  O2  UNL     1       1.662   5.977   9.706  1.00  0.00    -0.348 OA
HETATM   18  C3  UNL     1       2.808   6.451   8.978  1.00  0.00     0.291 C 
HETATM   19  C23 UNL     1       3.951   6.417   9.997  1.00  0.00     0.204 C 
HETATM   20  C22 UNL     1       3.250   6.921  11.251  1.00  0.00     0.183 C 
BRANCH  18  21
HETATM   21  O1  UNL     1       2.612   7.781   8.511  1.00  0.00    -0.359 OA
BRANCH  21  22
HETATM   22  C2  UNL     1       1.509   7.876   7.614  1.00  0.00     0.166 C 
HETATM   23  C1  UNL     1       1.847   7.087   6.364  1.00  0.00     0.033 C 
ENDBRANCH  21  22
ENDBRANCH  18  21
BRANCH  19  24
HETATM   24  O9  UNL     1       4.423   5.076  10.203  1.00  0.00    -0.388 OA
HETATM   25  H42 UNL     1       3.654   4.477  10.150  1.00  0.00     0.210 HD
ENDBRANCH  19  24
BRANCH  20  26
HETATM   26  O8  UNL     1       3.265   8.347  11.297  1.00  0.00    -0.390 OA
HETATM   27  H40 UNL     1       2.566   8.659  10.675  1.00  0.00     0.210 HD
ENDBRANCH  20  26
ENDBRANCH  15  16
BRANCH  15  28
HETATM   28  O3  UNL     1       0.647   8.451  10.904  1.00  0.00    -0.391 OA
HETATM   29  H9  UNL     1      -0.041   8.969  11.371  1.00  0.00     0.210 HD
ENDBRANCH  15  28
ENDBRANCH  14  15
ENDBRANCH  13  14
ENDBRANCH   1  13
BRANCH   9  30
HETATM   30  O7  UNL     1      -4.084   8.505  15.957  1.00  0.00    -0.390 OA
HETATM   31  H34 UNL     1      -4.650   9.292  15.877  1.00  0.00     0.210 HD
ENDBRANCH   9  30
BRANCH   6  32
HETATM   32  C13 UNL     1      -7.037   4.228  12.757  1.00  0.00     0.079 C 
HETATM   33  C14 UNL     1      -8.206   5.094  12.251  1.00  0.00     0.048 C 
BRANCH  32  34
HETATM   34  O5  UNL     1      -6.322   3.759  11.605  1.00  0.00    -0.388 OA
HETATM   35  H23 UNL     1      -6.944   3.269  11.038  1.00  0.00     0.210 HD
ENDBRANCH  32  34
BRANCH  32  36
HETATM   36  C15 UNL     1      -7.645   3.003  13.502  1.00  0.00     0.201 C 
BRANCH  36  37
HETATM   37  O6  UNL     1      -8.234   2.057  12.621  1.00  0.00    -0.398 OA
HETATM   38  H26 UNL     1      -7.520   1.617  12.128  1.00  0.00     0.209 HD
ENDBRANCH  36  37
ENDBRANCH  32  36
ENDBRANCH   6  32
TORSDOF 14
ENDMDL
MODEL 5
REMARK minimizedAffinity -9.19324207
REMARK  14 active torsions:
REMARK  status: ('A' for Active; 'I' for Inactive)
REMARK    1  A    between atoms: C2_2  and  O1_3 
REMARK    2  A    between atoms: O1_3  and  C3_4 
REMARK    3  A    between atoms: C4_6  and  C5_7 
REMARK    4  A    between atoms: C5_7  and  O3_8 
REMARK    5  A    between atoms: C5_7  and  C6_9 
REMARK    6  A    between atoms: C6_9  and  O4_10 
REMARK    7  A    between atoms: O4_10  and  C7_11 
REMARK    8  A    between atoms: C12_16  and  C13_17 
REMARK    9  A    between atoms: C13_17  and  O5_19 
REMARK   10  A    between atoms: C13_17  and  C15_20 
REMARK   11  A    between atoms: C15_20  and  O6_21 
REMARK   12  A    between atoms: C18_24  and  O7_26 
REMARK   13  A    between atoms: C22_29  and  O8_30 
REMARK   14  A    between atoms: C23_31  and  O9_32 
ROOT
HETATM    1  C7  UNL     1      -1.451   5.102  11.711  1.00  0.00     0.126 C 
HETATM    2  C8  UNL     1      -1.244   5.366  13.192  1.00  0.00     0.040 C 
HETATM    3  C9  UNL     1      -2.647   5.230  13.818  1.00  0.00     0.026 C 
HETATM    4  C10 UNL     1      -3.373   4.186  12.925  1.00  0.00    -0.001 C 
HETATM    5  C11 UNL     1      -4.844   4.403  12.553  1.00  0.00     0.013 C 
HETATM    6  C12 UNL     1      -5.813   4.514  13.756  1.00  0.00     0.022 C 
HETATM    7  C16 UNL     1      -5.851   5.979  14.239  1.00  0.00     0.010 C 
HETATM    8  C17 UNL     1      -4.592   6.454  14.953  1.00  0.00     0.038 C 
HETATM    9  C18 UNL     1      -3.304   6.599  14.128  1.00  0.00     0.058 C 
HETATM   10  C19 UNL     1      -3.471   7.538  12.930  1.00  0.00     0.046 C 
HETATM   11  C20 UNL     1      -2.418   3.918  11.724  1.00  0.00     0.015 C 
HETATM   12  C21 UNL     1      -3.044   3.692  10.350  1.00  0.00     0.013 C 
ENDROOT
BRANCH   1  13
HETATM   13  O4  UNL     1      -0.243   4.732  11.054  1.00  0.00    -0.383 OA
BRANCH  13  14
HETATM   14  C6  UNL     1       0.907   4.840  11.906  1.00  0.00     0.202 C 
BRANCH  14  15
HETATM   15  C5  UNL     1       2.113   5.138  11.009  1.00  0.00     0.173 C 
BRANCH  15  16
HETATM   16  C4  UNL     1       1.858   6.318  10.060  1.00  0.00     0.187 C 
HETATM   17  O2  UNL     1       2.476   7.516  10.602  1.00  0.00    -0.348 OA
HETATM   18  C3  UNL     1       3.403   8.023   9.627  1.00  0.00     0.291 C 
HETATM   19  C23 UNL     1       2.828   7.576   8.280  1.00  0.00     0.204 C 
HETATM   20  C22 UNL     1       2.353   6.168   8.610  1.00  0.00     0.183 C 
BRANCH  18  21
HETATM   21  O1  UNL     1       4.702   7.470   9.809  1.00  0.00    -0.359 OA
BRANCH  21  22
HETATM   22  C2  UNL     1       5.369   8.027  10.939  1.00  0.00     0.166 C 
HETATM   23  C1  UNL     1       5.622   9.496  10.660  1.00  0.00     0.033 C 
ENDBRANCH  21  22
ENDBRANCH  18  21
BRANCH  19  24
HETATM   24  O9  UNL     1       1.712   8.395   7.896  1.00  0.00    -0.388 OA
HETATM   25  H42 UNL     1       1.221   8.630   8.705  1.00  0.00     0.210 HD
ENDBRANCH  19  24
BRANCH  20  26
HETATM   26  O8  UNL     1       3.415   5.228   8.456  1.00  0.00    -0.390 OA
HETATM   27  H40 UNL     1       3.989   5.316   9.252  1.00  0.00     0.210 HD
ENDBRANCH  20  26
ENDBRANCH  15  16
BRANCH  15  28
HETATM   28  O3  UNL     1       2.447   3.945  10.274  1.00  0.00    -0.391 OA
HETATM   29  H9  UNL     1       2.448   3.233  10.947  1.00  0.00     0.210 HD
ENDBRANCH  15  28
ENDBRANCH  14  15
ENDBRANCH  13  14
ENDBRANCH   1  13
BRANCH   9  30
HETATM   30  O7  UNL     1      -2.373   7.268  15.016  1.00  0.00    -0.390 OA
HETATM   31  H34 UNL     1      -2.739   8.142  15.235  1.00  0.00     0.210 HD
ENDBRANCH   9  30
BRANCH   6  32
HETATM   32  C13 UNL     1      -7.254   3.986  13.387  1.00  0.00     0.079 C 
HETATM   33  C14 UNL     1      -7.195   2.690  12.556  1.00  0.00     0.048 C 
BRANCH  32  34
HETATM   34  O5  UNL     1      -7.950   3.683  14.604  1.00  0.00    -0.388 OA
HETATM   35  H23 UNL     1      -8.830   3.336  14.375  1.00  0.00     0.210 HD
ENDBRANCH  32  34
BRANCH  32  36
HETATM   36  C15 UNL     1      -8.085   5.026  12.581  1.00  0.00     0.201 C 
BRANCH  36  37
HETATM   37  O6  UNL     1      -9.179   5.552  13.319  1.00  0.00    -0.398 OA
HETATM   38  H26 UNL     1      -8.822   6.127  14.019  1.00  0.00     0.209 HD
ENDBRANCH  36  37
ENDBRANCH  32  36
ENDBRANCH   6  32
TORSDOF 14
ENDMDL
MODEL 6
REMARK minimizedAffinity -9.00606537
REMARK  14 active torsions:
REMARK  status: ('A' for Active; 'I' for Inactive)
REMARK    1  A    between atoms: C2_2  and  O1_3 
REMARK    2  A    between atoms: O1_3  and  C3_4 
REMARK    3  A    between atoms: C4_6  and  C5_7 
REMARK    4  A    between atoms: C5_7  and  O3_8 
REMARK    5  A    between atoms: C5_7  and  C6_9 
REMARK    6  A    between atoms: C6_9  and  O4_10 
REMARK    7  A    between atoms: O4_10  and  C7_11 
REMARK    8  A    between atoms: C12_16  and  C13_17 
REMARK    9  A    between atoms: C13_17  and  O5_19 
REMARK   10  A    between atoms: C13_17  and  C15_20 
REMARK   11  A    between atoms: C15_20  and  O6_21 
REMARK   12  A    between atoms: C18_24  and  O7_26 
REMARK   13  A    between atoms: C22_29  and  O8_30 
REMARK   14  A    between atoms: C23_31  and  O9_32 
ROOT
HETATM    1  C7  UNL     1      -2.122   5.652  13.319  1.00  0.00     0.126 C 
HETATM    2  C8  UNL     1      -1.895   6.609  14.477  1.00  0.00     0.040 C 
HETATM    3  C9  UNL     1      -3.309   6.950  14.991  1.00  0.00     0.026 C 
HETATM    4  C10 UNL     1      -4.149   5.675  14.698  1.00  0.00    -0.001 C 
HETATM    5  C11 UNL     1      -5.580   5.819  14.169  1.00  0.00     0.013 C 
HETATM    6  C12 UNL     1      -6.537   6.620  15.085  1.00  0.00     0.022 C 
HETATM    7  C16 UNL     1      -6.403   8.123  14.761  1.00  0.00     0.010 C 
HETATM    8  C17 UNL     1      -5.102   8.766  15.223  1.00  0.00     0.038 C 
HETATM    9  C18 UNL     1      -3.799   8.344  14.526  1.00  0.00     0.058 C 
HETATM   10  C19 UNL     1      -3.843   8.557  13.009  1.00  0.00     0.046 C 
HETATM   11  C20 UNL     1      -3.224   4.742  13.861  1.00  0.00     0.015 C 
HETATM   12  C21 UNL     1      -3.862   3.913  12.749  1.00  0.00     0.013 C 
ENDROOT
BRANCH   1  13
HETATM   13  O4  UNL     1      -0.962   4.882  13.020  1.00  0.00    -0.383 OA
BRANCH  13  14
HETATM   14  C6  UNL     1       0.204   5.693  12.807  1.00  0.00     0.202 C 
BRANCH  14  15
HETATM   15  C5  UNL     1       0.438   5.767  11.295  1.00  0.00     0.173 C 
BRANCH  15  16
HETATM   16  C4  UNL     1       1.899   5.485  10.916  1.00  0.00     0.187 C 
HETATM   17  O2  UNL     1       2.031   5.483   9.470  1.00  0.00    -0.348 OA
HETATM   18  C3  UNL     1       3.009   6.473   9.107  1.00  0.00     0.291 C 
HETATM   19  C23 UNL     1       3.950   6.544  10.314  1.00  0.00     0.204 C 
HETATM   20  C22 UNL     1       2.963   6.450  11.469  1.00  0.00     0.183 C 
BRANCH  18  21
HETATM   21  O1  UNL     1       2.405   7.743   8.886  1.00  0.00    -0.359 OA
BRANCH  21  22
HETATM   22  C2  UNL     1       2.591   8.198   7.548  1.00  0.00     0.166 C 
HETATM   23  C1  UNL     1       1.911   7.214   6.616  1.00  0.00     0.033 C 
ENDBRANCH  21  22
ENDBRANCH  18  21
BRANCH  19  24
HETATM   24  O9  UNL     1       4.845   5.421  10.340  1.00  0.00    -0.388 OA
HETATM   25  H42 UNL     1       4.359   4.643  10.008  1.00  0.00     0.210 HD
ENDBRANCH  19  24
BRANCH  20  26
HETATM   26  O8  UNL     1       2.454   7.741  11.803  1.00  0.00    -0.390 OA
HETATM   27  H40 UNL     1       1.774   7.963  11.124  1.00  0.00     0.210 HD
ENDBRANCH  20  26
ENDBRANCH  15  16
BRANCH  15  28
HETATM   28  O3  UNL     1       0.023   7.065  10.828  1.00  0.00    -0.391 OA
HETATM   29  H9  UNL     1      -0.856   7.204  11.238  1.00  0.00     0.210 HD
ENDBRANCH  15  28
ENDBRANCH  14  15
ENDBRANCH  13  14
ENDBRANCH   1  13
BRANCH   9  30
HETATM   30  O7  UNL     1      -2.801   9.275  15.017  1.00  0.00    -0.390 OA
HETATM   31  H34 UNL     1      -3.061  10.170  14.742  1.00  0.00     0.210 HD
ENDBRANCH   9  30
BRANCH   6  32
HETATM   32  C13 UNL     1      -8.028   6.125  14.935  1.00  0.00     0.079 C 
HETATM   33  C14 UNL     1      -8.291   5.505  13.550  1.00  0.00     0.048 C 
BRANCH  32  34
HETATM   34  O5  UNL     1      -8.266   5.103  15.914  1.00  0.00    -0.388 OA
HETATM   35  H23 UNL     1      -9.179   4.782  15.805  1.00  0.00     0.210 HD
ENDBRANCH  32  34
BRANCH  32  36
HETATM   36  C15 UNL     1      -9.063   7.268  15.145  1.00  0.00     0.201 C 
BRANCH  36  37
HETATM   37  O6  UNL     1     -10.390   6.788  15.317  1.00  0.00    -0.398 OA
HETATM   38  H26 UNL     1     -10.443   6.352  16.185  1.00  0.00     0.209 HD
ENDBRANCH  36  37
ENDBRANCH  32  36
ENDBRANCH   6  32
TORSDOF 14
ENDMDL
MODEL 7
REMARK minimizedAffinity -8.76251411
REMARK  14 active torsions:
REMARK  status: ('A' for Active; 'I' for Inactive)
REMARK    1  A    between atoms: C2_2  and  O1_3 
REMARK    2  A    between atoms: O1_3  and  C3_4 
REMARK    3  A    between atoms: C4_6  and  C5_7 
REMARK    4  A    between atoms: C5_7  and  O3_8 
REMARK    5  A    between atoms: C5_7  and  C6_9 
REMARK    6  A    between atoms: C6_9  and  O4_10 
REMARK    7  A    between atoms: O4_10  and  C7_11 
REMARK    8  A    between atoms: C12_16  and  C13_17 
REMARK    9  A    between atoms: C13_17  and  O5_19 
REMARK   10  A    between atoms: C13_17  and  C15_20 
REMARK   11  A    between atoms: C15_20  and  O6_21 
REMARK   12  A    between atoms: C18_24  and  O7_26 
REMARK   13  A    between atoms: C22_29  and  O8_30 
REMARK   14  A    between atoms: C23_31  and  O9_32 
ROOT
HETATM    1  C7  UNL     1      -1.529   6.601  13.432  1.00  0.00     0.126 C 
HETATM    2  C8  UNL     1      -1.971   6.885  14.857  1.00  0.00     0.040 C 
HETATM    3  C9  UNL     1      -3.445   6.434  14.910  1.00  0.00     0.026 C 
HETATM    4  C10 UNL     1      -3.533   5.266  13.889  1.00  0.00    -0.001 C 
HETATM    5  C11 UNL     1      -4.755   5.157  12.970  1.00  0.00     0.013 C 
HETATM    6  C12 UNL     1      -6.113   5.034  13.702  1.00  0.00     0.022 C 
HETATM    7  C16 UNL     1      -6.642   6.449  14.024  1.00  0.00     0.010 C 
HETATM    8  C17 UNL     1      -5.887   7.181  15.125  1.00  0.00     0.038 C 
HETATM    9  C18 UNL     1      -4.441   7.619  14.845  1.00  0.00     0.058 C 
HETATM   10  C19 UNL     1      -4.324   8.513  13.607  1.00  0.00     0.046 C 
HETATM   11  C20 UNL     1      -2.154   5.232  13.164  1.00  0.00     0.015 C 
HETATM   12  C21 UNL     1      -2.136   4.891  11.677  1.00  0.00     0.013 C 
ENDROOT
BRANCH   1  13
HETATM   13  O4  UNL     1      -0.112   6.516  13.314  1.00  0.00    -0.383 OA
BRANCH  13  14
HETATM   14  C6  UNL     1       0.343   6.683  11.962  1.00  0.00     0.202 C 
BRANCH  14  15
HETATM   15  C5  UNL     1       1.691   7.410  12.020  1.00  0.00     0.173 C 
BRANCH  15  16
HETATM   16  C4  UNL     1       2.073   8.039  10.672  1.00  0.00     0.187 C 
HETATM   17  O2  UNL     1       3.400   8.621  10.770  1.00  0.00    -0.348 OA
HETATM   18  C3  UNL     1       4.232   8.012   9.768  1.00  0.00     0.291 C 
HETATM   19  C23 UNL     1       3.263   7.625   8.646  1.00  0.00     0.204 C 
HETATM   20  C22 UNL     1       2.073   7.110   9.444  1.00  0.00     0.183 C 
BRANCH  18  21
HETATM   21  O1  UNL     1       4.885   6.850  10.270  1.00  0.00    -0.359 OA
BRANCH  21  22
HETATM   22  C2  UNL     1       6.170   7.149  10.808  1.00  0.00     0.166 C 
HETATM   23  C1  UNL     1       6.119   6.918  12.306  1.00  0.00     0.033 C 
ENDBRANCH  21  22
ENDBRANCH  18  21
BRANCH  19  24
HETATM   24  O9  UNL     1       2.878   8.773   7.874  1.00  0.00    -0.388 OA
HETATM   25  H42 UNL     1       2.814   9.534   8.481  1.00  0.00     0.210 HD
ENDBRANCH  19  24
BRANCH  20  26
HETATM   26  O8  UNL     1       2.239   5.730   9.763  1.00  0.00    -0.390 OA
HETATM   27  H40 UNL     1       2.874   5.686  10.516  1.00  0.00     0.210 HD
ENDBRANCH  20  26
ENDBRANCH  15  16
BRANCH  15  28
HETATM   28  O3  UNL     1       2.697   6.481  12.463  1.00  0.00    -0.391 OA
HETATM   29  H9  UNL     1       2.298   6.038  13.240  1.00  0.00     0.210 HD
ENDBRANCH  15  28
ENDBRANCH  14  15
ENDBRANCH  13  14
ENDBRANCH   1  13
BRANCH   9  30
HETATM   30  O7  UNL     1      -4.089   8.466  15.967  1.00  0.00    -0.390 OA
HETATM   31  H34 UNL     1      -4.686   9.235  15.966  1.00  0.00     0.210 HD
ENDBRANCH   9  30
BRANCH   6  32
HETATM   32  C13 UNL     1      -7.154   4.205  12.853  1.00  0.00     0.079 C 
HETATM   33  C14 UNL     1      -8.398   5.041  12.495  1.00  0.00     0.048 C 
BRANCH  32  34
HETATM   34  O5  UNL     1      -6.528   3.821  11.620  1.00  0.00    -0.388 OA
HETATM   35  H23 UNL     1      -7.179   3.330  11.088  1.00  0.00     0.210 HD
ENDBRANCH  32  34
BRANCH  32  36
HETATM   36  C15 UNL     1      -7.643   2.923  13.588  1.00  0.00     0.201 C 
BRANCH  36  37
HETATM   37  O6  UNL     1      -8.075   1.905  12.696  1.00  0.00    -0.398 OA
HETATM   38  H26 UNL     1      -7.291   1.550  12.240  1.00  0.00     0.209 HD
ENDBRANCH  36  37
ENDBRANCH  32  36
ENDBRANCH   6  32
TORSDOF 14
ENDMDL
MODEL 8
REMARK minimizedAffinity -8.53117466
REMARK  14 active torsions:
REMARK  status: ('A' for Active; 'I' for Inactive)
REMARK    1  A    between atoms: C2_2  and  O1_3 
REMARK    2  A    between atoms: O1_3  and  C3_4 
REMARK    3  A    between atoms: C4_6  and  C5_7 
REMARK    4  A    between atoms: C5_7  and  O3_8 
REMARK    5  A    between atoms: C5_7  and  C6_9 
REMARK    6  A    between atoms: C6_9  and  O4_10 
REMARK    7  A    between atoms: O4_10  and  C7_11 
REMARK    8  A    between atoms: C12_16  and  C13_17 
REMARK    9  A    between atoms: C13_17  and  O5_19 
REMARK   10  A    between atoms: C13_17  and  C15_20 
REMARK   11  A    between atoms: C15_20  and  O6_21 
REMARK   12  A    between atoms: C18_24  and  O7_26 
REMARK   13  A    between atoms: C22_29  and  O8_30 
REMARK   14  A    between atoms: C23_31  and  O9_32 
ROOT
HETATM    1  C7  UNL     1      -7.102   6.140  14.922  1.00  0.00     0.126 C 
HETATM    2  C8  UNL     1      -6.385   7.379  14.413  1.00  0.00     0.040 C 
HETATM    3  C9  UNL     1      -5.279   6.841  13.482  1.00  0.00     0.026 C 
HETATM    4  C10 UNL     1      -5.869   5.529  12.894  1.00  0.00    -0.001 C 
HETATM    5  C11 UNL     1      -4.968   4.299  12.740  1.00  0.00     0.013 C 
HETATM    6  C12 UNL     1      -3.722   4.510  11.846  1.00  0.00     0.022 C 
HETATM    7  C16 UNL     1      -2.575   5.082  12.707  1.00  0.00     0.010 C 
HETATM    8  C17 UNL     1      -2.758   6.532  13.138  1.00  0.00     0.038 C 
HETATM    9  C18 UNL     1      -3.877   6.852  14.142  1.00  0.00     0.058 C 
HETATM   10  C19 UNL     1      -3.752   6.053  15.442  1.00  0.00     0.046 C 
HETATM   11  C20 UNL     1      -7.202   5.282  13.661  1.00  0.00     0.015 C 
HETATM   12  C21 UNL     1      -7.579   3.841  13.994  1.00  0.00     0.013 C 
ENDROOT
BRANCH   1  13
HETATM   13  O4  UNL     1      -8.407   6.435  15.411  1.00  0.00    -0.383 OA
BRANCH  13  14
HETATM   14  C6  UNL     1      -9.048   7.492  14.681  1.00  0.00     0.202 C 
BRANCH  14  15
HETATM   15  C5  UNL     1     -10.376   6.943  14.152  1.00  0.00     0.173 C 
BRANCH  15  16
HETATM   16  C4  UNL     1     -11.021   7.874  13.115  1.00  0.00     0.187 C 
HETATM   17  O2  UNL     1     -12.259   7.282  12.638  1.00  0.00    -0.348 OA
HETATM   18  C3  UNL     1     -13.328   8.209  12.895  1.00  0.00     0.291 C 
HETATM   19  C23 UNL     1     -12.661   9.587  12.853  1.00  0.00     0.204 C 
HETATM   20  C22 UNL     1     -11.349   9.307  13.573  1.00  0.00     0.183 C 
BRANCH  18  21
HETATM   21  O1  UNL     1     -13.909   7.989  14.176  1.00  0.00    -0.359 OA
BRANCH  21  22
HETATM   22  C2  UNL     1     -15.053   8.811  14.393  1.00  0.00     0.166 C 
HETATM   23  C1  UNL     1     -16.133   8.384  13.418  1.00  0.00     0.033 C 
ENDBRANCH  21  22
ENDBRANCH  18  21
BRANCH  19  24
HETATM   24  O9  UNL     1     -12.402   9.996  11.500  1.00  0.00    -0.388 OA
HETATM   25  H42 UNL     1     -12.161   9.202  10.988  1.00  0.00     0.210 HD
ENDBRANCH  19  24
BRANCH  20  26
HETATM   26  O8  UNL     1     -11.511   9.441  14.984  1.00  0.00    -0.390 OA
HETATM   27  H40 UNL     1     -11.960   8.621  15.298  1.00  0.00     0.210 HD
ENDBRANCH  20  26
ENDBRANCH  15  16
BRANCH  15  28
HETATM   28  O3  UNL     1     -11.259   6.717  15.267  1.00  0.00    -0.391 OA
HETATM   29  H9  UNL     1     -10.710   6.241  15.923  1.00  0.00     0.210 HD
ENDBRANCH  15  28
ENDBRANCH  14  15
ENDBRANCH  13  14
ENDBRANCH   1  13
BRANCH   9  30
HETATM   30  O7  UNL     1      -3.650   8.235  14.516  1.00  0.00    -0.390 OA
HETATM   31  H34 UNL     1      -2.780   8.294  14.944  1.00  0.00     0.210 HD
ENDBRANCH   9  30
BRANCH   6  32
HETATM   32  C13 UNL     1      -3.294   3.171  11.127  1.00  0.00     0.079 C 
HETATM   33  C14 UNL     1      -3.851   1.929  11.848  1.00  0.00     0.048 C 
BRANCH  32  34
HETATM   34  O5  UNL     1      -3.840   3.176   9.800  1.00  0.00    -0.388 OA
HETATM   35  H23 UNL     1      -3.595   2.340   9.365  1.00  0.00     0.210 HD
ENDBRANCH  32  34
BRANCH  32  36
HETATM   36  C15 UNL     1      -1.749   3.009  11.031  1.00  0.00     0.201 C 
BRANCH  36  37
HETATM   37  O6  UNL     1      -1.354   2.022  10.089  1.00  0.00    -0.398 OA
HETATM   38  H26 UNL     1      -1.543   2.362   9.197  1.00  0.00     0.209 HD
ENDBRANCH  36  37
ENDBRANCH  32  36
ENDBRANCH   6  32
TORSDOF 14
ENDMDL
MODEL 9
REMARK minimizedAffinity -8.44827652
REMARK  14 active torsions:
REMARK  status: ('A' for Active; 'I' for Inactive)
REMARK    1  A    between atoms: C2_2  and  O1_3 
REMARK    2  A    between atoms: O1_3  and  C3_4 
REMARK    3  A    between atoms: C4_6  and  C5_7 
REMARK    4  A    between atoms: C5_7  and  O3_8 
REMARK    5  A    between atoms: C5_7  and  C6_9 
REMARK    6  A    between atoms: C6_9  and  O4_10 
REMARK    7  A    between atoms: O4_10  and  C7_11 
REMARK    8  A    between atoms: C12_16  and  C13_17 
REMARK    9  A    between atoms: C13_17  and  O5_19 
REMARK   10  A    between atoms: C13_17  and  C15_20 
REMARK   11  A    between atoms: C15_20  and  O6_21 
REMARK   12  A    between atoms: C18_24  and  O7_26 
REMARK   13  A    between atoms: C22_29  and  O8_30 
REMARK   14  A    between atoms: C23_31  and  O9_32 
ROOT
HETATM    1  C7  UNL     1      -1.071   7.866  13.038  1.00  0.00     0.126 C 
HETATM    2  C8  UNL     1      -1.588   7.549  14.431  1.00  0.00     0.040 C 
HETATM    3  C9  UNL     1      -2.487   6.309  14.244  1.00  0.00     0.026 C 
HETATM    4  C10 UNL     1      -1.854   5.543  13.049  1.00  0.00    -0.001 C 
HETATM    5  C11 UNL     1      -2.764   4.909  11.993  1.00  0.00     0.013 C 
HETATM    6  C12 UNL     1      -3.767   3.863  12.537  1.00  0.00     0.022 C 
HETATM    7  C16 UNL     1      -5.043   4.589  13.013  1.00  0.00     0.010 C 
HETATM    8  C17 UNL     1      -4.882   5.396  14.295  1.00  0.00     0.038 C 
HETATM    9  C18 UNL     1      -3.998   6.653  14.252  1.00  0.00     0.058 C 
HETATM   10  C19 UNL     1      -4.452   7.660  13.191  1.00  0.00     0.046 C 
HETATM   11  C20 UNL     1      -0.740   6.478  12.490  1.00  0.00     0.015 C 
HETATM   12  C21 UNL     1      -0.525   6.510  10.980  1.00  0.00     0.013 C 
ENDROOT
BRANCH   1  13
HETATM   13  O4  UNL     1       0.107   8.666  13.070  1.00  0.00    -0.383 OA
BRANCH  13  14
HETATM   14  C6  UNL     1       1.288   7.904  13.366  1.00  0.00     0.202 C 
BRANCH  14  15
HETATM   15  C5  UNL     1       2.377   8.352  12.386  1.00  0.00     0.173 C 
BRANCH  15  16
HETATM   16  C4  UNL     1       3.547   7.359  12.321  1.00  0.00     0.187 C 
HETATM   17  O2  UNL     1       3.170   6.222  11.500  1.00  0.00    -0.348 OA
HETATM   18  C3  UNL     1       4.116   6.111  10.423  1.00  0.00     0.291 C 
HETATM   19  C23 UNL     1       5.413   6.698  10.988  1.00  0.00     0.204 C 
HETATM   20  C22 UNL     1       4.884   7.891  11.773  1.00  0.00     0.183 C 
BRANCH  18  21
HETATM   21  O1  UNL     1       3.698   6.860   9.286  1.00  0.00    -0.359 OA
BRANCH  21  22
HETATM   22  C2  UNL     1       2.397   6.483   8.846  1.00  0.00     0.166 C 
HETATM   23  C1  UNL     1       2.379   6.532   7.330  1.00  0.00     0.033 C 
ENDBRANCH  21  22
ENDBRANCH  18  21
BRANCH  19  24
HETATM   24  O9  UNL     1       6.057   5.771  11.877  1.00  0.00    -0.388 OA
HETATM   25  H42 UNL     1       5.362   5.288  12.360  1.00  0.00     0.210 HD
ENDBRANCH  19  24
BRANCH  20  26
HETATM   26  O8  UNL     1       4.750   9.031  10.927  1.00  0.00    -0.390 OA
HETATM   27  H40 UNL     1       3.926   8.900  10.402  1.00  0.00     0.210 HD
ENDBRANCH  20  26
ENDBRANCH  15  16
BRANCH  15  28
HETATM   28  O3  UNL     1       2.831   9.664  12.769  1.00  0.00    -0.391 OA
HETATM   29  H9  UNL     1       2.010  10.174  12.920  1.00  0.00     0.210 HD
ENDBRANCH  15  28
ENDBRANCH  14  15
ENDBRANCH  13  14
ENDBRANCH   1  13
BRANCH   9  30
HETATM   30  O7  UNL     1      -4.227   7.306  15.526  1.00  0.00    -0.390 OA
HETATM   31  H34 UNL     1      -5.167   7.551  15.577  1.00  0.00     0.210 HD
ENDBRANCH   9  30
BRANCH   6  32
HETATM   32  C13 UNL     1      -4.096   2.761  11.456  1.00  0.00     0.079 C 
HETATM   33  C14 UNL     1      -5.609   2.486  11.359  1.00  0.00     0.048 C 
BRANCH  32  34
HETATM   34  O5  UNL     1      -3.666   3.242  10.174  1.00  0.00    -0.388 OA
HETATM   35  H23 UNL     1      -3.891   2.571   9.505  1.00  0.00     0.210 HD
ENDBRANCH  32  34
BRANCH  32  36
HETATM   36  C15 UNL     1      -3.388   1.406  11.745  1.00  0.00     0.201 C 
BRANCH  36  37
HETATM   37  O6  UNL     1      -2.274   1.171  10.895  1.00  0.00    -0.398 OA
HETATM   38  H26 UNL     1      -1.566   1.789  11.148  1.00  0.00     0.209 HD
ENDBRANCH  36  37
ENDBRANCH  32  36
ENDBRANCH   6  32
TORSDOF 14
ENDMDL
