MODEL 1
REMARK minimizedAffinity -7.92612791
REMARK CNNscore 0.831042707
REMARK CNNaffinity 6.9989562
REMARK  8 active torsions:
REMARK  status: ('A' for Active; 'I' for Inactive)
REMARK    1  A    between atoms: C4_4  and  C5_5 
REMARK    2  A    between atoms: C5_5  and  C6_6 
REMARK    3  A    between atoms: C6_6  and  C7_7 
REMARK    4  A    between atoms: C7_7  and  C9_9 
REMARK    5  A    between atoms: C15_15  and  O1_16 
REMARK    6  A    between atoms: C18_19  and  C20_21 
REMARK    7  A    between atoms: C20_21  and  O3_23 
REMARK    8  A    between atoms: C21_24  and  O4_25 
ROOT
HETATM    1  C9  UNL     1       4.921  56.010  -8.130  1.00  0.00    -0.002 C 
HETATM    2  C10 UNL     1       5.822  55.171  -9.071  1.00  0.00     0.006 C 
HETATM    3  C11 UNL     1       4.907  54.379 -10.021  1.00  0.00     0.011 C 
HETATM    4  C12 UNL     1       3.497  54.962  -9.812  1.00  0.00    -0.030 C 
HETATM    5  C13 UNL     1       3.396  56.208 -10.745  1.00  0.00     0.016 C 
HETATM    6  C14 UNL     1       2.325  53.974 -10.104  1.00  0.00     0.032 C 
HETATM    7  C15 UNL     1       2.088  53.649 -11.594  1.00  0.00     0.124 C 
HETATM    8  C16 UNL     1       0.970  52.612 -11.735  1.00  0.00     0.039 C 
HETATM    9  C17 UNL     1      -0.384  53.214 -11.340  1.00  0.00     0.018 C 
HETATM   10  C18 UNL     1      -1.597  52.218 -11.413  1.00  0.00     0.072 C 
HETATM   11  C19 UNL     1      -1.278  50.806 -10.879  1.00  0.00     0.030 C 
HETATM   12  C21 UNL     1      -2.849  52.796 -10.663  1.00  0.00     0.137 C 
HETATM   13  C22 UNL     1      -2.810  54.323 -10.578  1.00  0.00     0.034 C 
HETATM   14  C23 UNL     1      -1.594  54.822  -9.793  1.00  0.00     0.013 C 
HETATM   15  C24 UNL     1      -0.352  53.954 -10.005  1.00  0.00    -0.026 A 
HETATM   16  C25 UNL     1       0.211  53.282  -8.776  1.00  0.00     0.021 A 
HETATM   17  C26 UNL     1       1.007  54.410  -9.407  1.00  0.00    -0.025 A 
HETATM   18  C27 UNL     1       1.020  55.753  -8.679  1.00  0.00     0.011 C 
HETATM   19  C28 UNL     1       2.300  56.128  -7.917  1.00  0.00     0.011 C 
HETATM   20  C29 UNL     1       3.536  55.290  -8.272  1.00  0.00    -0.032 C 
HETATM   21  C30 UNL     1       3.531  54.022  -7.363  1.00  0.00     0.016 C 
ENDROOT
BRANCH   1  22
HETATM   22  C7  UNL     1       5.551  56.238  -6.720  1.00  0.00    -0.014 C 
HETATM   23  C8  UNL     1       5.475  57.713  -6.292  1.00  0.00     0.010 C 
BRANCH  22  24
HETATM   24  C6  UNL     1       7.051  55.826  -6.666  1.00  0.00     0.008 C 
BRANCH  24  25
HETATM   25  C5  UNL     1       7.907  56.625  -5.678  1.00  0.00     0.028 C 
BRANCH  25  26
HETATM   26  C4  UNL     1       9.235  55.951  -5.448  1.00  0.00    -0.025 C 
HETATM   27  C2  UNL     1      10.399  56.532  -5.100  1.00  0.00    -0.091 C 
HETATM   28  C1  UNL     1      11.650  55.710  -4.930  1.00  0.00     0.042 C 
HETATM   29  C3  UNL     1      10.585  58.000  -4.833  1.00  0.00     0.042 C 
ENDBRANCH  25  26
ENDBRANCH  24  25
ENDBRANCH  22  24
ENDBRANCH   1  22
BRANCH   7  30
HETATM   30  O1  UNL     1       3.272  53.099 -12.171  1.00  0.00    -0.395 OA
HETATM   31  H26 UNL     1       3.095  52.950 -13.113  1.00  0.00     0.210 HD
ENDBRANCH   7  30
BRANCH  10  32
HETATM   32  C20 UNL     1      -1.996  52.121 -12.890  1.00  0.00     0.151 C 
HETATM   33  O2  UNL     1      -1.436  51.455 -13.748  1.00  0.00    -0.649 OA
BRANCH  32  34
HETATM   34  O3  UNL     1      -3.103  52.813 -13.218  1.00  0.00    -0.776 OA
HETATM   35  H33 UNL     1      -3.215  52.648 -14.178  1.00  0.00     0.167 HD
ENDBRANCH  32  34
ENDBRANCH  10  32
BRANCH  12  36
HETATM   36  O4  UNL     1      -2.974  52.302  -9.323  1.00  0.00    -0.394 OA
HETATM   37  H35 UNL     1      -3.341  51.403  -9.364  1.00  0.00     0.210 HD
ENDBRANCH  12  36
TORSDOF 8
ENDMDL
MODEL 2
REMARK minimizedAffinity -7.11721897
REMARK CNNscore 0.626341701
REMARK CNNaffinity 6.96764374
REMARK  8 active torsions:
REMARK  status: ('A' for Active; 'I' for Inactive)
REMARK    1  A    between atoms: C4_4  and  C5_5 
REMARK    2  A    between atoms: C5_5  and  C6_6 
REMARK    3  A    between atoms: C6_6  and  C7_7 
REMARK    4  A    between atoms: C7_7  and  C9_9 
REMARK    5  A    between atoms: C15_15  and  O1_16 
REMARK    6  A    between atoms: C18_19  and  C20_21 
REMARK    7  A    between atoms: C20_21  and  O3_23 
REMARK    8  A    between atoms: C21_24  and  O4_25 
ROOT
HETATM    1  C9  UNL     1       3.741  55.189  -8.388  1.00  0.00    -0.002 C 
HETATM    2  C10 UNL     1       4.651  54.498  -9.435  1.00  0.00     0.006 C 
HETATM    3  C11 UNL     1       3.744  53.792 -10.458  1.00  0.00     0.011 C 
HETATM    4  C12 UNL     1       2.320  54.298 -10.159  1.00  0.00    -0.030 C 
HETATM    5  C13 UNL     1       2.161  55.641 -10.936  1.00  0.00     0.016 C 
HETATM    6  C14 UNL     1       1.175  53.312 -10.549  1.00  0.00     0.032 C 
HETATM    7  C15 UNL     1       0.919  53.157 -12.062  1.00  0.00     0.124 C 
HETATM    8  C16 UNL     1      -0.167  52.106 -12.309  1.00  0.00     0.039 C 
HETATM    9  C17 UNL     1      -1.533  52.610 -11.824  1.00  0.00     0.018 C 
HETATM   10  C18 UNL     1      -2.714  51.590 -11.995  1.00  0.00     0.072 C 
HETATM   11  C19 UNL     1      -2.339  50.136 -11.637  1.00  0.00     0.030 C 
HETATM   12  C21 UNL     1      -3.969  52.031 -11.162  1.00  0.00     0.137 C 
HETATM   13  C22 UNL     1      -3.977  53.538 -10.897  1.00  0.00     0.034 C 
HETATM   14  C23 UNL     1      -2.763  53.982 -10.078  1.00  0.00     0.013 C 
HETATM   15  C24 UNL     1      -1.499  53.189 -10.410  1.00  0.00    -0.026 A 
HETATM   16  C25 UNL     1      -0.890  52.396  -9.279  1.00  0.00     0.021 A 
HETATM   17  C26 UNL     1      -0.143  53.617  -9.784  1.00  0.00    -0.025 A 
HETATM   18  C27 UNL     1      -0.159  54.864  -8.902  1.00  0.00     0.011 C 
HETATM   19  C28 UNL     1       1.123  55.190  -8.121  1.00  0.00     0.011 C 
HETATM   20  C29 UNL     1       2.379  54.443  -8.592  1.00  0.00    -0.032 C 
HETATM   21  C30 UNL     1       2.432  53.077  -7.840  1.00  0.00     0.016 C 
ENDROOT
BRANCH   1  22
HETATM   22  C7  UNL     1       4.392  55.270  -6.971  1.00  0.00    -0.014 C 
HETATM   23  C8  UNL     1       3.501  54.627  -5.895  1.00  0.00     0.010 C 
BRANCH  22  24
HETATM   24  C6  UNL     1       4.659  56.737  -6.523  1.00  0.00     0.008 C 
BRANCH  24  25
HETATM   25  C5  UNL     1       3.561  57.739  -6.899  1.00  0.00     0.028 C 
BRANCH  25  26
HETATM   26  C4  UNL     1       2.526  57.837  -5.810  1.00  0.00    -0.025 C 
HETATM   27  C2  UNL     1       2.650  58.444  -4.614  1.00  0.00    -0.091 C 
HETATM   28  C1  UNL     1       1.517  58.432  -3.622  1.00  0.00     0.042 C 
HETATM   29  C3  UNL     1       3.871  59.188  -4.147  1.00  0.00     0.042 C 
ENDBRANCH  25  26
ENDBRANCH  24  25
ENDBRANCH  22  24
ENDBRANCH   1  22
BRANCH   7  30
HETATM   30  O1  UNL     1       2.108  52.720 -12.719  1.00  0.00    -0.395 OA
HETATM   31  H26 UNL     1       1.917  52.677 -13.670  1.00  0.00     0.210 HD
ENDBRANCH   7  30
BRANCH  10  32
HETATM   32  C20 UNL     1      -3.139  51.654 -13.466  1.00  0.00     0.151 C 
HETATM   33  O2  UNL     1      -3.579  52.633 -14.051  1.00  0.00    -0.649 OA
BRANCH  32  34
HETATM   34  O3  UNL     1      -2.947  50.513 -14.155  1.00  0.00    -0.776 OA
HETATM   35  H33 UNL     1      -3.264  50.720 -15.059  1.00  0.00     0.167 HD
ENDBRANCH  32  34
ENDBRANCH  10  32
BRANCH  12  36
HETATM   36  O4  UNL     1      -4.052  51.379  -9.889  1.00  0.00    -0.394 OA
HETATM   37  H35 UNL     1      -4.391  50.479 -10.030  1.00  0.00     0.210 HD
ENDBRANCH  12  36
TORSDOF 8
ENDMDL
MODEL 3
REMARK minimizedAffinity -8.77047729
REMARK CNNscore 0.524215698
REMARK CNNaffinity 6.60757971
REMARK  8 active torsions:
REMARK  status: ('A' for Active; 'I' for Inactive)
REMARK    1  A    between atoms: C4_4  and  C5_5 
REMARK    2  A    between atoms: C5_5  and  C6_6 
REMARK    3  A    between atoms: C6_6  and  C7_7 
REMARK    4  A    between atoms: C7_7  and  C9_9 
REMARK    5  A    between atoms: C15_15  and  O1_16 
REMARK    6  A    between atoms: C18_19  and  C20_21 
REMARK    7  A    between atoms: C20_21  and  O3_23 
REMARK    8  A    between atoms: C21_24  and  O4_25 
ROOT
HETATM    1  C9  UNL     1      -3.543  50.511 -24.750  1.00  0.00    -0.002 C 
HETATM    2  C10 UNL     1      -4.687  51.533 -24.532  1.00  0.00     0.006 C 
HETATM    3  C11 UNL     1      -5.424  51.150 -23.237  1.00  0.00     0.011 C 
HETATM    4  C12 UNL     1      -4.544  50.078 -22.567  1.00  0.00    -0.030 C 
HETATM    5  C13 UNL     1      -3.471  50.848 -21.737  1.00  0.00     0.016 C 
HETATM    6  C14 UNL     1      -5.311  49.071 -21.654  1.00  0.00     0.032 C 
HETATM    7  C15 UNL     1      -5.820  49.645 -20.316  1.00  0.00     0.124 C 
HETATM    8  C16 UNL     1      -6.621  48.583 -19.557  1.00  0.00     0.039 C 
HETATM    9  C17 UNL     1      -5.704  47.453 -19.071  1.00  0.00     0.018 C 
HETATM   10  C18 UNL     1      -6.435  46.288 -18.312  1.00  0.00     0.072 C 
HETATM   11  C19 UNL     1      -7.776  45.872 -18.951  1.00  0.00     0.030 C 
HETATM   12  C21 UNL     1      -5.504  45.032 -18.173  1.00  0.00     0.137 C 
HETATM   13  C22 UNL     1      -4.023  45.408 -18.244  1.00  0.00     0.034 C 
HETATM   14  C23 UNL     1      -3.657  46.044 -19.587  1.00  0.00     0.013 C 
HETATM   15  C24 UNL     1      -4.778  46.913 -20.159  1.00  0.00    -0.026 A 
HETATM   16  C25 UNL     1      -5.340  46.486 -21.493  1.00  0.00     0.021 A 
HETATM   17  C26 UNL     1      -4.512  47.757 -21.436  1.00  0.00    -0.025 A 
HETATM   18  C27 UNL     1      -3.099  47.700 -22.014  1.00  0.00     0.011 C 
HETATM   19  C28 UNL     1      -2.870  48.368 -23.378  1.00  0.00     0.011 C 
HETATM   20  C29 UNL     1      -3.985  49.321 -23.830  1.00  0.00    -0.032 C 
HETATM   21  C30 UNL     1      -5.061  48.476 -24.579  1.00  0.00     0.016 C 
ENDROOT
BRANCH   1  22
HETATM   22  C7  UNL     1      -3.220  50.265 -26.257  1.00  0.00    -0.014 C 
HETATM   23  C8  UNL     1      -3.780  48.921 -26.750  1.00  0.00     0.010 C 
BRANCH  22  24
HETATM   24  C6  UNL     1      -1.689  50.251 -26.542  1.00  0.00     0.008 C 
BRANCH  24  25
HETATM   25  C5  UNL     1      -1.175  51.430 -27.376  1.00  0.00     0.028 C 
BRANCH  25  26
HETATM   26  C4  UNL     1       0.318  51.350 -27.558  1.00  0.00    -0.025 C 
HETATM   27  C2  UNL     1       1.271  51.695 -26.670  1.00  0.00    -0.091 C 
HETATM   28  C1  UNL     1       2.730  51.573 -27.020  1.00  0.00     0.042 C 
HETATM   29  C3  UNL     1       1.011  52.206 -25.280  1.00  0.00     0.042 C 
ENDBRANCH  25  26
ENDBRANCH  24  25
ENDBRANCH  22  24
ENDBRANCH   1  22
BRANCH   7  30
HETATM   30  O1  UNL     1      -6.682  50.757 -20.554  1.00  0.00    -0.395 OA
HETATM   31  H26 UNL     1      -6.943  51.113 -19.690  1.00  0.00     0.210 HD
ENDBRANCH   7  30
BRANCH  10  32
HETATM   32  C20 UNL     1      -6.689  46.786 -16.885  1.00  0.00     0.151 C 
HETATM   33  O2  UNL     1      -7.780  46.999 -16.376  1.00  0.00    -0.649 OA
BRANCH  32  34
HETATM   34  O3  UNL     1      -5.578  46.948 -16.142  1.00  0.00    -0.776 OA
HETATM   35  H33 UNL     1      -5.911  47.265 -15.276  1.00  0.00     0.167 HD
ENDBRANCH  32  34
ENDBRANCH  10  32
BRANCH  12  36
HETATM   36  O4  UNL     1      -5.739  44.049 -19.189  1.00  0.00    -0.394 OA
HETATM   37  H35 UNL     1      -6.540  43.553 -18.952  1.00  0.00     0.210 HD
ENDBRANCH  12  36
TORSDOF 8
ENDMDL
MODEL 4
REMARK minimizedAffinity -8.35595894
REMARK CNNscore 0.493877858
REMARK CNNaffinity 6.71105146
REMARK  8 active torsions:
REMARK  status: ('A' for Active; 'I' for Inactive)
REMARK    1  A    between atoms: C4_4  and  C5_5 
REMARK    2  A    between atoms: C5_5  and  C6_6 
REMARK    3  A    between atoms: C6_6  and  C7_7 
REMARK    4  A    between atoms: C7_7  and  C9_9 
REMARK    5  A    between atoms: C15_15  and  O1_16 
REMARK    6  A    between atoms: C18_19  and  C20_21 
REMARK    7  A    between atoms: C20_21  and  O3_23 
REMARK    8  A    between atoms: C21_24  and  O4_25 
ROOT
HETATM    1  C9  UNL     1      -2.929  50.051 -24.746  1.00  0.00    -0.002 C 
HETATM    2  C10 UNL     1      -2.078  50.834 -23.714  1.00  0.00     0.006 C 
HETATM    3  C11 UNL     1      -2.617  50.506 -22.310  1.00  0.00     0.011 C 
HETATM    4  C12 UNL     1      -3.594  49.333 -22.511  1.00  0.00    -0.030 C 
HETATM    5  C13 UNL     1      -2.731  48.034 -22.490  1.00  0.00     0.016 C 
HETATM    6  C14 UNL     1      -4.736  49.237 -21.452  1.00  0.00     0.032 C 
HETATM    7  C15 UNL     1      -4.300  48.774 -20.046  1.00  0.00     0.124 C 
HETATM    8  C16 UNL     1      -5.494  48.802 -19.088  1.00  0.00     0.039 C 
HETATM    9  C17 UNL     1      -6.515  47.719 -19.457  1.00  0.00     0.018 C 
HETATM   10  C18 UNL     1      -7.801  47.686 -18.556  1.00  0.00     0.072 C 
HETATM   11  C19 UNL     1      -8.359  49.084 -18.216  1.00  0.00     0.030 C 
HETATM   12  C21 UNL     1      -8.929  46.813 -19.211  1.00  0.00     0.137 C 
HETATM   13  C22 UNL     1      -8.358  45.776 -20.180  1.00  0.00     0.034 C 
HETATM   14  C23 UNL     1      -7.615  46.430 -21.347  1.00  0.00     0.013 C 
HETATM   15  C24 UNL     1      -6.875  47.706 -20.942  1.00  0.00    -0.026 A 
HETATM   16  C25 UNL     1      -7.308  48.977 -21.630  1.00  0.00     0.021 A 
HETATM   17  C26 UNL     1      -5.943  48.406 -21.968  1.00  0.00    -0.025 A 
HETATM   18  C27 UNL     1      -5.785  47.725 -23.327  1.00  0.00     0.011 C 
HETATM   19  C28 UNL     1      -5.028  48.498 -24.417  1.00  0.00     0.011 C 
HETATM   20  C29 UNL     1      -4.209  49.696 -23.915  1.00  0.00    -0.032 C 
HETATM   21  C30 UNL     1      -5.152  50.938 -23.882  1.00  0.00     0.016 C 
ENDROOT
BRANCH   1  22
HETATM   22  C7  UNL     1      -3.057  50.787 -26.117  1.00  0.00    -0.014 C 
HETATM   23  C8  UNL     1      -2.998  49.806 -27.299  1.00  0.00     0.010 C 
BRANCH  22  24
HETATM   24  C6  UNL     1      -1.926  51.834 -26.338  1.00  0.00     0.008 C 
BRANCH  24  25
HETATM   25  C5  UNL     1      -1.139  51.671 -27.643  1.00  0.00     0.028 C 
BRANCH  25  26
HETATM   26  C4  UNL     1       0.282  51.253 -27.366  1.00  0.00    -0.025 C 
HETATM   27  C2  UNL     1       1.110  51.742 -26.423  1.00  0.00    -0.091 C 
HETATM   28  C1  UNL     1       2.518  51.225 -26.291  1.00  0.00     0.042 C 
HETATM   29  C3  UNL     1       0.746  52.802 -25.420  1.00  0.00     0.042 C 
ENDBRANCH  25  26
ENDBRANCH  24  25
ENDBRANCH  22  24
ENDBRANCH   1  22
BRANCH   7  30
HETATM   30  O1  UNL     1      -3.301  49.652 -19.529  1.00  0.00    -0.395 OA
HETATM   31  H26 UNL     1      -3.024  49.302 -18.666  1.00  0.00     0.210 HD
ENDBRANCH   7  30
BRANCH  10  32
HETATM   32  C20 UNL     1      -7.410  46.970 -17.259  1.00  0.00     0.151 C 
HETATM   33  O2  UNL     1      -6.579  46.080 -17.146  1.00  0.00    -0.649 OA
BRANCH  32  34
HETATM   34  O3  UNL     1      -8.031  47.428 -16.157  1.00  0.00    -0.776 OA
HETATM   35  H33 UNL     1      -7.675  46.873 -15.431  1.00  0.00     0.167 HD
ENDBRANCH  32  34
ENDBRANCH  10  32
BRANCH  12  36
HETATM   36  O4  UNL     1      -9.884  47.592 -19.942  1.00  0.00    -0.394 OA
HETATM   37  H35 UNL     1     -10.492  48.002 -19.305  1.00  0.00     0.210 HD
ENDBRANCH  12  36
TORSDOF 8
ENDMDL
MODEL 5
REMARK minimizedAffinity -7.2301178
REMARK CNNscore 0.482101947
REMARK CNNaffinity 6.36675787
REMARK  8 active torsions:
REMARK  status: ('A' for Active; 'I' for Inactive)
REMARK    1  A    between atoms: C4_4  and  C5_5 
REMARK    2  A    between atoms: C5_5  and  C6_6 
REMARK    3  A    between atoms: C6_6  and  C7_7 
REMARK    4  A    between atoms: C7_7  and  C9_9 
REMARK    5  A    between atoms: C15_15  and  O1_16 
REMARK    6  A    between atoms: C18_19  and  C20_21 
REMARK    7  A    between atoms: C20_21  and  O3_23 
REMARK    8  A    between atoms: C21_24  and  O4_25 
ROOT
HETATM    1  C9  UNL     1       2.307  55.849  -6.919  1.00  0.00    -0.002 C 
HETATM    2  C10 UNL     1       1.668  55.282  -5.627  1.00  0.00     0.006 C 
HETATM    3  C11 UNL     1       0.605  54.248  -6.039  1.00  0.00     0.011 C 
HETATM    4  C12 UNL     1       0.819  54.021  -7.547  1.00  0.00    -0.030 C 
HETATM    5  C13 UNL     1       1.933  52.936  -7.673  1.00  0.00     0.016 C 
HETATM    6  C14 UNL     1      -0.454  53.579  -8.334  1.00  0.00     0.032 C 
HETATM    7  C15 UNL     1      -0.928  52.134  -8.073  1.00  0.00     0.124 C 
HETATM    8  C16 UNL     1      -2.224  51.858  -8.840  1.00  0.00     0.039 C 
HETATM    9  C17 UNL     1      -1.966  51.821 -10.351  1.00  0.00     0.018 C 
HETATM   10  C18 UNL     1      -3.242  51.581 -11.235  1.00  0.00     0.072 C 
HETATM   11  C19 UNL     1      -4.486  52.360 -10.758  1.00  0.00     0.030 C 
HETATM   12  C21 UNL     1      -2.957  51.913 -12.743  1.00  0.00     0.137 C 
HETATM   13  C22 UNL     1      -1.469  51.803 -13.081  1.00  0.00     0.034 C 
HETATM   14  C23 UNL     1      -0.624  52.792 -12.275  1.00  0.00     0.013 C 
HETATM   15  C24 UNL     1      -1.155  53.012 -10.858  1.00  0.00    -0.026 A 
HETATM   16  C25 UNL     1      -1.576  54.420 -10.513  1.00  0.00     0.021 A 
HETATM   17  C26 UNL     1      -0.326  53.863  -9.856  1.00  0.00    -0.025 A 
HETATM   18  C27 UNL     1       1.020  54.388 -10.353  1.00  0.00     0.011 C 
HETATM   19  C28 UNL     1       1.761  55.387  -9.452  1.00  0.00     0.011 C 
HETATM   20  C29 UNL     1       1.248  55.465  -8.007  1.00  0.00    -0.032 C 
HETATM   21  C30 UNL     1       0.084  56.503  -7.969  1.00  0.00     0.016 C 
ENDROOT
BRANCH   1  22
HETATM   22  C7  UNL     1       2.783  57.329  -6.769  1.00  0.00    -0.014 C 
HETATM   23  C8  UNL     1       3.447  57.849  -8.054  1.00  0.00     0.010 C 
BRANCH  22  24
HETATM   24  C6  UNL     1       3.817  57.506  -5.618  1.00  0.00     0.008 C 
BRANCH  24  25
HETATM   25  C5  UNL     1       5.270  57.680  -6.074  1.00  0.00     0.028 C 
BRANCH  25  26
HETATM   26  C4  UNL     1       5.666  56.589  -7.035  1.00  0.00    -0.025 C 
HETATM   27  C2  UNL     1       6.813  55.883  -7.045  1.00  0.00    -0.091 C 
HETATM   28  C1  UNL     1       7.064  54.834  -8.095  1.00  0.00     0.042 C 
HETATM   29  C3  UNL     1       7.929  56.036  -6.048  1.00  0.00     0.042 C 
ENDBRANCH  25  26
ENDBRANCH  24  25
ENDBRANCH  22  24
ENDBRANCH   1  22
BRANCH   7  30
HETATM   30  O1  UNL     1      -1.191  51.948  -6.684  1.00  0.00    -0.395 OA
HETATM   31  H26 UNL     1      -1.443  51.019  -6.557  1.00  0.00     0.210 HD
ENDBRANCH   7  30
BRANCH  10  32
HETATM   32  C20 UNL     1      -3.536  50.078 -11.181  1.00  0.00     0.151 C 
HETATM   33  O2  UNL     1      -2.710  49.181 -11.098  1.00  0.00    -0.649 OA
BRANCH  32  34
HETATM   34  O3  UNL     1      -4.845  49.763 -11.181  1.00  0.00    -0.776 OA
HETATM   35  H33 UNL     1      -4.858  48.784 -11.145  1.00  0.00     0.167 HD
ENDBRANCH  32  34
ENDBRANCH  10  32
BRANCH  12  36
HETATM   36  O4  UNL     1      -3.376  53.233 -13.112  1.00  0.00    -0.394 OA
HETATM   37  H35 UNL     1      -4.340  53.222 -13.237  1.00  0.00     0.210 HD
ENDBRANCH  12  36
TORSDOF 8
ENDMDL
MODEL 6
REMARK minimizedAffinity -7.37447596
REMARK CNNscore 0.480578095
REMARK CNNaffinity 6.06788206
REMARK  8 active torsions:
REMARK  status: ('A' for Active; 'I' for Inactive)
REMARK    1  A    between atoms: C4_4  and  C5_5 
REMARK    2  A    between atoms: C5_5  and  C6_6 
REMARK    3  A    between atoms: C6_6  and  C7_7 
REMARK    4  A    between atoms: C7_7  and  C9_9 
REMARK    5  A    between atoms: C15_15  and  O1_16 
REMARK    6  A    between atoms: C18_19  and  C20_21 
REMARK    7  A    between atoms: C20_21  and  O3_23 
REMARK    8  A    between atoms: C21_24  and  O4_25 
ROOT
HETATM    1  C9  UNL     1      -8.095  45.226 -31.003  1.00  0.00    -0.002 C 
HETATM    2  C10 UNL     1      -6.684  45.660 -31.475  1.00  0.00     0.006 C 
HETATM    3  C11 UNL     1      -6.813  46.216 -32.903  1.00  0.00     0.011 C 
HETATM    4  C12 UNL     1      -8.327  46.355 -33.153  1.00  0.00    -0.030 C 
HETATM    5  C13 UNL     1      -8.742  47.741 -32.570  1.00  0.00     0.016 C 
HETATM    6  C14 UNL     1      -8.760  46.249 -34.649  1.00  0.00     0.032 C 
HETATM    7  C15 UNL     1      -8.394  47.459 -35.533  1.00  0.00     0.124 C 
HETATM    8  C16 UNL     1      -8.800  47.193 -36.985  1.00  0.00     0.039 C 
HETATM    9  C17 UNL     1     -10.327  47.169 -37.128  1.00  0.00     0.018 C 
HETATM   10  C18 UNL     1     -10.853  46.865 -38.576  1.00  0.00     0.072 C 
HETATM   11  C19 UNL     1     -10.066  45.754 -39.304  1.00  0.00     0.030 C 
HETATM   12  C21 UNL     1     -12.381  46.506 -38.561  1.00  0.00     0.137 C 
HETATM   13  C22 UNL     1     -13.092  47.091 -37.340  1.00  0.00     0.034 C 
HETATM   14  C23 UNL     1     -12.527  46.540 -36.028  1.00  0.00     0.013 C 
HETATM   15  C24 UNL     1     -11.020  46.289 -36.089  1.00  0.00    -0.026 A 
HETATM   16  C25 UNL     1     -10.571  44.863 -35.880  1.00  0.00     0.021 A 
HETATM   17  C26 UNL     1     -10.262  45.880 -34.795  1.00  0.00    -0.025 A 
HETATM   18  C27 UNL     1     -11.087  45.808 -33.512  1.00  0.00     0.011 C 
HETATM   19  C28 UNL     1     -10.403  45.220 -32.268  1.00  0.00     0.011 C 
HETATM   20  C29 UNL     1      -8.875  45.111 -32.358  1.00  0.00    -0.032 C 
HETATM   21  C30 UNL     1      -8.531  43.743 -33.024  1.00  0.00     0.016 C 
ENDROOT
BRANCH   1  22
HETATM   22  C7  UNL     1      -8.065  44.025 -30.006  1.00  0.00    -0.014 C 
HETATM   23  C8  UNL     1      -9.471  43.454 -29.756  1.00  0.00     0.010 C 
BRANCH  22  24
HETATM   24  C6  UNL     1      -7.480  44.419 -28.618  1.00  0.00     0.008 C 
BRANCH  24  25
HETATM   25  C5  UNL     1      -8.011  45.737 -28.043  1.00  0.00     0.028 C 
BRANCH  25  26
HETATM   26  C4  UNL     1      -8.269  45.612 -26.563  1.00  0.00    -0.025 C 
HETATM   27  C2  UNL     1      -7.782  46.392 -25.579  1.00  0.00    -0.091 C 
HETATM   28  C1  UNL     1      -8.122  46.117 -24.138  1.00  0.00     0.042 C 
HETATM   29  C3  UNL     1      -6.893  47.588 -25.785  1.00  0.00     0.042 C 
ENDBRANCH  25  26
ENDBRANCH  24  25
ENDBRANCH  22  24
ENDBRANCH   1  22
BRANCH   7  30
HETATM   30  O1  UNL     1      -6.984  47.678 -35.505  1.00  0.00    -0.395 OA
HETATM   31  H26 UNL     1      -6.801  48.469 -36.036  1.00  0.00     0.210 HD
ENDBRANCH   7  30
BRANCH  10  32
HETATM   32  C20 UNL     1     -10.732  48.170 -39.370  1.00  0.00     0.151 C 
HETATM   33  O2  UNL     1     -10.650  48.274 -40.585  1.00  0.00    -0.649 OA
BRANCH  32  34
HETATM   34  O3  UNL     1     -10.771  49.287 -38.619  1.00  0.00    -0.776 OA
HETATM   35  H33 UNL     1     -10.683  50.017 -39.268  1.00  0.00     0.167 HD
ENDBRANCH  32  34
ENDBRANCH  10  32
BRANCH  12  36
HETATM   36  O4  UNL     1     -12.622  45.093 -38.552  1.00  0.00    -0.394 OA
HETATM   37  H35 UNL     1     -12.494  44.758 -39.456  1.00  0.00     0.210 HD
ENDBRANCH  12  36
TORSDOF 8
ENDMDL
MODEL 7
REMARK minimizedAffinity -7.17625952
REMARK CNNscore 0.441017479
REMARK CNNaffinity 5.96402788
REMARK  8 active torsions:
REMARK  status: ('A' for Active; 'I' for Inactive)
REMARK    1  A    between atoms: C4_4  and  C5_5 
REMARK    2  A    between atoms: C5_5  and  C6_6 
REMARK    3  A    between atoms: C6_6  and  C7_7 
REMARK    4  A    between atoms: C7_7  and  C9_9 
REMARK    5  A    between atoms: C15_15  and  O1_16 
REMARK    6  A    between atoms: C18_19  and  C20_21 
REMARK    7  A    between atoms: C20_21  and  O3_23 
REMARK    8  A    between atoms: C21_24  and  O4_25 
ROOT
HETATM    1  C9  UNL     1      -7.308  46.201 -29.784  1.00  0.00    -0.002 C 
HETATM    2  C10 UNL     1      -7.098  44.696 -29.477  1.00  0.00     0.006 C 
HETATM    3  C11 UNL     1      -7.526  43.895 -30.719  1.00  0.00     0.011 C 
HETATM    4  C12 UNL     1      -7.725  44.941 -31.832  1.00  0.00    -0.030 C 
HETATM    5  C13 UNL     1      -6.320  45.181 -32.464  1.00  0.00     0.016 C 
HETATM    6  C14 UNL     1      -8.752  44.541 -32.937  1.00  0.00     0.032 C 
HETATM    7  C15 UNL     1      -8.284  43.438 -33.908  1.00  0.00     0.124 C 
HETATM    8  C16 UNL     1      -9.408  43.084 -34.886  1.00  0.00     0.039 C 
HETATM    9  C17 UNL     1      -9.673  44.244 -35.854  1.00  0.00     0.018 C 
HETATM   10  C18 UNL     1     -10.838  43.999 -36.878  1.00  0.00     0.072 C 
HETATM   11  C19 UNL     1     -12.073  43.307 -36.263  1.00  0.00     0.030 C 
HETATM   12  C21 UNL     1     -11.274  45.338 -37.571  1.00  0.00     0.137 C 
HETATM   13  C22 UNL     1     -10.153  46.378 -37.561  1.00  0.00     0.034 C 
HETATM   14  C23 UNL     1      -9.744  46.766 -36.137  1.00  0.00     0.013 C 
HETATM   15  C24 UNL     1      -9.821  45.595 -35.156  1.00  0.00    -0.026 A 
HETATM   16  C25 UNL     1     -10.780  45.752 -34.001  1.00  0.00     0.021 A 
HETATM   17  C26 UNL     1      -9.290  45.778 -33.708  1.00  0.00    -0.025 A 
HETATM   18  C27 UNL     1      -8.664  47.130 -33.373  1.00  0.00     0.011 C 
HETATM   19  C28 UNL     1      -8.313  47.398 -31.901  1.00  0.00     0.011 C 
HETATM   20  C29 UNL     1      -8.293  46.154 -31.002  1.00  0.00    -0.032 C 
HETATM   21  C30 UNL     1      -9.742  45.924 -30.471  1.00  0.00     0.016 C 
ENDROOT
BRANCH   1  22
HETATM   22  C7  UNL     1      -7.660  47.041 -28.516  1.00  0.00    -0.014 C 
HETATM   23  C8  UNL     1      -8.153  48.450 -28.884  1.00  0.00     0.010 C 
BRANCH  22  24
HETATM   24  C6  UNL     1      -6.440  47.219 -27.565  1.00  0.00     0.008 C 
BRANCH  24  25
HETATM   25  C5  UNL     1      -6.774  47.804 -26.188  1.00  0.00     0.028 C 
BRANCH  25  26
HETATM   26  C4  UNL     1      -5.518  48.111 -25.414  1.00  0.00    -0.025 C 
HETATM   27  C2  UNL     1      -4.310  48.442 -25.912  1.00  0.00    -0.091 C 
HETATM   28  C1  UNL     1      -3.143  48.698 -24.995  1.00  0.00     0.042 C 
HETATM   29  C3  UNL     1      -3.994  48.606 -27.373  1.00  0.00     0.042 C 
ENDBRANCH  25  26
ENDBRANCH  24  25
ENDBRANCH  22  24
ENDBRANCH   1  22
BRANCH   7  30
HETATM   30  O1  UNL     1      -7.945  42.256 -33.183  1.00  0.00    -0.395 OA
HETATM   31  H26 UNL     1      -7.616  41.605 -33.824  1.00  0.00     0.210 HD
ENDBRANCH   7  30
BRANCH  10  32
HETATM   32  C20 UNL     1     -10.266  43.113 -37.990  1.00  0.00     0.151 C 
HETATM   33  O2  UNL     1      -9.519  43.472 -38.889  1.00  0.00    -0.649 OA
BRANCH  32  34
HETATM   34  O3  UNL     1     -10.606  41.814 -37.903  1.00  0.00    -0.776 OA
HETATM   35  H33 UNL     1     -10.167  41.397 -38.674  1.00  0.00     0.167 HD
ENDBRANCH  32  34
ENDBRANCH  10  32
BRANCH  12  36
HETATM   36  O4  UNL     1     -12.415  45.942 -36.949  1.00  0.00    -0.394 OA
HETATM   37  H35 UNL     1     -13.209  45.465 -37.243  1.00  0.00     0.210 HD
ENDBRANCH  12  36
TORSDOF 8
ENDMDL
MODEL 8
REMARK minimizedAffinity -7.73260593
REMARK CNNscore 0.436514854
REMARK CNNaffinity 6.08253479
REMARK  8 active torsions:
REMARK  status: ('A' for Active; 'I' for Inactive)
REMARK    1  A    between atoms: C4_4  and  C5_5 
REMARK    2  A    between atoms: C5_5  and  C6_6 
REMARK    3  A    between atoms: C6_6  and  C7_7 
REMARK    4  A    between atoms: C7_7  and  C9_9 
REMARK    5  A    between atoms: C15_15  and  O1_16 
REMARK    6  A    between atoms: C18_19  and  C20_21 
REMARK    7  A    between atoms: C20_21  and  O3_23 
REMARK    8  A    between atoms: C21_24  and  O4_25 
ROOT
HETATM    1  C9  UNL     1     -13.948  45.572 -26.734  1.00  0.00    -0.002 C 
HETATM    2  C10 UNL     1     -13.126  45.108 -25.504  1.00  0.00     0.006 C 
HETATM    3  C11 UNL     1     -11.637  45.335 -25.817  1.00  0.00     0.011 C 
HETATM    4  C12 UNL     1     -11.613  46.176 -27.108  1.00  0.00    -0.030 C 
HETATM    5  C13 UNL     1     -11.753  47.664 -26.664  1.00  0.00     0.016 C 
HETATM    6  C14 UNL     1     -10.339  45.995 -27.990  1.00  0.00     0.032 C 
HETATM    7  C15 UNL     1      -9.048  46.625 -27.427  1.00  0.00     0.124 C 
HETATM    8  C16 UNL     1      -7.862  46.306 -28.342  1.00  0.00     0.039 C 
HETATM    9  C17 UNL     1      -7.996  47.042 -29.682  1.00  0.00     0.018 C 
HETATM   10  C18 UNL     1      -6.847  46.752 -30.714  1.00  0.00     0.072 C 
HETATM   11  C19 UNL     1      -6.419  45.271 -30.770  1.00  0.00     0.030 C 
HETATM   12  C21 UNL     1      -7.241  47.243 -32.152  1.00  0.00     0.137 C 
HETATM   13  C22 UNL     1      -8.293  48.353 -32.109  1.00  0.00     0.034 C 
HETATM   14  C23 UNL     1      -9.598  47.881 -31.464  1.00  0.00     0.013 C 
HETATM   15  C24 UNL     1      -9.373  46.885 -30.325  1.00  0.00    -0.026 A 
HETATM   16  C25 UNL     1      -9.974  45.513 -30.509  1.00  0.00     0.021 A 
HETATM   17  C26 UNL     1     -10.581  46.429 -29.461  1.00  0.00    -0.025 A 
HETATM   18  C27 UNL     1     -11.933  47.064 -29.783  1.00  0.00     0.011 C 
HETATM   19  C28 UNL     1     -13.168  46.486 -29.075  1.00  0.00     0.011 C 
HETATM   20  C29 UNL     1     -12.864  45.591 -27.866  1.00  0.00    -0.032 C 
HETATM   21  C30 UNL     1     -12.654  44.136 -28.389  1.00  0.00     0.016 C 
ENDROOT
BRANCH   1  22
HETATM   22  C7  UNL     1     -15.272  44.768 -26.924  1.00  0.00    -0.014 C 
HETATM   23  C8  UNL     1     -15.779  44.834 -28.374  1.00  0.00     0.010 C 
BRANCH  22  24
HETATM   24  C6  UNL     1     -16.422  45.296 -26.016  1.00  0.00     0.008 C 
BRANCH  24  25
HETATM   25  C5  UNL     1     -16.037  46.456 -25.091  1.00  0.00     0.028 C 
BRANCH  25  26
HETATM   26  C4  UNL     1     -16.699  46.314 -23.745  1.00  0.00    -0.025 C 
HETATM   27  C2  UNL     1     -18.000  46.499 -23.449  1.00  0.00    -0.091 C 
HETATM   28  C1  UNL     1     -18.500  46.337 -22.038  1.00  0.00     0.042 C 
HETATM   29  C3  UNL     1     -19.069  46.859 -24.444  1.00  0.00     0.042 C 
ENDBRANCH  25  26
ENDBRANCH  24  25
ENDBRANCH  22  24
ENDBRANCH   1  22
BRANCH   7  30
HETATM   30  O1  UNL     1      -8.761  46.089 -26.136  1.00  0.00    -0.395 OA
HETATM   31  H26 UNL     1      -7.971  46.541 -25.801  1.00  0.00     0.210 HD
ENDBRANCH   7  30
BRANCH  10  32
HETATM   32  C20 UNL     1      -5.650  47.608 -30.287  1.00  0.00     0.151 C 
HETATM   33  O2  UNL     1      -4.483  47.429 -30.604  1.00  0.00    -0.649 OA
BRANCH  32  34
HETATM   34  O3  UNL     1      -5.966  48.676 -29.531  1.00  0.00    -0.776 OA
HETATM   35  H33 UNL     1      -5.104  49.106 -29.349  1.00  0.00     0.167 HD
ENDBRANCH  32  34
ENDBRANCH  10  32
BRANCH  12  36
HETATM   36  O4  UNL     1      -7.769  46.194 -32.974  1.00  0.00    -0.394 OA
HETATM   37  H35 UNL     1      -7.025  45.659 -33.298  1.00  0.00     0.210 HD
ENDBRANCH  12  36
TORSDOF 8
ENDMDL
MODEL 9
REMARK minimizedAffinity -7.61298466
REMARK CNNscore 0.421179235
REMARK CNNaffinity 6.67833519
REMARK  8 active torsions:
REMARK  status: ('A' for Active; 'I' for Inactive)
REMARK    1  A    between atoms: C4_4  and  C5_5 
REMARK    2  A    between atoms: C5_5  and  C6_6 
REMARK    3  A    between atoms: C6_6  and  C7_7 
REMARK    4  A    between atoms: C7_7  and  C9_9 
REMARK    5  A    between atoms: C15_15  and  O1_16 
REMARK    6  A    between atoms: C18_19  and  C20_21 
REMARK    7  A    between atoms: C20_21  and  O3_23 
REMARK    8  A    between atoms: C21_24  and  O4_25 
ROOT
HETATM    1  C9  UNL     1      -1.676  51.134 -22.778  1.00  0.00    -0.002 C 
HETATM    2  C10 UNL     1      -1.145  52.002 -21.609  1.00  0.00     0.006 C 
HETATM    3  C11 UNL     1      -1.316  51.200 -20.307  1.00  0.00     0.011 C 
HETATM    4  C12 UNL     1      -1.691  49.774 -20.752  1.00  0.00    -0.030 C 
HETATM    5  C13 UNL     1      -0.346  49.036 -21.037  1.00  0.00     0.016 C 
HETATM    6  C14 UNL     1      -2.542  48.964 -19.724  1.00  0.00     0.032 C 
HETATM    7  C15 UNL     1      -1.786  48.489 -18.466  1.00  0.00     0.124 C 
HETATM    8  C16 UNL     1      -2.749  47.783 -17.508  1.00  0.00     0.039 C 
HETATM    9  C17 UNL     1      -3.221  46.447 -18.096  1.00  0.00     0.018 C 
HETATM   10  C18 UNL     1      -4.246  45.657 -17.206  1.00  0.00     0.072 C 
HETATM   11  C19 UNL     1      -5.321  46.551 -16.551  1.00  0.00     0.030 C 
HETATM   12  C21 UNL     1      -4.940  44.511 -18.024  1.00  0.00     0.137 C 
HETATM   13  C22 UNL     1      -4.086  44.059 -19.210  1.00  0.00     0.034 C 
HETATM   14  C23 UNL     1      -3.850  45.192 -20.211  1.00  0.00     0.013 C 
HETATM   15  C24 UNL     1      -3.708  46.559 -19.540  1.00  0.00    -0.026 A 
HETATM   16  C25 UNL     1      -4.735  47.599 -19.917  1.00  0.00     0.021 A 
HETATM   17  C26 UNL     1      -3.307  47.792 -20.396  1.00  0.00    -0.025 A 
HETATM   18  C27 UNL     1      -3.024  47.535 -21.875  1.00  0.00     0.011 C 
HETATM   19  C28 UNL     1      -2.818  48.763 -22.775  1.00  0.00     0.011 C 
HETATM   20  C29 UNL     1      -2.561  50.080 -22.029  1.00  0.00    -0.032 C 
HETATM   21  C30 UNL     1      -3.945  50.722 -21.703  1.00  0.00     0.016 C 
ENDROOT
BRANCH   1  22
HETATM   22  C7  UNL     1      -2.274  51.979 -23.946  1.00  0.00    -0.014 C 
HETATM   23  C8  UNL     1      -3.549  52.724 -23.518  1.00  0.00     0.010 C 
BRANCH  22  24
HETATM   24  C6  UNL     1      -2.649  51.107 -25.180  1.00  0.00     0.008 C 
BRANCH  24  25
HETATM   25  C5  UNL     1      -1.531  50.189 -25.687  1.00  0.00     0.028 C 
BRANCH  25  26
HETATM   26  C4  UNL     1      -0.825  50.803 -26.869  1.00  0.00    -0.025 C 
HETATM   27  C2  UNL     1       0.315  51.519 -26.860  1.00  0.00    -0.091 C 
HETATM   28  C1  UNL     1       0.880  52.085 -28.136  1.00  0.00     0.042 C 
HETATM   29  C3  UNL     1       1.138  51.817 -25.637  1.00  0.00     0.042 C 
ENDBRANCH  25  26
ENDBRANCH  24  25
ENDBRANCH  22  24
ENDBRANCH   1  22
BRANCH   7  30
HETATM   30  O1  UNL     1      -1.225  49.607 -17.779  1.00  0.00    -0.395 OA
HETATM   31  H26 UNL     1      -0.725  49.263 -17.022  1.00  0.00     0.210 HD
ENDBRANCH   7  30
BRANCH  10  32
HETATM   32  C20 UNL     1      -3.431  44.963 -16.110  1.00  0.00     0.151 C 
HETATM   33  O2  UNL     1      -3.843  44.613 -15.014  1.00  0.00    -0.649 OA
BRANCH  32  34
HETATM   34  O3  UNL     1      -2.157  44.690 -16.447  1.00  0.00    -0.776 OA
HETATM   35  H33 UNL     1      -1.784  44.256 -15.651  1.00  0.00     0.167 HD
ENDBRANCH  32  34
ENDBRANCH  10  32
BRANCH  12  36
HETATM   36  O4  UNL     1      -6.218  44.892 -18.546  1.00  0.00    -0.394 OA
HETATM   37  H35 UNL     1      -6.867  44.848 -17.824  1.00  0.00     0.210 HD
ENDBRANCH  12  36
TORSDOF 8
ENDMDL
