MODEL 1
REMARK minimizedAffinity -7.26661634
REMARK CNNscore 0.776841044
REMARK CNNaffinity 7.2132802
REMARK  7 active torsions:
REMARK  status: ('A' for Active; 'I' for Inactive)
REMARK    1  A    between atoms: O1_2  and  C2_3 
REMARK    2  A    between atoms: C19_21  and  C20_22 
REMARK    3  A    between atoms: C20_22  and  C22_24 
REMARK    4  A    between atoms: C22_24  and  C23_25 
REMARK    5  A    between atoms: C23_25  and  C24_26 
REMARK    6  A    between atoms: C25_27  and  C27_29 
REMARK    7  A    between atoms: C27_29  and  O4_31 
ROOT
HETATM    1  C2  UNL     1       1.253  52.456 -10.552  1.00  0.00     0.151 C 
HETATM    2  C3  UNL     1       0.080  51.474 -10.468  1.00  0.00     0.043 C 
HETATM    3  C4  UNL     1      -1.251  52.193 -10.733  1.00  0.00     0.016 C 
HETATM    4  C5  UNL     1      -2.451  51.219 -10.989  1.00  0.00     0.018 C 
HETATM    5  C6  UNL     1      -2.409  49.929 -10.145  1.00  0.00     0.023 C 
HETATM    6  C7  UNL     1      -2.466  50.794 -12.474  1.00  0.00     0.023 C 
HETATM    7  C8  UNL     1      -3.770  51.959 -10.733  1.00  0.00     0.135 C 
HETATM    8  O2  UNL     1      -4.809  51.372 -10.429  1.00  0.00    -0.297 OA
HETATM    9  C9  UNL     1      -3.770  53.450 -10.956  1.00  0.00     0.080 C 
HETATM   10  C10 UNL     1      -2.687  54.178 -10.162  1.00  0.00     0.021 C 
HETATM   11  C11 UNL     1      -1.515  53.293  -9.644  1.00  0.00    -0.015 C 
HETATM   12  C12 UNL     1      -1.905  52.688  -8.273  1.00  0.00     0.020 C 
HETATM   13  C13 UNL     1      -0.245  54.160  -9.416  1.00  0.00    -0.066 C 
HETATM   14  C14 UNL     1       0.987  53.774  -9.852  1.00  0.00    -0.039 C 
HETATM   15  C15 UNL     1       2.182  54.711  -9.653  1.00  0.00    -0.010 C 
HETATM   16  C16 UNL     1       2.178  55.652 -10.902  1.00  0.00     0.021 C 
HETATM   17  C17 UNL     1       3.606  54.132  -9.522  1.00  0.00     0.015 C 
HETATM   18  C18 UNL     1       4.426  55.236  -8.815  1.00  0.00     0.007 C 
HETATM   19  C19 UNL     1       3.406  56.221  -8.199  1.00  0.00    -0.002 C 
HETATM   20  C28 UNL     1       2.061  55.442  -8.260  1.00  0.00    -0.029 C 
HETATM   21  C29 UNL     1       1.936  54.444  -7.072  1.00  0.00     0.016 C 
HETATM   22  C30 UNL     1       0.804  56.313  -8.299  1.00  0.00     0.015 C 
HETATM   23  C31 UNL     1      -0.448  55.478  -8.642  1.00  0.00     0.036 C 
ENDROOT
BRANCH  19  24
HETATM   24  C20 UNL     1       3.833  57.022  -6.936  1.00  0.00    -0.014 C 
HETATM   25  C21 UNL     1       2.891  58.226  -6.749  1.00  0.00     0.010 C 
BRANCH  24  26
HETATM   26  C22 UNL     1       5.304  57.429  -6.686  1.00  0.00     0.008 C 
BRANCH  26  27
HETATM   27  C23 UNL     1       5.959  57.255  -5.312  1.00  0.00     0.028 C 
BRANCH  27  28
HETATM   28  C24 UNL     1       7.107  58.178  -5.023  1.00  0.00    -0.013 C 
HETATM   29  C25 UNL     1       8.421  57.876  -5.058  1.00  0.00     0.008 C 
HETATM   30  C26 UNL     1       9.001  56.527  -5.355  1.00  0.00     0.055 C 
BRANCH  29  31
HETATM   31  C27 UNL     1       9.363  58.983  -4.753  1.00  0.00     0.171 C 
HETATM   32  O3  UNL     1      10.374  59.272  -5.368  1.00  0.00    -0.646 OA
BRANCH  31  33
HETATM   33  O4  UNL     1       8.992  59.687  -3.670  1.00  0.00    -0.773 OA
HETATM   34  H41 UNL     1       9.692  60.366  -3.591  1.00  0.00     0.167 HD
ENDBRANCH  31  33
ENDBRANCH  29  31
ENDBRANCH  27  28
ENDBRANCH  26  27
ENDBRANCH  24  26
ENDBRANCH  19  24
BRANCH   1  35
HETATM   35  O1  UNL     1       1.520  52.746 -11.929  1.00  0.00    -0.386 OA
HETATM   36  C1  UNL     1       2.514  51.903 -12.496  1.00  0.00     0.202 C 
ENDBRANCH   1  35
TORSDOF 7
ENDMDL
MODEL 2
REMARK minimizedAffinity -7.80184603
REMARK CNNscore 0.739576101
REMARK CNNaffinity 6.91206932
REMARK  7 active torsions:
REMARK  status: ('A' for Active; 'I' for Inactive)
REMARK    1  A    between atoms: O1_2  and  C2_3 
REMARK    2  A    between atoms: C19_21  and  C20_22 
REMARK    3  A    between atoms: C20_22  and  C22_24 
REMARK    4  A    between atoms: C22_24  and  C23_25 
REMARK    5  A    between atoms: C23_25  and  C24_26 
REMARK    6  A    between atoms: C25_27  and  C27_29 
REMARK    7  A    between atoms: C27_29  and  O4_31 
ROOT
HETATM    1  C2  UNL     1       2.621  52.712 -10.423  1.00  0.00     0.151 C 
HETATM    2  C3  UNL     1       1.223  52.092 -10.328  1.00  0.00     0.043 C 
HETATM    3  C4  UNL     1       0.139  53.170 -10.471  1.00  0.00     0.016 C 
HETATM    4  C5  UNL     1      -1.297  52.589 -10.714  1.00  0.00     0.018 C 
HETATM    5  C6  UNL     1      -1.585  51.280  -9.953  1.00  0.00     0.023 C 
HETATM    6  C7  UNL     1      -1.489  52.297 -12.219  1.00  0.00     0.023 C 
HETATM    7  C8  UNL     1      -2.342  53.646 -10.337  1.00  0.00     0.135 C 
HETATM    8  O2  UNL     1      -3.491  53.350 -10.008  1.00  0.00    -0.297 OA
HETATM    9  C9  UNL     1      -1.931  55.091 -10.470  1.00  0.00     0.080 C 
HETATM   10  C10 UNL     1      -0.657  55.428  -9.699  1.00  0.00     0.021 C 
HETATM   11  C11 UNL     1       0.238  54.216  -9.304  1.00  0.00    -0.015 C 
HETATM   12  C12 UNL     1      -0.251  53.644  -7.951  1.00  0.00     0.020 C 
HETATM   13  C13 UNL     1       1.709  54.677  -9.100  1.00  0.00    -0.066 C 
HETATM   14  C14 UNL     1       2.764  53.997  -9.630  1.00  0.00    -0.039 C 
HETATM   15  C15 UNL     1       4.182  54.547  -9.447  1.00  0.00    -0.010 C 
HETATM   16  C16 UNL     1       4.392  55.542 -10.634  1.00  0.00     0.021 C 
HETATM   17  C17 UNL     1       5.389  53.588  -9.435  1.00  0.00     0.015 C 
HETATM   18  C18 UNL     1       6.514  54.364  -8.712  1.00  0.00     0.007 C 
HETATM   19  C19 UNL     1       5.837  55.546  -7.980  1.00  0.00    -0.002 C 
HETATM   20  C28 UNL     1       4.326  55.178  -8.007  1.00  0.00    -0.029 C 
HETATM   21  C29 UNL     1       3.973  54.169  -6.876  1.00  0.00     0.016 C 
HETATM   22  C30 UNL     1       3.365  56.364  -7.920  1.00  0.00     0.015 C 
HETATM   23  C31 UNL     1       1.916  55.938  -8.238  1.00  0.00     0.036 C 
ENDROOT
BRANCH  19  24
HETATM   24  C20 UNL     1       6.523  56.100  -6.698  1.00  0.00    -0.014 C 
HETATM   25  C21 UNL     1       6.056  57.547  -6.452  1.00  0.00     0.010 C 
BRANCH  24  26
HETATM   26  C22 UNL     1       8.045  55.965  -6.461  1.00  0.00     0.008 C 
BRANCH  26  27
HETATM   27  C23 UNL     1       8.631  55.889  -5.048  1.00  0.00     0.028 C 
BRANCH  27  28
HETATM   28  C24 UNL     1      10.078  56.269  -4.929  1.00  0.00    -0.013 C 
HETATM   29  C25 UNL     1      10.587  57.515  -4.847  1.00  0.00     0.008 C 
HETATM   30  C26 UNL     1       9.798  58.787  -4.903  1.00  0.00     0.055 C 
BRANCH  29  31
HETATM   31  C27 UNL     1      12.062  57.620  -4.711  1.00  0.00     0.171 C 
HETATM   32  O3  UNL     1      12.700  58.619  -4.428  1.00  0.00    -0.646 OA
BRANCH  31  33
HETATM   33  O4  UNL     1      12.683  56.451  -4.943  1.00  0.00    -0.773 OA
HETATM   34  H41 UNL     1      13.629  56.670  -4.821  1.00  0.00     0.167 HD
ENDBRANCH  31  33
ENDBRANCH  29  31
ENDBRANCH  27  28
ENDBRANCH  26  27
ENDBRANCH  24  26
ENDBRANCH  19  24
BRANCH   1  35
HETATM   35  O1  UNL     1       2.904  53.017 -11.793  1.00  0.00    -0.386 OA
HETATM   36  C1  UNL     1       2.772  51.896 -12.655  1.00  0.00     0.202 C 
ENDBRANCH   1  35
TORSDOF 7
ENDMDL
MODEL 3
REMARK minimizedAffinity -7.75676966
REMARK CNNscore 0.655542433
REMARK CNNaffinity 6.39258051
REMARK  7 active torsions:
REMARK  status: ('A' for Active; 'I' for Inactive)
REMARK    1  A    between atoms: O1_2  and  C2_3 
REMARK    2  A    between atoms: C19_21  and  C20_22 
REMARK    3  A    between atoms: C20_22  and  C22_24 
REMARK    4  A    between atoms: C22_24  and  C23_25 
REMARK    5  A    between atoms: C23_25  and  C24_26 
REMARK    6  A    between atoms: C25_27  and  C27_29 
REMARK    7  A    between atoms: C27_29  and  O4_31 
ROOT
HETATM    1  C2  UNL     1      -9.109  44.747 -30.823  1.00  0.00     0.151 C 
HETATM    2  C3  UNL     1      -8.132  45.465 -31.760  1.00  0.00     0.043 C 
HETATM    3  C4  UNL     1      -7.128  46.306 -30.957  1.00  0.00     0.016 C 
HETATM    4  C5  UNL     1      -5.906  46.803 -31.804  1.00  0.00     0.018 C 
HETATM    5  C6  UNL     1      -6.255  47.172 -33.260  1.00  0.00     0.023 C 
HETATM    6  C7  UNL     1      -4.829  45.698 -31.856  1.00  0.00     0.023 C 
HETATM    7  C8  UNL     1      -5.263  48.009 -31.107  1.00  0.00     0.135 C 
HETATM    8  O2  UNL     1      -4.603  48.850 -31.717  1.00  0.00    -0.297 OA
HETATM    9  C9  UNL     1      -5.396  48.080 -29.606  1.00  0.00     0.080 C 
HETATM   10  C10 UNL     1      -6.843  48.008 -29.126  1.00  0.00     0.021 C 
HETATM   11  C11 UNL     1      -7.868  47.429 -30.145  1.00  0.00    -0.015 C 
HETATM   12  C12 UNL     1      -8.384  48.574 -31.051  1.00  0.00     0.020 C 
HETATM   13  C13 UNL     1      -9.101  46.848 -29.398  1.00  0.00    -0.066 C 
HETATM   14  C14 UNL     1      -9.630  45.630 -29.705  1.00  0.00    -0.039 C 
HETATM   15  C15 UNL     1     -10.803  45.089 -28.881  1.00  0.00    -0.010 C 
HETATM   16  C16 UNL     1     -10.147  44.355 -27.667  1.00  0.00     0.021 C 
HETATM   17  C17 UNL     1     -11.811  44.110 -29.518  1.00  0.00     0.015 C 
HETATM   18  C18 UNL     1     -13.081  44.215 -28.644  1.00  0.00     0.007 C 
HETATM   19  C19 UNL     1     -12.938  45.506 -27.805  1.00  0.00    -0.002 C 
HETATM   20  C28 UNL     1     -11.779  46.271 -28.505  1.00  0.00    -0.029 C 
HETATM   21  C29 UNL     1     -12.290  47.044 -29.756  1.00  0.00     0.016 C 
HETATM   22  C30 UNL     1     -11.008  47.245 -27.613  1.00  0.00     0.015 C 
HETATM   23  C31 UNL     1      -9.717  47.738 -28.300  1.00  0.00     0.036 C 
ENDROOT
BRANCH  19  24
HETATM   24  C20 UNL     1     -14.237  46.228 -27.347  1.00  0.00    -0.014 C 
HETATM   25  C21 UNL     1     -14.009  46.867 -25.965  1.00  0.00     0.010 C 
BRANCH  24  26
HETATM   26  C22 UNL     1     -15.621  45.541 -27.413  1.00  0.00     0.008 C 
BRANCH  26  27
HETATM   27  C23 UNL     1     -16.203  44.796 -26.208  1.00  0.00     0.028 C 
BRANCH  27  28
HETATM   28  C24 UNL     1     -17.351  45.476 -25.522  1.00  0.00    -0.013 C 
HETATM   29  C25 UNL     1     -18.665  45.309 -25.777  1.00  0.00     0.008 C 
HETATM   30  C26 UNL     1     -19.244  44.430 -26.843  1.00  0.00     0.055 C 
BRANCH  29  31
HETATM   31  C27 UNL     1     -19.608  46.088 -24.935  1.00  0.00     0.171 C 
HETATM   32  O3  UNL     1     -20.612  45.671 -24.386  1.00  0.00    -0.646 OA
BRANCH  31  33
HETATM   33  O4  UNL     1     -19.246  47.377 -24.819  1.00  0.00    -0.773 OA
HETATM   34  H41 UNL     1     -19.945  47.758 -24.250  1.00  0.00     0.167 HD
ENDBRANCH  31  33
ENDBRANCH  29  31
ENDBRANCH  27  28
ENDBRANCH  26  27
ENDBRANCH  24  26
ENDBRANCH  19  24
BRANCH   1  35
HETATM   35  O1  UNL     1      -8.442  43.634 -30.218  1.00  0.00    -0.386 OA
HETATM   36  C1  UNL     1      -7.547  42.971 -31.099  1.00  0.00     0.202 C 
ENDBRANCH   1  35
TORSDOF 7
ENDMDL
MODEL 4
REMARK minimizedAffinity -7.23190308
REMARK CNNscore 0.511764109
REMARK CNNaffinity 6.68016052
REMARK  7 active torsions:
REMARK  status: ('A' for Active; 'I' for Inactive)
REMARK    1  A    between atoms: O1_2  and  C2_3 
REMARK    2  A    between atoms: C19_21  and  C20_22 
REMARK    3  A    between atoms: C20_22  and  C22_24 
REMARK    4  A    between atoms: C22_24  and  C23_25 
REMARK    5  A    between atoms: C23_25  and  C24_26 
REMARK    6  A    between atoms: C25_27  and  C27_29 
REMARK    7  A    between atoms: C27_29  and  O4_31 
ROOT
HETATM    1  C2  UNL     1       2.674  52.685 -10.400  1.00  0.00     0.151 C 
HETATM    2  C3  UNL     1       1.306  52.021 -10.215  1.00  0.00     0.043 C 
HETATM    3  C4  UNL     1       0.175  53.043 -10.404  1.00  0.00     0.016 C 
HETATM    4  C5  UNL     1      -1.242  52.392 -10.557  1.00  0.00     0.018 C 
HETATM    5  C6  UNL     1      -1.456  51.134  -9.691  1.00  0.00     0.023 C 
HETATM    6  C7  UNL     1      -1.466  51.979 -12.028  1.00  0.00     0.023 C 
HETATM    7  C8  UNL     1      -2.318  53.434 -10.226  1.00  0.00     0.135 C 
HETATM    8  O2  UNL     1      -3.445  53.120  -9.840  1.00  0.00    -0.297 OA
HETATM    9  C9  UNL     1      -1.970  54.879 -10.480  1.00  0.00     0.080 C 
HETATM   10  C10 UNL     1      -0.689  55.322  -9.777  1.00  0.00     0.021 C 
HETATM   11  C11 UNL     1       0.266  54.178  -9.322  1.00  0.00    -0.015 C 
HETATM   12  C12 UNL     1      -0.161  53.692  -7.915  1.00  0.00     0.020 C 
HETATM   13  C13 UNL     1       1.722  54.708  -9.199  1.00  0.00    -0.066 C 
HETATM   14  C14 UNL     1       2.788  54.030  -9.710  1.00  0.00    -0.039 C 
HETATM   15  C15 UNL     1       4.187  54.646  -9.614  1.00  0.00    -0.010 C 
HETATM   16  C16 UNL     1       4.323  55.555 -10.878  1.00  0.00     0.021 C 
HETATM   17  C17 UNL     1       5.432  53.737  -9.569  1.00  0.00     0.015 C 
HETATM   18  C18 UNL     1       6.545  54.607  -8.942  1.00  0.00     0.007 C 
HETATM   19  C19 UNL     1       5.843  55.815  -8.279  1.00  0.00    -0.002 C 
HETATM   20  C28 UNL     1       4.348  55.390  -8.231  1.00  0.00    -0.029 C 
HETATM   21  C29 UNL     1       4.068  54.457  -7.017  1.00  0.00     0.016 C 
HETATM   22  C30 UNL     1       3.342  56.541  -8.201  1.00  0.00     0.015 C 
HETATM   23  C31 UNL     1       1.903  56.038  -8.441  1.00  0.00     0.036 C 
ENDROOT
BRANCH  19  24
HETATM   24  C20 UNL     1       6.542  56.491  -7.065  1.00  0.00    -0.014 C 
HETATM   25  C21 UNL     1       7.324  55.430  -6.268  1.00  0.00     0.010 C 
BRANCH  24  26
HETATM   26  C22 UNL     1       5.785  57.447  -6.113  1.00  0.00     0.008 C 
BRANCH  26  27
HETATM   27  C23 UNL     1       6.364  57.845  -4.752  1.00  0.00     0.028 C 
BRANCH  27  28
HETATM   28  C24 UNL     1       5.785  59.089  -4.144  1.00  0.00    -0.013 C 
HETATM   29  C25 UNL     1       4.482  59.434  -4.084  1.00  0.00     0.008 C 
HETATM   30  C26 UNL     1       3.343  58.651  -4.662  1.00  0.00     0.055 C 
BRANCH  29  31
HETATM   31  C27 UNL     1       4.167  60.715  -3.403  1.00  0.00     0.171 C 
HETATM   32  O3  UNL     1       3.323  60.896  -2.543  1.00  0.00    -0.646 OA
BRANCH  31  33
HETATM   33  O4  UNL     1       4.932  61.729  -3.840  1.00  0.00    -0.773 OA
HETATM   34  H41 UNL     1       4.618  62.492  -3.314  1.00  0.00     0.167 HD
ENDBRANCH  31  33
ENDBRANCH  29  31
ENDBRANCH  27  28
ENDBRANCH  26  27
ENDBRANCH  24  26
ENDBRANCH  19  24
BRANCH   1  35
HETATM   35  O1  UNL     1       2.904  52.896 -11.798  1.00  0.00    -0.386 OA
HETATM   36  C1  UNL     1       2.863  51.697 -12.559  1.00  0.00     0.202 C 
ENDBRANCH   1  35
TORSDOF 7
ENDMDL
MODEL 5
REMARK minimizedAffinity -7.54156542
REMARK CNNscore 0.480323732
REMARK CNNaffinity 6.02371073
REMARK  7 active torsions:
REMARK  status: ('A' for Active; 'I' for Inactive)
REMARK    1  A    between atoms: O1_2  and  C2_3 
REMARK    2  A    between atoms: C19_21  and  C20_22 
REMARK    3  A    between atoms: C20_22  and  C22_24 
REMARK    4  A    between atoms: C22_24  and  C23_25 
REMARK    5  A    between atoms: C23_25  and  C24_26 
REMARK    6  A    between atoms: C25_27  and  C27_29 
REMARK    7  A    between atoms: C27_29  and  O4_31 
ROOT
HETATM    1  C2  UNL     1      -9.673  47.992 -30.664  1.00  0.00     0.151 C 
HETATM    2  C3  UNL     1      -8.233  48.358 -31.037  1.00  0.00     0.043 C 
HETATM    3  C4  UNL     1      -7.394  47.093 -31.275  1.00  0.00     0.016 C 
HETATM    4  C5  UNL     1      -6.019  47.373 -31.973  1.00  0.00     0.018 C 
HETATM    5  C6  UNL     1      -5.348  48.691 -31.540  1.00  0.00     0.023 C 
HETATM    6  C7  UNL     1      -6.220  47.441 -33.503  1.00  0.00     0.023 C 
HETATM    7  C8  UNL     1      -5.068  46.199 -31.709  1.00  0.00     0.135 C 
HETATM    8  O2  UNL     1      -3.843  46.321 -31.742  1.00  0.00    -0.297 OA
HETATM    9  C9  UNL     1      -5.697  44.846 -31.490  1.00  0.00     0.080 C 
HETATM   10  C10 UNL     1      -6.736  44.839 -30.371  1.00  0.00     0.021 C 
HETATM   11  C11 UNL     1      -7.306  46.231 -29.965  1.00  0.00    -0.015 C 
HETATM   12  C12 UNL     1      -6.380  46.865 -28.899  1.00  0.00     0.020 C 
HETATM   13  C13 UNL     1      -8.708  46.070 -29.315  1.00  0.00    -0.066 C 
HETATM   14  C14 UNL     1      -9.765  46.859 -29.659  1.00  0.00    -0.039 C 
HETATM   15  C15 UNL     1     -11.136  46.598 -29.027  1.00  0.00    -0.010 C 
HETATM   16  C16 UNL     1     -11.809  45.521 -29.938  1.00  0.00     0.021 C 
HETATM   17  C17 UNL     1     -12.144  47.754 -28.863  1.00  0.00     0.015 C 
HETATM   18  C18 UNL     1     -13.117  47.285 -27.756  1.00  0.00     0.007 C 
HETATM   19  C19 UNL     1     -12.433  46.098 -27.038  1.00  0.00    -0.002 C 
HETATM   20  C28 UNL     1     -10.955  46.183 -27.515  1.00  0.00    -0.029 C 
HETATM   21  C29 UNL     1     -10.160  47.241 -26.697  1.00  0.00     0.016 C 
HETATM   22  C30 UNL     1     -10.183  44.863 -27.484  1.00  0.00     0.015 C 
HETATM   23  C31 UNL     1      -8.838  44.980 -28.232  1.00  0.00     0.036 C 
ENDROOT
BRANCH  19  24
HETATM   24  C20 UNL     1     -12.799  45.835 -25.549  1.00  0.00    -0.014 C 
HETATM   25  C21 UNL     1     -12.378  44.406 -25.162  1.00  0.00     0.010 C 
BRANCH  24  26
HETATM   26  C22 UNL     1     -14.198  46.170 -24.980  1.00  0.00     0.008 C 
BRANCH  26  27
HETATM   27  C23 UNL     1     -15.470  45.555 -25.572  1.00  0.00     0.028 C 
BRANCH  27  28
HETATM   28  C24 UNL     1     -16.760  46.057 -24.990  1.00  0.00    -0.013 C 
HETATM   29  C25 UNL     1     -18.002  45.855 -25.475  1.00  0.00     0.008 C 
HETATM   30  C26 UNL     1     -18.341  45.116 -26.733  1.00  0.00     0.055 C 
BRANCH  29  31
HETATM   31  C27 UNL     1     -19.121  46.443 -24.694  1.00  0.00     0.171 C 
HETATM   32  O3  UNL     1     -20.259  46.637 -25.082  1.00  0.00    -0.646 OA
BRANCH  31  33
HETATM   33  O4  UNL     1     -18.756  46.769 -23.443  1.00  0.00    -0.773 OA
HETATM   34  H41 UNL     1     -19.577  47.137 -23.057  1.00  0.00     0.167 HD
ENDBRANCH  31  33
ENDBRANCH  29  31
ENDBRANCH  27  28
ENDBRANCH  26  27
ENDBRANCH  24  26
ENDBRANCH  19  24
BRANCH   1  35
HETATM   35  O1  UNL     1     -10.370  47.578 -31.844  1.00  0.00    -0.386 OA
HETATM   36  C1  UNL     1      -9.659  46.612 -32.605  1.00  0.00     0.202 C 
ENDBRANCH   1  35
TORSDOF 7
ENDMDL
MODEL 6
REMARK minimizedAffinity -8.58265877
REMARK CNNscore 0.428067565
REMARK CNNaffinity 7.13707876
REMARK  7 active torsions:
REMARK  status: ('A' for Active; 'I' for Inactive)
REMARK    1  A    between atoms: O1_2  and  C2_3 
REMARK    2  A    between atoms: C19_21  and  C20_22 
REMARK    3  A    between atoms: C20_22  and  C22_24 
REMARK    4  A    between atoms: C22_24  and  C23_25 
REMARK    5  A    between atoms: C23_25  and  C24_26 
REMARK    6  A    between atoms: C25_27  and  C27_29 
REMARK    7  A    between atoms: C27_29  and  O4_31 
ROOT
HETATM    1  C2  UNL     1      -2.653  50.074 -22.618  1.00  0.00     0.151 C 
HETATM    2  C3  UNL     1      -2.952  50.753 -23.958  1.00  0.00     0.043 C 
HETATM    3  C4  UNL     1      -1.677  50.865 -24.808  1.00  0.00     0.016 C 
HETATM    4  C5  UNL     1      -1.950  51.241 -26.304  1.00  0.00     0.018 C 
HETATM    5  C6  UNL     1      -3.117  52.229 -26.504  1.00  0.00     0.023 C 
HETATM    6  C7  UNL     1      -2.287  49.965 -27.106  1.00  0.00     0.023 C 
HETATM    7  C8  UNL     1      -0.673  51.822 -26.923  1.00  0.00     0.135 C 
HETATM    8  O2  UNL     1      -0.694  52.581 -27.892  1.00  0.00    -0.297 OA
HETATM    9  C9  UNL     1       0.639  51.350 -26.348  1.00  0.00     0.080 C 
HETATM   10  C10 UNL     1       0.743  51.553 -24.839  1.00  0.00     0.021 C 
HETATM   11  C11 UNL     1      -0.606  51.760 -24.088  1.00  0.00    -0.015 C 
HETATM   12  C12 UNL     1      -0.975  53.263 -24.114  1.00  0.00     0.020 C 
HETATM   13  C13 UNL     1      -0.459  51.352 -22.595  1.00  0.00    -0.066 C 
HETATM   14  C14 UNL     1      -1.382  50.575 -21.960  1.00  0.00    -0.039 C 
HETATM   15  C15 UNL     1      -1.138  50.154 -20.507  1.00  0.00    -0.010 C 
HETATM   16  C16 UNL     1      -0.287  48.846 -20.596  1.00  0.00     0.021 C 
HETATM   17  C17 UNL     1      -2.331  49.861 -19.575  1.00  0.00     0.015 C 
HETATM   18  C18 UNL     1      -1.771  50.012 -18.142  1.00  0.00     0.007 C 
HETATM   19  C19 UNL     1      -0.428  50.769 -18.269  1.00  0.00    -0.002 C 
HETATM   20  C28 UNL     1      -0.464  51.341 -19.714  1.00  0.00    -0.029 C 
HETATM   21  C29 UNL     1      -1.301  52.652 -19.779  1.00  0.00     0.016 C 
HETATM   22  C30 UNL     1       0.903  51.606 -20.345  1.00  0.00     0.015 C 
HETATM   23  C31 UNL     1       0.779  51.896 -21.856  1.00  0.00     0.036 C 
ENDROOT
BRANCH  19  24
HETATM   24  C20 UNL     1       0.045  51.625 -17.059  1.00  0.00    -0.014 C 
HETATM   25  C21 UNL     1       1.393  52.290 -17.398  1.00  0.00     0.010 C 
BRANCH  24  26
HETATM   26  C22 UNL     1       0.053  51.068 -15.616  1.00  0.00     0.008 C 
BRANCH  26  27
HETATM   27  C23 UNL     1       1.000  51.625 -14.549  1.00  0.00     0.028 C 
BRANCH  27  28
HETATM   28  C24 UNL     1       2.021  50.658 -14.025  1.00  0.00    -0.013 C 
HETATM   29  C25 UNL     1       3.351  50.682 -14.244  1.00  0.00     0.008 C 
HETATM   30  C26 UNL     1       4.078  51.670 -15.106  1.00  0.00     0.055 C 
BRANCH  29  31
HETATM   31  C27 UNL     1       4.151  49.618 -13.587  1.00  0.00     0.171 C 
HETATM   32  O3  UNL     1       5.239  49.745 -13.054  1.00  0.00    -0.646 OA
BRANCH  31  33
HETATM   33  O4  UNL     1       3.543  48.420 -13.630  1.00  0.00    -0.773 OA
HETATM   34  H41 UNL     1       4.173  47.830 -13.170  1.00  0.00     0.167 HD
ENDBRANCH  31  33
ENDBRANCH  29  31
ENDBRANCH  27  28
ENDBRANCH  26  27
ENDBRANCH  24  26
ENDBRANCH  19  24
BRANCH   1  35
HETATM   35  O1  UNL     1      -2.501  48.666 -22.832  1.00  0.00    -0.386 OA
HETATM   36  C1  UNL     1      -3.600  47.905 -22.351  1.00  0.00     0.202 C 
ENDBRANCH   1  35
TORSDOF 7
ENDMDL
MODEL 7
REMARK minimizedAffinity -8.36941814
REMARK CNNscore 0.412432373
REMARK CNNaffinity 6.99632215
REMARK  7 active torsions:
REMARK  status: ('A' for Active; 'I' for Inactive)
REMARK    1  A    between atoms: O1_2  and  C2_3 
REMARK    2  A    between atoms: C19_21  and  C20_22 
REMARK    3  A    between atoms: C20_22  and  C22_24 
REMARK    4  A    between atoms: C22_24  and  C23_25 
REMARK    5  A    between atoms: C23_25  and  C24_26 
REMARK    6  A    between atoms: C25_27  and  C27_29 
REMARK    7  A    between atoms: C27_29  and  O4_31 
ROOT
HETATM    1  C2  UNL     1       0.753  52.363 -21.774  1.00  0.00     0.151 C 
HETATM    2  C3  UNL     1       0.718  51.956 -23.250  1.00  0.00     0.043 C 
HETATM    3  C4  UNL     1      -0.647  52.286 -23.873  1.00  0.00     0.016 C 
HETATM    4  C5  UNL     1      -0.659  52.208 -25.438  1.00  0.00     0.018 C 
HETATM    5  C6  UNL     1       0.220  51.082 -26.020  1.00  0.00     0.023 C 
HETATM    6  C7  UNL     1      -0.146  53.541 -26.027  1.00  0.00     0.023 C 
HETATM    7  C8  UNL     1      -2.103  52.039 -25.927  1.00  0.00     0.135 C 
HETATM    8  O2  UNL     1      -2.377  51.526 -27.012  1.00  0.00    -0.297 OA
HETATM    9  C9  UNL     1      -3.190  52.617 -25.056  1.00  0.00     0.080 C 
HETATM   10  C10 UNL     1      -3.143  52.106 -23.618  1.00  0.00     0.021 C 
HETATM   11  C11 UNL     1      -1.792  51.479 -23.164  1.00  0.00    -0.015 C 
HETATM   12  C12 UNL     1      -1.779  49.976 -23.539  1.00  0.00     0.020 C 
HETATM   13  C13 UNL     1      -1.651  51.564 -21.618  1.00  0.00    -0.066 C 
HETATM   14  C14 UNL     1      -0.504  51.985 -21.014  1.00  0.00    -0.039 C 
HETATM   15  C15 UNL     1      -0.460  52.110 -19.488  1.00  0.00    -0.010 C 
HETATM   16  C16 UNL     1      -0.996  53.545 -19.178  1.00  0.00     0.021 C 
HETATM   17  C17 UNL     1       0.878  51.950 -18.737  1.00  0.00     0.015 C 
HETATM   18  C18 UNL     1       0.485  51.595 -17.285  1.00  0.00     0.007 C 
HETATM   19  C19 UNL     1      -0.999  51.161 -17.320  1.00  0.00    -0.002 C 
HETATM   20  C28 UNL     1      -1.277  50.930 -18.833  1.00  0.00    -0.029 C 
HETATM   21  C29 UNL     1      -0.773  49.529 -19.289  1.00  0.00     0.016 C 
HETATM   22  C30 UNL     1      -2.738  51.083 -19.258  1.00  0.00     0.015 C 
HETATM   23  C31 UNL     1      -2.876  51.119 -20.794  1.00  0.00     0.036 C 
ENDROOT
BRANCH  19  24
HETATM   24  C20 UNL     1      -1.495  50.165 -16.234  1.00  0.00    -0.014 C 
HETATM   25  C21 UNL     1      -2.613  50.825 -15.404  1.00  0.00     0.010 C 
BRANCH  24  26
HETATM   26  C22 UNL     1      -0.513  49.396 -15.320  1.00  0.00     0.008 C 
BRANCH  26  27
HETATM   27  C23 UNL     1       0.128  50.059 -14.097  1.00  0.00     0.028 C 
BRANCH  27  28
HETATM   28  C24 UNL     1       1.490  49.548 -13.725  1.00  0.00    -0.013 C 
HETATM   29  C25 UNL     1       2.672  50.167 -13.922  1.00  0.00     0.008 C 
HETATM   30  C26 UNL     1       2.864  51.489 -14.602  1.00  0.00     0.055 C 
BRANCH  29  31
HETATM   31  C27 UNL     1       3.881  49.455 -13.438  1.00  0.00     0.171 C 
HETATM   32  O3  UNL     1       5.024  49.604 -13.834  1.00  0.00    -0.646 OA
BRANCH  31  33
HETATM   33  O4  UNL     1       3.600  48.569 -12.468  1.00  0.00    -0.773 OA
HETATM   34  H41 UNL     1       4.474  48.184 -12.253  1.00  0.00     0.167 HD
ENDBRANCH  31  33
ENDBRANCH  29  31
ENDBRANCH  27  28
ENDBRANCH  26  27
ENDBRANCH  24  26
ENDBRANCH  19  24
BRANCH   1  35
HETATM   35  O1  UNL     1       0.897  53.785 -21.686  1.00  0.00    -0.386 OA
HETATM   36  C1  UNL     1       1.597  54.346 -22.788  1.00  0.00     0.202 C 
ENDBRANCH   1  35
TORSDOF 7
ENDMDL
MODEL 8
REMARK minimizedAffinity -8.55413628
REMARK CNNscore 0.390703857
REMARK CNNaffinity 7.02257299
REMARK  7 active torsions:
REMARK  status: ('A' for Active; 'I' for Inactive)
REMARK    1  A    between atoms: O1_2  and  C2_3 
REMARK    2  A    between atoms: C19_21  and  C20_22 
REMARK    3  A    between atoms: C20_22  and  C22_24 
REMARK    4  A    between atoms: C22_24  and  C23_25 
REMARK    5  A    between atoms: C23_25  and  C24_26 
REMARK    6  A    between atoms: C25_27  and  C27_29 
REMARK    7  A    between atoms: C27_29  and  O4_31 
ROOT
HETATM    1  C2  UNL     1      -3.831  49.562 -18.226  1.00  0.00     0.151 C 
HETATM    2  C3  UNL     1      -5.137  48.833 -18.561  1.00  0.00     0.043 C 
HETATM    3  C4  UNL     1      -4.850  47.434 -19.125  1.00  0.00     0.016 C 
HETATM    4  C5  UNL     1      -6.113  46.508 -19.184  1.00  0.00     0.018 C 
HETATM    5  C6  UNL     1      -7.420  47.246 -19.537  1.00  0.00     0.023 C 
HETATM    6  C7  UNL     1      -6.324  45.833 -17.810  1.00  0.00     0.023 C 
HETATM    7  C8  UNL     1      -5.869  45.380 -20.193  1.00  0.00     0.135 C 
HETATM    8  O2  UNL     1      -6.789  44.790 -20.760  1.00  0.00    -0.297 OA
HETATM    9  C9  UNL     1      -4.439  44.950 -20.403  1.00  0.00     0.080 C 
HETATM   10  C10 UNL     1      -3.515  46.102 -20.790  1.00  0.00     0.021 C 
HETATM   11  C11 UNL     1      -4.041  47.531 -20.468  1.00  0.00    -0.015 C 
HETATM   12  C12 UNL     1      -4.910  48.029 -21.649  1.00  0.00     0.020 C 
HETATM   13  C13 UNL     1      -2.852  48.524 -20.325  1.00  0.00    -0.066 C 
HETATM   14  C14 UNL     1      -2.768  49.414 -19.297  1.00  0.00    -0.039 C 
HETATM   15  C15 UNL     1      -1.534  50.314 -19.182  1.00  0.00    -0.010 C 
HETATM   16  C16 UNL     1      -0.490  49.478 -18.373  1.00  0.00     0.021 C 
HETATM   17  C17 UNL     1      -1.642  51.693 -18.499  1.00  0.00     0.015 C 
HETATM   18  C18 UNL     1      -0.437  52.502 -19.030  1.00  0.00     0.007 C 
HETATM   19  C19 UNL     1       0.086  51.752 -20.278  1.00  0.00    -0.002 C 
HETATM   20  C28 UNL     1      -1.065  50.763 -20.620  1.00  0.00    -0.029 C 
HETATM   21  C29 UNL     1      -2.196  51.473 -21.421  1.00  0.00     0.016 C 
HETATM   22  C30 UNL     1      -0.642  49.509 -21.385  1.00  0.00     0.015 C 
HETATM   23  C31 UNL     1      -1.778  48.466 -21.430  1.00  0.00     0.036 C 
ENDROOT
BRANCH  19  24
HETATM   24  C20 UNL     1       0.810  52.579 -21.378  1.00  0.00    -0.014 C 
HETATM   25  C21 UNL     1       1.483  53.807 -20.737  1.00  0.00     0.010 C 
BRANCH  24  26
HETATM   26  C22 UNL     1       0.113  52.964 -22.704  1.00  0.00     0.008 C 
BRANCH  26  27
HETATM   27  C23 UNL     1       0.337  52.159 -23.988  1.00  0.00     0.028 C 
BRANCH  27  28
HETATM   28  C24 UNL     1      -0.230  52.767 -25.238  1.00  0.00    -0.013 C 
HETATM   29  C25 UNL     1       0.101  52.468 -26.510  1.00  0.00     0.008 C 
HETATM   30  C26 UNL     1       1.149  51.483 -26.932  1.00  0.00     0.055 C 
BRANCH  29  31
HETATM   31  C27 UNL     1      -0.629  53.201 -27.575  1.00  0.00     0.171 C 
HETATM   32  O3  UNL     1      -0.160  53.649 -28.606  1.00  0.00    -0.646 OA
BRANCH  31  33
HETATM   33  O4  UNL     1      -1.935  53.346 -27.293  1.00  0.00    -0.773 OA
HETATM   34  H41 UNL     1      -2.279  53.838 -28.066  1.00  0.00     0.167 HD
ENDBRANCH  31  33
ENDBRANCH  29  31
ENDBRANCH  27  28
ENDBRANCH  26  27
ENDBRANCH  24  26
ENDBRANCH  19  24
BRANCH   1  35
HETATM   35  O1  UNL     1      -3.296  49.025 -17.011  1.00  0.00    -0.386 OA
HETATM   36  C1  UNL     1      -3.227  47.606 -17.008  1.00  0.00     0.202 C 
ENDBRANCH   1  35
TORSDOF 7
ENDMDL
MODEL 9
REMARK minimizedAffinity -7.30208302
REMARK CNNscore 0.360475421
REMARK CNNaffinity 5.98600626
REMARK  7 active torsions:
REMARK  status: ('A' for Active; 'I' for Inactive)
REMARK    1  A    between atoms: O1_2  and  C2_3 
REMARK    2  A    between atoms: C19_21  and  C20_22 
REMARK    3  A    between atoms: C20_22  and  C22_24 
REMARK    4  A    between atoms: C22_24  and  C23_25 
REMARK    5  A    between atoms: C23_25  and  C24_26 
REMARK    6  A    between atoms: C25_27  and  C27_29 
REMARK    7  A    between atoms: C27_29  and  O4_31 
ROOT
HETATM    1  C2  UNL     1     -11.442  46.022 -30.734  1.00  0.00     0.151 C 
HETATM    2  C3  UNL     1     -10.392  46.715 -31.607  1.00  0.00     0.043 C 
HETATM    3  C4  UNL     1      -8.979  46.468 -31.059  1.00  0.00     0.016 C 
HETATM    4  C5  UNL     1      -7.839  46.857 -32.061  1.00  0.00     0.018 C 
HETATM    5  C6  UNL     1      -8.144  48.107 -32.910  1.00  0.00     0.023 C 
HETATM    6  C7  UNL     1      -7.587  45.688 -33.038  1.00  0.00     0.023 C 
HETATM    7  C8  UNL     1      -6.532  47.068 -31.285  1.00  0.00     0.135 C 
HETATM    8  O2  UNL     1      -5.620  47.778 -31.710  1.00  0.00    -0.297 OA
HETATM    9  C9  UNL     1      -6.365  46.290 -30.004  1.00  0.00     0.080 C 
HETATM   10  C10 UNL     1      -7.510  46.505 -29.017  1.00  0.00     0.021 C 
HETATM   11  C11 UNL     1      -8.828  47.076 -29.619  1.00  0.00    -0.015 C 
HETATM   12  C12 UNL     1      -8.749  48.622 -29.633  1.00  0.00     0.020 C 
HETATM   13  C13 UNL     1     -10.040  46.689 -28.726  1.00  0.00    -0.066 C 
HETATM   14  C14 UNL     1     -11.199  46.197 -29.247  1.00  0.00    -0.039 C 
HETATM   15  C15 UNL     1     -12.327  45.771 -28.302  1.00  0.00    -0.010 C 
HETATM   16  C16 UNL     1     -12.014  44.285 -27.932  1.00  0.00     0.021 C 
HETATM   17  C17 UNL     1     -13.795  45.825 -28.775  1.00  0.00     0.015 C 
HETATM   18  C18 UNL     1     -14.635  45.868 -27.478  1.00  0.00     0.007 C 
HETATM   19  C19 UNL     1     -13.665  46.248 -26.334  1.00  0.00    -0.002 C 
HETATM   20  C28 UNL     1     -12.403  46.766 -27.080  1.00  0.00    -0.029 C 
HETATM   21  C29 UNL     1     -12.583  48.247 -27.526  1.00  0.00     0.016 C 
HETATM   22  C30 UNL     1     -11.091  46.649 -26.302  1.00  0.00     0.015 C 
HETATM   23  C31 UNL     1      -9.873  46.916 -27.210  1.00  0.00     0.036 C 
ENDROOT
BRANCH  19  24
HETATM   24  C20 UNL     1     -14.248  46.988 -25.097  1.00  0.00    -0.014 C 
HETATM   25  C21 UNL     1     -13.370  46.699 -23.865  1.00  0.00     0.010 C 
BRANCH  24  26
HETATM   26  C22 UNL     1     -15.750  46.914 -24.732  1.00  0.00     0.008 C 
BRANCH  26  27
HETATM   27  C23 UNL     1     -16.360  45.653 -24.111  1.00  0.00     0.028 C 
BRANCH  27  28
HETATM   28  C24 UNL     1     -17.059  45.854 -22.799  1.00  0.00    -0.013 C 
HETATM   29  C25 UNL     1     -18.385  45.996 -22.597  1.00  0.00     0.008 C 
HETATM   30  C26 UNL     1     -19.434  46.025 -23.667  1.00  0.00     0.055 C 
BRANCH  29  31
HETATM   31  C27 UNL     1     -18.827  46.159 -21.189  1.00  0.00     0.171 C 
HETATM   32  O3  UNL     1     -18.530  47.065 -20.431  1.00  0.00    -0.646 OA
BRANCH  31  33
HETATM   33  O4  UNL     1     -19.631  45.161 -20.786  1.00  0.00    -0.773 OA
HETATM   34  H41 UNL     1     -19.837  45.397 -19.858  1.00  0.00     0.167 HD
ENDBRANCH  31  33
ENDBRANCH  29  31
ENDBRANCH  27  28
ENDBRANCH  26  27
ENDBRANCH  24  26
ENDBRANCH  19  24
BRANCH   1  35
HETATM   35  O1  UNL     1     -11.426  44.617 -31.011  1.00  0.00    -0.386 OA
HETATM   36  C1  UNL     1     -10.119  44.061 -31.006  1.00  0.00     0.202 C 
ENDBRANCH   1  35
TORSDOF 7
ENDMDL
