MODEL 1
REMARK minimizedAffinity -9.7993021
REMARK  6 active torsions:
REMARK  status: ('A' for Active; 'I' for Inactive)
REMARK    1  A    between atoms: C2_2  and  C4_4 
REMARK    2  A    between atoms: C11_11  and  C12_12 
REMARK    3  A    between atoms: C12_12  and  O2_14 
REMARK    4  A    between atoms: C21_23  and  O3_24 
REMARK    5  A    between atoms: C22_25  and  C24_27 
REMARK    6  A    between atoms: C24_27  and  O4_28 
ROOT
HETATM    1  C4  UNL     1      -7.331  46.887 -23.769  1.00  0.00     0.018 C 
HETATM    2  C5  UNL     1      -8.332  46.506 -22.642  1.00  0.00     0.010 C 
HETATM    3  C6  UNL     1      -7.967  47.360 -21.415  1.00  0.00     0.010 C 
HETATM    4  C7  UNL     1      -6.507  47.766 -21.657  1.00  0.00    -0.039 C 
HETATM    5  C8  UNL     1      -5.598  46.573 -21.262  1.00  0.00     0.015 C 
HETATM    6  C9  UNL     1      -6.062  49.023 -20.903  1.00  0.00     0.011 C 
HETATM    7  C10 UNL     1      -4.715  49.564 -21.434  1.00  0.00     0.022 C 
HETATM    8  C11 UNL     1      -4.659  49.790 -22.997  1.00  0.00     0.057 C 
HETATM    9  C13 UNL     1      -5.164  48.469 -23.702  1.00  0.00     0.011 C 
HETATM   10  C14 UNL     1      -5.036  48.493 -25.225  1.00  0.00     0.007 C 
HETATM   11  C15 UNL     1      -3.632  48.871 -25.688  1.00  0.00     0.006 C 
HETATM   12  C16 UNL     1      -3.111  50.191 -25.074  1.00  0.00     0.003 C 
HETATM   13  C17 UNL     1      -1.739  50.714 -25.740  1.00  0.00    -0.035 C 
HETATM   14  C18 UNL     1      -0.818  49.520 -26.103  1.00  0.00     0.016 C 
HETATM   15  C19 UNL     1      -2.149  51.407 -27.081  1.00  0.00     0.012 C 
HETATM   16  C20 UNL     1      -1.051  52.220 -27.748  1.00  0.00     0.033 C 
HETATM   17  C21 UNL     1      -0.544  53.304 -26.808  1.00  0.00     0.128 C 
HETATM   18  C22 UNL     1       0.056  52.731 -25.501  1.00  0.00     0.007 C 
HETATM   19  C23 UNL     1       1.393  51.984 -25.783  1.00  0.00     0.020 C 
HETATM   20  C25 UNL     1      -0.988  51.748 -24.795  1.00  0.00     0.007 C 
HETATM   21  C26 UNL     1      -2.042  52.480 -23.943  1.00  0.00     0.007 C 
HETATM   22  C27 UNL     1      -2.739  51.556 -22.944  1.00  0.00     0.011 C 
HETATM   23  C28 UNL     1      -3.167  50.166 -23.500  1.00  0.00    -0.022 C 
HETATM   24  C29 UNL     1      -2.144  49.127 -22.953  1.00  0.00     0.017 C 
HETATM   25  C30 UNL     1      -6.566  48.090 -23.173  1.00  0.00     0.007 C 
ENDROOT
BRANCH   8  26
HETATM   26  C12 UNL     1      -5.632  50.979 -23.255  1.00  0.00     0.149 C 
HETATM   27  O1  UNL     1      -5.352  52.041 -23.793  1.00  0.00    -0.649 OA
BRANCH  26  28
HETATM   28  O2  UNL     1      -6.897  50.800 -22.859  1.00  0.00    -0.776 OA
HETATM   29  H18 UNL     1      -7.345  51.633 -23.114  1.00  0.00     0.167 HD
ENDBRANCH  26  28
ENDBRANCH   8  26
BRANCH   1  30
HETATM   30  C2  UNL     1      -8.063  47.044 -25.094  1.00  0.00    -0.089 C 
HETATM   31  C1  UNL     1      -8.056  46.142 -26.090  1.00  0.00     0.014 C 
HETATM   32  C3  UNL     1      -8.820  48.336 -25.252  1.00  0.00     0.043 C 
ENDBRANCH   1  30
BRANCH  18  33
HETATM   33  C24 UNL     1       0.493  53.907 -24.569  1.00  0.00     0.176 C 
BRANCH  33  34
HETATM   34  O4  UNL     1       0.235  55.185 -25.146  1.00  0.00    -0.400 OA
HETATM   35  H39 UNL     1       0.402  55.846 -24.450  1.00  0.00     0.209 HD
ENDBRANCH  33  34
ENDBRANCH  18  33
BRANCH  17  36
HETATM   36  O3  UNL     1       0.421  54.086 -27.514  1.00  0.00    -0.395 OA
HETATM   37  H33 UNL     1       0.423  54.960 -27.084  1.00  0.00     0.210 HD
ENDBRANCH  17  36
TORSDOF 6
ENDMDL
MODEL 2
REMARK minimizedAffinity -9.72487354
REMARK  6 active torsions:
REMARK  status: ('A' for Active; 'I' for Inactive)
REMARK    1  A    between atoms: C2_2  and  C4_4 
REMARK    2  A    between atoms: C11_11  and  C12_12 
REMARK    3  A    between atoms: C12_12  and  O2_14 
REMARK    4  A    between atoms: C21_23  and  O3_24 
REMARK    5  A    between atoms: C22_25  and  C24_27 
REMARK    6  A    between atoms: C24_27  and  O4_28 
ROOT
HETATM    1  C4  UNL     1      -6.141  47.436 -26.536  1.00  0.00     0.018 C 
HETATM    2  C5  UNL     1      -7.582  47.212 -27.076  1.00  0.00     0.010 C 
HETATM    3  C6  UNL     1      -8.547  47.621 -25.949  1.00  0.00     0.010 C 
HETATM    4  C7  UNL     1      -7.700  47.531 -24.674  1.00  0.00    -0.039 C 
HETATM    5  C8  UNL     1      -7.621  46.042 -24.245  1.00  0.00     0.015 C 
HETATM    6  C9  UNL     1      -8.217  48.375 -23.505  1.00  0.00     0.011 C 
HETATM    7  C10 UNL     1      -7.163  48.506 -22.381  1.00  0.00     0.022 C 
HETATM    8  C11 UNL     1      -5.742  49.005 -22.858  1.00  0.00     0.057 C 
HETATM    9  C13 UNL     1      -5.294  48.114 -24.082  1.00  0.00     0.011 C 
HETATM   10  C14 UNL     1      -3.871  48.395 -24.565  1.00  0.00     0.007 C 
HETATM   11  C15 UNL     1      -2.849  48.343 -23.432  1.00  0.00     0.006 C 
HETATM   12  C16 UNL     1      -3.208  49.247 -22.230  1.00  0.00     0.003 C 
HETATM   13  C17 UNL     1      -2.022  49.380 -21.146  1.00  0.00    -0.035 C 
HETATM   14  C18 UNL     1      -1.258  48.037 -21.006  1.00  0.00     0.016 C 
HETATM   15  C19 UNL     1      -1.017  50.425 -21.733  1.00  0.00     0.012 C 
HETATM   16  C20 UNL     1       0.041  50.919 -20.760  1.00  0.00     0.033 C 
HETATM   17  C21 UNL     1      -0.611  51.547 -19.537  1.00  0.00     0.128 C 
HETATM   18  C22 UNL     1      -1.504  50.551 -18.757  1.00  0.00     0.007 C 
HETATM   19  C23 UNL     1      -0.643  49.456 -18.062  1.00  0.00     0.020 C 
HETATM   20  C25 UNL     1      -2.569  49.875 -19.739  1.00  0.00     0.007 C 
HETATM   21  C26 UNL     1      -3.818  50.743 -19.983  1.00  0.00     0.007 C 
HETATM   22  C27 UNL     1      -4.995  49.941 -20.538  1.00  0.00     0.011 C 
HETATM   23  C28 UNL     1      -4.645  48.929 -21.669  1.00  0.00    -0.022 C 
HETATM   24  C29 UNL     1      -4.657  47.512 -21.025  1.00  0.00     0.017 C 
HETATM   25  C30 UNL     1      -6.374  48.151 -25.187  1.00  0.00     0.007 C 
ENDROOT
BRANCH   8  26
HETATM   26  C12 UNL     1      -5.971  50.486 -23.286  1.00  0.00     0.149 C 
HETATM   27  O1  UNL     1      -5.226  51.164 -23.980  1.00  0.00    -0.649 OA
BRANCH  26  28
HETATM   28  O2  UNL     1      -7.106  51.052 -22.859  1.00  0.00    -0.776 OA
HETATM   29  H18 UNL     1      -7.074  51.956 -23.234  1.00  0.00     0.167 HD
ENDBRANCH  26  28
ENDBRANCH   8  26
BRANCH   1  30
HETATM   30  C2  UNL     1      -5.277  48.100 -27.600  1.00  0.00    -0.089 C 
HETATM   31  C1  UNL     1      -5.579  48.166 -28.907  1.00  0.00     0.014 C 
HETATM   32  C3  UNL     1      -3.990  48.693 -27.092  1.00  0.00     0.043 C 
ENDBRANCH   1  30
BRANCH  18  33
HETATM   33  C24 UNL     1      -2.182  51.289 -17.558  1.00  0.00     0.176 C 
BRANCH  33  34
HETATM   34  O4  UNL     1      -2.705  50.386 -16.588  1.00  0.00    -0.400 OA
HETATM   35  H39 UNL     1      -2.976  50.923 -15.821  1.00  0.00     0.209 HD
ENDBRANCH  33  34
ENDBRANCH  18  33
BRANCH  17  36
HETATM   36  O3  UNL     1       0.425  52.066 -18.702  1.00  0.00    -0.395 OA
HETATM   37  H33 UNL     1       0.016  52.779 -18.180  1.00  0.00     0.210 HD
ENDBRANCH  17  36
TORSDOF 6
ENDMDL
MODEL 3
REMARK minimizedAffinity -9.48068237
REMARK  6 active torsions:
REMARK  status: ('A' for Active; 'I' for Inactive)
REMARK    1  A    between atoms: C2_2  and  C4_4 
REMARK    2  A    between atoms: C11_11  and  C12_12 
REMARK    3  A    between atoms: C12_12  and  O2_14 
REMARK    4  A    between atoms: C21_23  and  O3_24 
REMARK    5  A    between atoms: C22_25  and  C24_27 
REMARK    6  A    between atoms: C24_27  and  O4_28 
ROOT
HETATM    1  C4  UNL     1      -1.777  49.433 -17.170  1.00  0.00     0.018 C 
HETATM    2  C5  UNL     1      -2.286  48.463 -16.067  1.00  0.00     0.010 C 
HETATM    3  C6  UNL     1      -3.183  47.426 -16.766  1.00  0.00     0.010 C 
HETATM    4  C7  UNL     1      -3.607  48.113 -18.071  1.00  0.00    -0.039 C 
HETATM    5  C8  UNL     1      -4.765  49.094 -17.751  1.00  0.00     0.015 C 
HETATM    6  C9  UNL     1      -4.040  47.152 -19.184  1.00  0.00     0.011 C 
HETATM    7  C10 UNL     1      -4.133  47.866 -20.553  1.00  0.00     0.022 C 
HETATM    8  C11 UNL     1      -2.841  48.674 -20.971  1.00  0.00     0.057 C 
HETATM    9  C13 UNL     1      -2.438  49.611 -19.765  1.00  0.00     0.011 C 
HETATM   10  C14 UNL     1      -1.278  50.557 -20.077  1.00  0.00     0.007 C 
HETATM   11  C15 UNL     1      -1.507  51.359 -21.355  1.00  0.00     0.006 C 
HETATM   12  C16 UNL     1      -1.846  50.484 -22.584  1.00  0.00     0.003 C 
HETATM   13  C17 UNL     1      -1.850  51.300 -23.975  1.00  0.00    -0.035 C 
HETATM   14  C18 UNL     1      -2.408  52.732 -23.766  1.00  0.00     0.016 C 
HETATM   15  C19 UNL     1      -0.349  51.445 -24.393  1.00  0.00     0.012 C 
HETATM   16  C20 UNL     1      -0.121  51.938 -25.812  1.00  0.00     0.033 C 
HETATM   17  C21 UNL     1      -0.788  51.007 -26.814  1.00  0.00     0.128 C 
HETATM   18  C22 UNL     1      -2.320  50.914 -26.616  1.00  0.00     0.007 C 
HETATM   19  C23 UNL     1      -3.015  52.253 -27.001  1.00  0.00     0.020 C 
HETATM   20  C25 UNL     1      -2.662  50.530 -25.102  1.00  0.00     0.007 C 
HETATM   21  C26 UNL     1      -2.572  49.018 -24.817  1.00  0.00     0.007 C 
HETATM   22  C27 UNL     1      -3.306  48.615 -23.538  1.00  0.00     0.011 C 
HETATM   23  C28 UNL     1      -3.083  49.548 -22.311  1.00  0.00    -0.022 C 
HETATM   24  C29 UNL     1      -4.372  50.409 -22.160  1.00  0.00     0.017 C 
HETATM   25  C30 UNL     1      -2.263  48.772 -18.478  1.00  0.00     0.007 C 
ENDROOT
BRANCH   8  26
HETATM   26  C12 UNL     1      -1.761  47.580 -21.227  1.00  0.00     0.149 C 
HETATM   27  O1  UNL     1      -0.566  47.670 -20.985  1.00  0.00    -0.649 OA
BRANCH  26  28
HETATM   28  O2  UNL     1      -2.203  46.429 -21.747  1.00  0.00    -0.776 OA
HETATM   29  H18 UNL     1      -1.396  45.878 -21.820  1.00  0.00     0.167 HD
ENDBRANCH  26  28
ENDBRANCH   8  26
BRANCH   1  30
HETATM   30  C2  UNL     1      -0.294  49.718 -16.978  1.00  0.00    -0.089 C 
HETATM   31  C1  UNL     1       0.367  50.760 -17.512  1.00  0.00     0.014 C 
HETATM   32  C3  UNL     1       0.441  48.713 -16.131  1.00  0.00     0.043 C 
ENDBRANCH   1  30
BRANCH  18  33
HETATM   33  C24 UNL     1      -2.916  49.894 -27.639  1.00  0.00     0.176 C 
BRANCH  33  34
HETATM   34  O4  UNL     1      -3.396  50.526 -28.823  1.00  0.00    -0.400 OA
HETATM   35  H39 UNL     1      -3.613  49.816 -29.453  1.00  0.00     0.209 HD
ENDBRANCH  33  34
ENDBRANCH  18  33
BRANCH  17  36
HETATM   36  O3  UNL     1      -0.469  51.471 -28.127  1.00  0.00    -0.395 OA
HETATM   37  H33 UNL     1      -0.538  50.693 -28.709  1.00  0.00     0.210 HD
ENDBRANCH  17  36
TORSDOF 6
ENDMDL
MODEL 4
REMARK minimizedAffinity -9.44392967
REMARK  6 active torsions:
REMARK  status: ('A' for Active; 'I' for Inactive)
REMARK    1  A    between atoms: C2_2  and  C4_4 
REMARK    2  A    between atoms: C11_11  and  C12_12 
REMARK    3  A    between atoms: C12_12  and  O2_14 
REMARK    4  A    between atoms: C21_23  and  O3_24 
REMARK    5  A    between atoms: C22_25  and  C24_27 
REMARK    6  A    between atoms: C24_27  and  O4_28 
ROOT
HETATM    1  C4  UNL     1       0.345  52.539 -23.286  1.00  0.00     0.018 C 
HETATM    2  C5  UNL     1       0.827  53.609 -24.306  1.00  0.00     0.010 C 
HETATM    3  C6  UNL     1      -0.221  53.653 -25.432  1.00  0.00     0.010 C 
HETATM    4  C7  UNL     1      -0.934  52.298 -25.338  1.00  0.00    -0.039 C 
HETATM    5  C8  UNL     1      -0.045  51.231 -26.028  1.00  0.00     0.015 C 
HETATM    6  C9  UNL     1      -2.337  52.274 -25.953  1.00  0.00     0.011 C 
HETATM    7  C10 UNL     1      -3.122  51.007 -25.541  1.00  0.00     0.022 C 
HETATM    8  C11 UNL     1      -3.179  50.738 -23.985  1.00  0.00     0.057 C 
HETATM    9  C13 UNL     1      -1.706  50.814 -23.420  1.00  0.00     0.011 C 
HETATM   10  C14 UNL     1      -1.590  50.438 -21.942  1.00  0.00     0.007 C 
HETATM   11  C15 UNL     1      -2.239  49.093 -21.629  1.00  0.00     0.006 C 
HETATM   12  C16 UNL     1      -3.705  48.986 -22.108  1.00  0.00     0.003 C 
HETATM   13  C17 UNL     1      -4.464  47.668 -21.570  1.00  0.00    -0.035 C 
HETATM   14  C18 UNL     1      -3.492  46.461 -21.519  1.00  0.00     0.016 C 
HETATM   15  C19 UNL     1      -4.885  47.986 -20.097  1.00  0.00     0.012 C 
HETATM   16  C20 UNL     1      -5.857  46.995 -19.477  1.00  0.00     0.033 C 
HETATM   17  C21 UNL     1      -7.129  46.906 -20.308  1.00  0.00     0.128 C 
HETATM   18  C22 UNL     1      -6.866  46.425 -21.755  1.00  0.00     0.007 C 
HETATM   19  C23 UNL     1      -6.433  44.929 -21.776  1.00  0.00     0.020 C 
HETATM   20  C25 UNL     1      -5.746  47.333 -22.447  1.00  0.00     0.007 C 
HETATM   21  C26 UNL     1      -6.295  48.651 -23.026  1.00  0.00     0.007 C 
HETATM   22  C27 UNL     1      -5.349  49.288 -24.043  1.00  0.00     0.011 C 
HETATM   23  C28 UNL     1      -3.843  49.301 -23.644  1.00  0.00    -0.022 C 
HETATM   24  C29 UNL     1      -3.147  48.183 -24.477  1.00  0.00     0.017 C 
HETATM   25  C30 UNL     1      -1.064  52.168 -23.798  1.00  0.00     0.007 C 
ENDROOT
BRANCH   8  26
HETATM   26  C12 UNL     1      -4.065  51.889 -23.421  1.00  0.00     0.149 C 
HETATM   27  O1  UNL     1      -3.881  52.503 -22.380  1.00  0.00    -0.649 OA
BRANCH  26  28
HETATM   28  O2  UNL     1      -5.118  52.239 -24.169  1.00  0.00    -0.776 OA
HETATM   29  H18 UNL     1      -5.532  52.970 -23.664  1.00  0.00     0.167 HD
ENDBRANCH  26  28
ENDBRANCH   8  26
BRANCH   1  30
HETATM   30  C2  UNL     1       0.517  53.051 -21.863  1.00  0.00    -0.089 C 
HETATM   31  C1  UNL     1      -0.076  52.527 -20.777  1.00  0.00     0.014 C 
HETATM   32  C3  UNL     1       1.417  54.251 -21.725  1.00  0.00     0.043 C 
ENDBRANCH   1  30
BRANCH  18  33
HETATM   33  C24 UNL     1      -8.208  46.421 -22.555  1.00  0.00     0.176 C 
BRANCH  33  34
HETATM   34  O4  UNL     1      -8.102  45.730 -23.796  1.00  0.00    -0.400 OA
HETATM   35  H39 UNL     1      -9.004  45.654 -24.155  1.00  0.00     0.209 HD
ENDBRANCH  33  34
ENDBRANCH  18  33
BRANCH  17  36
HETATM   36  O3  UNL     1      -8.035  46.029 -19.635  1.00  0.00    -0.395 OA
HETATM   37  H33 UNL     1      -8.927  46.291 -19.928  1.00  0.00     0.210 HD
ENDBRANCH  17  36
TORSDOF 6
ENDMDL
MODEL 5
REMARK minimizedAffinity -9.1291647
REMARK  6 active torsions:
REMARK  status: ('A' for Active; 'I' for Inactive)
REMARK    1  A    between atoms: C2_2  and  C4_4 
REMARK    2  A    between atoms: C11_11  and  C12_12 
REMARK    3  A    between atoms: C12_12  and  O2_14 
REMARK    4  A    between atoms: C21_23  and  O3_24 
REMARK    5  A    between atoms: C22_25  and  C24_27 
REMARK    6  A    between atoms: C24_27  and  O4_28 
ROOT
HETATM    1  C4  UNL     1      -7.112  46.989 -19.758  1.00  0.00     0.018 C 
HETATM    2  C5  UNL     1      -7.317  46.486 -18.301  1.00  0.00     0.010 C 
HETATM    3  C6  UNL     1      -6.040  46.849 -17.522  1.00  0.00     0.010 C 
HETATM    4  C7  UNL     1      -4.971  47.023 -18.608  1.00  0.00    -0.039 C 
HETATM    5  C8  UNL     1      -4.472  45.617 -19.031  1.00  0.00     0.015 C 
HETATM    6  C9  UNL     1      -3.777  47.889 -18.193  1.00  0.00     0.011 C 
HETATM    7  C10 UNL     1      -2.914  48.297 -19.410  1.00  0.00     0.022 C 
HETATM    8  C11 UNL     1      -3.714  48.965 -20.598  1.00  0.00     0.057 C 
HETATM    9  C13 UNL     1      -4.944  48.036 -20.943  1.00  0.00     0.011 C 
HETATM   10  C14 UNL     1      -5.737  48.489 -22.170  1.00  0.00     0.007 C 
HETATM   11  C15 UNL     1      -4.846  48.715 -23.389  1.00  0.00     0.006 C 
HETATM   12  C16 UNL     1      -3.658  49.666 -23.122  1.00  0.00     0.003 C 
HETATM   13  C17 UNL     1      -2.862  50.094 -24.458  1.00  0.00    -0.035 C 
HETATM   14  C18 UNL     1      -2.800  48.910 -25.459  1.00  0.00     0.016 C 
HETATM   15  C19 UNL     1      -3.717  51.221 -25.127  1.00  0.00     0.012 C 
HETATM   16  C20 UNL     1      -3.026  51.971 -26.254  1.00  0.00     0.033 C 
HETATM   17  C21 UNL     1      -1.736  52.608 -25.757  1.00  0.00     0.128 C 
HETATM   18  C22 UNL     1      -0.720  51.568 -25.226  1.00  0.00     0.007 C 
HETATM   19  C23 UNL     1      -0.154  50.699 -26.388  1.00  0.00     0.020 C 
HETATM   20  C25 UNL     1      -1.406  50.636 -24.124  1.00  0.00     0.007 C 
HETATM   21  C26 UNL     1      -1.436  51.267 -22.718  1.00  0.00     0.007 C 
HETATM   22  C27 UNL     1      -1.674  50.236 -21.614  1.00  0.00     0.011 C 
HETATM   23  C28 UNL     1      -2.784  49.183 -21.905  1.00  0.00    -0.022 C 
HETATM   24  C29 UNL     1      -2.060  47.854 -22.270  1.00  0.00     0.017 C 
HETATM   25  C30 UNL     1      -5.794  47.791 -19.676  1.00  0.00     0.007 C 
ENDROOT
BRANCH   8  26
HETATM   26  C12 UNL     1      -4.181  50.340 -20.031  1.00  0.00     0.149 C 
HETATM   27  O1  UNL     1      -3.627  50.989 -19.156  1.00  0.00    -0.649 OA
BRANCH  26  28
HETATM   28  O2  UNL     1      -5.288  50.855 -20.579  1.00  0.00    -0.776 OA
HETATM   29  H18 UNL     1      -5.408  51.707 -20.110  1.00  0.00     0.167 HD
ENDBRANCH  26  28
ENDBRANCH   8  26
BRANCH   1  30
HETATM   30  C2  UNL     1      -8.376  47.670 -20.263  1.00  0.00    -0.089 C 
HETATM   31  C1  UNL     1      -8.970  47.418 -21.441  1.00  0.00     0.014 C 
HETATM   32  C3  UNL     1      -8.949  48.712 -19.338  1.00  0.00     0.043 C 
ENDBRANCH   1  30
BRANCH  18  33
HETATM   33  C24 UNL     1       0.544  52.306 -24.681  1.00  0.00     0.176 C 
BRANCH  33  34
HETATM   34  O4  UNL     1       1.313  52.909 -25.718  1.00  0.00    -0.400 OA
HETATM   35  H39 UNL     1       1.990  53.458 -25.284  1.00  0.00     0.209 HD
ENDBRANCH  33  34
ENDBRANCH  18  33
BRANCH  17  36
HETATM   36  O3  UNL     1      -1.177  53.366 -26.831  1.00  0.00    -0.395 OA
HETATM   37  H33 UNL     1      -0.628  54.055 -26.415  1.00  0.00     0.210 HD
ENDBRANCH  17  36
TORSDOF 6
ENDMDL
MODEL 6
REMARK minimizedAffinity -8.96791649
REMARK  6 active torsions:
REMARK  status: ('A' for Active; 'I' for Inactive)
REMARK    1  A    between atoms: C2_2  and  C4_4 
REMARK    2  A    between atoms: C11_11  and  C12_12 
REMARK    3  A    between atoms: C12_12  and  O2_14 
REMARK    4  A    between atoms: C21_23  and  O3_24 
REMARK    5  A    between atoms: C22_25  and  C24_27 
REMARK    6  A    between atoms: C24_27  and  O4_28 
ROOT
HETATM    1  C4  UNL     1      -4.717  47.791 -20.255  1.00  0.00     0.018 C 
HETATM    2  C5  UNL     1      -6.124  47.354 -19.756  1.00  0.00     0.010 C 
HETATM    3  C6  UNL     1      -7.152  48.031 -20.679  1.00  0.00     0.010 C 
HETATM    4  C7  UNL     1      -6.393  49.217 -21.287  1.00  0.00    -0.039 C 
HETATM    5  C8  UNL     1      -6.374  50.367 -20.247  1.00  0.00     0.015 C 
HETATM    6  C9  UNL     1      -6.969  49.731 -22.610  1.00  0.00     0.011 C 
HETATM    7  C10 UNL     1      -5.990  50.687 -23.330  1.00  0.00     0.022 C 
HETATM    8  C11 UNL     1      -4.530  50.116 -23.529  1.00  0.00     0.057 C 
HETATM    9  C13 UNL     1      -4.020  49.575 -22.135  1.00  0.00     0.011 C 
HETATM   10  C14 UNL     1      -2.563  49.113 -22.146  1.00  0.00     0.007 C 
HETATM   11  C15 UNL     1      -1.620  50.170 -22.714  1.00  0.00     0.006 C 
HETATM   12  C16 UNL     1      -2.039  50.691 -24.108  1.00  0.00     0.003 C 
HETATM   13  C17 UNL     1      -0.925  51.621 -24.811  1.00  0.00    -0.035 C 
HETATM   14  C18 UNL     1      -0.199  52.496 -23.754  1.00  0.00     0.016 C 
HETATM   15  C19 UNL     1       0.138  50.642 -25.409  1.00  0.00     0.012 C 
HETATM   16  C20 UNL     1       1.140  51.279 -26.358  1.00  0.00     0.033 C 
HETATM   17  C21 UNL     1       0.421  51.944 -27.524  1.00  0.00     0.128 C 
HETATM   18  C22 UNL     1      -0.542  53.068 -27.071  1.00  0.00     0.007 C 
HETATM   19  C23 UNL     1       0.249  54.290 -26.519  1.00  0.00     0.020 C 
HETATM   20  C25 UNL     1      -1.553  52.518 -25.961  1.00  0.00     0.007 C 
HETATM   21  C26 UNL     1      -2.765  51.772 -26.550  1.00  0.00     0.007 C 
HETATM   22  C27 UNL     1      -3.919  51.642 -25.556  1.00  0.00     0.011 C 
HETATM   23  C28 UNL     1      -3.516  51.237 -24.107  1.00  0.00    -0.022 C 
HETATM   24  C29 UNL     1      -3.600  52.528 -23.239  1.00  0.00     0.017 C 
HETATM   25  C30 UNL     1      -5.024  48.545 -21.568  1.00  0.00     0.007 C 
ENDROOT
BRANCH   8  26
HETATM   26  C12 UNL     1      -4.700  48.959 -24.560  1.00  0.00     0.149 C 
HETATM   27  O1  UNL     1      -3.829  48.186 -24.932  1.00  0.00    -0.649 OA
BRANCH  26  28
HETATM   28  O2  UNL     1      -5.928  48.800 -25.066  1.00  0.00    -0.776 OA
HETATM   29  H18 UNL     1      -5.837  48.034 -25.669  1.00  0.00     0.167 HD
ENDBRANCH  26  28
ENDBRANCH   8  26
BRANCH   1  30
HETATM   30  C2  UNL     1      -3.771  46.598 -20.277  1.00  0.00    -0.089 C 
HETATM   31  C1  UNL     1      -3.951  45.485 -21.007  1.00  0.00     0.014 C 
HETATM   32  C3  UNL     1      -2.570  46.725 -19.377  1.00  0.00     0.043 C 
ENDBRANCH   1  30
BRANCH  18  33
HETATM   33  C24 UNL     1      -1.282  53.652 -28.316  1.00  0.00     0.176 C 
BRANCH  33  34
HETATM   34  O4  UNL     1      -1.569  55.041 -28.178  1.00  0.00    -0.400 OA
HETATM   35  H39 UNL     1      -1.896  55.349 -29.042  1.00  0.00     0.209 HD
ENDBRANCH  33  34
ENDBRANCH  18  33
BRANCH  17  36
HETATM   36  O3  UNL     1       1.410  52.449 -28.422  1.00  0.00    -0.395 OA
HETATM   37  H33 UNL     1       0.982  52.490 -29.295  1.00  0.00     0.210 HD
ENDBRANCH  17  36
TORSDOF 6
ENDMDL
MODEL 7
REMARK minimizedAffinity -8.888978
REMARK  6 active torsions:
REMARK  status: ('A' for Active; 'I' for Inactive)
REMARK    1  A    between atoms: C2_2  and  C4_4 
REMARK    2  A    between atoms: C11_11  and  C12_12 
REMARK    3  A    between atoms: C12_12  and  O2_14 
REMARK    4  A    between atoms: C21_23  and  O3_24 
REMARK    5  A    between atoms: C22_25  and  C24_27 
REMARK    6  A    between atoms: C24_27  and  O4_28 
ROOT
HETATM    1  C4  UNL     1       0.131  52.403 -24.716  1.00  0.00     0.018 C 
HETATM    2  C5  UNL     1       0.328  53.058 -26.113  1.00  0.00     0.010 C 
HETATM    3  C6  UNL     1      -0.955  52.785 -26.917  1.00  0.00     0.010 C 
HETATM    4  C7  UNL     1      -1.586  51.571 -26.222  1.00  0.00    -0.039 C 
HETATM    5  C8  UNL     1      -0.852  50.295 -26.710  1.00  0.00     0.015 C 
HETATM    6  C9  UNL     1      -3.093  51.418 -26.453  1.00  0.00     0.011 C 
HETATM    7  C10 UNL     1      -3.721  50.394 -25.480  1.00  0.00     0.022 C 
HETATM    8  C11 UNL     1      -3.404  50.648 -23.953  1.00  0.00     0.057 C 
HETATM    9  C13 UNL     1      -1.842  50.831 -23.800  1.00  0.00     0.011 C 
HETATM   10  C14 UNL     1      -1.372  50.951 -22.351  1.00  0.00     0.007 C 
HETATM   11  C15 UNL     1      -1.889  49.814 -21.473  1.00  0.00     0.006 C 
HETATM   12  C16 UNL     1      -3.423  49.629 -21.538  1.00  0.00     0.003 C 
HETATM   13  C17 UNL     1      -3.995  48.598 -20.438  1.00  0.00    -0.035 C 
HETATM   14  C18 UNL     1      -3.002  47.426 -20.221  1.00  0.00     0.016 C 
HETATM   15  C19 UNL     1      -4.068  49.397 -19.095  1.00  0.00     0.012 C 
HETATM   16  C20 UNL     1      -4.838  48.711 -17.978  1.00  0.00     0.033 C 
HETATM   17  C21 UNL     1      -6.266  48.419 -18.417  1.00  0.00     0.128 C 
HETATM   18  C22 UNL     1      -6.335  47.482 -19.646  1.00  0.00     0.007 C 
HETATM   19  C23 UNL     1      -5.874  46.041 -19.276  1.00  0.00     0.020 C 
HETATM   20  C25 UNL     1      -5.436  48.059 -20.835  1.00  0.00     0.007 C 
HETATM   21  C26 UNL     1      -6.145  49.143 -21.671  1.00  0.00     0.007 C 
HETATM   22  C27 UNL     1      -5.482  49.367 -23.030  1.00  0.00     0.011 C 
HETATM   23  C28 UNL     1      -3.926  49.435 -23.017  1.00  0.00    -0.022 C 
HETATM   24  C29 UNL     1      -3.411  48.075 -23.574  1.00  0.00     0.017 C 
HETATM   25  C30 UNL     1      -1.348  51.956 -24.738  1.00  0.00     0.007 C 
ENDROOT
BRANCH   8  26
HETATM   26  C12 UNL     1      -4.167  51.962 -23.608  1.00  0.00     0.149 C 
HETATM   27  O1  UNL     1      -3.858  52.777 -22.750  1.00  0.00    -0.649 OA
BRANCH  26  28
HETATM   28  O2  UNL     1      -5.256  52.219 -24.343  1.00  0.00    -0.776 OA
HETATM   29  H18 UNL     1      -5.580  53.074 -23.992  1.00  0.00     0.167 HD
ENDBRANCH  26  28
ENDBRANCH   8  26
BRANCH   1  30
HETATM   30  C2  UNL     1       0.616  53.341 -23.620  1.00  0.00    -0.089 C 
HETATM   31  C1  UNL     1       0.827  52.988 -22.341  1.00  0.00     0.014 C 
HETATM   32  C3  UNL     1       0.841  54.764 -24.057  1.00  0.00     0.043 C 
ENDBRANCH   1  30
BRANCH  18  33
HETATM   33  C24 UNL     1      -7.826  47.284 -20.067  1.00  0.00     0.176 C 
BRANCH  33  34
HETATM   34  O4  UNL     1      -8.694  48.241 -19.466  1.00  0.00    -0.400 OA
HETATM   35  H39 UNL     1      -9.566  48.136 -19.888  1.00  0.00     0.209 HD
ENDBRANCH  33  34
ENDBRANCH  18  33
BRANCH  17  36
HETATM   36  O3  UNL     1      -6.962  47.855 -17.304  1.00  0.00    -0.395 OA
HETATM   37  H33 UNL     1      -7.905  48.051 -17.452  1.00  0.00     0.210 HD
ENDBRANCH  17  36
TORSDOF 6
ENDMDL
MODEL 8
REMARK minimizedAffinity -8.36708927
REMARK  6 active torsions:
REMARK  status: ('A' for Active; 'I' for Inactive)
REMARK    1  A    between atoms: C2_2  and  C4_4 
REMARK    2  A    between atoms: C11_11  and  C12_12 
REMARK    3  A    between atoms: C12_12  and  O2_14 
REMARK    4  A    between atoms: C21_23  and  O3_24 
REMARK    5  A    between atoms: C22_25  and  C24_27 
REMARK    6  A    between atoms: C24_27  and  O4_28 
ROOT
HETATM    1  C4  UNL     1      -0.055  51.124 -21.196  1.00  0.00     0.018 C 
HETATM    2  C5  UNL     1      -0.805  50.660 -22.477  1.00  0.00     0.010 C 
HETATM    3  C6  UNL     1      -1.973  49.773 -22.012  1.00  0.00     0.010 C 
HETATM    4  C7  UNL     1      -1.559  49.307 -20.610  1.00  0.00    -0.039 C 
HETATM    5  C8  UNL     1      -0.556  48.133 -20.765  1.00  0.00     0.015 C 
HETATM    6  C9  UNL     1      -2.723  48.873 -19.714  1.00  0.00     0.011 C 
HETATM    7  C10 UNL     1      -2.289  48.734 -18.236  1.00  0.00     0.022 C 
HETATM    8  C11 UNL     1      -1.552  49.999 -17.639  1.00  0.00     0.057 C 
HETATM    9  C13 UNL     1      -0.393  50.405 -18.632  1.00  0.00     0.011 C 
HETATM   10  C14 UNL     1       0.497  51.536 -18.116  1.00  0.00     0.007 C 
HETATM   11  C15 UNL     1       1.033  51.263 -16.713  1.00  0.00     0.006 C 
HETATM   12  C16 UNL     1      -0.068  50.918 -15.684  1.00  0.00     0.003 C 
HETATM   13  C17 UNL     1       0.465  50.866 -14.163  1.00  0.00    -0.035 C 
HETATM   14  C18 UNL     1       1.900  50.279 -14.107  1.00  0.00     0.016 C 
HETATM   15  C19 UNL     1       0.555  52.354 -13.688  1.00  0.00     0.012 C 
HETATM   16  C20 UNL     1       0.770  52.542 -12.195  1.00  0.00     0.033 C 
HETATM   17  C21 UNL     1      -0.349  51.876 -11.407  1.00  0.00     0.128 C 
HETATM   18  C22 UNL     1      -0.431  50.350 -11.657  1.00  0.00     0.007 C 
HETATM   19  C23 UNL     1       0.796  49.617 -11.040  1.00  0.00     0.020 C 
HETATM   20  C25 UNL     1      -0.523  50.049 -13.225  1.00  0.00     0.007 C 
HETATM   21  C26 UNL     1      -1.949  50.180 -13.793  1.00  0.00     0.007 C 
HETATM   22  C27 UNL     1      -2.113  49.482 -15.143  1.00  0.00     0.011 C 
HETATM   23  C28 UNL     1      -0.956  49.709 -16.162  1.00  0.00    -0.022 C 
HETATM   24  C29 UNL     1      -0.107  48.404 -16.178  1.00  0.00     0.017 C 
HETATM   25  C30 UNL     1      -0.966  50.626 -20.051  1.00  0.00     0.007 C 
ENDROOT
BRANCH   8  26
HETATM   26  C12 UNL     1      -2.654  51.098 -17.571  1.00  0.00     0.149 C 
HETATM   27  O1  UNL     1      -2.829  52.001 -18.376  1.00  0.00    -0.649 OA
BRANCH  26  28
HETATM   28  O2  UNL     1      -3.494  51.023 -16.532  1.00  0.00    -0.776 OA
HETATM   29  H18 UNL     1      -4.108  51.774 -16.670  1.00  0.00     0.167 HD
ENDBRANCH  26  28
ENDBRANCH   8  26
BRANCH   1  30
HETATM   30  C2  UNL     1       0.289  52.604 -21.293  1.00  0.00    -0.089 C 
HETATM   31  C1  UNL     1       0.209  53.482 -20.279  1.00  0.00     0.014 C 
HETATM   32  C3  UNL     1       0.727  53.065 -22.658  1.00  0.00     0.043 C 
ENDBRANCH   1  30
BRANCH  18  33
HETATM   33  C24 UNL     1      -1.639  49.757 -10.864  1.00  0.00     0.176 C 
BRANCH  33  34
HETATM   34  O4  UNL     1      -2.526  50.765 -10.385  1.00  0.00    -0.400 OA
HETATM   35  H39 UNL     1      -3.310  50.307 -10.034  1.00  0.00     0.209 HD
ENDBRANCH  33  34
ENDBRANCH  18  33
BRANCH  17  36
HETATM   36  O3  UNL     1      -0.141  52.156 -10.022  1.00  0.00    -0.395 OA
HETATM   37  H33 UNL     1      -1.018  52.093  -9.602  1.00  0.00     0.210 HD
ENDBRANCH  17  36
TORSDOF 6
ENDMDL
MODEL 9
REMARK minimizedAffinity -8.31308842
REMARK  6 active torsions:
REMARK  status: ('A' for Active; 'I' for Inactive)
REMARK    1  A    between atoms: C2_2  and  C4_4 
REMARK    2  A    between atoms: C11_11  and  C12_12 
REMARK    3  A    between atoms: C12_12  and  O2_14 
REMARK    4  A    between atoms: C21_23  and  O3_24 
REMARK    5  A    between atoms: C22_25  and  C24_27 
REMARK    6  A    between atoms: C24_27  and  O4_28 
ROOT
HETATM    1  C4  UNL     1      -0.625  52.056 -19.509  1.00  0.00     0.018 C 
HETATM    2  C5  UNL     1       0.467  52.031 -18.402  1.00  0.00     0.010 C 
HETATM    3  C6  UNL     1       0.321  50.688 -17.664  1.00  0.00     0.010 C 
HETATM    4  C7  UNL     1      -1.118  50.247 -17.963  1.00  0.00    -0.039 C 
HETATM    5  C8  UNL     1      -2.071  51.022 -17.015  1.00  0.00     0.015 C 
HETATM    6  C9  UNL     1      -1.365  48.742 -17.821  1.00  0.00     0.011 C 
HETATM    7  C10 UNL     1      -2.716  48.321 -18.445  1.00  0.00     0.022 C 
HETATM    8  C11 UNL     1      -2.935  48.796 -19.937  1.00  0.00     0.057 C 
HETATM    9  C13 UNL     1      -2.629  50.343 -20.009  1.00  0.00     0.011 C 
HETATM   10  C14 UNL     1      -2.932  50.972 -21.370  1.00  0.00     0.007 C 
HETATM   11  C15 UNL     1      -4.344  50.658 -21.856  1.00  0.00     0.006 C 
HETATM   12  C16 UNL     1      -4.677  49.148 -21.863  1.00  0.00     0.003 C 
HETATM   13  C17 UNL     1      -6.070  48.799 -22.597  1.00  0.00    -0.035 C 
HETATM   14  C18 UNL     1      -7.123  49.905 -22.324  1.00  0.00     0.016 C 
HETATM   15  C19 UNL     1      -5.764  48.820 -24.131  1.00  0.00     0.012 C 
HETATM   16  C20 UNL     1      -6.861  48.248 -25.015  1.00  0.00     0.033 C 
HETATM   17  C21 UNL     1      -7.161  46.807 -24.626  1.00  0.00     0.128 C 
HETATM   18  C22 UNL     1      -7.650  46.671 -23.164  1.00  0.00     0.007 C 
HETATM   19  C23 UNL     1      -9.068  47.290 -22.991  1.00  0.00     0.020 C 
HETATM   20  C25 UNL     1      -6.616  47.371 -22.166  1.00  0.00     0.007 C 
HETATM   21  C26 UNL     1      -5.412  46.480 -21.805  1.00  0.00     0.007 C 
HETATM   22  C27 UNL     1      -4.682  46.955 -20.549  1.00  0.00     0.011 C 
HETATM   23  C28 UNL     1      -4.440  48.491 -20.452  1.00  0.00    -0.022 C 
HETATM   24  C29 UNL     1      -5.474  49.047 -19.430  1.00  0.00     0.017 C 
HETATM   25  C30 UNL     1      -1.211  50.628 -19.464  1.00  0.00     0.007 C 
ENDROOT
BRANCH   8  26
HETATM   26  C12 UNL     1      -1.904  47.972 -20.765  1.00  0.00     0.149 C 
HETATM   27  O1  UNL     1      -2.161  47.157 -21.639  1.00  0.00    -0.649 OA
BRANCH  26  28
HETATM   28  O2  UNL     1      -0.614  48.203 -20.493  1.00  0.00    -0.776 OA
HETATM   29  H18 UNL     1      -0.134  47.614 -21.111  1.00  0.00     0.167 HD
ENDBRANCH  26  28
ENDBRANCH   8  26
BRANCH   1  30
HETATM   30  C2  UNL     1      -0.043  52.589 -20.811  1.00  0.00    -0.089 C 
HETATM   31  C1  UNL     1      -0.122  51.970 -22.001  1.00  0.00     0.014 C 
HETATM   32  C3  UNL     1       0.683  53.903 -20.691  1.00  0.00     0.043 C 
ENDBRANCH   1  30
BRANCH  18  33
HETATM   33  C24 UNL     1      -7.874  45.161 -22.829  1.00  0.00     0.176 C 
BRANCH  33  34
HETATM   34  O4  UNL     1      -9.037  44.629 -23.459  1.00  0.00    -0.400 OA
HETATM   35  H39 UNL     1      -9.020  43.666 -23.315  1.00  0.00     0.209 HD
ENDBRANCH  33  34
ENDBRANCH  18  33
BRANCH  17  36
HETATM   36  O3  UNL     1      -8.134  46.298 -25.541  1.00  0.00    -0.395 OA
HETATM   37  H33 UNL     1      -8.013  45.331 -25.547  1.00  0.00     0.210 HD
ENDBRANCH  17  36
TORSDOF 6
ENDMDL
