MODEL 1
REMARK minimizedAffinity -9.72034454
REMARK  4 active torsions:
REMARK  status: ('A' for Active; 'I' for Inactive)
REMARK    1  A    between atoms: C4_5  and  C5_6 
REMARK    2  A    between atoms: C8_11  and  C9_12 
REMARK    3  A    between atoms: C9_12  and  N2_13 
REMARK    4  A    between atoms: N3_16  and  C12_17 
ROOT
HETATM    1  N2  UNL     1      -1.487   7.783  13.749  1.00  0.00     0.095 N 
HETATM    2  C10 UNL     1      -1.902   8.411  12.480  1.00  0.00     0.287 C 
HETATM    3  C11 UNL     1      -0.738   8.532  11.462  1.00  0.00     0.126 C 
HETATM    4  N3  UNL     1      -0.120   7.206  11.237  1.00  0.00    -0.278 NA
HETATM    5  C20 UNL     1       0.333   6.592  12.499  1.00  0.00     0.126 C 
HETATM    6  C21 UNL     1      -0.861   6.471  13.480  1.00  0.00     0.287 C 
ENDROOT
BRANCH   1   7
HETATM    7  C9  UNL     1      -2.536   7.746  14.772  1.00  0.00     0.312 C 
BRANCH   7   8
HETATM    8  C8  UNL     1      -3.912   7.303  14.343  1.00  0.00    -0.014 A 
HETATM    9  C7  UNL     1      -5.015   8.133  14.505  1.00  0.00     0.096 A 
HETATM   10  N1  UNL     1      -6.273   7.802  14.142  1.00  0.00    -0.374 N 
HETATM   11  C6  UNL     1      -6.443   6.577  13.590  1.00  0.00     0.100 A 
ATOM     12  H1  UNL     1      -7.056   8.442  14.277  1.00  0.00     0.164 HD
HETATM   13  C5  UNL     1      -5.421   5.653  13.370  1.00  0.00    -0.010 A 
HETATM   14  C22 UNL     1      -4.133   6.049  13.759  1.00  0.00     0.024 A 
BRANCH  13  15
HETATM   15  C4  UNL     1      -5.678   4.337  12.768  1.00  0.00    -0.024 A 
HETATM   16  C3  UNL     1      -4.762   3.762  11.870  1.00  0.00     0.015 A 
HETATM   17  C2  UNL     1      -5.008   2.511  11.295  1.00  0.00     0.043 A 
HETATM   18  C1  UNL     1      -6.172   1.827  11.616  1.00  0.00     0.116 A 
HETATM   19  F1  UNL     1      -6.408   0.629  11.066  1.00  0.00    -0.206 F 
HETATM   20  C24 UNL     1      -7.096   2.369  12.500  1.00  0.00     0.043 A 
HETATM   21  C23 UNL     1      -6.850   3.620  13.073  1.00  0.00     0.015 A 
ENDBRANCH  13  15
ENDBRANCH   7   8
ENDBRANCH   1   7
BRANCH   4  22
HETATM   22  C12 UNL     1       0.728   7.173  10.114  1.00  0.00     0.047 A 
HETATM   23  C13 UNL     1       0.586   8.229   9.186  1.00  0.00     0.027 A 
HETATM   24  C14 UNL     1       1.352   8.308   8.022  1.00  0.00     0.005 A 
HETATM   25  C15 UNL     1       2.300   7.329   7.754  1.00  0.00     0.040 A 
HETATM   26  C16 UNL     1       2.477   6.280   8.651  1.00  0.00     0.103 A 
HETATM   27  C17 UNL     1       1.685   6.178   9.815  1.00  0.00     0.123 A 
HETATM   28  O2  UNL     1       3.458   5.377   8.311  1.00  0.00    -0.346 OA
HETATM   29  O1  UNL     1       1.859   5.135  10.696  1.00  0.00    -0.344 OA
HETATM   30  C18 UNL     1       2.563   4.039  10.110  1.00  0.00     0.202 C 
HETATM   31  C19 UNL     1       3.811   4.540   9.413  1.00  0.00     0.202 C 
ENDBRANCH   4  22
TORSDOF 4
ENDMDL
MODEL 2
REMARK minimizedAffinity -9.62005806
REMARK  4 active torsions:
REMARK  status: ('A' for Active; 'I' for Inactive)
REMARK    1  A    between atoms: C4_5  and  C5_6 
REMARK    2  A    between atoms: C8_11  and  C9_12 
REMARK    3  A    between atoms: C9_12  and  N2_13 
REMARK    4  A    between atoms: N3_16  and  C12_17 
ROOT
HETATM    1  N2  UNL     1      -2.235   7.960  14.222  1.00  0.00     0.095 N 
HETATM    2  C10 UNL     1      -2.070   6.509  14.432  1.00  0.00     0.287 C 
HETATM    3  C11 UNL     1      -3.424   5.768  14.591  1.00  0.00     0.126 C 
HETATM    4  N3  UNL     1      -4.298   6.054  13.431  1.00  0.00    -0.278 NA
HETATM    5  C20 UNL     1      -4.499   7.503  13.242  1.00  0.00     0.126 C 
HETATM    6  C21 UNL     1      -3.127   8.203  13.068  1.00  0.00     0.287 C 
ENDROOT
BRANCH   1   7
HETATM    7  C9  UNL     1      -0.976   8.708  14.171  1.00  0.00     0.312 C 
BRANCH   7   8
HETATM    8  C8  UNL     1       0.199   8.047  13.496  1.00  0.00    -0.014 A 
HETATM    9  C7  UNL     1       1.215   7.458  14.240  1.00  0.00     0.096 A 
HETATM   10  N1  UNL     1       2.293   6.847  13.703  1.00  0.00    -0.374 N 
HETATM   11  C6  UNL     1       2.366   6.824  12.351  1.00  0.00     0.100 A 
ATOM     12  H1  UNL     1       3.016   6.425  14.286  1.00  0.00     0.164 HD
HETATM   13  C5  UNL     1       1.414   7.375  11.492  1.00  0.00    -0.010 A 
HETATM   14  C22 UNL     1       0.312   7.990  12.101  1.00  0.00     0.024 A 
BRANCH  13  15
HETATM   15  C4  UNL     1       1.560   7.316  10.030  1.00  0.00    -0.024 A 
HETATM   16  C3  UNL     1       2.494   6.452   9.431  1.00  0.00     0.015 A 
HETATM   17  C2  UNL     1       2.634   6.398   8.042  1.00  0.00     0.043 A 
HETATM   18  C1  UNL     1       1.839   7.207   7.241  1.00  0.00     0.116 A 
HETATM   19  F1  UNL     1       1.973   7.155   5.910  1.00  0.00    -0.206 F 
HETATM   20  C24 UNL     1       0.908   8.070   7.803  1.00  0.00     0.043 A 
HETATM   21  C23 UNL     1       0.770   8.125   9.193  1.00  0.00     0.015 A 
ENDBRANCH  13  15
ENDBRANCH   7   8
ENDBRANCH   1   7
BRANCH   4  22
HETATM   22  C12 UNL     1      -5.406   5.190  13.346  1.00  0.00     0.047 A 
HETATM   23  C13 UNL     1      -6.570   5.590  14.039  1.00  0.00     0.027 A 
HETATM   24  C14 UNL     1      -7.733   4.818  14.052  1.00  0.00     0.005 A 
HETATM   25  C15 UNL     1      -7.769   3.616  13.357  1.00  0.00     0.040 A 
HETATM   26  C16 UNL     1      -6.644   3.195  12.652  1.00  0.00     0.103 A 
HETATM   27  C17 UNL     1      -5.457   3.957  12.659  1.00  0.00     0.123 A 
HETATM   28  O2  UNL     1      -6.789   2.007  11.974  1.00  0.00    -0.346 OA
HETATM   29  O1  UNL     1      -4.345   3.534  11.966  1.00  0.00    -0.344 OA
HETATM   30  C18 UNL     1      -4.401   2.143  11.643  1.00  0.00     0.202 C 
HETATM   31  C19 UNL     1      -5.742   1.811  11.021  1.00  0.00     0.202 C 
ENDBRANCH   4  22
TORSDOF 4
ENDMDL
MODEL 3
REMARK minimizedAffinity -9.60662365
REMARK  4 active torsions:
REMARK  status: ('A' for Active; 'I' for Inactive)
REMARK    1  A    between atoms: C4_5  and  C5_6 
REMARK    2  A    between atoms: C8_11  and  C9_12 
REMARK    3  A    between atoms: C9_12  and  N2_13 
REMARK    4  A    between atoms: N3_16  and  C12_17 
ROOT
HETATM    1  N2  UNL     1      -2.266   7.890  13.272  1.00  0.00     0.095 N 
HETATM    2  C10 UNL     1      -1.071   7.043  13.453  1.00  0.00     0.287 C 
HETATM    3  C11 UNL     1      -0.268   6.849  12.141  1.00  0.00     0.126 C 
HETATM    4  N3  UNL     1       0.080   8.166  11.559  1.00  0.00    -0.278 NA
HETATM    5  C20 UNL     1      -1.116   8.999  11.338  1.00  0.00     0.126 C 
HETATM    6  C21 UNL     1      -1.879   9.185  12.675  1.00  0.00     0.287 C 
ENDROOT
BRANCH   1   7
HETATM    7  C9  UNL     1      -3.104   8.011  14.468  1.00  0.00     0.312 C 
BRANCH   7   8
HETATM    8  C8  UNL     1      -4.390   7.223  14.499  1.00  0.00    -0.014 A 
HETATM    9  C7  UNL     1      -5.470   7.644  15.266  1.00  0.00     0.096 A 
HETATM   10  N1  UNL     1      -6.650   6.991  15.338  1.00  0.00    -0.374 N 
HETATM   11  C6  UNL     1      -6.760   5.855  14.609  1.00  0.00     0.100 A 
ATOM     12  H1  UNL     1      -7.419   7.335  15.913  1.00  0.00     0.164 HD
HETATM   13  C5  UNL     1      -5.754   5.328  13.798  1.00  0.00    -0.010 A 
HETATM   14  C22 UNL     1      -4.552   6.048  13.753  1.00  0.00     0.024 A 
BRANCH  13  15
HETATM   15  C4  UNL     1      -5.941   4.085  13.035  1.00  0.00    -0.024 A 
HETATM   16  C3  UNL     1      -4.979   3.657  12.103  1.00  0.00     0.015 A 
HETATM   17  C2  UNL     1      -5.158   2.477  11.376  1.00  0.00     0.043 A 
HETATM   18  C1  UNL     1      -6.301   1.715  11.577  1.00  0.00     0.116 A 
HETATM   19  F1  UNL     1      -6.473   0.585  10.880  1.00  0.00    -0.206 F 
HETATM   20  C24 UNL     1      -7.270   2.113  12.490  1.00  0.00     0.043 A 
HETATM   21  C23 UNL     1      -7.090   3.293  13.215  1.00  0.00     0.015 A 
ENDBRANCH  13  15
ENDBRANCH   7   8
ENDBRANCH   1   7
BRANCH   4  22
HETATM   22  C12 UNL     1       1.057   8.084  10.549  1.00  0.00     0.047 A 
HETATM   23  C13 UNL     1       0.594   8.175   9.217  1.00  0.00     0.027 A 
HETATM   24  C14 UNL     1       1.454   8.092   8.121  1.00  0.00     0.005 A 
HETATM   25  C15 UNL     1       2.817   7.923   8.326  1.00  0.00     0.040 A 
HETATM   26  C16 UNL     1       3.311   7.840   9.625  1.00  0.00     0.103 A 
HETATM   27  C17 UNL     1       2.444   7.895  10.737  1.00  0.00     0.123 A 
HETATM   28  O2  UNL     1       4.676   7.701   9.725  1.00  0.00    -0.346 OA
HETATM   29  O1  UNL     1       2.936   7.807  12.019  1.00  0.00    -0.344 OA
HETATM   30  C18 UNL     1       4.254   7.257  12.060  1.00  0.00     0.202 C 
HETATM   31  C19 UNL     1       5.139   7.960  11.051  1.00  0.00     0.202 C 
ENDBRANCH   4  22
TORSDOF 4
ENDMDL
MODEL 4
REMARK minimizedAffinity -9.54357624
REMARK  4 active torsions:
REMARK  status: ('A' for Active; 'I' for Inactive)
REMARK    1  A    between atoms: C4_5  and  C5_6 
REMARK    2  A    between atoms: C8_11  and  C9_12 
REMARK    3  A    between atoms: C9_12  and  N2_13 
REMARK    4  A    between atoms: N3_16  and  C12_17 
ROOT
HETATM    1  N2  UNL     1      -2.274   8.058  13.271  1.00  0.00     0.095 N 
HETATM    2  C10 UNL     1      -1.273   7.166  13.889  1.00  0.00     0.287 C 
HETATM    3  C11 UNL     1      -0.190   6.693  12.885  1.00  0.00     0.126 C 
HETATM    4  N3  UNL     1       0.448   7.862  12.238  1.00  0.00    -0.278 NA
HETATM    5  C20 UNL     1      -0.545   8.733  11.583  1.00  0.00     0.126 C 
HETATM    6  C21 UNL     1      -1.597   9.200  12.623  1.00  0.00     0.287 C 
ENDROOT
BRANCH   1   7
HETATM    7  C9  UNL     1      -3.370   8.442  14.165  1.00  0.00     0.312 C 
BRANCH   7   8
HETATM    8  C8  UNL     1      -4.646   7.642  14.085  1.00  0.00    -0.014 A 
HETATM    9  C7  UNL     1      -5.834   8.133  14.612  1.00  0.00     0.096 A 
HETATM   10  N1  UNL     1      -7.012   7.473  14.573  1.00  0.00    -0.374 N 
HETATM   11  C6  UNL     1      -7.006   6.256  13.980  1.00  0.00     0.100 A 
ATOM     12  H1  UNL     1      -7.863   7.871  14.970  1.00  0.00     0.164 HD
HETATM   13  C5  UNL     1      -5.883   5.652  13.411  1.00  0.00    -0.010 A 
HETATM   14  C22 UNL     1      -4.688   6.382  13.472  1.00  0.00     0.024 A 
BRANCH  13  15
HETATM   15  C4  UNL     1      -5.948   4.323  12.786  1.00  0.00    -0.024 A 
HETATM   16  C3  UNL     1      -7.087   3.510  12.933  1.00  0.00     0.015 A 
HETATM   17  C2  UNL     1      -7.148   2.246  12.340  1.00  0.00     0.043 A 
HETATM   18  C1  UNL     1      -6.071   1.786  11.594  1.00  0.00     0.116 A 
HETATM   19  F1  UNL     1      -6.129   0.575  11.026  1.00  0.00    -0.206 F 
HETATM   20  C24 UNL     1      -4.933   2.566  11.431  1.00  0.00     0.043 A 
HETATM   21  C23 UNL     1      -4.873   3.829  12.025  1.00  0.00     0.015 A 
ENDBRANCH  13  15
ENDBRANCH   7   8
ENDBRANCH   1   7
BRANCH   4  22
HETATM   22  C12 UNL     1       1.633   7.537  11.553  1.00  0.00     0.047 A 
HETATM   23  C13 UNL     1       2.769   7.270  12.350  1.00  0.00     0.027 A 
HETATM   24  C14 UNL     1       4.011   6.953  11.798  1.00  0.00     0.005 A 
HETATM   25  C15 UNL     1       4.153   6.881  10.419  1.00  0.00     0.040 A 
HETATM   26  C16 UNL     1       3.053   7.126   9.601  1.00  0.00     0.103 A 
HETATM   27  C17 UNL     1       1.803   7.476  10.152  1.00  0.00     0.123 A 
HETATM   28  O2  UNL     1       3.289   7.004   8.251  1.00  0.00    -0.346 OA
HETATM   29  O1  UNL     1       0.719   7.723   9.339  1.00  0.00    -0.344 OA
HETATM   30  C18 UNL     1       1.102   7.992   7.989  1.00  0.00     0.202 C 
HETATM   31  C19 UNL     1       2.072   6.934   7.506  1.00  0.00     0.202 C 
ENDBRANCH   4  22
TORSDOF 4
ENDMDL
MODEL 5
REMARK minimizedAffinity -9.48174095
REMARK  4 active torsions:
REMARK  status: ('A' for Active; 'I' for Inactive)
REMARK    1  A    between atoms: C4_5  and  C5_6 
REMARK    2  A    between atoms: C8_11  and  C9_12 
REMARK    3  A    between atoms: C9_12  and  N2_13 
REMARK    4  A    between atoms: N3_16  and  C12_17 
ROOT
HETATM    1  N2  UNL     1      -0.944   7.473  14.833  1.00  0.00     0.095 N 
HETATM    2  C10 UNL     1      -1.064   8.388  13.682  1.00  0.00     0.287 C 
HETATM    3  C11 UNL     1       0.286   8.613  12.952  1.00  0.00     0.126 C 
HETATM    4  N3  UNL     1       0.873   7.314  12.557  1.00  0.00    -0.278 NA
HETATM    5  C20 UNL     1       1.033   6.412  13.713  1.00  0.00     0.126 C 
HETATM    6  C21 UNL     1      -0.339   6.196  14.402  1.00  0.00     0.287 C 
ENDROOT
BRANCH   1   7
HETATM    7  C9  UNL     1      -2.178   7.317  15.609  1.00  0.00     0.312 C 
BRANCH   7   8
HETATM    8  C8  UNL     1      -3.461   7.116  14.842  1.00  0.00    -0.014 A 
HETATM    9  C7  UNL     1      -4.396   8.138  14.729  1.00  0.00     0.096 A 
HETATM   10  N1  UNL     1      -5.563   8.029  14.057  1.00  0.00    -0.374 N 
HETATM   11  C6  UNL     1      -5.813   6.836  13.467  1.00  0.00     0.100 A 
ATOM     12  H1  UNL     1      -6.222   8.805  13.997  1.00  0.00     0.164 HD
HETATM   13  C5  UNL     1      -4.958   5.734  13.504  1.00  0.00    -0.010 A 
HETATM   14  C22 UNL     1      -3.758   5.903  14.208  1.00  0.00     0.024 A 
BRANCH  13  15
HETATM   15  C4  UNL     1      -5.296   4.465  12.842  1.00  0.00    -0.024 A 
HETATM   16  C3  UNL     1      -6.571   3.889  12.993  1.00  0.00     0.015 A 
HETATM   17  C2  UNL     1      -6.892   2.682  12.366  1.00  0.00     0.043 A 
HETATM   18  C1  UNL     1      -5.941   2.042  11.583  1.00  0.00     0.116 A 
HETATM   19  F1  UNL     1      -6.248   0.886  10.982  1.00  0.00    -0.206 F 
HETATM   20  C24 UNL     1      -4.674   2.586  11.416  1.00  0.00     0.043 A 
HETATM   21  C23 UNL     1      -4.353   3.793  12.044  1.00  0.00     0.015 A 
ENDBRANCH  13  15
ENDBRANCH   7   8
ENDBRANCH   1   7
BRANCH   4  22
HETATM   22  C12 UNL     1       1.928   7.440  11.634  1.00  0.00     0.047 A 
HETATM   23  C13 UNL     1       3.237   7.371  12.160  1.00  0.00     0.027 A 
HETATM   24  C14 UNL     1       4.373   7.499  11.358  1.00  0.00     0.005 A 
HETATM   25  C15 UNL     1       4.230   7.692   9.990  1.00  0.00     0.040 A 
HETATM   26  C16 UNL     1       2.955   7.753   9.433  1.00  0.00     0.103 A 
HETATM   27  C17 UNL     1       1.805   7.654  10.243  1.00  0.00     0.123 A 
HETATM   28  O2  UNL     1       2.920   7.919   8.068  1.00  0.00    -0.346 OA
HETATM   29  O1  UNL     1       0.546   7.721   9.689  1.00  0.00    -0.344 OA
HETATM   30  C18 UNL     1       0.557   8.298   8.382  1.00  0.00     0.202 C 
HETATM   31  C19 UNL     1       1.625   7.638   7.535  1.00  0.00     0.202 C 
ENDBRANCH   4  22
TORSDOF 4
ENDMDL
MODEL 6
REMARK minimizedAffinity -9.3367281
REMARK  4 active torsions:
REMARK  status: ('A' for Active; 'I' for Inactive)
REMARK    1  A    between atoms: C4_5  and  C5_6 
REMARK    2  A    between atoms: C8_11  and  C9_12 
REMARK    3  A    between atoms: C9_12  and  N2_13 
REMARK    4  A    between atoms: N3_16  and  C12_17 
ROOT
HETATM    1  N2  UNL     1      -1.425   6.937  14.175  1.00  0.00     0.095 N 
HETATM    2  C10 UNL     1      -2.534   7.896  14.337  1.00  0.00     0.287 C 
HETATM    3  C11 UNL     1      -3.837   7.431  13.636  1.00  0.00     0.126 C 
HETATM    4  N3  UNL     1      -4.213   6.080  14.108  1.00  0.00    -0.278 NA
HETATM    5  C20 UNL     1      -3.122   5.108  13.909  1.00  0.00     0.126 C 
HETATM    6  C21 UNL     1      -1.845   5.598  14.640  1.00  0.00     0.287 C 
ENDROOT
BRANCH   1   7
HETATM    7  C9  UNL     1      -0.150   7.391  14.736  1.00  0.00     0.312 C 
BRANCH   7   8
HETATM    8  C8  UNL     1       1.049   7.402  13.821  1.00  0.00    -0.014 A 
HETATM    9  C7  UNL     1       2.340   7.468  14.332  1.00  0.00     0.096 A 
HETATM   10  N1  UNL     1       3.457   7.479  13.572  1.00  0.00    -0.374 N 
HETATM   11  C6  UNL     1       3.278   7.424  12.231  1.00  0.00     0.100 A 
ATOM     12  H1  UNL     1       4.387   7.526  13.987  1.00  0.00     0.164 HD
HETATM   13  C5  UNL     1       2.039   7.353  11.594  1.00  0.00    -0.010 A 
HETATM   14  C22 UNL     1       0.913   7.337  12.428  1.00  0.00     0.024 A 
BRANCH  13  15
HETATM   15  C4  UNL     1       1.920   7.300  10.129  1.00  0.00    -0.024 A 
HETATM   16  C3  UNL     1       2.672   6.382   9.376  1.00  0.00     0.015 A 
HETATM   17  C2  UNL     1       2.560   6.333   7.983  1.00  0.00     0.043 A 
HETATM   18  C1  UNL     1       1.694   7.202   7.334  1.00  0.00     0.116 A 
HETATM   19  F1  UNL     1       1.586   7.155   6.001  1.00  0.00    -0.206 F 
HETATM   20  C24 UNL     1       0.938   8.120   8.051  1.00  0.00     0.043 A 
HETATM   21  C23 UNL     1       1.051   8.169   9.443  1.00  0.00     0.015 A 
ENDBRANCH  13  15
ENDBRANCH   7   8
ENDBRANCH   1   7
BRANCH   4  22
HETATM   22  C12 UNL     1      -5.527   5.717  13.759  1.00  0.00     0.047 A 
HETATM   23  C13 UNL     1      -5.667   4.602  12.902  1.00  0.00     0.027 A 
HETATM   24  C14 UNL     1      -6.912   4.147  12.465  1.00  0.00     0.005 A 
HETATM   25  C15 UNL     1      -8.067   4.795  12.884  1.00  0.00     0.040 A 
HETATM   26  C16 UNL     1      -7.970   5.890  13.738  1.00  0.00     0.103 A 
HETATM   27  C17 UNL     1      -6.713   6.372  14.160  1.00  0.00     0.123 A 
HETATM   28  O2  UNL     1      -9.170   6.445  14.118  1.00  0.00    -0.346 OA
HETATM   29  O1  UNL     1      -6.621   7.459  14.999  1.00  0.00    -0.344 OA
HETATM   30  C18 UNL     1      -7.823   8.232  15.022  1.00  0.00     0.202 C 
HETATM   31  C19 UNL     1      -9.017   7.325  15.233  1.00  0.00     0.202 C 
ENDBRANCH   4  22
TORSDOF 4
ENDMDL
MODEL 7
REMARK minimizedAffinity -9.29972363
REMARK  4 active torsions:
REMARK  status: ('A' for Active; 'I' for Inactive)
REMARK    1  A    between atoms: C4_5  and  C5_6 
REMARK    2  A    between atoms: C8_11  and  C9_12 
REMARK    3  A    between atoms: C9_12  and  N2_13 
REMARK    4  A    between atoms: N3_16  and  C12_17 
ROOT
HETATM    1  N2  UNL     1      -2.991   4.131  11.403  1.00  0.00     0.095 N 
HETATM    2  C10 UNL     1      -1.687   3.603  11.849  1.00  0.00     0.287 C 
HETATM    3  C11 UNL     1      -0.716   4.719  12.314  1.00  0.00     0.126 C 
HETATM    4  N3  UNL     1      -1.357   5.546  13.362  1.00  0.00    -0.278 NA
HETATM    5  C20 UNL     1      -2.640   6.110  12.904  1.00  0.00     0.126 C 
HETATM    6  C21 UNL     1      -3.589   4.963  12.468  1.00  0.00     0.287 C 
ENDROOT
BRANCH   1   7
HETATM    7  C9  UNL     1      -3.897   3.114  10.860  1.00  0.00     0.312 C 
BRANCH   7   8
HETATM    8  C8  UNL     1      -5.212   2.905  11.567  1.00  0.00    -0.014 A 
HETATM    9  C7  UNL     1      -5.886   1.692  11.484  1.00  0.00     0.096 A 
HETATM   10  N1  UNL     1      -7.064   1.435  12.093  1.00  0.00    -0.374 N 
HETATM   11  C6  UNL     1      -7.602   2.441  12.822  1.00  0.00     0.100 A 
ATOM     12  H1  UNL     1      -7.525   0.529  12.007  1.00  0.00     0.164 HD
HETATM   13  C5  UNL     1      -7.027   3.701  12.988  1.00  0.00    -0.010 A 
HETATM   14  C22 UNL     1      -5.801   3.914  12.341  1.00  0.00     0.024 A 
BRANCH  13  15
HETATM   15  C4  UNL     1      -7.670   4.750  13.793  1.00  0.00    -0.024 A 
HETATM   16  C3  UNL     1      -8.591   5.642  13.215  1.00  0.00     0.015 A 
HETATM   17  C2  UNL     1      -9.200   6.641  13.980  1.00  0.00     0.043 A 
HETATM   18  C1  UNL     1      -8.895   6.753  15.329  1.00  0.00     0.116 A 
HETATM   19  F1  UNL     1      -9.479   7.708  16.062  1.00  0.00    -0.206 F 
HETATM   20  C24 UNL     1      -7.990   5.886  15.928  1.00  0.00     0.043 A 
HETATM   21  C23 UNL     1      -7.380   4.889  15.163  1.00  0.00     0.015 A 
ENDBRANCH  13  15
ENDBRANCH   7   8
ENDBRANCH   1   7
BRANCH   4  22
HETATM   22  C12 UNL     1      -0.448   6.375  14.045  1.00  0.00     0.047 A 
HETATM   23  C13 UNL     1       0.917   6.221  13.715  1.00  0.00     0.027 A 
HETATM   24  C14 UNL     1       1.924   6.968  14.330  1.00  0.00     0.005 A 
HETATM   25  C15 UNL     1       1.590   7.908  15.296  1.00  0.00     0.040 A 
HETATM   26  C16 UNL     1       0.254   8.097  15.639  1.00  0.00     0.103 A 
HETATM   27  C17 UNL     1      -0.765   7.324  15.042  1.00  0.00     0.123 A 
HETATM   28  O2  UNL     1       0.024   9.069  16.585  1.00  0.00    -0.346 OA
HETATM   29  O1  UNL     1      -2.084   7.510  15.389  1.00  0.00    -0.344 OA
HETATM   30  C18 UNL     1      -2.228   8.200  16.632  1.00  0.00     0.202 C 
HETATM   31  C19 UNL     1      -1.355   9.438  16.639  1.00  0.00     0.202 C 
ENDBRANCH   4  22
TORSDOF 4
ENDMDL
MODEL 8
REMARK minimizedAffinity -9.20793533
REMARK  4 active torsions:
REMARK  status: ('A' for Active; 'I' for Inactive)
REMARK    1  A    between atoms: C4_5  and  C5_6 
REMARK    2  A    between atoms: C8_11  and  C9_12 
REMARK    3  A    between atoms: C9_12  and  N2_13 
REMARK    4  A    between atoms: N3_16  and  C12_17 
ROOT
HETATM    1  N2  UNL     1      -3.110   3.422  11.522  1.00  0.00     0.095 N 
HETATM    2  C10 UNL     1      -3.173   4.884  11.707  1.00  0.00     0.287 C 
HETATM    3  C11 UNL     1      -1.949   5.445  12.477  1.00  0.00     0.126 C 
HETATM    4  N3  UNL     1      -0.696   5.034  11.806  1.00  0.00    -0.278 NA
HETATM    5  C20 UNL     1      -0.610   3.570  11.657  1.00  0.00     0.126 C 
HETATM    6  C21 UNL     1      -1.839   3.052  10.866  1.00  0.00     0.287 C 
ENDROOT
BRANCH   1   7
HETATM    7  C9  UNL     1      -4.299   2.844  10.889  1.00  0.00     0.312 C 
BRANCH   7   8
HETATM    8  C8  UNL     1      -5.563   2.782  11.708  1.00  0.00    -0.014 A 
HETATM    9  C7  UNL     1      -6.357   1.641  11.717  1.00  0.00     0.096 A 
HETATM   10  N1  UNL     1      -7.498   1.516  12.429  1.00  0.00    -0.374 N 
HETATM   11  C6  UNL     1      -7.872   2.587  13.169  1.00  0.00     0.100 A 
ATOM     12  H1  UNL     1      -8.051   0.659  12.409  1.00  0.00     0.164 HD
HETATM   13  C5  UNL     1      -7.165   3.787  13.248  1.00  0.00    -0.010 A 
HETATM   14  C22 UNL     1      -5.984   3.862  12.497  1.00  0.00     0.024 A 
BRANCH  13  15
HETATM   15  C4  UNL     1      -7.632   4.912  14.071  1.00  0.00    -0.024 A 
HETATM   16  C3  UNL     1      -8.515   5.873  13.547  1.00  0.00     0.015 A 
HETATM   17  C2  UNL     1      -8.958   6.944  14.329  1.00  0.00     0.043 A 
HETATM   18  C1  UNL     1      -8.521   7.060  15.641  1.00  0.00     0.116 A 
HETATM   19  F1  UNL     1      -8.945   8.086  16.391  1.00  0.00    -0.206 F 
HETATM   20  C24 UNL     1      -7.649   6.127  16.187  1.00  0.00     0.043 A 
HETATM   21  C23 UNL     1      -7.206   5.058  15.404  1.00  0.00     0.015 A 
ENDBRANCH  13  15
ENDBRANCH   7   8
ENDBRANCH   1   7
BRANCH   4  22
HETATM   22  C12 UNL     1       0.432   5.746  12.257  1.00  0.00     0.047 A 
HETATM   23  C13 UNL     1       0.355   6.289  13.558  1.00  0.00     0.027 A 
HETATM   24  C14 UNL     1       1.396   7.031  14.121  1.00  0.00     0.005 A 
HETATM   25  C15 UNL     1       2.560   7.245  13.394  1.00  0.00     0.040 A 
HETATM   26  C16 UNL     1       2.677   6.714  12.111  1.00  0.00     0.103 A 
HETATM   27  C17 UNL     1       1.617   5.989  11.527  1.00  0.00     0.123 A 
HETATM   28  O2  UNL     1       3.877   6.957  11.485  1.00  0.00    -0.346 OA
HETATM   29  O1  UNL     1       1.735   5.471  10.257  1.00  0.00    -0.344 OA
HETATM   30  C18 UNL     1       2.788   6.087   9.513  1.00  0.00     0.202 C 
HETATM   31  C19 UNL     1       4.056   6.118  10.342  1.00  0.00     0.202 C 
ENDBRANCH   4  22
TORSDOF 4
ENDMDL
MODEL 9
REMARK minimizedAffinity -9.04113865
REMARK  4 active torsions:
REMARK  status: ('A' for Active; 'I' for Inactive)
REMARK    1  A    between atoms: C4_5  and  C5_6 
REMARK    2  A    between atoms: C8_11  and  C9_12 
REMARK    3  A    between atoms: C9_12  and  N2_13 
REMARK    4  A    between atoms: N3_16  and  C12_17 
ROOT
HETATM    1  N2  UNL     1      -1.312   8.818  12.997  1.00  0.00     0.095 N 
HETATM    2  C10 UNL     1      -1.030   8.758  11.550  1.00  0.00     0.287 C 
HETATM    3  C11 UNL     1       0.471   8.524  11.240  1.00  0.00     0.126 C 
HETATM    4  N3  UNL     1       0.951   7.311  11.940  1.00  0.00    -0.278 NA
HETATM    5  C20 UNL     1       0.709   7.386  13.393  1.00  0.00     0.126 C 
HETATM    6  C21 UNL     1      -0.803   7.600  13.661  1.00  0.00     0.287 C 
ENDROOT
BRANCH   1   7
HETATM    7  C9  UNL     1      -2.703   9.141  13.327  1.00  0.00     0.312 C 
BRANCH   7   8
HETATM    8  C8  UNL     1      -3.557   8.037  13.896  1.00  0.00    -0.014 A 
HETATM    9  C7  UNL     1      -4.051   8.109  15.193  1.00  0.00     0.096 A 
HETATM   10  N1  UNL     1      -4.823   7.160  15.766  1.00  0.00    -0.374 N 
HETATM   11  C6  UNL     1      -5.117   6.078  15.006  1.00  0.00     0.100 A 
ATOM     12  H1  UNL     1      -5.167   7.253  16.722  1.00  0.00     0.164 HD
HETATM   13  C5  UNL     1      -4.688   5.886  13.692  1.00  0.00    -0.010 A 
HETATM   14  C22 UNL     1      -3.896   6.904  13.144  1.00  0.00     0.024 A 
BRANCH  13  15
HETATM   15  C4  UNL     1      -5.043   4.683  12.926  1.00  0.00    -0.024 A 
HETATM   16  C3  UNL     1      -6.306   4.080  13.072  1.00  0.00     0.015 A 
HETATM   17  C2  UNL     1      -6.643   2.935  12.346  1.00  0.00     0.043 A 
HETATM   18  C1  UNL     1      -5.720   2.384  11.467  1.00  0.00     0.116 A 
HETATM   19  F1  UNL     1      -6.043   1.287  10.770  1.00  0.00    -0.206 F 
HETATM   20  C24 UNL     1      -4.465   2.957  11.301  1.00  0.00     0.043 A 
HETATM   21  C23 UNL     1      -4.129   4.101  12.029  1.00  0.00     0.015 A 
ENDBRANCH  13  15
ENDBRANCH   7   8
ENDBRANCH   1   7
BRANCH   4  22
HETATM   22  C12 UNL     1       2.201   6.861  11.474  1.00  0.00     0.047 A 
HETATM   23  C13 UNL     1       2.179   5.907  10.433  1.00  0.00     0.027 A 
HETATM   24  C14 UNL     1       3.346   5.366   9.891  1.00  0.00     0.005 A 
HETATM   25  C15 UNL     1       4.582   5.775  10.373  1.00  0.00     0.040 A 
HETATM   26  C16 UNL     1       4.644   6.723  11.391  1.00  0.00     0.103 A 
HETATM   27  C17 UNL     1       3.467   7.251  11.962  1.00  0.00     0.123 A 
HETATM   28  O2  UNL     1       5.914   7.082  11.781  1.00  0.00    -0.346 OA
HETATM   29  O1  UNL     1       3.533   8.184  12.973  1.00  0.00    -0.344 OA
HETATM   30  C18 UNL     1       4.812   8.207  13.610  1.00  0.00     0.202 C 
HETATM   31  C19 UNL     1       5.908   8.275  12.567  1.00  0.00     0.202 C 
ENDBRANCH   4  22
TORSDOF 4
ENDMDL
