MODEL 1
REMARK minimizedAffinity -8.45904732
REMARK CNNscore 0.668131113
REMARK CNNaffinity 7.48112488
REMARK  12 active torsions:
REMARK  status: ('A' for Active; 'I' for Inactive)
REMARK    1  A    between atoms: C2_2  and  C3_3 
REMARK    2  A    between atoms: C2_2  and  C9_10 
REMARK    3  A    between atoms: C3_3  and  C4_4 
REMARK    4  A    between atoms: C5_5  and  C6_6 
REMARK    5  A    between atoms: C6_6  and  O1_9 
REMARK    6  A    between atoms: C27_29  and  O3_30 
REMARK    7  A    between atoms: O3_30  and  C28_31 
REMARK    8  A    between atoms: C29_33  and  C30_34 
REMARK    9  A    between atoms: C30_34  and  O5_35 
REMARK   10  A    between atoms: C31_36  and  O6_37 
REMARK   11  A    between atoms: C32_38  and  O7_39 
REMARK   12  A    between atoms: C33_40  and  O8_41 
ROOT
HETATM    1  C9  UNL     1      -0.234  50.911 -20.495  1.00  0.00    -0.002 C 
HETATM    2  C10 UNL     1      -0.332  51.636 -19.125  1.00  0.00     0.006 C 
HETATM    3  C11 UNL     1      -1.599  51.092 -18.420  1.00  0.00     0.011 C 
HETATM    4  C12 UNL     1      -2.011  49.853 -19.246  1.00  0.00    -0.029 C 
HETATM    5  C13 UNL     1      -1.105  48.688 -18.729  1.00  0.00     0.016 C 
HETATM    6  C14 UNL     1      -3.517  49.451 -19.176  1.00  0.00     0.028 C 
HETATM    7  C15 UNL     1      -3.960  49.053 -17.780  1.00  0.00    -0.021 C 
HETATM    8  C16 UNL     1      -4.642  47.919 -17.544  1.00  0.00     0.008 C 
HETATM    9  C17 UNL     1      -5.009  46.964 -18.674  1.00  0.00     0.092 C 
HETATM   10  O2  UNL     1      -6.047  47.669 -19.391  1.00  0.00    -0.374 OA
HETATM   11  C18 UNL     1      -5.447  48.395 -20.472  1.00  0.00     0.179 C 
HETATM   12  C19 UNL     1      -3.911  48.360 -20.273  1.00  0.00    -0.004 C 
HETATM   13  C20 UNL     1      -3.230  48.579 -21.653  1.00  0.00     0.014 C 
HETATM   14  C21 UNL     1      -1.801  49.150 -21.656  1.00  0.00     0.011 C 
HETATM   15  C22 UNL     1      -1.672  50.345 -20.699  1.00  0.00    -0.032 C 
HETATM   16  C23 UNL     1      -2.611  51.475 -21.219  1.00  0.00     0.016 C 
HETATM   17  C24 UNL     1      -3.794  46.946 -19.648  1.00  0.00     0.036 C 
HETATM   18  C25 UNL     1      -3.831  45.757 -20.604  1.00  0.00     0.011 C 
HETATM   19  C26 UNL     1      -3.817  44.431 -19.841  1.00  0.00     0.033 C 
HETATM   20  C27 UNL     1      -4.350  44.512 -18.399  1.00  0.00     0.136 C 
HETATM   21  C34 UNL     1      -5.529  45.524 -18.271  1.00  0.00     0.014 C 
HETATM   22  C35 UNL     1      -6.721  45.070 -19.160  1.00  0.00     0.021 C 
HETATM   23  C36 UNL     1      -6.082  45.472 -16.824  1.00  0.00     0.021 C 
ENDROOT
BRANCH  20  24
HETATM   24  O3  UNL     1      -4.788  43.215 -17.962  1.00  0.00    -0.352 OA
BRANCH  24  25
HETATM   25  C28 UNL     1      -5.179  42.328 -19.023  1.00  0.00     0.292 C 
HETATM   26  O4  UNL     1      -6.522  41.900 -18.837  1.00  0.00    -0.348 OA
HETATM   27  C29 UNL     1      -6.906  40.691 -19.528  1.00  0.00     0.179 C 
HETATM   28  C31 UNL     1      -5.922  40.215 -20.610  1.00  0.00     0.180 C 
HETATM   29  C32 UNL     1      -4.468  40.175 -20.120  1.00  0.00     0.183 C 
HETATM   30  C33 UNL     1      -4.213  41.135 -18.954  1.00  0.00     0.204 C 
BRANCH  27  31
HETATM   31  C30 UNL     1      -7.169  39.614 -18.466  1.00  0.00     0.198 C 
BRANCH  31  32
HETATM   32  O5  UNL     1      -7.912  40.183 -17.385  1.00  0.00    -0.398 OA
HETATM   33  H46 UNL     1      -7.485  41.041 -17.195  1.00  0.00     0.209 HD
ENDBRANCH  31  32
ENDBRANCH  27  31
BRANCH  28  34
HETATM   34  O6  UNL     1      -6.003  41.138 -21.711  1.00  0.00    -0.390 OA
HETATM   35  H48 UNL     1      -5.596  40.701 -22.483  1.00  0.00     0.210 HD
ENDBRANCH  28  34
BRANCH  29  36
HETATM   36  O7  UNL     1      -4.128  38.841 -19.719  1.00  0.00    -0.390 OA
HETATM   37  H50 UNL     1      -3.199  38.883 -19.416  1.00  0.00     0.210 HD
ENDBRANCH  29  36
BRANCH  30  38
HETATM   38  O8  UNL     1      -2.837  41.551 -18.984  1.00  0.00    -0.388 OA
HETATM   39  H52 UNL     1      -2.790  42.285 -18.337  1.00  0.00     0.210 HD
ENDBRANCH  30  38
ENDBRANCH  24  25
ENDBRANCH  20  24
BRANCH   1  40
HETATM   40  C2  UNL     1       0.434  51.704 -21.661  1.00  0.00    -0.010 C 
HETATM   41  C1  UNL     1       1.323  52.809 -21.058  1.00  0.00     0.010 C 
BRANCH  40  42
HETATM   42  C3  UNL     1      -0.535  52.349 -22.683  1.00  0.00     0.031 C 
BRANCH  42  43
HETATM   43  C4  UNL     1      -0.318  52.080 -24.156  1.00  0.00    -0.027 C 
HETATM   44  C5  UNL     1       0.625  52.591 -24.969  1.00  0.00     0.006 C 
BRANCH  44  45
HETATM   45  C6  UNL     1       0.840  52.266 -26.430  1.00  0.00     0.068 C 
HETATM   46  C7  UNL     1       0.266  50.885 -26.759  1.00  0.00     0.050 C 
HETATM   47  C8  UNL     1       0.189  53.338 -27.304  1.00  0.00     0.050 C 
BRANCH  45  48
HETATM   48  O1  UNL     1       2.232  52.249 -26.746  1.00  0.00    -0.387 OA
HETATM   49  H15 UNL     1       2.630  51.527 -26.228  1.00  0.00     0.211 HD
ENDBRANCH  45  48
ENDBRANCH  44  45
ENDBRANCH  42  43
ENDBRANCH  40  42
ENDBRANCH   1  40
TORSDOF 12
ENDMDL
MODEL 2
REMARK minimizedAffinity -8.75204182
REMARK CNNscore 0.663475156
REMARK CNNaffinity 7.52410698
REMARK  12 active torsions:
REMARK  status: ('A' for Active; 'I' for Inactive)
REMARK    1  A    between atoms: C2_2  and  C3_3 
REMARK    2  A    between atoms: C2_2  and  C9_10 
REMARK    3  A    between atoms: C3_3  and  C4_4 
REMARK    4  A    between atoms: C5_5  and  C6_6 
REMARK    5  A    between atoms: C6_6  and  O1_9 
REMARK    6  A    between atoms: C27_29  and  O3_30 
REMARK    7  A    between atoms: O3_30  and  C28_31 
REMARK    8  A    between atoms: C29_33  and  C30_34 
REMARK    9  A    between atoms: C30_34  and  O5_35 
REMARK   10  A    between atoms: C31_36  and  O6_37 
REMARK   11  A    between atoms: C32_38  and  O7_39 
REMARK   12  A    between atoms: C33_40  and  O8_41 
ROOT
HETATM    1  C9  UNL     1       0.083  51.555 -20.677  1.00  0.00    -0.002 C 
HETATM    2  C10 UNL     1      -0.250  52.339 -19.378  1.00  0.00     0.006 C 
HETATM    3  C11 UNL     1      -1.643  51.852 -18.906  1.00  0.00     0.011 C 
HETATM    4  C12 UNL     1      -1.928  50.588 -19.748  1.00  0.00    -0.029 C 
HETATM    5  C13 UNL     1      -1.168  49.427 -19.026  1.00  0.00     0.016 C 
HETATM    6  C14 UNL     1      -3.430  50.221 -19.951  1.00  0.00     0.028 C 
HETATM    7  C15 UNL     1      -4.140  49.892 -18.650  1.00  0.00    -0.021 C 
HETATM    8  C16 UNL     1      -4.886  48.783 -18.505  1.00  0.00     0.008 C 
HETATM    9  C17 UNL     1      -5.061  47.790 -19.647  1.00  0.00     0.092 C 
HETATM   10  O2  UNL     1      -5.925  48.486 -20.574  1.00  0.00    -0.374 OA
HETATM   11  C18 UNL     1      -5.111  49.153 -21.549  1.00  0.00     0.179 C 
HETATM   12  C19 UNL     1      -3.642  49.094 -21.061  1.00  0.00    -0.004 C 
HETATM   13  C20 UNL     1      -2.707  49.241 -22.294  1.00  0.00     0.014 C 
HETATM   14  C21 UNL     1      -1.286  49.781 -22.048  1.00  0.00     0.011 C 
HETATM   15  C22 UNL     1      -1.306  51.012 -21.128  1.00  0.00    -0.032 C 
HETATM   16  C23 UNL     1      -2.098  52.139 -21.859  1.00  0.00     0.016 C 
HETATM   17  C24 UNL     1      -3.685  47.706 -20.372  1.00  0.00     0.036 C 
HETATM   18  C25 UNL     1      -3.575  46.478 -21.274  1.00  0.00     0.011 C 
HETATM   19  C26 UNL     1      -3.743  45.185 -20.473  1.00  0.00     0.033 C 
HETATM   20  C27 UNL     1      -4.536  45.338 -19.162  1.00  0.00     0.136 C 
HETATM   21  C34 UNL     1      -5.689  46.379 -19.298  1.00  0.00     0.014 C 
HETATM   22  C35 UNL     1      -6.705  45.914 -20.379  1.00  0.00     0.021 C 
HETATM   23  C36 UNL     1      -6.506  46.400 -17.981  1.00  0.00     0.021 C 
ENDROOT
BRANCH  20  24
HETATM   24  O3  UNL     1      -5.086  44.070 -18.768  1.00  0.00    -0.352 OA
BRANCH  24  25
HETATM   25  C28 UNL     1      -4.112  43.029 -18.582  1.00  0.00     0.292 C 
HETATM   26  O4  UNL     1      -4.546  41.831 -19.214  1.00  0.00    -0.348 OA
HETATM   27  C29 UNL     1      -3.932  40.610 -18.749  1.00  0.00     0.179 C 
HETATM   28  C31 UNL     1      -2.682  40.797 -17.873  1.00  0.00     0.180 C 
HETATM   29  C32 UNL     1      -2.890  41.816 -16.744  1.00  0.00     0.183 C 
HETATM   30  C33 UNL     1      -3.992  42.831 -17.063  1.00  0.00     0.204 C 
BRANCH  27  31
HETATM   31  C30 UNL     1      -5.019  39.785 -18.045  1.00  0.00     0.198 C 
BRANCH  31  32
HETATM   32  O5  UNL     1      -5.818  39.115 -19.022  1.00  0.00    -0.398 OA
HETATM   33  H46 UNL     1      -6.004  39.782 -19.712  1.00  0.00     0.209 HD
ENDBRANCH  31  32
ENDBRANCH  27  31
BRANCH  28  34
HETATM   34  O6  UNL     1      -1.621  41.271 -18.721  1.00  0.00    -0.390 OA
HETATM   35  H48 UNL     1      -0.784  41.134 -18.239  1.00  0.00     0.210 HD
ENDBRANCH  28  34
BRANCH  29  36
HETATM   36  O7  UNL     1      -3.213  41.132 -15.526  1.00  0.00    -0.390 OA
HETATM   37  H50 UNL     1      -3.336  41.831 -14.853  1.00  0.00     0.210 HD
ENDBRANCH  29  36
BRANCH  30  38
HETATM   38  O8  UNL     1      -3.707  44.062 -16.378  1.00  0.00    -0.388 OA
HETATM   39  H52 UNL     1      -4.337  44.706 -16.760  1.00  0.00     0.210 HD
ENDBRANCH  30  38
ENDBRANCH  24  25
ENDBRANCH  20  24
BRANCH   1  40
HETATM   40  C2  UNL     1       0.981  52.284 -21.724  1.00  0.00    -0.010 C 
HETATM   41  C1  UNL     1       1.627  53.511 -21.049  1.00  0.00     0.010 C 
BRANCH  40  42
HETATM   42  C3  UNL     1       0.270  52.748 -23.019  1.00  0.00     0.031 C 
BRANCH  42  43
HETATM   43  C4  UNL     1       0.627  52.069 -24.323  1.00  0.00    -0.027 C 
HETATM   44  C5  UNL     1       0.392  52.494 -25.579  1.00  0.00     0.006 C 
BRANCH  44  45
HETATM   45  C6  UNL     1       0.801  51.808 -26.863  1.00  0.00     0.068 C 
HETATM   46  C7  UNL     1       0.394  52.656 -28.071  1.00  0.00     0.050 C 
HETATM   47  C8  UNL     1       2.310  51.564 -26.866  1.00  0.00     0.050 C 
BRANCH  45  48
HETATM   48  O1  UNL     1       0.165  50.537 -26.983  1.00  0.00    -0.387 OA
HETATM   49  H15 UNL     1      -0.792  50.704 -27.038  1.00  0.00     0.211 HD
ENDBRANCH  45  48
ENDBRANCH  44  45
ENDBRANCH  42  43
ENDBRANCH  40  42
ENDBRANCH   1  40
TORSDOF 12
ENDMDL
MODEL 3
REMARK minimizedAffinity -10.3413162
REMARK CNNscore 0.51513499
REMARK CNNaffinity 7.5362339
REMARK  12 active torsions:
REMARK  status: ('A' for Active; 'I' for Inactive)
REMARK    1  A    between atoms: C2_2  and  C3_3 
REMARK    2  A    between atoms: C2_2  and  C9_10 
REMARK    3  A    between atoms: C3_3  and  C4_4 
REMARK    4  A    between atoms: C5_5  and  C6_6 
REMARK    5  A    between atoms: C6_6  and  O1_9 
REMARK    6  A    between atoms: C27_29  and  O3_30 
REMARK    7  A    between atoms: O3_30  and  C28_31 
REMARK    8  A    between atoms: C29_33  and  C30_34 
REMARK    9  A    between atoms: C30_34  and  O5_35 
REMARK   10  A    between atoms: C31_36  and  O6_37 
REMARK   11  A    between atoms: C32_38  and  O7_39 
REMARK   12  A    between atoms: C33_40  and  O8_41 
ROOT
HETATM    1  C9  UNL     1      -1.062  50.137 -21.312  1.00  0.00    -0.002 C 
HETATM    2  C10 UNL     1      -0.443  48.723 -21.137  1.00  0.00     0.006 C 
HETATM    3  C11 UNL     1      -1.622  47.743 -20.919  1.00  0.00     0.011 C 
HETATM    4  C12 UNL     1      -2.885  48.551 -21.292  1.00  0.00    -0.029 C 
HETATM    5  C13 UNL     1      -2.981  48.475 -22.851  1.00  0.00     0.016 C 
HETATM    6  C14 UNL     1      -4.219  48.084 -20.634  1.00  0.00     0.028 C 
HETATM    7  C15 UNL     1      -4.621  46.679 -21.042  1.00  0.00    -0.021 C 
HETATM    8  C16 UNL     1      -5.858  46.389 -21.480  1.00  0.00     0.008 C 
HETATM    9  C17 UNL     1      -6.932  47.464 -21.592  1.00  0.00     0.092 C 
HETATM   10  O2  UNL     1      -7.274  47.746 -20.216  1.00  0.00    -0.374 OA
HETATM   11  C18 UNL     1      -6.492  48.861 -19.767  1.00  0.00     0.179 C 
HETATM   12  C19 UNL     1      -5.403  49.137 -20.834  1.00  0.00    -0.004 C 
HETATM   13  C20 UNL     1      -4.955  50.620 -20.710  1.00  0.00     0.014 C 
HETATM   14  C21 UNL     1      -3.548  50.981 -21.219  1.00  0.00     0.011 C 
HETATM   15  C22 UNL     1      -2.498  49.969 -20.734  1.00  0.00    -0.032 C 
HETATM   16  C23 UNL     1      -2.449  50.043 -19.178  1.00  0.00     0.016 C 
HETATM   17  C24 UNL     1      -6.216  48.751 -22.096  1.00  0.00     0.036 C 
HETATM   18  C25 UNL     1      -7.197  49.790 -22.637  1.00  0.00     0.011 C 
HETATM   19  C26 UNL     1      -8.004  49.233 -23.811  1.00  0.00     0.033 C 
HETATM   20  C27 UNL     1      -8.130  47.698 -23.835  1.00  0.00     0.136 C 
HETATM   21  C34 UNL     1      -8.245  47.102 -22.399  1.00  0.00     0.014 C 
HETATM   22  C35 UNL     1      -9.523  47.642 -21.697  1.00  0.00     0.021 C 
HETATM   23  C36 UNL     1      -8.478  45.573 -22.507  1.00  0.00     0.021 C 
ENDROOT
BRANCH  20  24
HETATM   24  O3  UNL     1      -9.281  47.311 -24.604  1.00  0.00    -0.352 OA
BRANCH  24  25
HETATM   25  C28 UNL     1      -9.016  47.066 -25.995  1.00  0.00     0.292 C 
HETATM   26  O4  UNL     1      -7.663  46.665 -26.174  1.00  0.00    -0.348 OA
HETATM   27  C29 UNL     1      -7.125  46.823 -27.505  1.00  0.00     0.179 C 
HETATM   28  C31 UNL     1      -8.165  47.098 -28.604  1.00  0.00     0.180 C 
HETATM   29  C32 UNL     1      -9.147  48.217 -28.232  1.00  0.00     0.183 C 
HETATM   30  C33 UNL     1      -9.290  48.395 -26.717  1.00  0.00     0.204 C 
BRANCH  27  31
HETATM   31  C30 UNL     1      -6.044  47.912 -27.440  1.00  0.00     0.198 C 
BRANCH  31  32
HETATM   32  O5  UNL     1      -5.884  48.502 -28.732  1.00  0.00    -0.398 OA
HETATM   33  H46 UNL     1      -5.866  47.755 -29.362  1.00  0.00     0.209 HD
ENDBRANCH  31  32
ENDBRANCH  27  31
BRANCH  28  34
HETATM   34  O6  UNL     1      -8.915  45.887 -28.809  1.00  0.00    -0.390 OA
HETATM   35  H48 UNL     1      -9.375  45.974 -29.665  1.00  0.00     0.210 HD
ENDBRANCH  28  34
BRANCH  29  36
HETATM   36  O7  UNL     1      -8.717  49.454 -28.816  1.00  0.00    -0.390 OA
HETATM   37  H50 UNL     1      -9.377  50.121 -28.540  1.00  0.00     0.210 HD
ENDBRANCH  29  36
BRANCH  30  38
HETATM   38  O8  UNL     1     -10.602  48.906 -26.428  1.00  0.00    -0.388 OA
HETATM   39  H52 UNL     1     -10.687  48.827 -25.456  1.00  0.00     0.210 HD
ENDBRANCH  30  38
ENDBRANCH  24  25
ENDBRANCH  20  24
BRANCH   1  40
HETATM   40  C2  UNL     1      -0.196  51.345 -20.835  1.00  0.00    -0.010 C 
HETATM   41  C1  UNL     1      -0.777  51.872 -19.507  1.00  0.00     0.010 C 
BRANCH  40  42
HETATM   42  C3  UNL     1      -0.077  52.527 -21.828  1.00  0.00     0.031 C 
BRANCH  42  43
HETATM   43  C4  UNL     1      -0.108  52.232 -23.311  1.00  0.00    -0.027 C 
HETATM   44  C5  UNL     1       0.787  52.585 -24.253  1.00  0.00     0.006 C 
BRANCH  44  45
HETATM   45  C6  UNL     1       0.747  52.235 -25.724  1.00  0.00     0.068 C 
HETATM   46  C7  UNL     1       2.038  51.524 -26.137  1.00  0.00     0.050 C 
HETATM   47  C8  UNL     1      -0.467  51.352 -26.017  1.00  0.00     0.050 C 
BRANCH  45  48
HETATM   48  O1  UNL     1       0.618  53.411 -26.521  1.00  0.00    -0.387 OA
HETATM   49  H15 UNL     1       1.420  53.942 -26.373  1.00  0.00     0.211 HD
ENDBRANCH  45  48
ENDBRANCH  44  45
ENDBRANCH  42  43
ENDBRANCH  40  42
ENDBRANCH   1  40
TORSDOF 12
ENDMDL
MODEL 4
REMARK minimizedAffinity -8.55087948
REMARK CNNscore 0.514041066
REMARK CNNaffinity 7.1173749
REMARK  12 active torsions:
REMARK  status: ('A' for Active; 'I' for Inactive)
REMARK    1  A    between atoms: C2_2  and  C3_3 
REMARK    2  A    between atoms: C2_2  and  C9_10 
REMARK    3  A    between atoms: C3_3  and  C4_4 
REMARK    4  A    between atoms: C5_5  and  C6_6 
REMARK    5  A    between atoms: C6_6  and  O1_9 
REMARK    6  A    between atoms: C27_29  and  O3_30 
REMARK    7  A    between atoms: O3_30  and  C28_31 
REMARK    8  A    between atoms: C29_33  and  C30_34 
REMARK    9  A    between atoms: C30_34  and  O5_35 
REMARK   10  A    between atoms: C31_36  and  O6_37 
REMARK   11  A    between atoms: C32_38  and  O7_39 
REMARK   12  A    between atoms: C33_40  and  O8_41 
ROOT
HETATM    1  C9  UNL     1      -2.836  49.295 -24.352  1.00  0.00    -0.002 C 
HETATM    2  C10 UNL     1      -1.765  50.271 -23.792  1.00  0.00     0.006 C 
HETATM    3  C11 UNL     1      -1.917  50.265 -22.251  1.00  0.00     0.011 C 
HETATM    4  C12 UNL     1      -2.836  49.061 -21.947  1.00  0.00    -0.029 C 
HETATM    5  C13 UNL     1      -1.899  47.809 -21.958  1.00  0.00     0.016 C 
HETATM    6  C14 UNL     1      -3.644  49.132 -20.615  1.00  0.00     0.028 C 
HETATM    7  C15 UNL     1      -2.757  49.161 -19.384  1.00  0.00    -0.021 C 
HETATM    8  C16 UNL     1      -2.960  48.341 -18.339  1.00  0.00     0.008 C 
HETATM    9  C17 UNL     1      -4.100  47.331 -18.333  1.00  0.00     0.092 C 
HETATM   10  O2  UNL     1      -5.280  48.151 -18.169  1.00  0.00    -0.374 OA
HETATM   11  C18 UNL     1      -5.818  48.446 -19.465  1.00  0.00     0.179 C 
HETATM   12  C19 UNL     1      -4.775  48.009 -20.523  1.00  0.00    -0.004 C 
HETATM   13  C20 UNL     1      -5.513  47.747 -21.865  1.00  0.00     0.014 C 
HETATM   14  C21 UNL     1      -4.694  47.869 -23.163  1.00  0.00     0.011 C 
HETATM   15  C22 UNL     1      -3.829  49.140 -23.163  1.00  0.00    -0.032 C 
HETATM   16  C23 UNL     1      -4.788  50.368 -23.117  1.00  0.00     0.016 C 
HETATM   17  C24 UNL     1      -4.202  46.773 -19.783  1.00  0.00     0.036 C 
HETATM   18  C25 UNL     1      -5.013  45.481 -19.855  1.00  0.00     0.011 C 
HETATM   19  C26 UNL     1      -4.387  44.384 -18.993  1.00  0.00     0.033 C 
HETATM   20  C27 UNL     1      -3.510  44.896 -17.835  1.00  0.00     0.136 C 
HETATM   21  C34 UNL     1      -4.076  46.210 -17.215  1.00  0.00     0.014 C 
HETATM   22  C35 UNL     1      -5.490  45.955 -16.621  1.00  0.00     0.021 C 
HETATM   23  C36 UNL     1      -3.208  46.605 -15.993  1.00  0.00     0.021 C 
ENDROOT
BRANCH  20  24
HETATM   24  O3  UNL     1      -3.410  43.893 -16.811  1.00  0.00    -0.352 OA
BRANCH  24  25
HETATM   25  C28 UNL     1      -2.546  42.792 -17.137  1.00  0.00     0.292 C 
HETATM   26  O4  UNL     1      -3.294  41.585 -17.214  1.00  0.00    -0.348 OA
HETATM   27  C29 UNL     1      -2.540  40.361 -17.078  1.00  0.00     0.179 C 
HETATM   28  C31 UNL     1      -1.014  40.515 -17.189  1.00  0.00     0.180 C 
HETATM   29  C32 UNL     1      -0.462  41.644 -16.309  1.00  0.00     0.183 C 
HETATM   30  C33 UNL     1      -1.510  42.719 -16.004  1.00  0.00     0.204 C 
BRANCH  27  31
HETATM   31  C30 UNL     1      -2.965  39.700 -15.759  1.00  0.00     0.198 C 
BRANCH  31  32
HETATM   32  O5  UNL     1      -4.124  40.361 -15.246  1.00  0.00    -0.398 OA
HETATM   33  H46 UNL     1      -3.945  41.317 -15.342  1.00  0.00     0.209 HD
ENDBRANCH  31  32
ENDBRANCH  27  31
BRANCH  28  34
HETATM   34  O6  UNL     1      -0.704  40.818 -18.561  1.00  0.00    -0.390 OA
HETATM   35  H48 UNL     1       0.250  40.652 -18.684  1.00  0.00     0.210 HD
ENDBRANCH  28  34
BRANCH  29  36
HETATM   36  O7  UNL     1       0.033  41.102 -15.077  1.00  0.00    -0.390 OA
HETATM   37  H50 UNL     1       0.364  41.866 -14.564  1.00  0.00     0.210 HD
ENDBRANCH  29  36
BRANCH  30  38
HETATM   38  O8  UNL     1      -0.844  43.976 -15.798  1.00  0.00    -0.388 OA
HETATM   39  H52 UNL     1      -1.567  44.637 -15.787  1.00  0.00     0.210 HD
ENDBRANCH  30  38
ENDBRANCH  24  25
ENDBRANCH  20  24
BRANCH   1  40
HETATM   40  C2  UNL     1      -3.404  49.617 -25.769  1.00  0.00    -0.010 C 
HETATM   41  C1  UNL     1      -4.233  48.410 -26.253  1.00  0.00     0.010 C 
BRANCH  40  42
HETATM   42  C3  UNL     1      -2.357  49.967 -26.856  1.00  0.00     0.031 C 
BRANCH  42  43
HETATM   43  C4  UNL     1      -1.317  51.020 -26.545  1.00  0.00    -0.027 C 
HETATM   44  C5  UNL     1       0.013  50.969 -26.751  1.00  0.00     0.006 C 
BRANCH  44  45
HETATM   45  C6  UNL     1       1.020  52.060 -26.466  1.00  0.00     0.068 C 
HETATM   46  C7  UNL     1       0.989  52.440 -24.984  1.00  0.00     0.050 C 
HETATM   47  C8  UNL     1       2.420  51.596 -26.870  1.00  0.00     0.050 C 
BRANCH  45  48
HETATM   48  O1  UNL     1       0.726  53.231 -27.226  1.00  0.00    -0.387 OA
HETATM   49  H15 UNL     1      -0.141  53.554 -26.925  1.00  0.00     0.211 HD
ENDBRANCH  45  48
ENDBRANCH  44  45
ENDBRANCH  42  43
ENDBRANCH  40  42
ENDBRANCH   1  40
TORSDOF 12
ENDMDL
MODEL 5
REMARK minimizedAffinity -8.35691547
REMARK CNNscore 0.5126158
REMARK CNNaffinity 7.19018507
REMARK  12 active torsions:
REMARK  status: ('A' for Active; 'I' for Inactive)
REMARK    1  A    between atoms: C2_2  and  C3_3 
REMARK    2  A    between atoms: C2_2  and  C9_10 
REMARK    3  A    between atoms: C3_3  and  C4_4 
REMARK    4  A    between atoms: C5_5  and  C6_6 
REMARK    5  A    between atoms: C6_6  and  O1_9 
REMARK    6  A    between atoms: C27_29  and  O3_30 
REMARK    7  A    between atoms: O3_30  and  C28_31 
REMARK    8  A    between atoms: C29_33  and  C30_34 
REMARK    9  A    between atoms: C30_34  and  O5_35 
REMARK   10  A    between atoms: C31_36  and  O6_37 
REMARK   11  A    between atoms: C32_38  and  O7_39 
REMARK   12  A    between atoms: C33_40  and  O8_41 
ROOT
HETATM    1  C9  UNL     1      -1.671  50.519 -21.952  1.00  0.00    -0.002 C 
HETATM    2  C10 UNL     1      -0.503  49.760 -21.264  1.00  0.00     0.006 C 
HETATM    3  C11 UNL     1      -1.137  48.592 -20.468  1.00  0.00     0.011 C 
HETATM    4  C12 UNL     1      -2.596  48.514 -20.970  1.00  0.00    -0.029 C 
HETATM    5  C13 UNL     1      -2.533  47.699 -22.303  1.00  0.00     0.016 C 
HETATM    6  C14 UNL     1      -3.629  47.882 -19.987  1.00  0.00     0.028 C 
HETATM    7  C15 UNL     1      -3.332  46.428 -19.670  1.00  0.00    -0.021 C 
HETATM    8  C16 UNL     1      -4.276  45.474 -19.750  1.00  0.00     0.008 C 
HETATM    9  C17 UNL     1      -5.704  45.803 -20.166  1.00  0.00     0.092 C 
HETATM   10  O2  UNL     1      -6.237  46.508 -19.022  1.00  0.00    -0.374 OA
HETATM   11  C18 UNL     1      -6.067  47.917 -19.230  1.00  0.00     0.179 C 
HETATM   12  C19 UNL     1      -5.138  48.107 -20.455  1.00  0.00    -0.004 C 
HETATM   13  C20 UNL     1      -5.406  49.512 -21.063  1.00  0.00     0.014 C 
HETATM   14  C21 UNL     1      -4.273  50.161 -21.878  1.00  0.00     0.011 C 
HETATM   15  C22 UNL     1      -2.922  50.040 -21.156  1.00  0.00    -0.032 C 
HETATM   16  C23 UNL     1      -3.026  50.832 -19.817  1.00  0.00     0.016 C 
HETATM   17  C24 UNL     1      -5.600  46.882 -21.284  1.00  0.00     0.036 C 
HETATM   18  C25 UNL     1      -6.897  47.027 -22.078  1.00  0.00     0.011 C 
HETATM   19  C26 UNL     1      -7.283  45.710 -22.755  1.00  0.00     0.033 C 
HETATM   20  C27 UNL     1      -6.712  44.448 -22.082  1.00  0.00     0.136 C 
HETATM   21  C34 UNL     1      -6.656  44.592 -20.531  1.00  0.00     0.014 C 
HETATM   22  C35 UNL     1      -8.089  44.789 -19.960  1.00  0.00     0.021 C 
HETATM   23  C36 UNL     1      -6.176  43.251 -19.919  1.00  0.00     0.021 C 
ENDROOT
BRANCH  20  24
HETATM   24  O3  UNL     1      -7.511  43.304 -22.425  1.00  0.00    -0.352 OA
BRANCH  24  25
HETATM   25  C28 UNL     1      -8.619  43.588 -23.295  1.00  0.00     0.292 C 
HETATM   26  O4  UNL     1      -9.847  43.406 -22.603  1.00  0.00    -0.348 OA
HETATM   27  C29 UNL     1     -11.017  43.206 -23.426  1.00  0.00     0.179 C 
HETATM   28  C31 UNL     1     -10.832  43.531 -24.917  1.00  0.00     0.180 C 
HETATM   29  C32 UNL     1      -9.574  42.888 -25.518  1.00  0.00     0.183 C 
HETATM   30  C33 UNL     1      -8.501  42.597 -24.464  1.00  0.00     0.204 C 
BRANCH  27  31
HETATM   31  C30 UNL     1     -11.502  41.768 -23.199  1.00  0.00     0.198 C 
BRANCH  31  32
HETATM   32  O5  UNL     1     -10.382  40.926 -22.914  1.00  0.00    -0.398 OA
HETATM   33  H46 UNL     1      -9.696  41.172 -23.566  1.00  0.00     0.209 HD
ENDBRANCH  31  32
ENDBRANCH  27  31
BRANCH  28  34
HETATM   34  O6  UNL     1     -10.712  44.960 -25.042  1.00  0.00    -0.390 OA
HETATM   35  H48 UNL     1     -10.864  45.181 -25.981  1.00  0.00     0.210 HD
ENDBRANCH  28  34
BRANCH  29  36
HETATM   36  O7  UNL     1      -9.926  41.668 -26.186  1.00  0.00    -0.390 OA
HETATM   37  H50 UNL     1      -9.088  41.308 -26.539  1.00  0.00     0.210 HD
ENDBRANCH  29  36
BRANCH  30  38
HETATM   38  O8  UNL     1      -7.207  42.648 -25.088  1.00  0.00    -0.388 OA
HETATM   39  H52 UNL     1      -6.575  42.633 -24.341  1.00  0.00     0.210 HD
ENDBRANCH  30  38
ENDBRANCH  24  25
ENDBRANCH  20  24
BRANCH   1  40
HETATM   40  C2  UNL     1      -1.470  52.049 -22.187  1.00  0.00    -0.010 C 
HETATM   41  C1  UNL     1      -2.408  52.499 -23.325  1.00  0.00     0.010 C 
BRANCH  40  42
HETATM   42  C3  UNL     1      -0.027  52.497 -22.527  1.00  0.00     0.031 C 
BRANCH  42  43
HETATM   43  C4  UNL     1       0.351  52.677 -23.980  1.00  0.00    -0.027 C 
HETATM   44  C5  UNL     1       0.702  51.736 -24.876  1.00  0.00     0.006 C 
BRANCH  44  45
HETATM   45  C6  UNL     1       1.033  51.947 -26.336  1.00  0.00     0.068 C 
HETATM   46  C7  UNL     1       2.481  51.536 -26.618  1.00  0.00     0.050 C 
HETATM   47  C8  UNL     1       0.070  51.145 -27.211  1.00  0.00     0.050 C 
BRANCH  45  48
HETATM   48  O1  UNL     1       0.889  53.321 -26.694  1.00  0.00    -0.387 OA
HETATM   49  H15 UNL     1       1.544  53.819 -26.175  1.00  0.00     0.211 HD
ENDBRANCH  45  48
ENDBRANCH  44  45
ENDBRANCH  42  43
ENDBRANCH  40  42
ENDBRANCH   1  40
TORSDOF 12
ENDMDL
MODEL 6
REMARK minimizedAffinity -8.93207359
REMARK CNNscore 0.410220712
REMARK CNNaffinity 7.15679979
REMARK  12 active torsions:
REMARK  status: ('A' for Active; 'I' for Inactive)
REMARK    1  A    between atoms: C2_2  and  C3_3 
REMARK    2  A    between atoms: C2_2  and  C9_10 
REMARK    3  A    between atoms: C3_3  and  C4_4 
REMARK    4  A    between atoms: C5_5  and  C6_6 
REMARK    5  A    between atoms: C6_6  and  O1_9 
REMARK    6  A    between atoms: C27_29  and  O3_30 
REMARK    7  A    between atoms: O3_30  and  C28_31 
REMARK    8  A    between atoms: C29_33  and  C30_34 
REMARK    9  A    between atoms: C30_34  and  O5_35 
REMARK   10  A    between atoms: C31_36  and  O6_37 
REMARK   11  A    between atoms: C32_38  and  O7_39 
REMARK   12  A    between atoms: C33_40  and  O8_41 
ROOT
HETATM    1  C9  UNL     1      -0.030  51.555 -20.514  1.00  0.00    -0.002 C 
HETATM    2  C10 UNL     1      -0.491  52.340 -19.255  1.00  0.00     0.006 C 
HETATM    3  C11 UNL     1      -1.905  51.820 -18.896  1.00  0.00     0.011 C 
HETATM    4  C12 UNL     1      -2.086  50.543 -19.747  1.00  0.00    -0.029 C 
HETATM    5  C13 UNL     1      -1.360  49.408 -18.952  1.00  0.00     0.016 C 
HETATM    6  C14 UNL     1      -3.556  50.135 -20.070  1.00  0.00     0.028 C 
HETATM    7  C15 UNL     1      -4.364  49.797 -18.830  1.00  0.00    -0.021 C 
HETATM    8  C16 UNL     1      -5.091  48.670 -18.737  1.00  0.00     0.008 C 
HETATM    9  C17 UNL     1      -5.143  47.664 -19.879  1.00  0.00     0.092 C 
HETATM   10  O2  UNL     1      -5.945  48.330 -20.881  1.00  0.00    -0.374 OA
HETATM   11  C18 UNL     1      -5.070  49.011 -21.791  1.00  0.00     0.179 C 
HETATM   12  C19 UNL     1      -3.646  48.994 -21.182  1.00  0.00    -0.004 C 
HETATM   13  C20 UNL     1      -2.615  49.156 -22.334  1.00  0.00     0.014 C 
HETATM   14  C21 UNL     1      -1.234  49.735 -21.976  1.00  0.00     0.011 C 
HETATM   15  C22 UNL     1      -1.362  50.972 -21.074  1.00  0.00    -0.032 C 
HETATM   16  C23 UNL     1      -2.119  52.072 -21.879  1.00  0.00     0.016 C 
HETATM   17  C24 UNL     1      -3.711  47.610 -20.486  1.00  0.00     0.036 C 
HETATM   18  C25 UNL     1      -3.494  46.379 -21.363  1.00  0.00     0.011 C 
HETATM   19  C26 UNL     1      -3.695  45.088 -20.566  1.00  0.00     0.033 C 
HETATM   20  C27 UNL     1      -4.599  45.230 -19.327  1.00  0.00     0.136 C 
HETATM   21  C34 UNL     1      -5.762  46.240 -19.569  1.00  0.00     0.014 C 
HETATM   22  C35 UNL     1      -6.672  45.739 -20.726  1.00  0.00     0.021 C 
HETATM   23  C36 UNL     1      -6.687  46.249 -18.325  1.00  0.00     0.021 C 
ENDROOT
BRANCH  20  24
HETATM   24  O3  UNL     1      -5.147  43.951 -18.968  1.00  0.00    -0.352 OA
BRANCH  24  25
HETATM   25  C28 UNL     1      -4.580  43.371 -17.782  1.00  0.00     0.292 C 
HETATM   26  O4  UNL     1      -4.426  44.362 -16.774  1.00  0.00    -0.348 OA
HETATM   27  C29 UNL     1      -3.481  44.061 -15.725  1.00  0.00     0.179 C 
HETATM   28  C31 UNL     1      -3.013  42.597 -15.666  1.00  0.00     0.180 C 
HETATM   29  C32 UNL     1      -2.567  42.056 -17.031  1.00  0.00     0.183 C 
HETATM   30  C33 UNL     1      -3.214  42.804 -18.201  1.00  0.00     0.204 C 
BRANCH  27  31
HETATM   31  C30 UNL     1      -2.308  45.043 -15.864  1.00  0.00     0.198 C 
BRANCH  31  32
HETATM   32  O5  UNL     1      -1.145  44.486 -15.246  1.00  0.00    -0.398 OA
HETATM   33  H46 UNL     1      -1.450  44.121 -14.392  1.00  0.00     0.209 HD
ENDBRANCH  31  32
ENDBRANCH  27  31
BRANCH  28  34
HETATM   34  O6  UNL     1      -4.120  41.803 -15.203  1.00  0.00    -0.390 OA
HETATM   35  H48 UNL     1      -3.757  40.944 -14.914  1.00  0.00     0.210 HD
ENDBRANCH  28  34
BRANCH  29  36
HETATM   36  O7  UNL     1      -1.140  42.142 -17.144  1.00  0.00    -0.390 OA
HETATM   37  H50 UNL     1      -0.922  41.789 -18.030  1.00  0.00     0.210 HD
ENDBRANCH  29  36
BRANCH  30  38
HETATM   38  O8  UNL     1      -3.319  41.914 -19.324  1.00  0.00    -0.388 OA
HETATM   39  H52 UNL     1      -3.891  42.390 -19.961  1.00  0.00     0.210 HD
ENDBRANCH  30  38
ENDBRANCH  24  25
ENDBRANCH  20  24
BRANCH   1  40
HETATM   40  C2  UNL     1       0.933  52.300 -21.490  1.00  0.00    -0.010 C 
HETATM   41  C1  UNL     1       1.604  53.460 -20.728  1.00  0.00     0.010 C 
BRANCH  40  42
HETATM   42  C3  UNL     1       0.288  52.861 -22.781  1.00  0.00     0.031 C 
BRANCH  42  43
HETATM   43  C4  UNL     1       0.550  52.149 -24.089  1.00  0.00    -0.027 C 
HETATM   44  C5  UNL     1       0.688  52.681 -25.318  1.00  0.00     0.006 C 
BRANCH  44  45
HETATM   45  C6  UNL     1       0.993  51.941 -26.602  1.00  0.00     0.068 C 
HETATM   46  C7  UNL     1       2.469  51.537 -26.645  1.00  0.00     0.050 C 
HETATM   47  C8  UNL     1       0.097  50.708 -26.718  1.00  0.00     0.050 C 
BRANCH  45  48
HETATM   48  O1  UNL     1       0.729  52.765 -27.736  1.00  0.00    -0.387 OA
HETATM   49  H15 UNL     1       1.342  53.520 -27.686  1.00  0.00     0.211 HD
ENDBRANCH  45  48
ENDBRANCH  44  45
ENDBRANCH  42  43
ENDBRANCH  40  42
ENDBRANCH   1  40
TORSDOF 12
ENDMDL
MODEL 7
REMARK minimizedAffinity -8.0725956
REMARK CNNscore 0.376968831
REMARK CNNaffinity 6.85862017
REMARK  12 active torsions:
REMARK  status: ('A' for Active; 'I' for Inactive)
REMARK    1  A    between atoms: C2_2  and  C3_3 
REMARK    2  A    between atoms: C2_2  and  C9_10 
REMARK    3  A    between atoms: C3_3  and  C4_4 
REMARK    4  A    between atoms: C5_5  and  C6_6 
REMARK    5  A    between atoms: C6_6  and  O1_9 
REMARK    6  A    between atoms: C27_29  and  O3_30 
REMARK    7  A    between atoms: O3_30  and  C28_31 
REMARK    8  A    between atoms: C29_33  and  C30_34 
REMARK    9  A    between atoms: C30_34  and  O5_35 
REMARK   10  A    between atoms: C31_36  and  O6_37 
REMARK   11  A    between atoms: C32_38  and  O7_39 
REMARK   12  A    between atoms: C33_40  and  O8_41 
ROOT
HETATM    1  C9  UNL     1      -1.300  50.121 -18.143  1.00  0.00    -0.002 C 
HETATM    2  C10 UNL     1      -1.645  51.634 -18.210  1.00  0.00     0.006 C 
HETATM    3  C11 UNL     1      -2.536  51.835 -19.460  1.00  0.00     0.011 C 
HETATM    4  C12 UNL     1      -2.943  50.409 -19.891  1.00  0.00    -0.029 C 
HETATM    5  C13 UNL     1      -4.150  50.026 -18.973  1.00  0.00     0.016 C 
HETATM    6  C14 UNL     1      -3.316  50.225 -21.395  1.00  0.00     0.028 C 
HETATM    7  C15 UNL     1      -4.533  51.032 -21.807  1.00  0.00    -0.021 C 
HETATM    8  C16 UNL     1      -5.558  50.483 -22.483  1.00  0.00     0.008 C 
HETATM    9  C17 UNL     1      -5.551  49.011 -22.875  1.00  0.00     0.092 C 
HETATM   10  O2  UNL     1      -4.565  48.945 -23.929  1.00  0.00    -0.374 OA
HETATM   11  C18 UNL     1      -3.300  48.588 -23.354  1.00  0.00     0.179 C 
HETATM   12  C19 UNL     1      -3.434  48.689 -21.814  1.00  0.00    -0.004 C 
HETATM   13  C20 UNL     1      -2.359  47.775 -21.164  1.00  0.00     0.014 C 
HETATM   14  C21 UNL     1      -1.902  48.120 -19.735  1.00  0.00     0.011 C 
HETATM   15  C22 UNL     1      -1.618  49.622 -19.585  1.00  0.00    -0.032 C 
HETATM   16  C23 UNL     1      -0.436  49.980 -20.536  1.00  0.00     0.016 C 
HETATM   17  C24 UNL     1      -4.912  48.240 -21.682  1.00  0.00     0.036 C 
HETATM   18  C25 UNL     1      -5.192  46.740 -21.741  1.00  0.00     0.011 C 
HETATM   19  C26 UNL     1      -6.694  46.454 -21.709  1.00  0.00     0.033 C 
HETATM   20  C27 UNL     1      -7.580  47.610 -22.210  1.00  0.00     0.136 C 
HETATM   21  C34 UNL     1      -6.914  48.386 -23.386  1.00  0.00     0.014 C 
HETATM   22  C35 UNL     1      -6.696  47.437 -24.598  1.00  0.00     0.021 C 
HETATM   23  C36 UNL     1      -7.904  49.459 -23.906  1.00  0.00     0.021 C 
ENDROOT
BRANCH  20  24
HETATM   24  O3  UNL     1      -8.855  47.103 -22.638  1.00  0.00    -0.352 OA
BRANCH  24  25
HETATM   25  C28 UNL     1      -8.959  46.862 -24.051  1.00  0.00     0.292 C 
HETATM   26  O4  UNL     1      -9.983  47.671 -24.614  1.00  0.00    -0.348 OA
HETATM   27  C29 UNL     1     -10.512  47.234 -25.884  1.00  0.00     0.179 C 
HETATM   28  C31 UNL     1      -9.688  46.150 -26.599  1.00  0.00     0.180 C 
HETATM   29  C32 UNL     1      -9.319  44.977 -25.681  1.00  0.00     0.183 C 
HETATM   30  C33 UNL     1      -9.298  45.371 -24.201  1.00  0.00     0.204 C 
BRANCH  27  31
HETATM   31  C30 UNL     1     -11.967  46.802 -25.656  1.00  0.00     0.198 C 
BRANCH  31  32
HETATM   32  O5  UNL     1     -12.846  47.860 -26.047  1.00  0.00    -0.398 OA
HETATM   33  H46 UNL     1     -12.456  48.676 -25.676  1.00  0.00     0.209 HD
ENDBRANCH  31  32
ENDBRANCH  27  31
BRANCH  28  34
HETATM   34  O6  UNL     1      -8.470  46.762 -27.062  1.00  0.00    -0.390 OA
HETATM   35  H48 UNL     1      -8.084  46.164 -27.730  1.00  0.00     0.210 HD
ENDBRANCH  28  34
BRANCH  29  36
HETATM   36  O7  UNL     1     -10.249  43.901 -25.872  1.00  0.00    -0.390 OA
HETATM   37  H50 UNL     1      -9.964  43.193 -25.261  1.00  0.00     0.210 HD
ENDBRANCH  29  36
BRANCH  30  38
HETATM   38  O8  UNL     1      -8.361  44.530 -23.507  1.00  0.00    -0.388 OA
HETATM   39  H52 UNL     1      -8.266  44.946 -22.625  1.00  0.00     0.210 HD
ENDBRANCH  30  38
ENDBRANCH  24  25
ENDBRANCH  20  24
BRANCH   1  40
HETATM   40  C2  UNL     1       0.071  49.742 -17.502  1.00  0.00    -0.010 C 
HETATM   41  C1  UNL     1      -0.183  48.750 -16.349  1.00  0.00     0.010 C 
BRANCH  40  42
HETATM   42  C3  UNL     1       0.916  50.923 -16.964  1.00  0.00     0.031 C 
BRANCH  42  43
HETATM   43  C4  UNL     1       0.794  51.293 -15.502  1.00  0.00    -0.027 C 
HETATM   44  C5  UNL     1       1.768  51.376 -14.577  1.00  0.00     0.006 C 
BRANCH  44  45
HETATM   45  C6  UNL     1       1.616  51.791 -13.130  1.00  0.00     0.068 C 
HETATM   46  C7  UNL     1       0.312  52.569 -12.934  1.00  0.00     0.050 C 
HETATM   47  C8  UNL     1       1.644  50.558 -12.228  1.00  0.00     0.050 C 
BRANCH  45  48
HETATM   48  O1  UNL     1       2.695  52.635 -12.730  1.00  0.00    -0.387 OA
HETATM   49  H15 UNL     1       2.638  53.443 -13.269  1.00  0.00     0.211 HD
ENDBRANCH  45  48
ENDBRANCH  44  45
ENDBRANCH  42  43
ENDBRANCH  40  42
ENDBRANCH   1  40
TORSDOF 12
ENDMDL
MODEL 8
REMARK minimizedAffinity -10.2510805
REMARK CNNscore 0.355680615
REMARK CNNaffinity 7.28711939
REMARK  12 active torsions:
REMARK  status: ('A' for Active; 'I' for Inactive)
REMARK    1  A    between atoms: C2_2  and  C3_3 
REMARK    2  A    between atoms: C2_2  and  C9_10 
REMARK    3  A    between atoms: C3_3  and  C4_4 
REMARK    4  A    between atoms: C5_5  and  C6_6 
REMARK    5  A    between atoms: C6_6  and  O1_9 
REMARK    6  A    between atoms: C27_29  and  O3_30 
REMARK    7  A    between atoms: O3_30  and  C28_31 
REMARK    8  A    between atoms: C29_33  and  C30_34 
REMARK    9  A    between atoms: C30_34  and  O5_35 
REMARK   10  A    between atoms: C31_36  and  O6_37 
REMARK   11  A    between atoms: C32_38  and  O7_39 
REMARK   12  A    between atoms: C33_40  and  O8_41 
ROOT
HETATM    1  C9  UNL     1      -0.454  50.601 -21.296  1.00  0.00    -0.002 C 
HETATM    2  C10 UNL     1       0.058  49.368 -20.501  1.00  0.00     0.006 C 
HETATM    3  C11 UNL     1      -1.184  48.507 -20.164  1.00  0.00     0.011 C 
HETATM    4  C12 UNL     1      -2.319  49.086 -21.038  1.00  0.00    -0.029 C 
HETATM    5  C13 UNL     1      -2.130  48.436 -22.448  1.00  0.00     0.016 C 
HETATM    6  C14 UNL     1      -3.772  48.859 -20.518  1.00  0.00     0.028 C 
HETATM    7  C15 UNL     1      -4.154  47.392 -20.448  1.00  0.00    -0.021 C 
HETATM    8  C16 UNL     1      -5.301  46.927 -20.973  1.00  0.00     0.008 C 
HETATM    9  C17 UNL     1      -6.286  47.856 -21.672  1.00  0.00     0.092 C 
HETATM   10  O2  UNL     1      -6.863  48.617 -20.587  1.00  0.00    -0.374 OA
HETATM   11  C18 UNL     1      -6.128  49.840 -20.441  1.00  0.00     0.179 C 
HETATM   12  C19 UNL     1      -4.849  49.731 -21.309  1.00  0.00    -0.004 C 
HETATM   13  C20 UNL     1      -4.366  51.166 -21.657  1.00  0.00     0.014 C 
HETATM   14  C21 UNL     1      -2.874  51.352 -21.989  1.00  0.00     0.011 C 
HETATM   15  C22 UNL     1      -1.979  50.619 -20.978  1.00  0.00    -0.032 C 
HETATM   16  C23 UNL     1      -2.215  51.264 -19.579  1.00  0.00     0.016 C 
HETATM   17  C24 UNL     1      -5.432  48.884 -22.470  1.00  0.00     0.036 C 
HETATM   18  C25 UNL     1      -6.249  49.624 -23.529  1.00  0.00     0.011 C 
HETATM   19  C26 UNL     1      -6.849  48.651 -24.545  1.00  0.00     0.033 C 
HETATM   20  C27 UNL     1      -7.038  47.213 -24.027  1.00  0.00     0.136 C 
HETATM   21  C34 UNL     1      -7.442  47.186 -22.522  1.00  0.00     0.014 C 
HETATM   22  C35 UNL     1      -8.803  47.912 -22.321  1.00  0.00     0.021 C 
HETATM   23  C36 UNL     1      -7.720  45.720 -22.101  1.00  0.00     0.021 C 
ENDROOT
BRANCH  20  24
HETATM   24  O3  UNL     1      -8.044  46.538 -24.801  1.00  0.00    -0.352 OA
BRANCH  24  25
HETATM   25  C28 UNL     1      -8.423  47.218 -26.010  1.00  0.00     0.292 C 
HETATM   26  O4  UNL     1      -9.495  48.116 -25.753  1.00  0.00    -0.348 OA
HETATM   27  C29 UNL     1     -10.274  48.519 -26.901  1.00  0.00     0.179 C 
HETATM   28  C31 UNL     1      -9.652  48.182 -28.266  1.00  0.00     0.180 C 
HETATM   29  C32 UNL     1      -9.173  46.727 -28.363  1.00  0.00     0.183 C 
HETATM   30  C33 UNL     1      -8.855  46.119 -26.993  1.00  0.00     0.204 C 
BRANCH  27  31
HETATM   31  C30 UNL     1     -11.679  47.923 -26.738  1.00  0.00     0.198 C 
BRANCH  31  32
HETATM   32  O5  UNL     1     -12.644  48.815 -27.301  1.00  0.00    -0.398 OA
HETATM   33  H46 UNL     1     -12.392  49.706 -26.987  1.00  0.00     0.209 HD
ENDBRANCH  31  32
ENDBRANCH  27  31
BRANCH  28  34
HETATM   34  O6  UNL     1      -8.515  49.045 -28.453  1.00  0.00    -0.390 OA
HETATM   35  H48 UNL     1      -8.290  49.024 -29.403  1.00  0.00     0.210 HD
ENDBRANCH  28  34
BRANCH  29  36
HETATM   36  O7  UNL     1     -10.173  45.931 -29.014  1.00  0.00    -0.390 OA
HETATM   37  H50 UNL     1      -9.813  45.022 -29.041  1.00  0.00     0.210 HD
ENDBRANCH  29  36
BRANCH  30  38
HETATM   38  O8  UNL     1      -7.845  45.109 -27.154  1.00  0.00    -0.388 OA
HETATM   39  H52 UNL     1      -7.567  44.895 -26.240  1.00  0.00     0.210 HD
ENDBRANCH  30  38
ENDBRANCH  24  25
ENDBRANCH  20  24
BRANCH   1  40
HETATM   40  C2  UNL     1       0.362  51.922 -21.143  1.00  0.00    -0.010 C 
HETATM   41  C1  UNL     1      -0.192  52.704 -19.935  1.00  0.00     0.010 C 
BRANCH  40  42
HETATM   42  C3  UNL     1       0.374  52.858 -22.377  1.00  0.00     0.031 C 
BRANCH  42  43
HETATM   43  C4  UNL     1       0.363  52.236 -23.756  1.00  0.00    -0.027 C 
HETATM   44  C5  UNL     1       0.939  52.693 -24.883  1.00  0.00     0.006 C 
BRANCH  44  45
HETATM   45  C6  UNL     1       0.944  52.023 -26.239  1.00  0.00     0.068 C 
HETATM   46  C7  UNL     1       2.346  51.503 -26.570  1.00  0.00     0.050 C 
HETATM   47  C8  UNL     1      -0.069  50.878 -26.258  1.00  0.00     0.050 C 
BRANCH  45  48
HETATM   48  O1  UNL     1       0.565  52.943 -27.260  1.00  0.00    -0.387 OA
HETATM   49  H15 UNL     1       1.244  53.640 -27.281  1.00  0.00     0.211 HD
ENDBRANCH  45  48
ENDBRANCH  44  45
ENDBRANCH  42  43
ENDBRANCH  40  42
ENDBRANCH   1  40
TORSDOF 12
ENDMDL
MODEL 9
REMARK minimizedAffinity -8.7039566
REMARK CNNscore 0.322217613
REMARK CNNaffinity 6.17279863
REMARK  12 active torsions:
REMARK  status: ('A' for Active; 'I' for Inactive)
REMARK    1  A    between atoms: C2_2  and  C3_3 
REMARK    2  A    between atoms: C2_2  and  C9_10 
REMARK    3  A    between atoms: C3_3  and  C4_4 
REMARK    4  A    between atoms: C5_5  and  C6_6 
REMARK    5  A    between atoms: C6_6  and  O1_9 
REMARK    6  A    between atoms: C27_29  and  O3_30 
REMARK    7  A    between atoms: O3_30  and  C28_31 
REMARK    8  A    between atoms: C29_33  and  C30_34 
REMARK    9  A    between atoms: C30_34  and  O5_35 
REMARK   10  A    between atoms: C31_36  and  O6_37 
REMARK   11  A    between atoms: C32_38  and  O7_39 
REMARK   12  A    between atoms: C33_40  and  O8_41 
ROOT
HETATM    1  C9  UNL     1     -12.777  46.145 -26.827  1.00  0.00    -0.002 C 
HETATM    2  C10 UNL     1     -13.576  47.121 -27.734  1.00  0.00     0.006 C 
HETATM    3  C11 UNL     1     -12.559  47.749 -28.720  1.00  0.00     0.011 C 
HETATM    4  C12 UNL     1     -11.282  46.891 -28.573  1.00  0.00    -0.029 C 
HETATM    5  C13 UNL     1     -11.523  45.632 -29.469  1.00  0.00     0.016 C 
HETATM    6  C14 UNL     1      -9.939  47.587 -28.951  1.00  0.00     0.028 C 
HETATM    7  C15 UNL     1      -9.872  47.993 -30.412  1.00  0.00    -0.021 C 
HETATM    8  C16 UNL     1      -8.818  47.690 -31.189  1.00  0.00     0.008 C 
HETATM    9  C17 UNL     1      -7.625  46.916 -30.641  1.00  0.00     0.092 C 
HETATM   10  O2  UNL     1      -6.964  47.874 -29.783  1.00  0.00    -0.374 OA
HETATM   11  C18 UNL     1      -7.439  47.693 -28.442  1.00  0.00     0.179 C 
HETATM   12  C19 UNL     1      -8.662  46.744 -28.495  1.00  0.00    -0.004 C 
HETATM   13  C20 UNL     1      -8.819  46.064 -27.107  1.00  0.00     0.014 C 
HETATM   14  C21 UNL     1     -10.219  45.555 -26.719  1.00  0.00     0.011 C 
HETATM   15  C22 UNL     1     -11.301  46.602 -27.028  1.00  0.00    -0.032 C 
HETATM   16  C23 UNL     1     -11.016  47.856 -26.147  1.00  0.00     0.016 C 
HETATM   17  C24 UNL     1      -8.202  45.844 -29.671  1.00  0.00     0.036 C 
HETATM   18  C25 UNL     1      -7.193  44.743 -29.352  1.00  0.00     0.011 C 
HETATM   19  C26 UNL     1      -6.751  44.011 -30.621  1.00  0.00     0.033 C 
HETATM   20  C27 UNL     1      -6.892  44.829 -31.918  1.00  0.00     0.136 C 
HETATM   21  C34 UNL     1      -6.586  46.341 -31.688  1.00  0.00     0.014 C 
HETATM   22  C35 UNL     1      -5.119  46.522 -31.207  1.00  0.00     0.021 C 
HETATM   23  C36 UNL     1      -6.641  47.078 -33.051  1.00  0.00     0.021 C 
ENDROOT
BRANCH  20  24
HETATM   24  O3  UNL     1      -6.005  44.313 -32.924  1.00  0.00    -0.352 OA
BRANCH  24  25
HETATM   25  C28 UNL     1      -5.844  42.885 -32.902  1.00  0.00     0.292 C 
HETATM   26  O4  UNL     1      -4.502  42.546 -32.577  1.00  0.00    -0.348 OA
HETATM   27  C29 UNL     1      -4.073  41.219 -32.952  1.00  0.00     0.179 C 
HETATM   28  C31 UNL     1      -5.201  40.256 -33.357  1.00  0.00     0.180 C 
HETATM   29  C32 UNL     1      -6.174  40.868 -34.374  1.00  0.00     0.183 C 
HETATM   30  C33 UNL     1      -6.201  42.398 -34.316  1.00  0.00     0.204 C 
BRANCH  27  31
HETATM   31  C30 UNL     1      -3.013  41.370 -34.052  1.00  0.00     0.198 C 
BRANCH  31  32
HETATM   32  O5  UNL     1      -3.579  42.061 -35.168  1.00  0.00    -0.398 OA
HETATM   33  H46 UNL     1      -4.456  41.655 -35.311  1.00  0.00     0.209 HD
ENDBRANCH  31  32
ENDBRANCH  27  31
BRANCH  28  34
HETATM   34  O6  UNL     1      -5.940  39.923 -32.168  1.00  0.00    -0.390 OA
HETATM   35  H48 UNL     1      -6.467  39.127 -32.369  1.00  0.00     0.210 HD
ENDBRANCH  28  34
BRANCH  29  36
HETATM   36  O7  UNL     1      -5.816  40.450 -35.699  1.00  0.00    -0.390 OA
HETATM   37  H50 UNL     1      -6.465  40.874 -36.295  1.00  0.00     0.210 HD
ENDBRANCH  29  36
BRANCH  30  38
HETATM   38  O8  UNL     1      -7.497  42.859 -34.735  1.00  0.00    -0.388 OA
HETATM   39  H52 UNL     1      -7.503  43.811 -34.506  1.00  0.00     0.210 HD
ENDBRANCH  30  38
ENDBRANCH  24  25
ENDBRANCH  20  24
BRANCH   1  40
HETATM   40  C2  UNL     1     -13.310  45.943 -25.374  1.00  0.00    -0.010 C 
HETATM   41  C1  UNL     1     -13.834  44.500 -25.239  1.00  0.00     0.010 C 
BRANCH  40  42
HETATM   42  C3  UNL     1     -14.423  46.920 -24.921  1.00  0.00     0.031 C 
BRANCH  42  43
HETATM   43  C4  UNL     1     -15.863  46.467 -25.008  1.00  0.00    -0.027 C 
HETATM   44  C5  UNL     1     -16.935  46.956 -24.357  1.00  0.00     0.006 C 
BRANCH  44  45
HETATM   45  C6  UNL     1     -18.372  46.505 -24.501  1.00  0.00     0.068 C 
HETATM   46  C7  UNL     1     -18.483  45.417 -25.572  1.00  0.00     0.050 C 
HETATM   47  C8  UNL     1     -18.894  45.990 -23.160  1.00  0.00     0.050 C 
BRANCH  45  48
HETATM   48  O1  UNL     1     -19.207  47.594 -24.892  1.00  0.00    -0.387 OA
HETATM   49  H15 UNL     1     -18.905  47.881 -25.772  1.00  0.00     0.211 HD
ENDBRANCH  45  48
ENDBRANCH  44  45
ENDBRANCH  42  43
ENDBRANCH  40  42
ENDBRANCH   1  40
TORSDOF 12
ENDMDL
