MODEL 1
REMARK minimizedAffinity -9.63339233
REMARK  7 active torsions:
REMARK  status: ('A' for Active; 'I' for Inactive)
REMARK    1  A    between atoms: C2_2  and  C30_32 
REMARK    2  A    between atoms: C3_3  and  C4_4 
REMARK    3  A    between atoms: C4_4  and  O1_5 
REMARK    4  A    between atoms: C4_4  and  C5_6 
REMARK    5  A    between atoms: C5_6  and  C6_7 
REMARK    6  A    between atoms: C6_7  and  C8_9 
REMARK    7  A    between atoms: C30_32  and  O3_33 
ROOT
HETATM    1  C8  UNL     1      -3.541   6.039  13.630  1.00  0.00    -0.002 C 
HETATM    2  C9  UNL     1      -3.161   4.859  12.726  1.00  0.00     0.006 C 
HETATM    3  C10 UNL     1      -1.726   4.567  13.113  1.00  0.00     0.011 C 
HETATM    4  C11 UNL     1      -1.040   5.949  13.139  1.00  0.00    -0.032 C 
HETATM    5  C12 UNL     1       0.214   5.834  14.029  1.00  0.00     0.016 C 
HETATM    6  C13 UNL     1      -0.641   6.436  11.689  1.00  0.00     0.004 C 
HETATM    7  C14 UNL     1       0.222   5.505  10.823  1.00  0.00     0.007 C 
HETATM    8  C15 UNL     1       1.730   5.573  10.997  1.00  0.00     0.007 C 
HETATM    9  C16 UNL     1       2.356   6.915  11.419  1.00  0.00     0.010 C 
HETATM   10  C17 UNL     1       3.651   7.289  10.618  1.00  0.00     0.018 C 
HETATM   11  C18 UNL     1       3.396   7.502   9.116  1.00  0.00     0.023 C 
HETATM   12  C19 UNL     1       4.736   6.216  10.819  1.00  0.00     0.023 C 
HETATM   13  C20 UNL     1       4.226   8.604  11.166  1.00  0.00     0.135 C 
HETATM   14  O2  UNL     1       5.230   9.132  10.680  1.00  0.00    -0.297 OA
HETATM   15  C21 UNL     1       3.580   9.189  12.394  1.00  0.00     0.080 C 
HETATM   16  C22 UNL     1       2.078   9.328  12.209  1.00  0.00     0.018 C 
HETATM   17  C23 UNL     1       1.421   8.117  11.534  1.00  0.00    -0.026 A 
HETATM   18  C24 UNL     1       0.437   8.446  10.430  1.00  0.00     0.021 A 
HETATM   19  C25 UNL     1      -0.089   7.867  11.728  1.00  0.00    -0.027 A 
HETATM   20  C26 UNL     1      -0.887   8.800  12.626  1.00  0.00     0.011 C 
HETATM   21  C27 UNL     1      -2.273   8.236  12.933  1.00  0.00     0.011 C 
HETATM   22  C28 UNL     1      -2.204   6.903  13.728  1.00  0.00    -0.032 C 
HETATM   23  C29 UNL     1      -1.983   7.240  15.225  1.00  0.00     0.016 C 
ENDROOT
BRANCH   1  24
HETATM   24  C6  UNL     1      -4.882   6.734  13.219  1.00  0.00    -0.011 C 
HETATM   25  C7  UNL     1      -4.776   8.259  13.348  1.00  0.00     0.010 C 
BRANCH  24  26
HETATM   26  C5  UNL     1      -6.076   6.215  14.074  1.00  0.00     0.040 C 
BRANCH  26  27
HETATM   27  C4  UNL     1      -7.036   5.248  13.355  1.00  0.00     0.141 C 
BRANCH  27  28
HETATM   28  C3  UNL     1      -6.283   4.389  12.372  1.00  0.00     0.009 C 
HETATM   29  C2  UNL     1      -6.445   3.075  12.104  1.00  0.00    -0.062 C 
HETATM   30  C1  UNL     1      -7.456   2.175  12.765  1.00  0.00     0.045 C 
BRANCH  29  31
HETATM   31  C30 UNL     1      -5.577   2.390  11.081  1.00  0.00     0.198 C 
BRANCH  31  32
HETATM   32  O3  UNL     1      -6.079   1.080  10.866  1.00  0.00    -0.397 OA
HETATM   33  H48 UNL     1      -5.515   0.671  10.187  1.00  0.00     0.209 HD
ENDBRANCH  31  32
ENDBRANCH  29  31
ENDBRANCH  27  28
BRANCH  27  34
HETATM   34  O1  UNL     1      -8.017   6.003  12.649  1.00  0.00    -0.392 OA
HETATM   35  H6  UNL     1      -7.969   5.768  11.704  1.00  0.00     0.210 HD
ENDBRANCH  27  34
ENDBRANCH  26  27
ENDBRANCH  24  26
ENDBRANCH   1  24
TORSDOF 7
ENDMDL
MODEL 2
REMARK minimizedAffinity -9.50579548
REMARK  7 active torsions:
REMARK  status: ('A' for Active; 'I' for Inactive)
REMARK    1  A    between atoms: C2_2  and  C30_32 
REMARK    2  A    between atoms: C3_3  and  C4_4 
REMARK    3  A    between atoms: C4_4  and  O1_5 
REMARK    4  A    between atoms: C4_4  and  C5_6 
REMARK    5  A    between atoms: C5_6  and  C6_7 
REMARK    6  A    between atoms: C6_7  and  C8_9 
REMARK    7  A    between atoms: C30_32  and  O3_33 
ROOT
HETATM    1  C8  UNL     1      -3.687   6.296  13.882  1.00  0.00    -0.002 C 
HETATM    2  C9  UNL     1      -3.471   5.134  12.903  1.00  0.00     0.006 C 
HETATM    3  C10 UNL     1      -2.042   4.708  13.174  1.00  0.00     0.011 C 
HETATM    4  C11 UNL     1      -1.242   6.027  13.209  1.00  0.00    -0.032 C 
HETATM    5  C12 UNL     1       0.056   5.767  14.001  1.00  0.00     0.016 C 
HETATM    6  C13 UNL     1      -0.902   6.549  11.755  1.00  0.00     0.004 C 
HETATM    7  C14 UNL     1      -0.182   5.594  10.791  1.00  0.00     0.007 C 
HETATM    8  C15 UNL     1       1.335   5.531  10.860  1.00  0.00     0.007 C 
HETATM    9  C16 UNL     1       2.099   6.796  11.292  1.00  0.00     0.010 C 
HETATM   10  C17 UNL     1       3.363   7.101  10.417  1.00  0.00     0.018 C 
HETATM   11  C18 UNL     1       3.025   7.406   8.947  1.00  0.00     0.023 C 
HETATM   12  C19 UNL     1       4.365   5.935  10.493  1.00  0.00     0.023 C 
HETATM   13  C20 UNL     1       4.084   8.337  10.977  1.00  0.00     0.135 C 
HETATM   14  O2  UNL     1       5.093   8.804  10.444  1.00  0.00    -0.297 OA
HETATM   15  C21 UNL     1       3.574   8.913  12.272  1.00  0.00     0.080 C 
HETATM   16  C22 UNL     1       2.080   9.182  12.201  1.00  0.00     0.018 C 
HETATM   17  C23 UNL     1       1.279   8.063  11.524  1.00  0.00    -0.026 A 
HETATM   18  C24 UNL     1       0.253   8.523  10.510  1.00  0.00     0.021 A 
HETATM   19  C25 UNL     1      -0.230   7.927  11.816  1.00  0.00    -0.027 A 
HETATM   20  C26 UNL     1      -0.884   8.877  12.808  1.00  0.00     0.011 C 
HETATM   21  C27 UNL     1      -2.288   8.413  13.189  1.00  0.00     0.011 C 
HETATM   22  C28 UNL     1      -2.279   7.042  13.920  1.00  0.00    -0.032 C 
HETATM   23  C29 UNL     1      -1.928   7.288  15.410  1.00  0.00     0.016 C 
ENDROOT
BRANCH   1  24
HETATM   24  C6  UNL     1      -4.989   7.117  13.598  1.00  0.00    -0.011 C 
HETATM   25  C7  UNL     1      -4.662   8.461  12.935  1.00  0.00     0.010 C 
BRANCH  24  26
HETATM   26  C5  UNL     1      -5.805   7.358  14.903  1.00  0.00     0.040 C 
BRANCH  26  27
HETATM   27  C4  UNL     1      -6.769   6.225  15.303  1.00  0.00     0.141 C 
BRANCH  27  28
HETATM   28  C3  UNL     1      -8.189   6.589  14.949  1.00  0.00     0.009 C 
HETATM   29  C2  UNL     1      -8.876   6.300  13.824  1.00  0.00    -0.062 C 
HETATM   30  C1  UNL     1      -8.335   5.520  12.654  1.00  0.00     0.045 C 
BRANCH  29  31
HETATM   31  C30 UNL     1     -10.300   6.765  13.656  1.00  0.00     0.198 C 
BRANCH  31  32
HETATM   32  O3  UNL     1     -10.977   6.610  14.893  1.00  0.00    -0.397 OA
HETATM   33  H48 UNL     1     -11.883   6.938  14.760  1.00  0.00     0.209 HD
ENDBRANCH  31  32
ENDBRANCH  29  31
ENDBRANCH  27  28
BRANCH  27  34
HETATM   34  O1  UNL     1      -6.685   6.015  16.710  1.00  0.00    -0.392 OA
HETATM   35  H6  UNL     1      -7.570   6.147  17.097  1.00  0.00     0.210 HD
ENDBRANCH  27  34
ENDBRANCH  26  27
ENDBRANCH  24  26
ENDBRANCH   1  24
TORSDOF 7
ENDMDL
MODEL 3
REMARK minimizedAffinity -8.6436367
REMARK  7 active torsions:
REMARK  status: ('A' for Active; 'I' for Inactive)
REMARK    1  A    between atoms: C2_2  and  C30_32 
REMARK    2  A    between atoms: C3_3  and  C4_4 
REMARK    3  A    between atoms: C4_4  and  O1_5 
REMARK    4  A    between atoms: C4_4  and  C5_6 
REMARK    5  A    between atoms: C5_6  and  C6_7 
REMARK    6  A    between atoms: C6_7  and  C8_9 
REMARK    7  A    between atoms: C30_32  and  O3_33 
ROOT
HETATM    1  C8  UNL     1      -9.266   7.062  14.738  1.00  0.00    -0.002 C 
HETATM    2  C9  UNL     1      -8.943   6.097  13.590  1.00  0.00     0.006 C 
HETATM    3  C10 UNL     1      -7.810   5.258  14.144  1.00  0.00     0.011 C 
HETATM    4  C11 UNL     1      -6.839   6.280  14.773  1.00  0.00    -0.032 C 
HETATM    5  C12 UNL     1      -5.979   5.532  15.811  1.00  0.00     0.016 C 
HETATM    6  C13 UNL     1      -5.916   6.962  13.686  1.00  0.00     0.004 C 
HETATM    7  C14 UNL     1      -5.097   6.054  12.756  1.00  0.00     0.007 C 
HETATM    8  C15 UNL     1      -3.743   5.572  13.250  1.00  0.00     0.007 C 
HETATM    9  C16 UNL     1      -2.956   6.475  14.217  1.00  0.00     0.010 C 
HETATM   10  C17 UNL     1      -1.431   6.593  13.874  1.00  0.00     0.018 C 
HETATM   11  C18 UNL     1      -1.164   7.256  12.511  1.00  0.00     0.023 C 
HETATM   12  C19 UNL     1      -0.761   5.207  13.922  1.00  0.00     0.023 C 
HETATM   13  C20 UNL     1      -0.734   7.455  14.937  1.00  0.00     0.135 C 
HETATM   14  O2  UNL     1       0.467   7.727  14.875  1.00  0.00    -0.297 OA
HETATM   15  C21 UNL     1      -1.549   7.885  16.128  1.00  0.00     0.080 C 
HETATM   16  C22 UNL     1      -2.842   8.556  15.695  1.00  0.00     0.018 C 
HETATM   17  C23 UNL     1      -3.549   7.847  14.533  1.00  0.00    -0.026 A 
HETATM   18  C24 UNL     1      -4.044   8.754  13.426  1.00  0.00     0.021 A 
HETATM   19  C25 UNL     1      -5.060   8.069  14.315  1.00  0.00    -0.027 A 
HETATM   20  C26 UNL     1      -5.830   8.950  15.289  1.00  0.00     0.011 C 
HETATM   21  C27 UNL     1      -7.339   8.817  15.096  1.00  0.00     0.011 C 
HETATM   22  C28 UNL     1      -7.847   7.379  15.393  1.00  0.00    -0.032 C 
HETATM   23  C29 UNL     1      -8.006   7.228  16.929  1.00  0.00     0.016 C 
ENDROOT
BRANCH   1  24
HETATM   24  C6  UNL     1     -10.204   8.243  14.317  1.00  0.00    -0.011 C 
HETATM   25  C7  UNL     1     -10.983   8.786  15.522  1.00  0.00     0.010 C 
BRANCH  24  26
HETATM   26  C5  UNL     1     -11.197   7.808  13.199  1.00  0.00     0.040 C 
BRANCH  26  27
HETATM   27  C4  UNL     1     -12.282   8.840  12.837  1.00  0.00     0.141 C 
BRANCH  27  28
HETATM   28  C3  UNL     1     -13.581   8.148  12.507  1.00  0.00     0.009 C 
HETATM   29  C2  UNL     1     -14.349   7.376  13.304  1.00  0.00    -0.062 C 
HETATM   30  C1  UNL     1     -14.045   7.043  14.742  1.00  0.00     0.045 C 
BRANCH  29  31
HETATM   31  C30 UNL     1     -15.621   6.762  12.780  1.00  0.00     0.198 C 
BRANCH  31  32
HETATM   32  O3  UNL     1     -15.714   7.028  11.390  1.00  0.00    -0.397 OA
HETATM   33  H48 UNL     1     -16.531   6.602  11.076  1.00  0.00     0.209 HD
ENDBRANCH  31  32
ENDBRANCH  29  31
ENDBRANCH  27  28
BRANCH  27  34
HETATM   34  O1  UNL     1     -11.856   9.585  11.699  1.00  0.00    -0.392 OA
HETATM   35  H6  UNL     1     -12.517   9.474  10.990  1.00  0.00     0.210 HD
ENDBRANCH  27  34
ENDBRANCH  26  27
ENDBRANCH  24  26
ENDBRANCH   1  24
TORSDOF 7
ENDMDL
MODEL 4
REMARK minimizedAffinity -8.40229607
REMARK  7 active torsions:
REMARK  status: ('A' for Active; 'I' for Inactive)
REMARK    1  A    between atoms: C2_2  and  C30_32 
REMARK    2  A    between atoms: C3_3  and  C4_4 
REMARK    3  A    between atoms: C4_4  and  O1_5 
REMARK    4  A    between atoms: C4_4  and  C5_6 
REMARK    5  A    between atoms: C5_6  and  C6_7 
REMARK    6  A    between atoms: C6_7  and  C8_9 
REMARK    7  A    between atoms: C30_32  and  O3_33 
ROOT
HETATM    1  C8  UNL     1       0.491   7.618  13.720  1.00  0.00    -0.002 C 
HETATM    2  C9  UNL     1       0.212   6.329  12.936  1.00  0.00     0.006 C 
HETATM    3  C10 UNL     1      -1.033   6.665  12.141  1.00  0.00     0.011 C 
HETATM    4  C11 UNL     1      -1.980   7.332  13.160  1.00  0.00    -0.032 C 
HETATM    5  C12 UNL     1      -2.996   8.183  12.371  1.00  0.00     0.016 C 
HETATM    6  C13 UNL     1      -2.733   6.265  14.051  1.00  0.00     0.004 C 
HETATM    7  C14 UNL     1      -3.523   5.154  13.340  1.00  0.00     0.007 C 
HETATM    8  C15 UNL     1      -4.953   5.458  12.925  1.00  0.00     0.007 C 
HETATM    9  C16 UNL     1      -5.761   6.460  13.770  1.00  0.00     0.010 C 
HETATM   10  C17 UNL     1      -7.230   6.000  14.065  1.00  0.00     0.018 C 
HETATM   11  C18 UNL     1      -7.306   4.717  14.911  1.00  0.00     0.023 C 
HETATM   12  C19 UNL     1      -8.007   5.806  12.750  1.00  0.00     0.023 C 
HETATM   13  C20 UNL     1      -7.961   7.099  14.849  1.00  0.00     0.135 C 
HETATM   14  O2  UNL     1      -9.125   6.966  15.234  1.00  0.00    -0.297 OA
HETATM   15  C21 UNL     1      -7.239   8.405  15.055  1.00  0.00     0.080 C 
HETATM   16  C22 UNL     1      -5.861   8.181  15.656  1.00  0.00     0.018 C 
HETATM   17  C23 UNL     1      -5.097   7.004  15.034  1.00  0.00    -0.026 A 
HETATM   18  C24 UNL     1      -4.425   6.074  16.022  1.00  0.00     0.021 A 
HETATM   19  C25 UNL     1      -3.560   6.954  15.144  1.00  0.00    -0.027 A 
HETATM   20  C26 UNL     1      -2.826   8.100  15.827  1.00  0.00     0.011 C 
HETATM   21  C27 UNL     1      -1.320   8.027  15.584  1.00  0.00     0.011 C 
HETATM   22  C28 UNL     1      -0.957   8.179  14.081  1.00  0.00    -0.032 C 
HETATM   23  C29 UNL     1      -0.966   9.690  13.729  1.00  0.00     0.016 C 
ENDROOT
BRANCH   1  24
HETATM   24  C6  UNL     1       1.556   7.440  14.854  1.00  0.00    -0.011 C 
HETATM   25  C7  UNL     1       1.071   8.065  16.169  1.00  0.00     0.010 C 
BRANCH  24  26
HETATM   26  C5  UNL     1       2.926   8.060  14.450  1.00  0.00     0.040 C 
BRANCH  26  27
HETATM   27  C4  UNL     1       3.166   8.212  12.936  1.00  0.00     0.141 C 
BRANCH  27  28
HETATM   28  C3  UNL     1       4.393   7.444  12.515  1.00  0.00     0.009 C 
HETATM   29  C2  UNL     1       4.806   7.136  11.267  1.00  0.00    -0.062 C 
HETATM   30  C1  UNL     1       4.091   7.520   9.998  1.00  0.00     0.045 C 
BRANCH  29  31
HETATM   31  C30 UNL     1       6.070   6.345  11.053  1.00  0.00     0.198 C 
BRANCH  31  32
HETATM   32  O3  UNL     1       5.728   5.086  10.494  1.00  0.00    -0.397 OA
HETATM   33  H48 UNL     1       6.562   4.608  10.347  1.00  0.00     0.209 HD
ENDBRANCH  31  32
ENDBRANCH  29  31
ENDBRANCH  27  28
BRANCH  27  34
HETATM   34  O1  UNL     1       3.359   9.591  12.631  1.00  0.00    -0.392 OA
HETATM   35  H6  UNL     1       4.233   9.697  12.212  1.00  0.00     0.210 HD
ENDBRANCH  27  34
ENDBRANCH  26  27
ENDBRANCH  24  26
ENDBRANCH   1  24
TORSDOF 7
ENDMDL
MODEL 5
REMARK minimizedAffinity -8.38996983
REMARK  7 active torsions:
REMARK  status: ('A' for Active; 'I' for Inactive)
REMARK    1  A    between atoms: C2_2  and  C30_32 
REMARK    2  A    between atoms: C3_3  and  C4_4 
REMARK    3  A    between atoms: C4_4  and  O1_5 
REMARK    4  A    between atoms: C4_4  and  C5_6 
REMARK    5  A    between atoms: C5_6  and  C6_7 
REMARK    6  A    between atoms: C6_7  and  C8_9 
REMARK    7  A    between atoms: C30_32  and  O3_33 
ROOT
HETATM    1  C8  UNL     1      -2.091   5.431  12.191  1.00  0.00    -0.002 C 
HETATM    2  C9  UNL     1      -3.082   6.117  13.142  1.00  0.00     0.006 C 
HETATM    3  C10 UNL     1      -2.753   7.588  12.990  1.00  0.00     0.011 C 
HETATM    4  C11 UNL     1      -1.214   7.656  13.078  1.00  0.00    -0.032 C 
HETATM    5  C12 UNL     1      -0.763   8.965  12.400  1.00  0.00     0.016 C 
HETATM    6  C13 UNL     1      -0.706   7.609  14.574  1.00  0.00     0.004 C 
HETATM    7  C14 UNL     1      -1.274   8.637  15.565  1.00  0.00     0.007 C 
HETATM    8  C15 UNL     1      -0.602   9.998  15.635  1.00  0.00     0.007 C 
HETATM    9  C16 UNL     1       0.903  10.085  15.322  1.00  0.00     0.010 C 
HETATM   10  C17 UNL     1       1.706  10.987  16.322  1.00  0.00     0.018 C 
HETATM   11  C18 UNL     1       1.699  10.453  17.764  1.00  0.00     0.023 C 
HETATM   12  C19 UNL     1       1.167  12.430  16.295  1.00  0.00     0.023 C 
HETATM   13  C20 UNL     1       3.174  11.059  15.877  1.00  0.00     0.135 C 
HETATM   14  O2  UNL     1       4.023  11.683  16.518  1.00  0.00    -0.297 OA
HETATM   15  C21 UNL     1       3.536  10.419  14.562  1.00  0.00     0.080 C 
HETATM   16  C22 UNL     1       3.055   8.978  14.504  1.00  0.00     0.018 C 
HETATM   17  C23 UNL     1       1.640   8.773  15.062  1.00  0.00    -0.026 A 
HETATM   18  C24 UNL     1       1.477   7.590  15.994  1.00  0.00     0.021 A 
HETATM   19  C25 UNL     1       0.825   7.538  14.627  1.00  0.00    -0.027 A 
HETATM   20  C26 UNL     1       1.422   6.572  13.615  1.00  0.00     0.011 C 
HETATM   21  C27 UNL     1       0.376   5.591  13.088  1.00  0.00     0.011 C 
HETATM   22  C28 UNL     1      -0.764   6.306  12.312  1.00  0.00    -0.032 C 
HETATM   23  C29 UNL     1      -0.267   6.588  10.870  1.00  0.00     0.016 C 
ENDROOT
BRANCH   1  24
HETATM   24  C6  UNL     1      -2.014   3.879  12.383  1.00  0.00    -0.011 C 
HETATM   25  C7  UNL     1      -1.297   3.211  11.203  1.00  0.00     0.010 C 
BRANCH  24  26
HETATM   26  C5  UNL     1      -3.431   3.257  12.559  1.00  0.00     0.040 C 
BRANCH  26  27
HETATM   27  C4  UNL     1      -4.468   3.653  11.491  1.00  0.00     0.141 C 
BRANCH  27  28
HETATM   28  C3  UNL     1      -5.854   3.246  11.923  1.00  0.00     0.009 C 
HETATM   29  C2  UNL     1      -6.741   3.939  12.667  1.00  0.00    -0.062 C 
HETATM   30  C1  UNL     1      -6.509   5.316  13.234  1.00  0.00     0.045 C 
BRANCH  29  31
HETATM   31  C30 UNL     1      -8.087   3.350  13.001  1.00  0.00     0.198 C 
BRANCH  31  32
HETATM   32  O3  UNL     1      -8.086   1.979  12.631  1.00  0.00    -0.397 OA
HETATM   33  H48 UNL     1      -8.957   1.621  12.879  1.00  0.00     0.209 HD
ENDBRANCH  31  32
ENDBRANCH  29  31
ENDBRANCH  27  28
BRANCH  27  34
HETATM   34  O1  UNL     1      -4.154   2.991  10.268  1.00  0.00    -0.392 OA
HETATM   35  H6  UNL     1      -4.919   2.447  10.004  1.00  0.00     0.210 HD
ENDBRANCH  27  34
ENDBRANCH  26  27
ENDBRANCH  24  26
ENDBRANCH   1  24
TORSDOF 7
ENDMDL
MODEL 6
REMARK minimizedAffinity -8.26167774
REMARK  7 active torsions:
REMARK  status: ('A' for Active; 'I' for Inactive)
REMARK    1  A    between atoms: C2_2  and  C30_32 
REMARK    2  A    between atoms: C3_3  and  C4_4 
REMARK    3  A    between atoms: C4_4  and  O1_5 
REMARK    4  A    between atoms: C4_4  and  C5_6 
REMARK    5  A    between atoms: C5_6  and  C6_7 
REMARK    6  A    between atoms: C6_7  and  C8_9 
REMARK    7  A    between atoms: C30_32  and  O3_33 
ROOT
HETATM    1  C8  UNL     1      -3.819   6.148  12.786  1.00  0.00    -0.002 C 
HETATM    2  C9  UNL     1      -4.317   7.506  13.298  1.00  0.00     0.006 C 
HETATM    3  C10 UNL     1      -3.291   8.482  12.759  1.00  0.00     0.011 C 
HETATM    4  C11 UNL     1      -1.928   7.833  13.081  1.00  0.00    -0.032 C 
HETATM    5  C12 UNL     1      -0.883   8.436  12.120  1.00  0.00     0.016 C 
HETATM    6  C13 UNL     1      -1.498   8.078  14.582  1.00  0.00     0.004 C 
HETATM    7  C14 UNL     1      -1.458   9.525  15.098  1.00  0.00     0.007 C 
HETATM    8  C15 UNL     1      -0.189  10.326  14.859  1.00  0.00     0.007 C 
HETATM    9  C16 UNL     1       1.150   9.569  14.794  1.00  0.00     0.010 C 
HETATM   10  C17 UNL     1       2.310  10.264  15.588  1.00  0.00     0.018 C 
HETATM   11  C18 UNL     1       2.048  10.342  17.102  1.00  0.00     0.023 C 
HETATM   12  C19 UNL     1       2.574  11.674  15.029  1.00  0.00     0.023 C 
HETATM   13  C20 UNL     1       3.608   9.466  15.397  1.00  0.00     0.135 C 
HETATM   14  O2  UNL     1       4.662   9.788  15.950  1.00  0.00    -0.297 OA
HETATM   15  C21 UNL     1       3.582   8.316  14.424  1.00  0.00     0.080 C 
HETATM   16  C22 UNL     1       2.438   7.364  14.731  1.00  0.00     0.018 C 
HETATM   17  C23 UNL     1       1.120   8.069  15.078  1.00  0.00    -0.026 A 
HETATM   18  C24 UNL     1       0.391   7.520  16.286  1.00  0.00     0.021 A 
HETATM   19  C25 UNL     1      -0.213   7.310  14.913  1.00  0.00    -0.027 A 
HETATM   20  C26 UNL     1      -0.197   5.891  14.363  1.00  0.00     0.011 C 
HETATM   21  C27 UNL     1      -1.600   5.415  13.994  1.00  0.00     0.011 C 
HETATM   22  C28 UNL     1      -2.230   6.262  12.855  1.00  0.00    -0.032 C 
HETATM   23  C29 UNL     1      -1.673   5.747  11.501  1.00  0.00     0.016 C 
ENDROOT
BRANCH   1  24
HETATM   24  C6  UNL     1      -4.536   4.928  13.456  1.00  0.00    -0.011 C 
HETATM   25  C7  UNL     1      -4.630   3.742  12.487  1.00  0.00     0.010 C 
BRANCH  24  26
HETATM   26  C5  UNL     1      -5.958   5.310  13.961  1.00  0.00     0.040 C 
BRANCH  26  27
HETATM   27  C4  UNL     1      -7.080   4.318  13.601  1.00  0.00     0.141 C 
BRANCH  27  28
HETATM   28  C3  UNL     1      -8.046   4.942  12.626  1.00  0.00     0.009 C 
HETATM   29  C2  UNL     1      -8.922   5.948  12.836  1.00  0.00    -0.062 C 
HETATM   30  C1  UNL     1      -9.110   6.674  14.143  1.00  0.00     0.045 C 
BRANCH  29  31
HETATM   31  C30 UNL     1      -9.816   6.430  11.724  1.00  0.00     0.198 C 
BRANCH  31  32
HETATM   32  O3  UNL     1      -9.247   6.041  10.483  1.00  0.00    -0.397 OA
HETATM   33  H48 UNL     1      -9.855   6.345   9.787  1.00  0.00     0.209 HD
ENDBRANCH  31  32
ENDBRANCH  29  31
ENDBRANCH  27  28
BRANCH  27  34
HETATM   34  O1  UNL     1      -7.787   3.964  14.787  1.00  0.00    -0.392 OA
HETATM   35  H6  UNL     1      -8.726   4.201  14.671  1.00  0.00     0.210 HD
ENDBRANCH  27  34
ENDBRANCH  26  27
ENDBRANCH  24  26
ENDBRANCH   1  24
TORSDOF 7
ENDMDL
MODEL 7
REMARK minimizedAffinity -8.19532585
REMARK  7 active torsions:
REMARK  status: ('A' for Active; 'I' for Inactive)
REMARK    1  A    between atoms: C2_2  and  C30_32 
REMARK    2  A    between atoms: C3_3  and  C4_4 
REMARK    3  A    between atoms: C4_4  and  O1_5 
REMARK    4  A    between atoms: C4_4  and  C5_6 
REMARK    5  A    between atoms: C5_6  and  C6_7 
REMARK    6  A    between atoms: C6_7  and  C8_9 
REMARK    7  A    between atoms: C30_32  and  O3_33 
ROOT
HETATM    1  C8  UNL     1      -2.007   6.701  13.026  1.00  0.00    -0.002 C 
HETATM    2  C9  UNL     1      -3.481   7.124  12.979  1.00  0.00     0.006 C 
HETATM    3  C10 UNL     1      -3.411   8.636  12.907  1.00  0.00     0.011 C 
HETATM    4  C11 UNL     1      -2.386   9.032  13.990  1.00  0.00    -0.032 C 
HETATM    5  C12 UNL     1      -1.842  10.430  13.633  1.00  0.00     0.016 C 
HETATM    6  C13 UNL     1      -3.029   9.045  15.434  1.00  0.00     0.004 C 
HETATM    7  C14 UNL     1      -4.292   9.892  15.657  1.00  0.00     0.007 C 
HETATM    8  C15 UNL     1      -4.107  11.363  15.991  1.00  0.00     0.007 C 
HETATM    9  C16 UNL     1      -2.838  11.784  16.755  1.00  0.00     0.010 C 
HETATM   10  C17 UNL     1      -3.106  12.804  17.914  1.00  0.00     0.018 C 
HETATM   11  C18 UNL     1      -3.991  12.232  19.035  1.00  0.00     0.023 C 
HETATM   12  C19 UNL     1      -3.734  14.096  17.359  1.00  0.00     0.023 C 
HETATM   13  C20 UNL     1      -1.771  13.206  18.558  1.00  0.00     0.135 C 
HETATM   14  O2  UNL     1      -1.713  13.976  19.520  1.00  0.00    -0.297 OA
HETATM   15  C21 UNL     1      -0.507  12.704  17.912  1.00  0.00     0.080 C 
HETATM   16  C22 UNL     1      -0.549  11.196  17.725  1.00  0.00     0.018 C 
HETATM   17  C23 UNL     1      -1.898  10.672  17.216  1.00  0.00    -0.026 A 
HETATM   18  C24 UNL     1      -2.431   9.451  17.936  1.00  0.00     0.021 A 
HETATM   19  C25 UNL     1      -1.961   9.305  16.504  1.00  0.00    -0.027 A 
HETATM   20  C26 UNL     1      -0.674   8.525  16.277  1.00  0.00     0.011 C 
HETATM   21  C27 UNL     1      -0.885   7.360  15.312  1.00  0.00     0.011 C 
HETATM   22  C28 UNL     1      -1.301   7.837  13.893  1.00  0.00    -0.032 C 
HETATM   23  C29 UNL     1      -0.021   8.269  13.131  1.00  0.00     0.016 C 
ENDROOT
BRANCH   1  24
HETATM   24  C6  UNL     1      -1.801   5.197  13.408  1.00  0.00    -0.011 C 
HETATM   25  C7  UNL     1      -0.935   4.476  12.366  1.00  0.00     0.010 C 
BRANCH  24  26
HETATM   26  C5  UNL     1      -3.163   4.458  13.563  1.00  0.00     0.040 C 
BRANCH  26  27
HETATM   27  C4  UNL     1      -3.962   4.256  12.261  1.00  0.00     0.141 C 
BRANCH  27  28
HETATM   28  C3  UNL     1      -5.429   4.086  12.562  1.00  0.00     0.009 C 
HETATM   29  C2  UNL     1      -6.238   3.050  12.253  1.00  0.00    -0.062 C 
HETATM   30  C1  UNL     1      -5.811   1.808  11.516  1.00  0.00     0.045 C 
BRANCH  29  31
HETATM   31  C30 UNL     1      -7.694   3.074  12.639  1.00  0.00     0.198 C 
BRANCH  31  32
HETATM   32  O3  UNL     1      -8.192   1.745  12.613  1.00  0.00    -0.397 OA
HETATM   33  H48 UNL     1      -9.124   1.789  12.887  1.00  0.00     0.209 HD
ENDBRANCH  31  32
ENDBRANCH  29  31
ENDBRANCH  27  28
BRANCH  27  34
HETATM   34  O1  UNL     1      -3.489   3.084  11.601  1.00  0.00    -0.392 OA
HETATM   35  H6  UNL     1      -4.235   2.465  11.495  1.00  0.00     0.210 HD
ENDBRANCH  27  34
ENDBRANCH  26  27
ENDBRANCH  24  26
ENDBRANCH   1  24
TORSDOF 7
ENDMDL
MODEL 8
REMARK minimizedAffinity -8.09147358
REMARK  7 active torsions:
REMARK  status: ('A' for Active; 'I' for Inactive)
REMARK    1  A    between atoms: C2_2  and  C30_32 
REMARK    2  A    between atoms: C3_3  and  C4_4 
REMARK    3  A    between atoms: C4_4  and  O1_5 
REMARK    4  A    between atoms: C4_4  and  C5_6 
REMARK    5  A    between atoms: C5_6  and  C6_7 
REMARK    6  A    between atoms: C6_7  and  C8_9 
REMARK    7  A    between atoms: C30_32  and  O3_33 
ROOT
HETATM    1  C8  UNL     1       3.301   8.532  13.758  1.00  0.00    -0.002 C 
HETATM    2  C9  UNL     1       2.680   9.850  13.278  1.00  0.00     0.006 C 
HETATM    3  C10 UNL     1       1.655  10.166  14.348  1.00  0.00     0.011 C 
HETATM    4  C11 UNL     1       0.904   8.837  14.573  1.00  0.00    -0.032 C 
HETATM    5  C12 UNL     1       0.257   8.895  15.972  1.00  0.00     0.016 C 
HETATM    6  C13 UNL     1      -0.199   8.589  13.468  1.00  0.00     0.004 C 
HETATM    7  C14 UNL     1      -1.251   9.684  13.235  1.00  0.00     0.007 C 
HETATM    8  C15 UNL     1      -2.486   9.680  14.122  1.00  0.00     0.007 C 
HETATM    9  C16 UNL     1      -2.989   8.329  14.663  1.00  0.00     0.010 C 
HETATM   10  C17 UNL     1      -4.544   8.151  14.572  1.00  0.00     0.018 C 
HETATM   11  C18 UNL     1      -5.071   8.144  13.126  1.00  0.00     0.023 C 
HETATM   12  C19 UNL     1      -5.260   9.246  15.384  1.00  0.00     0.023 C 
HETATM   13  C20 UNL     1      -4.941   6.807  15.201  1.00  0.00     0.135 C 
HETATM   14  O2  UNL     1      -6.110   6.414  15.223  1.00  0.00    -0.297 OA
HETATM   15  C21 UNL     1      -3.861   6.014  15.887  1.00  0.00     0.080 C 
HETATM   16  C22 UNL     1      -2.662   5.815  14.974  1.00  0.00     0.018 C 
HETATM   17  C23 UNL     1      -2.269   7.071  14.185  1.00  0.00    -0.026 A 
HETATM   18  C24 UNL     1      -1.984   6.848  12.714  1.00  0.00     0.021 A 
HETATM   19  C25 UNL     1      -0.834   7.202  13.634  1.00  0.00    -0.027 A 
HETATM   20  C26 UNL     1       0.178   6.104  13.926  1.00  0.00     0.011 C 
HETATM   21  C27 UNL     1       1.598   6.536  13.565  1.00  0.00     0.011 C 
HETATM   22  C28 UNL     1       2.082   7.742  14.416  1.00  0.00    -0.032 C 
HETATM   23  C29 UNL     1       2.569   7.205  15.787  1.00  0.00     0.016 C 
ENDROOT
BRANCH   1  24
HETATM   24  C6  UNL     1       4.184   7.826  12.674  1.00  0.00    -0.011 C 
HETATM   25  C7  UNL     1       5.390   8.694  12.294  1.00  0.00     0.010 C 
BRANCH  24  26
HETATM   26  C5  UNL     1       3.356   7.486  11.400  1.00  0.00     0.040 C 
BRANCH  26  27
HETATM   27  C4  UNL     1       4.161   7.394  10.090  1.00  0.00     0.141 C 
BRANCH  27  28
HETATM   28  C3  UNL     1       3.242   7.477   8.897  1.00  0.00     0.009 C 
HETATM   29  C2  UNL     1       1.934   7.807   8.864  1.00  0.00    -0.062 C 
HETATM   30  C1  UNL     1       1.102   8.174  10.066  1.00  0.00     0.045 C 
BRANCH  29  31
HETATM   31  C30 UNL     1       1.181   7.826   7.559  1.00  0.00     0.198 C 
BRANCH  31  32
HETATM   32  O3  UNL     1       1.911   7.072   6.604  1.00  0.00    -0.397 OA
HETATM   33  H48 UNL     1       1.392   7.083   5.781  1.00  0.00     0.209 HD
ENDBRANCH  31  32
ENDBRANCH  29  31
ENDBRANCH  27  28
BRANCH  27  34
HETATM   34  O1  UNL     1       4.851   6.147  10.053  1.00  0.00    -0.392 OA
HETATM   35  H6  UNL     1       4.568   5.659   9.258  1.00  0.00     0.210 HD
ENDBRANCH  27  34
ENDBRANCH  26  27
ENDBRANCH  24  26
ENDBRANCH   1  24
TORSDOF 7
ENDMDL
MODEL 9
REMARK minimizedAffinity -7.94494343
REMARK  7 active torsions:
REMARK  status: ('A' for Active; 'I' for Inactive)
REMARK    1  A    between atoms: C2_2  and  C30_32 
REMARK    2  A    between atoms: C3_3  and  C4_4 
REMARK    3  A    between atoms: C4_4  and  O1_5 
REMARK    4  A    between atoms: C4_4  and  C5_6 
REMARK    5  A    between atoms: C5_6  and  C6_7 
REMARK    6  A    between atoms: C6_7  and  C8_9 
REMARK    7  A    between atoms: C30_32  and  O3_33 
ROOT
HETATM    1  C8  UNL     1       1.264   6.972  13.891  1.00  0.00    -0.002 C 
HETATM    2  C9  UNL     1       0.959   7.927  15.053  1.00  0.00     0.006 C 
HETATM    3  C10 UNL     1      -0.044   7.157  15.886  1.00  0.00     0.011 C 
HETATM    4  C11 UNL     1      -1.065   6.614  14.865  1.00  0.00    -0.032 C 
HETATM    5  C12 UNL     1      -1.773   5.404  15.507  1.00  0.00     0.016 C 
HETATM    6  C13 UNL     1      -2.124   7.712  14.448  1.00  0.00     0.004 C 
HETATM    7  C14 UNL     1      -2.912   8.419  15.562  1.00  0.00     0.007 C 
HETATM    8  C15 UNL     1      -4.174   7.744  16.073  1.00  0.00     0.007 C 
HETATM    9  C16 UNL     1      -4.978   6.865  15.097  1.00  0.00     0.010 C 
HETATM   10  C17 UNL     1      -6.527   7.093  15.169  1.00  0.00     0.018 C 
HETATM   11  C18 UNL     1      -6.952   8.514  14.760  1.00  0.00     0.023 C 
HETATM   12  C19 UNL     1      -7.052   6.776  16.581  1.00  0.00     0.023 C 
HETATM   13  C20 UNL     1      -7.230   6.121  14.210  1.00  0.00     0.135 C 
HETATM   14  O2  UNL     1      -8.454   6.123  14.056  1.00  0.00    -0.297 OA
HETATM   15  C21 UNL     1      -6.381   5.082  13.525  1.00  0.00     0.080 C 
HETATM   16  C22 UNL     1      -5.194   5.721  12.824  1.00  0.00     0.018 C 
HETATM   17  C23 UNL     1      -4.502   6.815  13.647  1.00  0.00    -0.026 A 
HETATM   18  C24 UNL     1      -4.178   8.086  12.890  1.00  0.00     0.021 A 
HETATM   19  C25 UNL     1      -3.039   7.190  13.333  1.00  0.00    -0.027 A 
HETATM   20  C26 UNL     1      -2.295   6.432  12.244  1.00  0.00     0.011 C 
HETATM   21  C27 UNL     1      -0.797   6.729  12.275  1.00  0.00     0.011 C 
HETATM   22  C28 UNL     1      -0.130   6.257  13.596  1.00  0.00    -0.032 C 
HETATM   23  C29 UNL     1       0.149   4.735  13.484  1.00  0.00     0.016 C 
ENDROOT
BRANCH   1  24
HETATM   24  C6  UNL     1       2.050   7.647  12.717  1.00  0.00    -0.011 C 
HETATM   25  C7  UNL     1       1.226   8.773  12.077  1.00  0.00     0.010 C 
BRANCH  24  26
HETATM   26  C5  UNL     1       2.455   6.607  11.631  1.00  0.00     0.040 C 
BRANCH  26  27
HETATM   27  C4  UNL     1       3.302   7.157  10.468  1.00  0.00     0.141 C 
BRANCH  27  28
HETATM   28  C3  UNL     1       2.933   6.473   9.176  1.00  0.00     0.009 C 
HETATM   29  C2  UNL     1       2.667   7.030   7.975  1.00  0.00    -0.062 C 
HETATM   30  C1  UNL     1       2.692   8.507   7.680  1.00  0.00     0.045 C 
BRANCH  29  31
HETATM   31  C30 UNL     1       2.306   6.167   6.794  1.00  0.00     0.198 C 
BRANCH  31  32
HETATM   32  O3  UNL     1       2.935   4.903   6.946  1.00  0.00    -0.397 OA
HETATM   33  H48 UNL     1       2.666   4.362   6.183  1.00  0.00     0.209 HD
ENDBRANCH  31  32
ENDBRANCH  29  31
ENDBRANCH  27  28
BRANCH  27  34
HETATM   34  O1  UNL     1       4.680   6.914  10.739  1.00  0.00    -0.392 OA
HETATM   35  H6  UNL     1       5.049   6.376  10.015  1.00  0.00     0.210 HD
ENDBRANCH  27  34
ENDBRANCH  26  27
ENDBRANCH  24  26
ENDBRANCH   1  24
TORSDOF 7
ENDMDL
