MODEL 1
REMARK minimizedAffinity -7.90444279
REMARK CNNscore 0.572890937
REMARK CNNaffinity 6.12340593
REMARK  8 active torsions:
REMARK  status: ('A' for Active; 'I' for Inactive)
REMARK    1  A    between atoms: C2_2  and  C3_3 
REMARK    2  A    between atoms: C2_2  and  C27_30 
REMARK    3  A    between atoms: C3_3  and  C4_4 
REMARK    4  A    between atoms: C4_4  and  C5_5 
REMARK    5  A    between atoms: C5_5  and  C7_7 
REMARK    6  A    between atoms: C26_28  and  O3_29 
REMARK    7  A    between atoms: C27_30  and  C29_32 
REMARK    8  A    between atoms: C29_32  and  O5_34 
ROOT
HETATM    1  C7  UNL     1     -13.720  45.706 -28.027  1.00  0.00    -0.002 C 
HETATM    2  C8  UNL     1     -13.673  47.011 -27.211  1.00  0.00     0.006 C 
HETATM    3  C9  UNL     1     -12.353  47.650 -27.612  1.00  0.00     0.010 C 
HETATM    4  C10 UNL     1     -11.403  46.452 -27.586  1.00  0.00     0.027 C 
HETATM    5  C11 UNL     1     -10.019  46.725 -28.143  1.00  0.00    -0.036 C 
HETATM    6  C12 UNL     1      -9.523  46.150 -29.263  1.00  0.00     0.002 C 
HETATM    7  C13 UNL     1     -10.469  45.357 -30.129  1.00  0.00     0.157 C 
HETATM    8  O1  UNL     1     -10.092  44.846 -31.182  1.00  0.00    -0.293 OA
HETATM    9  C14 UNL     1     -11.935  45.308 -29.770  1.00  0.00     0.093 C 
HETATM   10  C15 UNL     1     -12.209  45.305 -28.257  1.00  0.00    -0.026 C 
HETATM   11  C16 UNL     1     -11.749  43.959 -27.673  1.00  0.00     0.016 C 
HETATM   12  C17 UNL     1      -8.051  46.278 -29.728  1.00  0.00    -0.008 C 
HETATM   13  C18 UNL     1      -7.440  44.849 -29.856  1.00  0.00     0.021 C 
HETATM   14  C19 UNL     1      -8.009  46.979 -31.123  1.00  0.00     0.022 C 
HETATM   15  C20 UNL     1      -7.174  48.248 -31.225  1.00  0.00     0.080 C 
HETATM   16  C21 UNL     1      -5.831  48.107 -30.568  1.00  0.00     0.131 C 
HETATM   17  O2  UNL     1      -4.814  48.553 -31.111  1.00  0.00    -0.298 OA
HETATM   18  C22 UNL     1      -5.771  47.429 -29.208  1.00  0.00     0.056 C 
HETATM   19  C23 UNL     1      -4.948  48.276 -28.237  1.00  0.00     0.018 C 
HETATM   20  C24 UNL     1      -7.168  47.034 -28.663  1.00  0.00     0.012 C 
HETATM   21  C25 UNL     1      -7.945  48.189 -28.012  1.00  0.00     0.042 C 
HETATM   22  C26 UNL     1      -9.188  47.661 -27.300  1.00  0.00     0.148 C 
ENDROOT
BRANCH   1  23
HETATM   23  C5  UNL     1     -14.792  44.705 -27.510  1.00  0.00    -0.014 C 
HETATM   24  C6  UNL     1     -16.123  44.732 -28.264  1.00  0.00     0.010 C 
BRANCH  23  25
HETATM   25  C4  UNL     1     -14.985  44.834 -25.976  1.00  0.00     0.009 C 
BRANCH  25  26
HETATM   26  C3  UNL     1     -16.456  44.869 -25.511  1.00  0.00     0.034 C 
BRANCH  26  27
HETATM   27  C2  UNL     1     -16.867  45.915 -24.490  1.00  0.00    -0.075 C 
HETATM   28  C1  UNL     1     -16.013  46.861 -24.057  1.00  0.00     0.015 C 
BRANCH  27  29
HETATM   29  C27 UNL     1     -18.279  45.826 -23.908  1.00  0.00     0.107 C 
HETATM   30  C28 UNL     1     -18.330  46.234 -22.436  1.00  0.00     0.026 C 
BRANCH  29  31
HETATM   31  C29 UNL     1     -19.300  46.626 -24.717  1.00  0.00     0.147 C 
HETATM   32  O4  UNL     1     -20.320  46.229 -25.254  1.00  0.00    -0.650 OA
BRANCH  31  33
HETATM   33  O5  UNL     1     -18.964  47.933 -24.813  1.00  0.00    -0.776 OA
HETATM   34  H42 UNL     1     -19.694  48.319 -25.342  1.00  0.00     0.167 HD
ENDBRANCH  31  33
ENDBRANCH  29  31
ENDBRANCH  27  29
ENDBRANCH  26  27
ENDBRANCH  25  26
ENDBRANCH  23  25
ENDBRANCH   1  23
BRANCH  22  35
HETATM   35  O3  UNL     1      -8.819  46.957 -26.119  1.00  0.00    -0.391 OA
HETATM   36  H37 UNL     1      -8.378  47.587 -25.525  1.00  0.00     0.210 HD
ENDBRANCH  22  35
TORSDOF 8
ENDMDL
MODEL 2
REMARK minimizedAffinity -7.30891085
REMARK CNNscore 0.405295104
REMARK CNNaffinity 6.51453257
REMARK  8 active torsions:
REMARK  status: ('A' for Active; 'I' for Inactive)
REMARK    1  A    between atoms: C2_2  and  C3_3 
REMARK    2  A    between atoms: C2_2  and  C27_30 
REMARK    3  A    between atoms: C3_3  and  C4_4 
REMARK    4  A    between atoms: C4_4  and  C5_5 
REMARK    5  A    between atoms: C5_5  and  C7_7 
REMARK    6  A    between atoms: C26_28  and  O3_29 
REMARK    7  A    between atoms: C27_30  and  C29_32 
REMARK    8  A    between atoms: C29_32  and  O5_34 
ROOT
HETATM    1  C7  UNL     1      -1.187  49.240 -19.037  1.00  0.00    -0.002 C 
HETATM    2  C8  UNL     1      -1.615  47.866 -19.585  1.00  0.00     0.006 C 
HETATM    3  C9  UNL     1      -1.470  48.008 -21.092  1.00  0.00     0.010 C 
HETATM    4  C10 UNL     1      -2.083  49.388 -21.339  1.00  0.00     0.027 C 
HETATM    5  C11 UNL     1      -1.907  49.920 -22.748  1.00  0.00    -0.036 C 
HETATM    6  C12 UNL     1      -1.170  51.011 -23.062  1.00  0.00     0.002 C 
HETATM    7  C13 UNL     1      -0.299  51.609 -21.987  1.00  0.00     0.157 C 
HETATM    8  O1  UNL     1       0.428  52.574 -22.220  1.00  0.00    -0.293 OA
HETATM    9  C14 UNL     1      -0.210  50.928 -20.643  1.00  0.00     0.093 C 
HETATM   10  C15 UNL     1      -1.523  50.269 -20.187  1.00  0.00    -0.026 C 
HETATM   11  C16 UNL     1      -2.542  51.373 -19.858  1.00  0.00     0.016 C 
HETATM   12  C17 UNL     1      -1.143  51.666 -24.465  1.00  0.00    -0.008 C 
HETATM   13  C18 UNL     1      -1.573  53.158 -24.329  1.00  0.00     0.021 C 
HETATM   14  C19 UNL     1       0.309  51.603 -25.037  1.00  0.00     0.022 C 
HETATM   15  C20 UNL     1       0.484  50.912 -26.382  1.00  0.00     0.080 C 
HETATM   16  C21 UNL     1      -0.553  51.333 -27.384  1.00  0.00     0.131 C 
HETATM   17  O2  UNL     1      -0.237  51.566 -28.556  1.00  0.00    -0.298 OA
HETATM   18  C22 UNL     1      -1.996  51.431 -26.916  1.00  0.00     0.056 C 
HETATM   19  C23 UNL     1      -2.914  50.699 -27.896  1.00  0.00     0.018 C 
HETATM   20  C24 UNL     1      -2.188  51.001 -25.439  1.00  0.00     0.012 C 
HETATM   21  C25 UNL     1      -2.261  49.480 -25.226  1.00  0.00     0.042 C 
HETATM   22  C26 UNL     1      -2.687  49.162 -23.794  1.00  0.00     0.148 C 
ENDROOT
BRANCH   1  23
HETATM   23  C5  UNL     1      -1.604  49.458 -17.555  1.00  0.00    -0.014 C 
HETATM   24  C6  UNL     1      -0.865  50.585 -16.831  1.00  0.00     0.010 C 
BRANCH  23  25
HETATM   25  C4  UNL     1      -1.567  48.127 -16.761  1.00  0.00     0.009 C 
BRANCH  25  26
HETATM   26  C3  UNL     1      -2.950  47.571 -16.365  1.00  0.00     0.034 C 
BRANCH  26  27
HETATM   27  C2  UNL     1      -3.248  47.350 -14.893  1.00  0.00    -0.075 C 
HETATM   28  C1  UNL     1      -2.956  48.276 -13.961  1.00  0.00     0.015 C 
BRANCH  27  29
HETATM   29  C27 UNL     1      -3.837  46.000 -14.480  1.00  0.00     0.107 C 
HETATM   30  C28 UNL     1      -2.856  45.161 -13.661  1.00  0.00     0.026 C 
BRANCH  29  31
HETATM   31  C29 UNL     1      -5.165  46.141 -13.736  1.00  0.00     0.147 C 
HETATM   32  O4  UNL     1      -6.269  46.380 -14.195  1.00  0.00    -0.650 OA
BRANCH  31  33
HETATM   33  O5  UNL     1      -5.023  45.973 -12.402  1.00  0.00    -0.776 OA
HETATM   34  H42 UNL     1      -5.935  46.083 -12.059  1.00  0.00     0.167 HD
ENDBRANCH  31  33
ENDBRANCH  29  31
ENDBRANCH  27  29
ENDBRANCH  26  27
ENDBRANCH  25  26
ENDBRANCH  23  25
ENDBRANCH   1  23
BRANCH  22  35
HETATM   35  O3  UNL     1      -4.063  49.473 -23.608  1.00  0.00    -0.391 OA
HETATM   36  H37 UNL     1      -4.577  48.906 -24.207  1.00  0.00     0.210 HD
ENDBRANCH  22  35
TORSDOF 8
ENDMDL
MODEL 3
REMARK minimizedAffinity -8.27550793
REMARK CNNscore 0.339563668
REMARK CNNaffinity 6.58567619
REMARK  8 active torsions:
REMARK  status: ('A' for Active; 'I' for Inactive)
REMARK    1  A    between atoms: C2_2  and  C3_3 
REMARK    2  A    between atoms: C2_2  and  C27_30 
REMARK    3  A    between atoms: C3_3  and  C4_4 
REMARK    4  A    between atoms: C4_4  and  C5_5 
REMARK    5  A    between atoms: C5_5  and  C7_7 
REMARK    6  A    between atoms: C26_28  and  O3_29 
REMARK    7  A    between atoms: C27_30  and  C29_32 
REMARK    8  A    between atoms: C29_32  and  O5_34 
ROOT
HETATM    1  C7  UNL     1      -1.189  48.994 -19.251  1.00  0.00    -0.002 C 
HETATM    2  C8  UNL     1      -1.734  47.690 -19.862  1.00  0.00     0.006 C 
HETATM    3  C9  UNL     1      -1.595  47.897 -21.362  1.00  0.00     0.010 C 
HETATM    4  C10 UNL     1      -2.095  49.332 -21.529  1.00  0.00     0.027 C 
HETATM    5  C11 UNL     1      -1.891  49.921 -22.912  1.00  0.00    -0.036 C 
HETATM    6  C12 UNL     1      -1.070  50.963 -23.182  1.00  0.00     0.002 C 
HETATM    7  C13 UNL     1      -0.142  51.432 -22.090  1.00  0.00     0.157 C 
HETATM    8  O1  UNL     1       0.659  52.346 -22.285  1.00  0.00    -0.293 OA
HETATM    9  C14 UNL     1      -0.095  50.678 -20.784  1.00  0.00     0.093 C 
HETATM   10  C15 UNL     1      -1.452  50.105 -20.343  1.00  0.00    -0.026 C 
HETATM   11  C16 UNL     1      -2.374  51.269 -19.943  1.00  0.00     0.016 C 
HETATM   12  C17 UNL     1      -1.005  51.685 -24.550  1.00  0.00    -0.008 C 
HETATM   13  C18 UNL     1      -1.309  53.199 -24.332  1.00  0.00     0.021 C 
HETATM   14  C19 UNL     1       0.431  51.534 -25.146  1.00  0.00     0.022 C 
HETATM   15  C20 UNL     1       0.534  50.902 -26.527  1.00  0.00     0.080 C 
HETATM   16  C21 UNL     1      -0.475  51.456 -27.490  1.00  0.00     0.131 C 
HETATM   17  O2  UNL     1      -0.154  51.724 -28.654  1.00  0.00    -0.298 OA
HETATM   18  C22 UNL     1      -1.900  51.648 -26.997  1.00  0.00     0.056 C 
HETATM   19  C23 UNL     1      -2.886  51.044 -27.999  1.00  0.00     0.018 C 
HETATM   20  C24 UNL     1      -2.112  51.158 -25.540  1.00  0.00     0.012 C 
HETATM   21  C25 UNL     1      -2.306  49.640 -25.404  1.00  0.00     0.042 C 
HETATM   22  C26 UNL     1      -2.741  49.284 -23.984  1.00  0.00     0.148 C 
ENDROOT
BRANCH   1  23
HETATM   23  C5  UNL     1      -1.572  49.169 -17.754  1.00  0.00    -0.014 C 
HETATM   24  C6  UNL     1      -3.051  49.454 -17.490  1.00  0.00     0.010 C 
BRANCH  23  25
HETATM   25  C4  UNL     1      -0.643  50.196 -17.056  1.00  0.00     0.009 C 
BRANCH  25  26
HETATM   26  C3  UNL     1       0.260  49.606 -15.953  1.00  0.00     0.034 C 
BRANCH  26  27
HETATM   27  C2  UNL     1       0.282  50.285 -14.596  1.00  0.00    -0.075 C 
HETATM   28  C1  UNL     1       1.393  50.872 -14.111  1.00  0.00     0.015 C 
BRANCH  27  29
HETATM   29  C27 UNL     1      -0.991  50.227 -13.750  1.00  0.00     0.107 C 
HETATM   30  C28 UNL     1      -1.938  51.390 -14.042  1.00  0.00     0.026 C 
BRANCH  29  31
HETATM   31  C29 UNL     1      -1.728  48.894 -13.887  1.00  0.00     0.147 C 
HETATM   32  O4  UNL     1      -1.268  47.767 -13.844  1.00  0.00    -0.650 OA
BRANCH  31  33
HETATM   33  O5  UNL     1      -3.055  49.063 -14.084  1.00  0.00    -0.776 OA
HETATM   34  H42 UNL     1      -3.396  48.146 -14.148  1.00  0.00     0.167 HD
ENDBRANCH  31  33
ENDBRANCH  29  31
ENDBRANCH  27  29
ENDBRANCH  26  27
ENDBRANCH  25  26
ENDBRANCH  23  25
ENDBRANCH   1  23
BRANCH  22  35
HETATM   35  O3  UNL     1      -4.086  49.696 -23.762  1.00  0.00    -0.391 OA
HETATM   36  H37 UNL     1      -4.651  49.204 -24.380  1.00  0.00     0.210 HD
ENDBRANCH  22  35
TORSDOF 8
ENDMDL
MODEL 4
REMARK minimizedAffinity -7.56753302
REMARK CNNscore 0.308114618
REMARK CNNaffinity 6.09499979
REMARK  8 active torsions:
REMARK  status: ('A' for Active; 'I' for Inactive)
REMARK    1  A    between atoms: C2_2  and  C3_3 
REMARK    2  A    between atoms: C2_2  and  C27_30 
REMARK    3  A    between atoms: C3_3  and  C4_4 
REMARK    4  A    between atoms: C4_4  and  C5_5 
REMARK    5  A    between atoms: C5_5  and  C7_7 
REMARK    6  A    between atoms: C26_28  and  O3_29 
REMARK    7  A    between atoms: C27_30  and  C29_32 
REMARK    8  A    between atoms: C29_32  and  O5_34 
ROOT
HETATM    1  C7  UNL     1      -5.416  47.806 -25.421  1.00  0.00    -0.002 C 
HETATM    2  C8  UNL     1      -4.239  48.209 -26.329  1.00  0.00     0.006 C 
HETATM    3  C9  UNL     1      -3.170  48.683 -25.358  1.00  0.00     0.010 C 
HETATM    4  C10 UNL     1      -3.983  49.537 -24.385  1.00  0.00     0.027 C 
HETATM    5  C11 UNL     1      -3.224  50.001 -23.157  1.00  0.00    -0.036 C 
HETATM    6  C12 UNL     1      -3.511  49.611 -21.893  1.00  0.00     0.002 C 
HETATM    7  C13 UNL     1      -4.499  48.488 -21.707  1.00  0.00     0.157 C 
HETATM    8  O1  UNL     1      -4.770  48.057 -20.587  1.00  0.00    -0.293 OA
HETATM    9  C14 UNL     1      -5.058  47.786 -22.920  1.00  0.00     0.093 C 
HETATM   10  C15 UNL     1      -5.274  48.708 -24.132  1.00  0.00    -0.026 C 
HETATM   11  C16 UNL     1      -6.435  49.667 -23.823  1.00  0.00     0.016 C 
HETATM   12  C17 UNL     1      -2.865  50.227 -20.626  1.00  0.00    -0.008 C 
HETATM   13  C18 UNL     1      -3.997  50.782 -19.708  1.00  0.00     0.021 C 
HETATM   14  C19 UNL     1      -2.079  49.119 -19.856  1.00  0.00     0.022 C 
HETATM   15  C20 UNL     1      -0.602  49.382 -19.600  1.00  0.00     0.080 C 
HETATM   16  C21 UNL     1      -0.344  50.775 -19.104  1.00  0.00     0.131 C 
HETATM   17  O2  UNL     1       0.456  50.978 -18.183  1.00  0.00    -0.298 OA
HETATM   18  C22 UNL     1      -1.072  51.921 -19.788  1.00  0.00     0.056 C 
HETATM   19  C23 UNL     1      -0.081  53.031 -20.144  1.00  0.00     0.018 C 
HETATM   20  C24 UNL     1      -1.950  51.460 -20.980  1.00  0.00     0.012 C 
HETATM   21  C25 UNL     1      -1.172  51.222 -22.285  1.00  0.00     0.042 C 
HETATM   22  C26 UNL     1      -2.138  51.007 -23.449  1.00  0.00     0.148 C 
ENDROOT
BRANCH   1  23
HETATM   23  C5  UNL     1      -6.753  47.642 -26.198  1.00  0.00    -0.014 C 
HETATM   24  C6  UNL     1      -6.714  48.087 -27.661  1.00  0.00     0.010 C 
BRANCH  23  25
HETATM   25  C4  UNL     1      -7.933  48.282 -25.422  1.00  0.00     0.009 C 
BRANCH  25  26
HETATM   26  C3  UNL     1      -9.311  48.130 -26.100  1.00  0.00     0.034 C 
BRANCH  26  27
HETATM   27  C2  UNL     1     -10.351  47.246 -25.435  1.00  0.00    -0.075 C 
HETATM   28  C1  UNL     1     -10.293  46.941 -24.125  1.00  0.00     0.015 C 
BRANCH  27  29
HETATM   29  C27 UNL     1     -11.448  46.649 -26.318  1.00  0.00     0.107 C 
HETATM   30  C28 UNL     1     -11.971  45.319 -25.778  1.00  0.00     0.026 C 
BRANCH  29  31
HETATM   31  C29 UNL     1     -12.606  47.618 -26.554  1.00  0.00     0.147 C 
HETATM   32  O4  UNL     1     -12.656  48.567 -27.318  1.00  0.00    -0.650 OA
BRANCH  31  33
HETATM   33  O5  UNL     1     -13.677  47.333 -25.779  1.00  0.00    -0.776 OA
HETATM   34  H42 UNL     1     -14.333  48.017 -26.033  1.00  0.00     0.167 HD
ENDBRANCH  31  33
ENDBRANCH  29  31
ENDBRANCH  27  29
ENDBRANCH  26  27
ENDBRANCH  25  26
ENDBRANCH  23  25
ENDBRANCH   1  23
BRANCH  22  35
HETATM   35  O3  UNL     1      -2.774  52.233 -23.795  1.00  0.00    -0.391 OA
HETATM   36  H37 UNL     1      -2.083  52.851 -24.088  1.00  0.00     0.210 HD
ENDBRANCH  22  35
TORSDOF 8
ENDMDL
MODEL 5
REMARK minimizedAffinity -9.62841511
REMARK CNNscore 0.292251498
REMARK CNNaffinity 6.69342232
REMARK  8 active torsions:
REMARK  status: ('A' for Active; 'I' for Inactive)
REMARK    1  A    between atoms: C2_2  and  C3_3 
REMARK    2  A    between atoms: C2_2  and  C27_30 
REMARK    3  A    between atoms: C3_3  and  C4_4 
REMARK    4  A    between atoms: C4_4  and  C5_5 
REMARK    5  A    between atoms: C5_5  and  C7_7 
REMARK    6  A    between atoms: C26_28  and  O3_29 
REMARK    7  A    between atoms: C27_30  and  C29_32 
REMARK    8  A    between atoms: C29_32  and  O5_34 
ROOT
HETATM    1  C7  UNL     1      -0.864  49.378 -19.075  1.00  0.00    -0.002 C 
HETATM    2  C8  UNL     1      -1.437  48.050 -19.604  1.00  0.00     0.006 C 
HETATM    3  C9  UNL     1      -1.353  48.187 -21.115  1.00  0.00     0.010 C 
HETATM    4  C10 UNL     1      -1.853  49.616 -21.330  1.00  0.00     0.027 C 
HETATM    5  C11 UNL     1      -1.699  50.138 -22.746  1.00  0.00    -0.036 C 
HETATM    6  C12 UNL     1      -0.885  51.161 -23.095  1.00  0.00     0.002 C 
HETATM    7  C13 UNL     1       0.086  51.675 -22.063  1.00  0.00     0.157 C 
HETATM    8  O1  UNL     1       0.883  52.574 -22.329  1.00  0.00    -0.293 OA
HETATM    9  C14 UNL     1       0.179  50.982 -20.725  1.00  0.00     0.093 C 
HETATM   10  C15 UNL     1      -1.163  50.439 -20.207  1.00  0.00    -0.026 C 
HETATM   11  C16 UNL     1      -2.064  51.626 -19.827  1.00  0.00     0.016 C 
HETATM   12  C17 UNL     1      -0.868  51.819 -24.497  1.00  0.00    -0.008 C 
HETATM   13  C18 UNL     1      -1.158  53.343 -24.338  1.00  0.00     0.021 C 
HETATM   14  C19 UNL     1       0.543  51.631 -25.139  1.00  0.00     0.022 C 
HETATM   15  C20 UNL     1       0.591  50.935 -26.492  1.00  0.00     0.080 C 
HETATM   16  C21 UNL     1      -0.451  51.450 -27.441  1.00  0.00     0.131 C 
HETATM   17  O2  UNL     1      -0.174  51.661 -28.627  1.00  0.00    -0.298 OA
HETATM   18  C22 UNL     1      -1.856  51.673 -26.904  1.00  0.00     0.056 C 
HETATM   19  C23 UNL     1      -2.881  51.029 -27.839  1.00  0.00     0.018 C 
HETATM   20  C24 UNL     1      -2.014  51.253 -25.419  1.00  0.00     0.012 C 
HETATM   21  C25 UNL     1      -2.210  49.744 -25.205  1.00  0.00     0.042 C 
HETATM   22  C26 UNL     1      -2.593  49.457 -23.754  1.00  0.00     0.148 C 
ENDROOT
BRANCH   1  23
HETATM   23  C5  UNL     1      -1.188  49.625 -17.575  1.00  0.00    -0.014 C 
HETATM   24  C6  UNL     1      -2.291  50.650 -17.308  1.00  0.00     0.010 C 
BRANCH  23  25
HETATM   25  C4  UNL     1       0.100  49.926 -16.766  1.00  0.00     0.009 C 
BRANCH  25  26
HETATM   26  C3  UNL     1       0.692  51.332 -16.994  1.00  0.00     0.034 C 
BRANCH  26  27
HETATM   27  C2  UNL     1       1.885  51.760 -16.159  1.00  0.00    -0.075 C 
HETATM   28  C1  UNL     1       2.791  52.648 -16.612  1.00  0.00     0.015 C 
BRANCH  27  29
HETATM   29  C27 UNL     1       2.073  51.097 -14.793  1.00  0.00     0.107 C 
HETATM   30  C28 UNL     1       3.543  50.998 -14.390  1.00  0.00     0.026 C 
BRANCH  29  31
HETATM   31  C29 UNL     1       1.265  51.784 -13.691  1.00  0.00     0.147 C 
HETATM   32  O4  UNL     1       1.192  51.490 -12.510  1.00  0.00    -0.650 OA
BRANCH  31  33
HETATM   33  O5  UNL     1       0.561  52.840 -14.157  1.00  0.00    -0.776 OA
HETATM   34  H42 UNL     1       0.103  53.180 -13.359  1.00  0.00     0.167 HD
ENDBRANCH  31  33
ENDBRANCH  29  31
ENDBRANCH  27  29
ENDBRANCH  26  27
ENDBRANCH  25  26
ENDBRANCH  23  25
ENDBRANCH   1  23
BRANCH  22  35
HETATM   35  O3  UNL     1      -3.926  49.887 -23.501  1.00  0.00    -0.391 OA
HETATM   36  H37 UNL     1      -4.516  49.370 -24.075  1.00  0.00     0.210 HD
ENDBRANCH  22  35
TORSDOF 8
ENDMDL
MODEL 6
REMARK minimizedAffinity -7.05126905
REMARK CNNscore 0.288734198
REMARK CNNaffinity 6.22813559
REMARK  8 active torsions:
REMARK  status: ('A' for Active; 'I' for Inactive)
REMARK    1  A    between atoms: C2_2  and  C3_3 
REMARK    2  A    between atoms: C2_2  and  C27_30 
REMARK    3  A    between atoms: C3_3  and  C4_4 
REMARK    4  A    between atoms: C4_4  and  C5_5 
REMARK    5  A    between atoms: C5_5  and  C7_7 
REMARK    6  A    between atoms: C26_28  and  O3_29 
REMARK    7  A    between atoms: C27_30  and  C29_32 
REMARK    8  A    between atoms: C29_32  and  O5_34 
ROOT
HETATM    1  C7  UNL     1      -3.393  48.676 -22.628  1.00  0.00    -0.002 C 
HETATM    2  C8  UNL     1      -2.367  47.873 -21.808  1.00  0.00     0.006 C 
HETATM    3  C9  UNL     1      -3.210  47.146 -20.773  1.00  0.00     0.010 C 
HETATM    4  C10 UNL     1      -4.171  48.245 -20.320  1.00  0.00     0.027 C 
HETATM    5  C11 UNL     1      -5.295  47.777 -19.416  1.00  0.00    -0.036 C 
HETATM    6  C12 UNL     1      -6.605  47.800 -19.756  1.00  0.00     0.002 C 
HETATM    7  C13 UNL     1      -6.958  48.106 -21.189  1.00  0.00     0.157 C 
HETATM    8  O1  UNL     1      -8.126  48.100 -21.573  1.00  0.00    -0.293 OA
HETATM    9  C14 UNL     1      -5.852  48.284 -22.201  1.00  0.00     0.093 C 
HETATM   10  C15 UNL     1      -4.590  48.958 -21.637  1.00  0.00    -0.026 C 
HETATM   11  C16 UNL     1      -4.909  50.431 -21.333  1.00  0.00     0.016 C 
HETATM   12  C17 UNL     1      -7.764  47.504 -18.772  1.00  0.00    -0.008 C 
HETATM   13  C18 UNL     1      -8.719  48.736 -18.738  1.00  0.00     0.021 C 
HETATM   14  C19 UNL     1      -8.558  46.255 -19.270  1.00  0.00     0.022 C 
HETATM   15  C20 UNL     1      -8.677  45.089 -18.298  1.00  0.00     0.080 C 
HETATM   16  C21 UNL     1      -9.037  45.532 -16.910  1.00  0.00     0.131 C 
HETATM   17  O2  UNL     1      -9.874  44.909 -16.247  1.00  0.00    -0.298 OA
HETATM   18  C22 UNL     1      -8.321  46.747 -16.342  1.00  0.00     0.056 C 
HETATM   19  C23 UNL     1      -7.800  46.436 -14.937  1.00  0.00     0.018 C 
HETATM   20  C24 UNL     1      -7.241  47.319 -17.296  1.00  0.00     0.012 C 
HETATM   21  C25 UNL     1      -5.904  46.562 -17.267  1.00  0.00     0.042 C 
HETATM   22  C26 UNL     1      -4.840  47.331 -18.048  1.00  0.00     0.148 C 
ENDROOT
BRANCH   1  23
HETATM   23  C5  UNL     1      -2.737  49.783 -23.503  1.00  0.00    -0.014 C 
HETATM   24  C6  UNL     1      -2.792  49.536 -25.011  1.00  0.00     0.010 C 
BRANCH  23  25
HETATM   25  C4  UNL     1      -1.302  50.106 -23.013  1.00  0.00     0.009 C 
BRANCH  25  26
HETATM   26  C3  UNL     1      -1.142  51.490 -22.350  1.00  0.00     0.034 C 
BRANCH  26  27
HETATM   27  C2  UNL     1      -0.446  51.572 -21.004  1.00  0.00    -0.075 C 
HETATM   28  C1  UNL     1      -0.052  50.470 -20.338  1.00  0.00     0.015 C 
BRANCH  27  29
HETATM   29  C27 UNL     1      -0.261  52.956 -20.380  1.00  0.00     0.107 C 
HETATM   30  C28 UNL     1      -0.179  52.903 -18.855  1.00  0.00     0.026 C 
BRANCH  29  31
HETATM   31  C29 UNL     1       0.947  53.701 -20.951  1.00  0.00     0.147 C 
HETATM   32  O4  UNL     1       1.237  53.890 -22.120  1.00  0.00    -0.650 OA
BRANCH  31  33
HETATM   33  O5  UNL     1       1.757  54.179 -19.980  1.00  0.00    -0.776 OA
HETATM   34  H42 UNL     1       2.473  54.628 -20.478  1.00  0.00     0.167 HD
ENDBRANCH  31  33
ENDBRANCH  29  31
ENDBRANCH  27  29
ENDBRANCH  26  27
ENDBRANCH  25  26
ENDBRANCH  23  25
ENDBRANCH   1  23
BRANCH  22  35
HETATM   35  O3  UNL     1      -4.445  48.495 -17.329  1.00  0.00    -0.391 OA
HETATM   36  H37 UNL     1      -4.050  48.203 -16.490  1.00  0.00     0.210 HD
ENDBRANCH  22  35
TORSDOF 8
ENDMDL
MODEL 7
REMARK minimizedAffinity -9.03271294
REMARK CNNscore 0.283939064
REMARK CNNaffinity 6.56412506
REMARK  8 active torsions:
REMARK  status: ('A' for Active; 'I' for Inactive)
REMARK    1  A    between atoms: C2_2  and  C3_3 
REMARK    2  A    between atoms: C2_2  and  C27_30 
REMARK    3  A    between atoms: C3_3  and  C4_4 
REMARK    4  A    between atoms: C4_4  and  C5_5 
REMARK    5  A    between atoms: C5_5  and  C7_7 
REMARK    6  A    between atoms: C26_28  and  O3_29 
REMARK    7  A    between atoms: C27_30  and  C29_32 
REMARK    8  A    between atoms: C29_32  and  O5_34 
ROOT
HETATM    1  C7  UNL     1      -0.443  51.085 -22.424  1.00  0.00    -0.002 C 
HETATM    2  C8  UNL     1       0.822  51.955 -22.312  1.00  0.00     0.006 C 
HETATM    3  C9  UNL     1       1.296  51.739 -20.884  1.00  0.00     0.010 C 
HETATM    4  C10 UNL     1      -0.015  51.824 -20.102  1.00  0.00     0.027 C 
HETATM    5  C11 UNL     1       0.091  51.444 -18.637  1.00  0.00    -0.036 C 
HETATM    6  C12 UNL     1      -0.512  50.365 -18.086  1.00  0.00     0.002 C 
HETATM    7  C13 UNL     1      -1.151  49.362 -19.013  1.00  0.00     0.157 C 
HETATM    8  O1  UNL     1      -1.678  48.339 -18.578  1.00  0.00    -0.293 OA
HETATM    9  C14 UNL     1      -1.019  49.545 -20.505  1.00  0.00     0.093 C 
HETATM   10  C15 UNL     1      -1.029  51.015 -20.958  1.00  0.00    -0.026 C 
HETATM   11  C16 UNL     1      -2.439  51.589 -20.745  1.00  0.00     0.016 C 
HETATM   12  C17 UNL     1      -0.563  50.081 -16.564  1.00  0.00    -0.008 C 
HETATM   13  C18 UNL     1      -2.054  49.964 -16.127  1.00  0.00     0.021 C 
HETATM   14  C19 UNL     1       0.165  48.732 -16.266  1.00  0.00     0.022 C 
HETATM   15  C20 UNL     1       1.317  48.783 -15.272  1.00  0.00     0.080 C 
HETATM   16  C21 UNL     1       0.985  49.585 -14.047  1.00  0.00     0.131 C 
HETATM   17  O2  UNL     1       1.311  49.184 -12.924  1.00  0.00    -0.298 OA
HETATM   18  C22 UNL     1       0.268  50.911 -14.238  1.00  0.00     0.056 C 
HETATM   19  C23 UNL     1       0.974  52.007 -13.438  1.00  0.00     0.018 C 
HETATM   20  C24 UNL     1       0.042  51.273 -15.729  1.00  0.00     0.012 C 
HETATM   21  C25 UNL     1       1.270  51.878 -16.427  1.00  0.00     0.042 C 
HETATM   22  C26 UNL     1       0.888  52.418 -17.804  1.00  0.00     0.148 C 
ENDROOT
BRANCH   1  23
HETATM   23  C5  UNL     1      -1.310  51.430 -23.668  1.00  0.00    -0.014 C 
HETATM   24  C6  UNL     1      -2.117  50.264 -24.241  1.00  0.00     0.010 C 
BRANCH  23  25
HETATM   25  C4  UNL     1      -0.469  52.150 -24.754  1.00  0.00     0.009 C 
BRANCH  25  26
HETATM   26  C3  UNL     1       0.342  51.211 -25.671  1.00  0.00     0.034 C 
BRANCH  26  27
HETATM   27  C2  UNL     1       0.697  51.692 -27.066  1.00  0.00    -0.075 C 
HETATM   28  C1  UNL     1       1.974  51.774 -27.488  1.00  0.00     0.015 C 
BRANCH  27  29
HETATM   29  C27 UNL     1      -0.445  52.150 -27.974  1.00  0.00     0.107 C 
HETATM   30  C28 UNL     1      -1.708  51.308 -27.793  1.00  0.00     0.026 C 
BRANCH  29  31
HETATM   31  C29 UNL     1      -0.769  53.635 -27.809  1.00  0.00     0.147 C 
HETATM   32  O4  UNL     1      -0.108  54.497 -27.256  1.00  0.00    -0.650 OA
BRANCH  31  33
HETATM   33  O5  UNL     1      -1.957  53.963 -28.365  1.00  0.00    -0.776 OA
HETATM   34  H42 UNL     1      -2.032  54.926 -28.192  1.00  0.00     0.167 HD
ENDBRANCH  31  33
ENDBRANCH  29  31
ENDBRANCH  27  29
ENDBRANCH  26  27
ENDBRANCH  25  26
ENDBRANCH  23  25
ENDBRANCH   1  23
BRANCH  22  35
HETATM   35  O3  UNL     1       0.109  53.602 -17.671  1.00  0.00    -0.391 OA
HETATM   36  H37 UNL     1       0.660  54.270 -17.230  1.00  0.00     0.210 HD
ENDBRANCH  22  35
TORSDOF 8
ENDMDL
MODEL 8
REMARK minimizedAffinity -7.38457727
REMARK CNNscore 0.274890184
REMARK CNNaffinity 6.20879173
REMARK  8 active torsions:
REMARK  status: ('A' for Active; 'I' for Inactive)
REMARK    1  A    between atoms: C2_2  and  C3_3 
REMARK    2  A    between atoms: C2_2  and  C27_30 
REMARK    3  A    between atoms: C3_3  and  C4_4 
REMARK    4  A    between atoms: C4_4  and  C5_5 
REMARK    5  A    between atoms: C5_5  and  C7_7 
REMARK    6  A    between atoms: C26_28  and  O3_29 
REMARK    7  A    between atoms: C27_30  and  C29_32 
REMARK    8  A    between atoms: C29_32  and  O5_34 
ROOT
HETATM    1  C7  UNL     1      -4.625  47.016 -19.620  1.00  0.00    -0.002 C 
HETATM    2  C8  UNL     1      -3.815  45.999 -20.444  1.00  0.00     0.006 C 
HETATM    3  C9  UNL     1      -3.150  46.842 -21.521  1.00  0.00     0.010 C 
HETATM    4  C10 UNL     1      -4.295  47.755 -21.958  1.00  0.00     0.027 C 
HETATM    5  C11 UNL     1      -3.894  48.872 -22.901  1.00  0.00    -0.036 C 
HETATM    6  C12 UNL     1      -3.951  50.188 -22.590  1.00  0.00     0.002 C 
HETATM    7  C13 UNL     1      -4.222  50.564 -21.155  1.00  0.00     0.157 C 
HETATM    8  O1  UNL     1      -4.243  51.740 -20.798  1.00  0.00    -0.293 OA
HETATM    9  C14 UNL     1      -4.330  49.476 -20.114  1.00  0.00     0.093 C 
HETATM   10  C15 UNL     1      -4.979  48.180 -20.628  1.00  0.00    -0.026 C 
HETATM   11  C16 UNL     1      -6.471  48.443 -20.891  1.00  0.00     0.016 C 
HETATM   12  C17 UNL     1      -3.725  51.333 -23.609  1.00  0.00    -0.008 C 
HETATM   13  C18 UNL     1      -4.989  52.246 -23.623  1.00  0.00     0.021 C 
HETATM   14  C19 UNL     1      -2.488  52.179 -23.169  1.00  0.00     0.022 C 
HETATM   15  C20 UNL     1      -1.359  52.314 -24.181  1.00  0.00     0.080 C 
HETATM   16  C21 UNL     1      -1.858  52.628 -25.562  1.00  0.00     0.131 C 
HETATM   17  O2  UNL     1      -1.285  53.469 -26.263  1.00  0.00    -0.298 OA
HETATM   18  C22 UNL     1      -3.065  51.859 -26.074  1.00  0.00     0.056 C 
HETATM   19  C23 UNL     1      -2.783  51.316 -27.476  1.00  0.00     0.018 C 
HETATM   20  C24 UNL     1      -3.570  50.783 -25.077  1.00  0.00     0.012 C 
HETATM   21  C25 UNL     1      -2.770  49.471 -25.101  1.00  0.00     0.042 C 
HETATM   22  C26 UNL     1      -3.477  48.400 -24.273  1.00  0.00     0.148 C 
ENDROOT
BRANCH   1  23
HETATM   23  C5  UNL     1      -5.680  46.345 -18.696  1.00  0.00    -0.014 C 
HETATM   24  C6  UNL     1      -6.438  45.172 -19.319  1.00  0.00     0.010 C 
BRANCH  23  25
HETATM   25  C4  UNL     1      -6.636  47.400 -18.080  1.00  0.00     0.009 C 
BRANCH  25  26
HETATM   26  C3  UNL     1      -8.132  47.025 -18.133  1.00  0.00     0.034 C 
BRANCH  26  27
HETATM   27  C2  UNL     1      -9.159  48.143 -18.122  1.00  0.00    -0.075 C 
HETATM   28  C1  UNL     1      -8.803  49.436 -17.999  1.00  0.00     0.015 C 
BRANCH  27  29
HETATM   29  C27 UNL     1     -10.636  47.754 -18.190  1.00  0.00     0.107 C 
HETATM   30  C28 UNL     1     -10.909  46.678 -19.240  1.00  0.00     0.026 C 
BRANCH  29  31
HETATM   31  C29 UNL     1     -11.194  47.325 -16.832  1.00  0.00     0.147 C 
HETATM   32  O4  UNL     1     -10.582  47.046 -15.815  1.00  0.00    -0.650 OA
BRANCH  31  33
HETATM   33  O5  UNL     1     -12.545  47.260 -16.833  1.00  0.00    -0.776 OA
HETATM   34  H42 UNL     1     -12.762  46.983 -15.918  1.00  0.00     0.167 HD
ENDBRANCH  31  33
ENDBRANCH  29  31
ENDBRANCH  27  29
ENDBRANCH  26  27
ENDBRANCH  25  26
ENDBRANCH  23  25
ENDBRANCH   1  23
BRANCH  22  35
HETATM   35  O3  UNL     1      -4.649  47.951 -24.944  1.00  0.00    -0.391 OA
HETATM   36  H37 UNL     1      -4.372  47.547 -25.783  1.00  0.00     0.210 HD
ENDBRANCH  22  35
TORSDOF 8
ENDMDL
MODEL 9
REMARK minimizedAffinity -8.51220798
REMARK CNNscore 0.271894038
REMARK CNNaffinity 6.19828558
REMARK  8 active torsions:
REMARK  status: ('A' for Active; 'I' for Inactive)
REMARK    1  A    between atoms: C2_2  and  C3_3 
REMARK    2  A    between atoms: C2_2  and  C27_30 
REMARK    3  A    between atoms: C3_3  and  C4_4 
REMARK    4  A    between atoms: C4_4  and  C5_5 
REMARK    5  A    between atoms: C5_5  and  C7_7 
REMARK    6  A    between atoms: C26_28  and  O3_29 
REMARK    7  A    between atoms: C27_30  and  C29_32 
REMARK    8  A    between atoms: C29_32  and  O5_34 
ROOT
HETATM    1  C7  UNL     1      -1.483  50.906 -22.886  1.00  0.00    -0.002 C 
HETATM    2  C8  UNL     1      -0.430  50.727 -21.777  1.00  0.00     0.006 C 
HETATM    3  C9  UNL     1      -0.952  49.557 -20.958  1.00  0.00     0.010 C 
HETATM    4  C10 UNL     1      -2.440  49.893 -20.842  1.00  0.00     0.027 C 
HETATM    5  C11 UNL     1      -3.295  48.795 -20.239  1.00  0.00    -0.036 C 
HETATM    6  C12 UNL     1      -4.259  48.125 -20.913  1.00  0.00     0.002 C 
HETATM    7  C13 UNL     1      -4.348  48.325 -22.404  1.00  0.00     0.157 C 
HETATM    8  O1  UNL     1      -5.172  47.712 -23.081  1.00  0.00    -0.293 OA
HETATM    9  C14 UNL     1      -3.317  49.182 -23.098  1.00  0.00     0.093 C 
HETATM   10  C15 UNL     1      -2.836  50.381 -22.264  1.00  0.00    -0.026 C 
HETATM   11  C16 UNL     1      -3.987  51.394 -22.145  1.00  0.00     0.016 C 
HETATM   12  C17 UNL     1      -5.258  47.143 -20.252  1.00  0.00    -0.008 C 
HETATM   13  C18 UNL     1      -6.709  47.632 -20.546  1.00  0.00     0.021 C 
HETATM   14  C19 UNL     1      -5.064  45.719 -20.864  1.00  0.00     0.022 C 
HETATM   15  C20 UNL     1      -4.753  44.593 -19.889  1.00  0.00     0.080 C 
HETATM   16  C21 UNL     1      -5.635  44.624 -18.674  1.00  0.00     0.131 C 
HETATM   17  O2  UNL     1      -6.116  43.580 -18.218  1.00  0.00    -0.298 OA
HETATM   18  C22 UNL     1      -5.888  45.969 -18.013  1.00  0.00     0.056 C 
HETATM   19  C23 UNL     1      -5.657  45.861 -16.505  1.00  0.00     0.018 C 
HETATM   20  C24 UNL     1      -5.113  47.133 -18.683  1.00  0.00     0.012 C 
HETATM   21  C25 UNL     1      -3.640  47.242 -18.257  1.00  0.00     0.042 C 
HETATM   22  C26 UNL     1      -3.030  48.542 -18.775  1.00  0.00     0.148 C 
ENDROOT
BRANCH   1  23
HETATM   23  C5  UNL     1      -1.361  52.270 -23.623  1.00  0.00    -0.014 C 
HETATM   24  C6  UNL     1      -2.520  52.606 -24.563  1.00  0.00     0.010 C 
BRANCH  23  25
HETATM   25  C4  UNL     1       0.017  52.410 -24.319  1.00  0.00     0.009 C 
BRANCH  25  26
HETATM   26  C3  UNL     1       0.337  51.305 -25.348  1.00  0.00     0.034 C 
BRANCH  26  27
HETATM   27  C2  UNL     1       0.809  51.718 -26.730  1.00  0.00    -0.075 C 
HETATM   28  C1  UNL     1       2.116  51.819 -27.036  1.00  0.00     0.015 C 
BRANCH  27  29
HETATM   29  C27 UNL     1      -0.255  52.086 -27.766  1.00  0.00     0.107 C 
HETATM   30  C28 UNL     1      -1.473  51.165 -27.705  1.00  0.00     0.026 C 
BRANCH  29  31
HETATM   31  C29 UNL     1      -0.691  53.549 -27.667  1.00  0.00     0.147 C 
HETATM   32  O4  UNL     1      -0.067  54.496 -27.221  1.00  0.00    -0.650 OA
BRANCH  31  33
HETATM   33  O5  UNL     1      -1.939  53.743 -28.150  1.00  0.00    -0.776 OA
HETATM   34  H42 UNL     1      -2.083  54.706 -28.031  1.00  0.00     0.167 HD
ENDBRANCH  31  33
ENDBRANCH  29  31
ENDBRANCH  27  29
ENDBRANCH  26  27
ENDBRANCH  25  26
ENDBRANCH  23  25
ENDBRANCH   1  23
BRANCH  22  35
HETATM   35  O3  UNL     1      -3.548  49.653 -18.050  1.00  0.00    -0.391 OA
HETATM   36  H37 UNL     1      -3.284  49.548 -17.121  1.00  0.00     0.210 HD
ENDBRANCH  22  35
TORSDOF 8
ENDMDL
