MODEL 1
REMARK minimizedAffinity -7.91233778
REMARK CNNscore 0.436839283
REMARK CNNaffinity 6.94077921
REMARK  15 active torsions:
REMARK  status: ('A' for Active; 'I' for Inactive)
REMARK    1  A    between atoms: C2_2  and  O2_4 
REMARK    2  A    between atoms: O2_4  and  C3_5 
REMARK    3  A    between atoms: C3_5  and  C4_6 
REMARK    4  A    between atoms: C4_6  and  C5_8 
REMARK    5  A    between atoms: C5_8  and  O4_9 
REMARK    6  A    between atoms: O4_9  and  C6_10 
REMARK    7  A    between atoms: C6_10  and  C7_12 
REMARK    8  A    between atoms: C7_12  and  C8_13 
REMARK    9  A    between atoms: C8_13  and  C9_14 
REMARK       I    between atoms: C9_14  and  N1_16 
REMARK   10  A    between atoms: N1_16  and  C10_17 
REMARK   11  A    between atoms: C10_17  and  C11_18 
REMARK   12  A    between atoms: C11_18  and  C12_19 
REMARK   13  A    between atoms: C12_19  and  C13_20 
REMARK   14  A    between atoms: C13_20  and  C14_21 
REMARK   15  A    between atoms: C14_21  and  O8_23 
ROOT
HETATM    1  C3  UNL     1      -3.460  49.182 -22.121  1.00  0.00     0.140 C 
HETATM    2  C15 UNL     1      -4.277  49.429 -20.809  1.00  0.00     0.048 C 
HETATM    3  C16 UNL     1      -5.717  48.942 -21.066  1.00  0.00     0.009 C 
HETATM    4  C17 UNL     1      -5.674  48.327 -22.460  1.00  0.00     0.002 C 
HETATM    5  C18 UNL     1      -6.989  48.175 -23.241  1.00  0.00    -0.004 C 
HETATM    6  C19 UNL     1      -8.097  47.431 -22.470  1.00  0.00     0.010 C 
HETATM    7  C20 UNL     1      -8.521  46.105 -23.098  1.00  0.00     0.035 C 
HETATM    8  C21 UNL     1      -8.774  46.166 -24.589  1.00  0.00    -0.068 C 
HETATM    9  C22 UNL     1      -9.587  45.256 -25.154  1.00  0.00     0.053 C 
HETATM   10  C23 UNL     1      -9.758  45.164 -26.623  1.00  0.00     0.149 C 
HETATM   11  O9  UNL     1     -10.611  44.406 -27.079  1.00  0.00    -0.293 OA
HETATM   12  C24 UNL     1      -8.892  46.022 -27.514  1.00  0.00     0.084 C 
HETATM   13  C25 UNL     1      -7.661  46.561 -26.788  1.00  0.00     0.022 C 
HETATM   14  C26 UNL     1      -7.986  47.192 -25.409  1.00  0.00    -0.016 C 
HETATM   15  C27 UNL     1      -8.850  48.457 -25.625  1.00  0.00     0.020 C 
HETATM   16  C28 UNL     1      -6.673  47.517 -24.619  1.00  0.00     0.002 C 
HETATM   17  C29 UNL     1      -5.608  48.331 -25.391  1.00  0.00     0.007 C 
HETATM   18  C30 UNL     1      -4.327  48.530 -24.554  1.00  0.00     0.013 C 
HETATM   19  C31 UNL     1      -4.613  49.198 -23.197  1.00  0.00    -0.001 C 
HETATM   20  C32 UNL     1      -5.123  50.648 -23.464  1.00  0.00     0.019 C 
ENDROOT
BRANCH   1  21
HETATM   21  O2  UNL     1      -2.923  47.841 -21.948  1.00  0.00    -0.301 OA
BRANCH  21  22
HETATM   22  C2  UNL     1      -2.325  47.491 -20.780  1.00  0.00     0.256 C 
HETATM   23  C1  UNL     1      -0.880  47.885 -20.803  1.00  0.00     0.126 C 
HETATM   24  O1  UNL     1      -2.870  46.914 -19.854  1.00  0.00    -0.266 OA
ENDBRANCH  21  22
ENDBRANCH   1  21
BRANCH   1  25
HETATM   25  C4  UNL     1      -2.360  50.277 -22.231  1.00  0.00     0.186 C 
HETATM   26  O3  UNL     1      -1.580  50.354 -23.182  1.00  0.00    -0.292 OA
BRANCH  25  27
HETATM   27  C5  UNL     1      -2.277  51.283 -21.076  1.00  0.00     0.260 C 
BRANCH  27  28
HETATM   28  O4  UNL     1      -0.931  51.557 -20.680  1.00  0.00    -0.314 OA
BRANCH  28  29
HETATM   29  C6  UNL     1      -0.827  52.164 -19.467  1.00  0.00     0.259 C 
HETATM   30  O5  UNL     1      -1.328  51.743 -18.431  1.00  0.00    -0.265 OA
BRANCH  29  31
HETATM   31  C7  UNL     1       0.041  53.385 -19.549  1.00  0.00     0.120 C 
BRANCH  31  32
HETATM   32  C8  UNL     1       1.299  53.063 -20.339  1.00  0.00     0.112 C 
BRANCH  32  33
HETATM   33  C9  UNL     1       1.315  53.769 -21.675  1.00  0.00     0.217 C 
HETATM   34  O6  UNL     1       1.826  54.868 -21.854  1.00  0.00    -0.274 OA
HETATM   35  N1  UNL     1       0.694  53.045 -22.672  1.00  0.00    -0.361 N 
HETATM   36  H10 UNL     1       0.395  52.099 -22.478  1.00  0.00     0.162 HD
BRANCH  35  37
HETATM   37  C10 UNL     1       0.689  53.498 -24.049  1.00  0.00     0.122 C 
BRANCH  37  38
HETATM   38  C11 UNL     1       0.431  52.338 -25.009  1.00  0.00     0.020 C 
BRANCH  38  39
HETATM   39  C12 UNL     1       0.894  52.612 -26.441  1.00  0.00     0.012 C 
BRANCH  39  40
HETATM   40  C13 UNL     1      -0.123  53.396 -27.269  1.00  0.00     0.110 C 
BRANCH  40  41
HETATM   41  C14 UNL     1      -1.452  52.690 -27.333  1.00  0.00     0.139 C 
HETATM   42  O7  UNL     1      -2.503  53.031 -26.822  1.00  0.00    -0.650 OA
BRANCH  41  43
HETATM   43  O8  UNL     1      -1.387  51.568 -28.077  1.00  0.00    -0.776 OA
HETATM   44  H19 UNL     1      -2.300  51.212 -28.049  1.00  0.00     0.167 HD
ENDBRANCH  41  43
ENDBRANCH  40  41
ENDBRANCH  39  40
ENDBRANCH  38  39
ENDBRANCH  37  38
ENDBRANCH  35  37
ENDBRANCH  32  33
ENDBRANCH  31  32
ENDBRANCH  29  31
ENDBRANCH  28  29
ENDBRANCH  27  28
ENDBRANCH  25  27
ENDBRANCH   1  25
TORSDOF 15
ENDMDL
MODEL 2
REMARK minimizedAffinity -6.91573048
REMARK CNNscore 0.435603559
REMARK CNNaffinity 6.90079927
REMARK  15 active torsions:
REMARK  status: ('A' for Active; 'I' for Inactive)
REMARK    1  A    between atoms: C2_2  and  O2_4 
REMARK    2  A    between atoms: O2_4  and  C3_5 
REMARK    3  A    between atoms: C3_5  and  C4_6 
REMARK    4  A    between atoms: C4_6  and  C5_8 
REMARK    5  A    between atoms: C5_8  and  O4_9 
REMARK    6  A    between atoms: O4_9  and  C6_10 
REMARK    7  A    between atoms: C6_10  and  C7_12 
REMARK    8  A    between atoms: C7_12  and  C8_13 
REMARK    9  A    between atoms: C8_13  and  C9_14 
REMARK       I    between atoms: C9_14  and  N1_16 
REMARK   10  A    between atoms: N1_16  and  C10_17 
REMARK   11  A    between atoms: C10_17  and  C11_18 
REMARK   12  A    between atoms: C11_18  and  C12_19 
REMARK   13  A    between atoms: C12_19  and  C13_20 
REMARK   14  A    between atoms: C13_20  and  C14_21 
REMARK   15  A    between atoms: C14_21  and  O8_23 
ROOT
HETATM    1  C3  UNL     1       1.006  49.239 -13.953  1.00  0.00     0.140 C 
HETATM    2  C15 UNL     1      -0.087  48.123 -14.045  1.00  0.00     0.048 C 
HETATM    3  C16 UNL     1      -0.745  48.238 -15.435  1.00  0.00     0.009 C 
HETATM    4  C17 UNL     1       0.050  49.325 -16.149  1.00  0.00     0.002 C 
HETATM    5  C18 UNL     1      -0.594  50.044 -17.346  1.00  0.00    -0.004 C 
HETATM    6  C19 UNL     1      -1.118  49.095 -18.443  1.00  0.00     0.010 C 
HETATM    7  C20 UNL     1      -0.406  49.232 -19.786  1.00  0.00     0.035 C 
HETATM    8  C21 UNL     1      -0.233  50.656 -20.267  1.00  0.00    -0.068 C 
HETATM    9  C22 UNL     1      -0.085  50.891 -21.583  1.00  0.00     0.053 C 
HETATM   10  C23 UNL     1       0.238  52.239 -22.106  1.00  0.00     0.149 C 
HETATM   11  O9  UNL     1       0.231  52.427 -23.320  1.00  0.00    -0.293 OA
HETATM   12  C24 UNL     1       0.547  53.347 -21.128  1.00  0.00     0.084 C 
HETATM   13  C25 UNL     1       0.895  52.819 -19.738  1.00  0.00     0.022 C 
HETATM   14  C26 UNL     1      -0.107  51.759 -19.212  1.00  0.00    -0.016 C 
HETATM   15  C27 UNL     1      -1.484  52.431 -18.999  1.00  0.00     0.020 C 
HETATM   16  C28 UNL     1       0.421  51.093 -17.897  1.00  0.00     0.002 C 
HETATM   17  C29 UNL     1       0.869  52.068 -16.782  1.00  0.00     0.007 C 
HETATM   18  C30 UNL     1       1.442  51.315 -15.564  1.00  0.00     0.013 C 
HETATM   19  C31 UNL     1       0.449  50.288 -14.991  1.00  0.00    -0.001 C 
HETATM   20  C32 UNL     1      -0.778  51.062 -14.417  1.00  0.00     0.019 C 
ENDROOT
BRANCH   1  21
HETATM   21  O2  UNL     1       2.207  48.590 -14.454  1.00  0.00    -0.301 OA
BRANCH  21  22
HETATM   22  C2  UNL     1       2.681  47.471 -13.850  1.00  0.00     0.256 C 
HETATM   23  C1  UNL     1       2.476  46.281 -14.736  1.00  0.00     0.126 C 
HETATM   24  O1  UNL     1       3.176  47.426 -12.736  1.00  0.00    -0.266 OA
ENDBRANCH  21  22
ENDBRANCH   1  21
BRANCH   1  25
HETATM   25  C4  UNL     1       1.124  49.692 -12.468  1.00  0.00     0.186 C 
HETATM   26  O3  UNL     1       0.573  49.101 -11.538  1.00  0.00    -0.292 OA
BRANCH  25  27
HETATM   27  C5  UNL     1       1.971  50.943 -12.199  1.00  0.00     0.260 C 
BRANCH  27  28
HETATM   28  O4  UNL     1       1.911  51.366 -10.836  1.00  0.00    -0.314 OA
BRANCH  28  29
HETATM   29  C6  UNL     1       0.836  52.149 -10.550  1.00  0.00     0.259 C 
HETATM   30  O5  UNL     1       0.098  51.996  -9.584  1.00  0.00    -0.265 OA
BRANCH  29  31
HETATM   31  C7  UNL     1       0.711  53.272 -11.538  1.00  0.00     0.120 C 
BRANCH  31  32
HETATM   32  C8  UNL     1       0.339  54.553 -10.809  1.00  0.00     0.112 C 
BRANCH  32  33
HETATM   33  C9  UNL     1       1.541  55.191 -10.152  1.00  0.00     0.217 C 
HETATM   34  O6  UNL     1       1.618  55.412  -8.950  1.00  0.00    -0.274 OA
HETATM   35  N1  UNL     1       2.542  55.499 -11.050  1.00  0.00    -0.361 N 
HETATM   36  H10 UNL     1       2.455  55.187 -12.008  1.00  0.00     0.162 HD
BRANCH  35  37
HETATM   37  C10 UNL     1       3.820  56.025 -10.613  1.00  0.00     0.122 C 
BRANCH  37  38
HETATM   38  C11 UNL     1       4.832  54.901 -10.395  1.00  0.00     0.020 C 
BRANCH  38  39
HETATM   39  C12 UNL     1       5.915  55.241  -9.369  1.00  0.00     0.012 C 
BRANCH  39  40
HETATM   40  C13 UNL     1       5.398  56.064  -8.190  1.00  0.00     0.110 C 
BRANCH  40  41
HETATM   41  C14 UNL     1       6.386  56.089  -7.052  1.00  0.00     0.139 C 
HETATM   42  O7  UNL     1       7.521  55.651  -7.042  1.00  0.00    -0.650 OA
BRANCH  41  43
HETATM   43  O8  UNL     1       5.878  56.699  -5.963  1.00  0.00    -0.776 OA
HETATM   44  H19 UNL     1       6.607  56.660  -5.309  1.00  0.00     0.167 HD
ENDBRANCH  41  43
ENDBRANCH  40  41
ENDBRANCH  39  40
ENDBRANCH  38  39
ENDBRANCH  37  38
ENDBRANCH  35  37
ENDBRANCH  32  33
ENDBRANCH  31  32
ENDBRANCH  29  31
ENDBRANCH  28  29
ENDBRANCH  27  28
ENDBRANCH  25  27
ENDBRANCH   1  25
TORSDOF 15
ENDMDL
MODEL 3
REMARK minimizedAffinity -7.10909414
REMARK CNNscore 0.385211527
REMARK CNNaffinity 6.09860468
REMARK  15 active torsions:
REMARK  status: ('A' for Active; 'I' for Inactive)
REMARK    1  A    between atoms: C2_2  and  O2_4 
REMARK    2  A    between atoms: O2_4  and  C3_5 
REMARK    3  A    between atoms: C3_5  and  C4_6 
REMARK    4  A    between atoms: C4_6  and  C5_8 
REMARK    5  A    between atoms: C5_8  and  O4_9 
REMARK    6  A    between atoms: O4_9  and  C6_10 
REMARK    7  A    between atoms: C6_10  and  C7_12 
REMARK    8  A    between atoms: C7_12  and  C8_13 
REMARK    9  A    between atoms: C8_13  and  C9_14 
REMARK       I    between atoms: C9_14  and  N1_16 
REMARK   10  A    between atoms: N1_16  and  C10_17 
REMARK   11  A    between atoms: C10_17  and  C11_18 
REMARK   12  A    between atoms: C11_18  and  C12_19 
REMARK   13  A    between atoms: C12_19  and  C13_20 
REMARK   14  A    between atoms: C13_20  and  C14_21 
REMARK   15  A    between atoms: C14_21  and  O8_23 
ROOT
HETATM    1  C3  UNL     1      -7.610  46.382 -29.425  1.00  0.00     0.140 C 
HETATM    2  C15 UNL     1      -6.787  47.242 -30.441  1.00  0.00     0.048 C 
HETATM    3  C16 UNL     1      -5.762  48.058 -29.628  1.00  0.00     0.009 C 
HETATM    4  C17 UNL     1      -5.933  47.573 -28.193  1.00  0.00     0.002 C 
HETATM    5  C18 UNL     1      -5.441  48.471 -27.047  1.00  0.00    -0.004 C 
HETATM    6  C19 UNL     1      -3.973  48.919 -27.183  1.00  0.00     0.010 C 
HETATM    7  C20 UNL     1      -3.051  48.400 -26.083  1.00  0.00     0.035 C 
HETATM    8  C21 UNL     1      -3.591  48.560 -24.679  1.00  0.00    -0.068 C 
HETATM    9  C22 UNL     1      -2.731  48.606 -23.646  1.00  0.00     0.053 C 
HETATM   10  C23 UNL     1      -3.197  48.609 -22.239  1.00  0.00     0.149 C 
HETATM   11  O9  UNL     1      -2.379  48.786 -21.339  1.00  0.00    -0.293 OA
HETATM   12  C24 UNL     1      -4.667  48.414 -21.956  1.00  0.00     0.084 C 
HETATM   13  C25 UNL     1      -5.417  47.819 -23.146  1.00  0.00     0.022 C 
HETATM   14  C26 UNL     1      -5.111  48.534 -24.488  1.00  0.00    -0.016 C 
HETATM   15  C27 UNL     1      -5.649  49.983 -24.421  1.00  0.00     0.020 C 
HETATM   16  C28 UNL     1      -5.723  47.745 -25.695  1.00  0.00     0.002 C 
HETATM   17  C29 UNL     1      -7.219  47.374 -25.567  1.00  0.00     0.007 C 
HETATM   18  C30 UNL     1      -7.702  46.535 -26.768  1.00  0.00     0.013 C 
HETATM   19  C31 UNL     1      -7.454  47.242 -28.112  1.00  0.00    -0.001 C 
HETATM   20  C32 UNL     1      -8.340  48.524 -28.162  1.00  0.00     0.019 C 
ENDROOT
BRANCH   1  21
HETATM   21  O2  UNL     1      -6.857  45.140 -29.333  1.00  0.00    -0.301 OA
BRANCH  21  22
HETATM   22  C2  UNL     1      -6.905  44.237 -30.344  1.00  0.00     0.256 C 
HETATM   23  C1  UNL     1      -6.022  44.677 -31.471  1.00  0.00     0.126 C 
HETATM   24  O1  UNL     1      -7.587  43.226 -30.356  1.00  0.00    -0.266 OA
ENDBRANCH  21  22
ENDBRANCH   1  21
BRANCH   1  25
HETATM   25  C4  UNL     1      -9.047  46.191 -29.991  1.00  0.00     0.186 C 
HETATM   26  O3  UNL     1      -9.395  46.607 -31.098  1.00  0.00    -0.292 OA
BRANCH  25  27
HETATM   27  C5  UNL     1     -10.044  45.450 -29.091  1.00  0.00     0.260 C 
BRANCH  27  28
HETATM   28  O4  UNL     1     -11.404  45.719 -29.437  1.00  0.00    -0.314 OA
BRANCH  28  29
HETATM   29  C6  UNL     1     -12.294  45.403 -28.458  1.00  0.00     0.259 C 
HETATM   30  O5  UNL     1     -12.188  44.445 -27.703  1.00  0.00    -0.265 OA
BRANCH  29  31
HETATM   31  C7  UNL     1     -13.391  46.424 -28.378  1.00  0.00     0.120 C 
BRANCH  31  32
HETATM   32  C8  UNL     1     -13.622  46.812 -26.927  1.00  0.00     0.112 C 
BRANCH  32  33
HETATM   33  C9  UNL     1     -14.946  46.293 -26.415  1.00  0.00     0.217 C 
HETATM   34  O6  UNL     1     -15.688  45.568 -27.067  1.00  0.00    -0.274 OA
HETATM   35  N1  UNL     1     -15.231  46.721 -25.135  1.00  0.00    -0.361 N 
HETATM   36  H10 UNL     1     -14.523  47.224 -24.617  1.00  0.00     0.162 HD
BRANCH  35  37
HETATM   37  C10 UNL     1     -16.403  46.256 -24.421  1.00  0.00     0.122 C 
BRANCH  37  38
HETATM   38  C11 UNL     1     -17.613  47.142 -24.711  1.00  0.00     0.020 C 
BRANCH  38  39
HETATM   39  C12 UNL     1     -18.916  46.623 -24.099  1.00  0.00     0.012 C 
BRANCH  39  40
HETATM   40  C13 UNL     1     -18.735  46.024 -22.705  1.00  0.00     0.110 C 
BRANCH  40  41
HETATM   41  C14 UNL     1     -19.735  44.929 -22.436  1.00  0.00     0.139 C 
HETATM   42  O7  UNL     1     -20.391  44.303 -23.247  1.00  0.00    -0.650 OA
BRANCH  41  43
HETATM   43  O8  UNL     1     -19.843  44.664 -21.118  1.00  0.00    -0.776 OA
HETATM   44  H19 UNL     1     -20.504  43.941 -21.076  1.00  0.00     0.167 HD
ENDBRANCH  41  43
ENDBRANCH  40  41
ENDBRANCH  39  40
ENDBRANCH  38  39
ENDBRANCH  37  38
ENDBRANCH  35  37
ENDBRANCH  32  33
ENDBRANCH  31  32
ENDBRANCH  29  31
ENDBRANCH  28  29
ENDBRANCH  27  28
ENDBRANCH  25  27
ENDBRANCH   1  25
TORSDOF 15
ENDMDL
MODEL 4
REMARK minimizedAffinity -8.34298134
REMARK CNNscore 0.345875204
REMARK CNNaffinity 7.22012711
REMARK  15 active torsions:
REMARK  status: ('A' for Active; 'I' for Inactive)
REMARK    1  A    between atoms: C2_2  and  O2_4 
REMARK    2  A    between atoms: O2_4  and  C3_5 
REMARK    3  A    between atoms: C3_5  and  C4_6 
REMARK    4  A    between atoms: C4_6  and  C5_8 
REMARK    5  A    between atoms: C5_8  and  O4_9 
REMARK    6  A    between atoms: O4_9  and  C6_10 
REMARK    7  A    between atoms: C6_10  and  C7_12 
REMARK    8  A    between atoms: C7_12  and  C8_13 
REMARK    9  A    between atoms: C8_13  and  C9_14 
REMARK       I    between atoms: C9_14  and  N1_16 
REMARK   10  A    between atoms: N1_16  and  C10_17 
REMARK   11  A    between atoms: C10_17  and  C11_18 
REMARK   12  A    between atoms: C11_18  and  C12_19 
REMARK   13  A    between atoms: C12_19  and  C13_20 
REMARK   14  A    between atoms: C13_20  and  C14_21 
REMARK   15  A    between atoms: C14_21  and  O8_23 
ROOT
HETATM    1  C3  UNL     1      -1.028  51.909 -25.820  1.00  0.00     0.140 C 
HETATM    2  C15 UNL     1      -0.386  53.312 -25.560  1.00  0.00     0.048 C 
HETATM    3  C16 UNL     1      -0.212  53.462 -24.035  1.00  0.00     0.009 C 
HETATM    4  C17 UNL     1      -0.641  52.116 -23.463  1.00  0.00     0.002 C 
HETATM    5  C18 UNL     1      -1.057  52.041 -21.985  1.00  0.00    -0.004 C 
HETATM    6  C19 UNL     1      -0.015  52.617 -21.007  1.00  0.00     0.010 C 
HETATM    7  C20 UNL     1       0.582  51.592 -20.046  1.00  0.00     0.035 C 
HETATM    8  C21 UNL     1      -0.432  50.695 -19.371  1.00  0.00    -0.068 C 
HETATM    9  C22 UNL     1      -0.120  50.120 -18.196  1.00  0.00     0.053 C 
HETATM   10  C23 UNL     1      -1.002  49.115 -17.558  1.00  0.00     0.149 C 
HETATM   11  O9  UNL     1      -0.736  48.720 -16.425  1.00  0.00    -0.293 OA
HETATM   12  C24 UNL     1      -2.214  48.622 -18.312  1.00  0.00     0.084 C 
HETATM   13  C25 UNL     1      -2.131  48.919 -19.808  1.00  0.00     0.022 C 
HETATM   14  C26 UNL     1      -1.728  50.383 -20.125  1.00  0.00    -0.016 C 
HETATM   15  C27 UNL     1      -2.851  51.330 -19.639  1.00  0.00     0.020 C 
HETATM   16  C28 UNL     1      -1.438  50.565 -21.653  1.00  0.00     0.002 C 
HETATM   17  C29 UNL     1      -2.536  50.047 -22.613  1.00  0.00     0.007 C 
HETATM   18  C30 UNL     1      -2.120  50.203 -24.090  1.00  0.00     0.013 C 
HETATM   19  C31 UNL     1      -1.760  51.657 -24.446  1.00  0.00    -0.001 C 
HETATM   20  C32 UNL     1      -3.049  52.525 -24.319  1.00  0.00     0.019 C 
ENDROOT
BRANCH   1  21
HETATM   21  O2  UNL     1       0.118  51.026 -25.974  1.00  0.00    -0.301 OA
BRANCH  21  22
HETATM   22  C2  UNL     1       1.088  51.319 -26.878  1.00  0.00     0.256 C 
HETATM   23  C1  UNL     1       2.434  51.277 -26.221  1.00  0.00     0.126 C 
HETATM   24  O1  UNL     1       0.899  51.605 -28.048  1.00  0.00    -0.266 OA
ENDBRANCH  21  22
ENDBRANCH   1  21
BRANCH   1  25
HETATM   25  C4  UNL     1      -1.912  51.999 -27.098  1.00  0.00     0.186 C 
HETATM   26  O3  UNL     1      -2.258  53.069 -27.602  1.00  0.00    -0.292 OA
BRANCH  25  27
HETATM   27  C5  UNL     1      -2.355  50.669 -27.720  1.00  0.00     0.260 C 
BRANCH  27  28
HETATM   28  O4  UNL     1      -3.616  50.220 -27.220  1.00  0.00    -0.314 OA
BRANCH  28  29
HETATM   29  C6  UNL     1      -3.797  48.874 -27.311  1.00  0.00     0.259 C 
HETATM   30  O5  UNL     1      -3.641  48.217 -28.332  1.00  0.00    -0.265 OA
BRANCH  29  31
HETATM   31  C7  UNL     1      -4.146  48.288 -25.975  1.00  0.00     0.120 C 
BRANCH  31  32
HETATM   32  C8  UNL     1      -5.657  48.254 -25.812  1.00  0.00     0.112 C 
BRANCH  32  33
HETATM   33  C9  UNL     1      -6.067  48.417 -24.367  1.00  0.00     0.217 C 
HETATM   34  O6  UNL     1      -5.736  47.642 -23.478  1.00  0.00    -0.274 OA
HETATM   35  N1  UNL     1      -6.852  49.531 -24.154  1.00  0.00    -0.361 N 
HETATM   36  H10 UNL     1      -6.991  50.185 -24.912  1.00  0.00     0.162 HD
BRANCH  35  37
HETATM   37  C10 UNL     1      -7.268  49.924 -22.822  1.00  0.00     0.122 C 
BRANCH  37  38
HETATM   38  C11 UNL     1      -6.109  50.547 -22.045  1.00  0.00     0.020 C 
BRANCH  38  39
HETATM   39  C12 UNL     1      -6.065  50.133 -20.573  1.00  0.00     0.012 C 
BRANCH  39  40
HETATM   40  C13 UNL     1      -6.993  48.965 -20.241  1.00  0.00     0.110 C 
BRANCH  40  41
HETATM   41  C14 UNL     1      -6.229  47.778 -19.716  1.00  0.00     0.139 C 
HETATM   42  O7  UNL     1      -5.235  47.261 -20.193  1.00  0.00    -0.650 OA
BRANCH  41  43
HETATM   43  O8  UNL     1      -6.765  47.304 -18.573  1.00  0.00    -0.776 OA
HETATM   44  H19 UNL     1      -6.182  46.553 -18.333  1.00  0.00     0.167 HD
ENDBRANCH  41  43
ENDBRANCH  40  41
ENDBRANCH  39  40
ENDBRANCH  38  39
ENDBRANCH  37  38
ENDBRANCH  35  37
ENDBRANCH  32  33
ENDBRANCH  31  32
ENDBRANCH  29  31
ENDBRANCH  28  29
ENDBRANCH  27  28
ENDBRANCH  25  27
ENDBRANCH   1  25
TORSDOF 15
ENDMDL
MODEL 5
REMARK minimizedAffinity -8.01049328
REMARK CNNscore 0.322407842
REMARK CNNaffinity 6.84666634
REMARK  15 active torsions:
REMARK  status: ('A' for Active; 'I' for Inactive)
REMARK    1  A    between atoms: C2_2  and  O2_4 
REMARK    2  A    between atoms: O2_4  and  C3_5 
REMARK    3  A    between atoms: C3_5  and  C4_6 
REMARK    4  A    between atoms: C4_6  and  C5_8 
REMARK    5  A    between atoms: C5_8  and  O4_9 
REMARK    6  A    between atoms: O4_9  and  C6_10 
REMARK    7  A    between atoms: C6_10  and  C7_12 
REMARK    8  A    between atoms: C7_12  and  C8_13 
REMARK    9  A    between atoms: C8_13  and  C9_14 
REMARK       I    between atoms: C9_14  and  N1_16 
REMARK   10  A    between atoms: N1_16  and  C10_17 
REMARK   11  A    between atoms: C10_17  and  C11_18 
REMARK   12  A    between atoms: C11_18  and  C12_19 
REMARK   13  A    between atoms: C12_19  and  C13_20 
REMARK   14  A    between atoms: C13_20  and  C14_21 
REMARK   15  A    between atoms: C14_21  and  O8_23 
ROOT
HETATM    1  C3  UNL     1      -1.559  51.093 -24.938  1.00  0.00     0.140 C 
HETATM    2  C15 UNL     1      -1.462  52.648 -25.077  1.00  0.00     0.048 C 
HETATM    3  C16 UNL     1      -1.148  53.217 -23.679  1.00  0.00     0.009 C 
HETATM    4  C17 UNL     1      -0.957  51.988 -22.797  1.00  0.00     0.002 C 
HETATM    5  C18 UNL     1      -1.107  52.143 -21.275  1.00  0.00    -0.004 C 
HETATM    6  C19 UNL     1      -0.233  53.256 -20.665  1.00  0.00     0.010 C 
HETATM    7  C20 UNL     1       0.831  52.760 -19.690  1.00  0.00     0.035 C 
HETATM    8  C21 UNL     1       0.332  51.769 -18.662  1.00  0.00    -0.068 C 
HETATM    9  C22 UNL     1       0.996  51.638 -17.500  1.00  0.00     0.053 C 
HETATM   10  C23 UNL     1       0.653  50.584 -16.516  1.00  0.00     0.149 C 
HETATM   11  O9  UNL     1       1.201  50.591 -15.417  1.00  0.00    -0.293 OA
HETATM   12  C24 UNL     1      -0.377  49.544 -16.889  1.00  0.00     0.084 C 
HETATM   13  C25 UNL     1      -0.618  49.476 -18.396  1.00  0.00     0.022 C 
HETATM   14  C26 UNL     1      -0.843  50.865 -19.048  1.00  0.00    -0.016 C 
HETATM   15  C27 UNL     1      -2.160  51.468 -18.507  1.00  0.00     0.020 C 
HETATM   16  C28 UNL     1      -0.856  50.753 -20.610  1.00  0.00     0.002 C 
HETATM   17  C29 UNL     1      -1.799  49.679 -21.200  1.00  0.00     0.007 C 
HETATM   18  C30 UNL     1      -1.681  49.598 -22.736  1.00  0.00     0.013 C 
HETATM   19  C31 UNL     1      -1.945  50.954 -23.415  1.00  0.00    -0.001 C 
HETATM   20  C32 UNL     1      -3.436  51.342 -23.168  1.00  0.00     0.019 C 
ENDROOT
BRANCH   1  21
HETATM   21  O2  UNL     1      -0.198  50.638 -25.177  1.00  0.00    -0.301 OA
BRANCH  21  22
HETATM   22  C2  UNL     1       0.483  51.068 -26.270  1.00  0.00     0.256 C 
HETATM   23  C1  UNL     1       1.778  51.696 -25.857  1.00  0.00     0.126 C 
HETATM   24  O1  UNL     1       0.091  50.986 -27.422  1.00  0.00    -0.266 OA
ENDBRANCH  21  22
ENDBRANCH   1  21
BRANCH   1  25
HETATM   25  C4  UNL     1      -2.579  50.566 -25.988  1.00  0.00     0.186 C 
HETATM   26  O3  UNL     1      -3.287  51.309 -26.670  1.00  0.00    -0.292 OA
BRANCH  25  27
HETATM   27  C5  UNL     1      -2.678  49.043 -26.142  1.00  0.00     0.260 C 
BRANCH  27  28
HETATM   28  O4  UNL     1      -4.027  48.572 -26.113  1.00  0.00    -0.314 OA
BRANCH  28  29
HETATM   29  C6  UNL     1      -4.526  48.255 -27.338  1.00  0.00     0.259 C 
HETATM   30  O5  UNL     1      -3.872  48.229 -28.372  1.00  0.00    -0.265 OA
BRANCH  29  31
HETATM   31  C7  UNL     1      -5.975  47.873 -27.245  1.00  0.00     0.120 C 
BRANCH  31  32
HETATM   32  C8  UNL     1      -6.396  47.159 -28.518  1.00  0.00     0.112 C 
BRANCH  32  33
HETATM   33  C9  UNL     1      -7.452  47.935 -29.271  1.00  0.00     0.217 C 
HETATM   34  O6  UNL     1      -8.366  48.539 -28.724  1.00  0.00    -0.274 OA
HETATM   35  N1  UNL     1      -7.278  47.890 -30.639  1.00  0.00    -0.361 N 
HETATM   36  H10 UNL     1      -6.439  47.466 -31.013  1.00  0.00     0.162 HD
BRANCH  35  37
HETATM   37  C10 UNL     1      -8.122  48.651 -31.538  1.00  0.00     0.122 C 
BRANCH  37  38
HETATM   38  C11 UNL     1      -8.773  47.745 -32.581  1.00  0.00     0.020 C 
BRANCH  38  39
HETATM   39  C12 UNL     1      -9.444  46.505 -31.986  1.00  0.00     0.012 C 
BRANCH  39  40
HETATM   40  C13 UNL     1     -10.945  46.434 -32.261  1.00  0.00     0.110 C 
BRANCH  40  41
HETATM   41  C14 UNL     1     -11.301  45.240 -33.106  1.00  0.00     0.139 C 
HETATM   42  O7  UNL     1     -10.969  44.081 -32.936  1.00  0.00    -0.650 OA
BRANCH  41  43
HETATM   43  O8  UNL     1     -12.095  45.578 -34.142  1.00  0.00    -0.776 OA
HETATM   44  H19 UNL     1     -12.260  44.728 -34.601  1.00  0.00     0.167 HD
ENDBRANCH  41  43
ENDBRANCH  40  41
ENDBRANCH  39  40
ENDBRANCH  38  39
ENDBRANCH  37  38
ENDBRANCH  35  37
ENDBRANCH  32  33
ENDBRANCH  31  32
ENDBRANCH  29  31
ENDBRANCH  28  29
ENDBRANCH  27  28
ENDBRANCH  25  27
ENDBRANCH   1  25
TORSDOF 15
ENDMDL
MODEL 6
REMARK minimizedAffinity -6.93455935
REMARK CNNscore 0.301079035
REMARK CNNaffinity 6.43857431
REMARK  15 active torsions:
REMARK  status: ('A' for Active; 'I' for Inactive)
REMARK    1  A    between atoms: C2_2  and  O2_4 
REMARK    2  A    between atoms: O2_4  and  C3_5 
REMARK    3  A    between atoms: C3_5  and  C4_6 
REMARK    4  A    between atoms: C4_6  and  C5_8 
REMARK    5  A    between atoms: C5_8  and  O4_9 
REMARK    6  A    between atoms: O4_9  and  C6_10 
REMARK    7  A    between atoms: C6_10  and  C7_12 
REMARK    8  A    between atoms: C7_12  and  C8_13 
REMARK    9  A    between atoms: C8_13  and  C9_14 
REMARK       I    between atoms: C9_14  and  N1_16 
REMARK   10  A    between atoms: N1_16  and  C10_17 
REMARK   11  A    between atoms: C10_17  and  C11_18 
REMARK   12  A    between atoms: C11_18  and  C12_19 
REMARK   13  A    between atoms: C12_19  and  C13_20 
REMARK   14  A    between atoms: C13_20  and  C14_21 
REMARK   15  A    between atoms: C14_21  and  O8_23 
ROOT
HETATM    1  C3  UNL     1      -6.130  47.980 -21.235  1.00  0.00     0.140 C 
HETATM    2  C15 UNL     1      -6.225  47.650 -19.708  1.00  0.00     0.048 C 
HETATM    3  C16 UNL     1      -5.027  48.330 -19.015  1.00  0.00     0.009 C 
HETATM    4  C17 UNL     1      -4.341  49.124 -20.121  1.00  0.00     0.002 C 
HETATM    5  C18 UNL     1      -2.872  49.533 -19.933  1.00  0.00    -0.004 C 
HETATM    6  C19 UNL     1      -2.592  50.287 -18.617  1.00  0.00     0.010 C 
HETATM    7  C20 UNL     1      -2.120  51.727 -18.804  1.00  0.00     0.035 C 
HETATM    8  C21 UNL     1      -1.025  51.903 -19.833  1.00  0.00    -0.068 C 
HETATM    9  C22 UNL     1      -0.211  52.971 -19.749  1.00  0.00     0.053 C 
HETATM   10  C23 UNL     1       0.780  53.285 -20.805  1.00  0.00     0.149 C 
HETATM   11  O9  UNL     1       1.587  54.192 -20.617  1.00  0.00    -0.293 OA
HETATM   12  C24 UNL     1       0.781  52.465 -22.073  1.00  0.00     0.084 C 
HETATM   13  C25 UNL     1      -0.521  51.691 -22.269  1.00  0.00     0.022 C 
HETATM   14  C26 UNL     1      -0.975  50.917 -21.004  1.00  0.00    -0.016 C 
HETATM   15  C27 UNL     1       0.054  49.803 -20.699  1.00  0.00     0.020 C 
HETATM   16  C28 UNL     1      -2.417  50.336 -21.191  1.00  0.00     0.002 C 
HETATM   17  C29 UNL     1      -2.652  49.519 -22.483  1.00  0.00     0.007 C 
HETATM   18  C30 UNL     1      -4.118  49.059 -22.608  1.00  0.00     0.013 C 
HETATM   19  C31 UNL     1      -4.582  48.246 -21.386  1.00  0.00    -0.001 C 
HETATM   20  C32 UNL     1      -3.769  46.917 -21.345  1.00  0.00     0.019 C 
ENDROOT
BRANCH   1  21
HETATM   21  O2  UNL     1      -6.891  49.213 -21.371  1.00  0.00    -0.301 OA
BRANCH  21  22
HETATM   22  C2  UNL     1      -6.513  50.152 -22.275  1.00  0.00     0.256 C 
HETATM   23  C1  UNL     1      -7.157  49.880 -23.600  1.00  0.00     0.126 C 
HETATM   24  O1  UNL     1      -5.739  51.069 -22.058  1.00  0.00    -0.266 OA
ENDBRANCH  21  22
ENDBRANCH   1  21
BRANCH   1  25
HETATM   25  C4  UNL     1      -6.735  46.791 -22.036  1.00  0.00     0.186 C 
HETATM   26  O3  UNL     1      -7.068  45.726 -21.512  1.00  0.00    -0.292 OA
BRANCH  25  27
HETATM   27  C5  UNL     1      -6.900  46.996 -23.547  1.00  0.00     0.260 C 
BRANCH  27  28
HETATM   28  O4  UNL     1      -8.065  46.353 -24.067  1.00  0.00    -0.314 OA
BRANCH  28  29
HETATM   29  C6  UNL     1      -8.808  47.141 -24.890  1.00  0.00     0.259 C 
HETATM   30  O5  UNL     1      -9.828  47.731 -24.557  1.00  0.00    -0.265 OA
BRANCH  29  31
HETATM   31  C7  UNL     1      -8.175  47.248 -26.247  1.00  0.00     0.120 C 
BRANCH  31  32
HETATM   32  C8  UNL     1      -8.719  46.154 -27.151  1.00  0.00     0.112 C 
BRANCH  32  33
HETATM   33  C9  UNL     1      -9.787  46.679 -28.082  1.00  0.00     0.217 C 
HETATM   34  O6  UNL     1     -10.956  46.838 -27.751  1.00  0.00    -0.274 OA
HETATM   35  N1  UNL     1      -9.307  46.960 -29.344  1.00  0.00    -0.361 N 
HETATM   36  H10 UNL     1      -8.311  46.910 -29.513  1.00  0.00     0.162 HD
BRANCH  35  37
HETATM   37  C10 UNL     1     -10.146  47.567 -30.358  1.00  0.00     0.122 C 
BRANCH  37  38
HETATM   38  C11 UNL     1      -9.473  47.524 -31.729  1.00  0.00     0.020 C 
BRANCH  38  39
HETATM   39  C12 UNL     1      -8.337  48.537 -31.888  1.00  0.00     0.012 C 
BRANCH  39  40
HETATM   40  C13 UNL     1      -6.949  47.896 -31.900  1.00  0.00     0.110 C 
BRANCH  40  41
HETATM   41  C14 UNL     1      -6.066  48.462 -30.819  1.00  0.00     0.139 C 
HETATM   42  O7  UNL     1      -4.911  48.832 -30.919  1.00  0.00    -0.650 OA
BRANCH  41  43
HETATM   43  O8  UNL     1      -6.712  48.549 -29.639  1.00  0.00    -0.776 OA
HETATM   44  H19 UNL     1      -6.045  48.933 -29.032  1.00  0.00     0.167 HD
ENDBRANCH  41  43
ENDBRANCH  40  41
ENDBRANCH  39  40
ENDBRANCH  38  39
ENDBRANCH  37  38
ENDBRANCH  35  37
ENDBRANCH  32  33
ENDBRANCH  31  32
ENDBRANCH  29  31
ENDBRANCH  28  29
ENDBRANCH  27  28
ENDBRANCH  25  27
ENDBRANCH   1  25
TORSDOF 15
ENDMDL
MODEL 7
REMARK minimizedAffinity -7.19592905
REMARK CNNscore 0.291665971
REMARK CNNaffinity 7.08561277
REMARK  15 active torsions:
REMARK  status: ('A' for Active; 'I' for Inactive)
REMARK    1  A    between atoms: C2_2  and  O2_4 
REMARK    2  A    between atoms: O2_4  and  C3_5 
REMARK    3  A    between atoms: C3_5  and  C4_6 
REMARK    4  A    between atoms: C4_6  and  C5_8 
REMARK    5  A    between atoms: C5_8  and  O4_9 
REMARK    6  A    between atoms: O4_9  and  C6_10 
REMARK    7  A    between atoms: C6_10  and  C7_12 
REMARK    8  A    between atoms: C7_12  and  C8_13 
REMARK    9  A    between atoms: C8_13  and  C9_14 
REMARK       I    between atoms: C9_14  and  N1_16 
REMARK   10  A    between atoms: N1_16  and  C10_17 
REMARK   11  A    between atoms: C10_17  and  C11_18 
REMARK   12  A    between atoms: C11_18  and  C12_19 
REMARK   13  A    between atoms: C12_19  and  C13_20 
REMARK   14  A    between atoms: C13_20  and  C14_21 
REMARK   15  A    between atoms: C14_21  and  O8_23 
ROOT
HETATM    1  C3  UNL     1       1.543  49.903 -13.745  1.00  0.00     0.140 C 
HETATM    2  C15 UNL     1       0.284  48.977 -13.663  1.00  0.00     0.048 C 
HETATM    3  C16 UNL     1      -0.479  49.120 -14.995  1.00  0.00     0.009 C 
HETATM    4  C17 UNL     1       0.403  50.021 -15.851  1.00  0.00     0.002 C 
HETATM    5  C18 UNL     1      -0.232  50.766 -17.035  1.00  0.00    -0.004 C 
HETATM    6  C19 UNL     1      -1.003  49.856 -18.012  1.00  0.00     0.010 C 
HETATM    7  C20 UNL     1      -0.413  49.798 -19.419  1.00  0.00     0.035 C 
HETATM    8  C21 UNL     1      -0.065  51.146 -20.013  1.00  0.00    -0.068 C 
HETATM    9  C22 UNL     1      -0.011  51.279 -21.350  1.00  0.00     0.053 C 
HETATM   10  C23 UNL     1       0.469  52.525 -21.994  1.00  0.00     0.149 C 
HETATM   11  O9  UNL     1       0.374  52.642 -23.213  1.00  0.00    -0.293 OA
HETATM   12  C24 UNL     1       1.042  53.621 -21.128  1.00  0.00     0.084 C 
HETATM   13  C25 UNL     1       1.436  53.121 -19.739  1.00  0.00     0.022 C 
HETATM   14  C26 UNL     1       0.335  52.271 -19.054  1.00  0.00    -0.016 C 
HETATM   15  C27 UNL     1      -0.892  53.170 -18.770  1.00  0.00     0.020 C 
HETATM   16  C28 UNL     1       0.877  51.603 -17.745  1.00  0.00     0.002 C 
HETATM   17  C29 UNL     1       1.579  52.552 -16.746  1.00  0.00     0.007 C 
HETATM   18  C30 UNL     1       2.142  51.785 -15.532  1.00  0.00     0.013 C 
HETATM   19  C31 UNL     1       1.060  50.968 -14.803  1.00  0.00    -0.001 C 
HETATM   20  C32 UNL     1       0.032  51.963 -14.181  1.00  0.00     0.019 C 
ENDROOT
BRANCH   1  21
HETATM   21  O2  UNL     1       2.572  49.039 -14.302  1.00  0.00    -0.301 OA
BRANCH  21  22
HETATM   22  C2  UNL     1       2.843  47.841 -13.724  1.00  0.00     0.256 C 
HETATM   23  C1  UNL     1       2.453  46.725 -14.645  1.00  0.00     0.126 C 
HETATM   24  O1  UNL     1       3.309  47.685 -12.608  1.00  0.00    -0.266 OA
ENDBRANCH  21  22
ENDBRANCH   1  21
BRANCH   1  25
HETATM   25  C4  UNL     1       1.874  50.413 -12.313  1.00  0.00     0.186 C 
HETATM   26  O3  UNL     1       1.249  50.061 -11.311  1.00  0.00    -0.292 OA
BRANCH  25  27
HETATM   27  C5  UNL     1       3.039  51.405 -12.191  1.00  0.00     0.260 C 
BRANCH  27  28
HETATM   28  O4  UNL     1       3.079  52.054 -10.919  1.00  0.00    -0.314 OA
BRANCH  28  29
HETATM   29  C6  UNL     1       2.790  53.382 -10.969  1.00  0.00     0.259 C 
HETATM   30  O5  UNL     1       3.625  54.278 -10.988  1.00  0.00    -0.265 OA
BRANCH  29  31
HETATM   31  C7  UNL     1       1.309  53.606 -11.068  1.00  0.00     0.120 C 
BRANCH  31  32
HETATM   32  C8  UNL     1       0.964  54.979 -10.515  1.00  0.00     0.112 C 
BRANCH  32  33
HETATM   33  C9  UNL     1      -0.468  55.044 -10.036  1.00  0.00     0.217 C 
HETATM   34  O6  UNL     1      -0.813  55.616  -9.010  1.00  0.00    -0.274 OA
HETATM   35  N1  UNL     1      -1.345  54.390 -10.877  1.00  0.00    -0.361 N 
HETATM   36  H10 UNL     1      -1.006  54.037 -11.762  1.00  0.00     0.162 HD
BRANCH  35  37
HETATM   37  C10 UNL     1      -2.777  54.419 -10.653  1.00  0.00     0.122 C 
BRANCH  37  38
HETATM   38  C11 UNL     1      -3.455  53.197 -11.270  1.00  0.00     0.020 C 
BRANCH  38  39
HETATM   39  C12 UNL     1      -3.612  52.025 -10.299  1.00  0.00     0.012 C 
BRANCH  39  40
HETATM   40  C13 UNL     1      -4.320  50.818 -10.913  1.00  0.00     0.110 C 
BRANCH  40  41
HETATM   41  C14 UNL     1      -3.373  49.966 -11.716  1.00  0.00     0.139 C 
HETATM   42  O7  UNL     1      -2.330  49.459 -11.346  1.00  0.00    -0.650 OA
BRANCH  41  43
HETATM   43  O8  UNL     1      -3.814  49.779 -12.976  1.00  0.00    -0.776 OA
HETATM   44  H19 UNL     1      -3.127  49.211 -13.385  1.00  0.00     0.167 HD
ENDBRANCH  41  43
ENDBRANCH  40  41
ENDBRANCH  39  40
ENDBRANCH  38  39
ENDBRANCH  37  38
ENDBRANCH  35  37
ENDBRANCH  32  33
ENDBRANCH  31  32
ENDBRANCH  29  31
ENDBRANCH  28  29
ENDBRANCH  27  28
ENDBRANCH  25  27
ENDBRANCH   1  25
TORSDOF 15
ENDMDL
MODEL 8
REMARK minimizedAffinity -8.61197567
REMARK CNNscore 0.275402278
REMARK CNNaffinity 7.27716064
REMARK  15 active torsions:
REMARK  status: ('A' for Active; 'I' for Inactive)
REMARK    1  A    between atoms: C2_2  and  O2_4 
REMARK    2  A    between atoms: O2_4  and  C3_5 
REMARK    3  A    between atoms: C3_5  and  C4_6 
REMARK    4  A    between atoms: C4_6  and  C5_8 
REMARK    5  A    between atoms: C5_8  and  O4_9 
REMARK    6  A    between atoms: O4_9  and  C6_10 
REMARK    7  A    between atoms: C6_10  and  C7_12 
REMARK    8  A    between atoms: C7_12  and  C8_13 
REMARK    9  A    between atoms: C8_13  and  C9_14 
REMARK       I    between atoms: C9_14  and  N1_16 
REMARK   10  A    between atoms: N1_16  and  C10_17 
REMARK   11  A    between atoms: C10_17  and  C11_18 
REMARK   12  A    between atoms: C11_18  and  C12_19 
REMARK   13  A    between atoms: C12_19  and  C13_20 
REMARK   14  A    between atoms: C13_20  and  C14_21 
REMARK   15  A    between atoms: C14_21  and  O8_23 
ROOT
HETATM    1  C3  UNL     1      -0.947  51.566 -25.635  1.00  0.00     0.140 C 
HETATM    2  C15 UNL     1      -0.574  53.069 -25.858  1.00  0.00     0.048 C 
HETATM    3  C16 UNL     1      -0.222  53.665 -24.480  1.00  0.00     0.009 C 
HETATM    4  C17 UNL     1      -0.286  52.483 -23.521  1.00  0.00     0.002 C 
HETATM    5  C18 UNL     1      -0.469  52.760 -22.020  1.00  0.00    -0.004 C 
HETATM    6  C19 UNL     1       0.561  53.743 -21.431  1.00  0.00     0.010 C 
HETATM    7  C20 UNL     1       1.482  53.136 -20.375  1.00  0.00     0.035 C 
HETATM    8  C21 UNL     1       0.774  52.315 -19.319  1.00  0.00    -0.068 C 
HETATM    9  C22 UNL     1       1.358  52.147 -18.118  1.00  0.00     0.053 C 
HETATM   10  C23 UNL     1       0.795  51.235 -17.095  1.00  0.00     0.149 C 
HETATM   11  O9  UNL     1       1.290  51.220 -15.971  1.00  0.00    -0.293 OA
HETATM   12  C24 UNL     1      -0.385  50.366 -17.461  1.00  0.00     0.084 C 
HETATM   13  C25 UNL     1      -0.573  50.242 -18.971  1.00  0.00     0.022 C 
HETATM   14  C26 UNL     1      -0.524  51.603 -19.713  1.00  0.00    -0.016 C 
HETATM   15  C27 UNL     1      -1.736  52.459 -19.276  1.00  0.00     0.020 C 
HETATM   16  C28 UNL     1      -0.492  51.394 -21.265  1.00  0.00     0.002 C 
HETATM   17  C29 UNL     1      -1.584  50.462 -21.840  1.00  0.00     0.007 C 
HETATM   18  C30 UNL     1      -1.419  50.262 -23.361  1.00  0.00     0.013 C 
HETATM   19  C31 UNL     1      -1.414  51.596 -24.129  1.00  0.00    -0.001 C 
HETATM   20  C32 UNL     1      -2.822  52.250 -23.982  1.00  0.00     0.019 C 
ENDROOT
BRANCH   1  21
HETATM   21  O2  UNL     1       0.322  50.869 -25.778  1.00  0.00    -0.301 OA
BRANCH  21  22
HETATM   22  C2  UNL     1       1.144  51.155 -26.819  1.00  0.00     0.256 C 
HETATM   23  C1  UNL     1       2.543  51.366 -26.328  1.00  0.00     0.126 C 
HETATM   24  O1  UNL     1       0.798  51.256 -27.984  1.00  0.00    -0.266 OA
ENDBRANCH  21  22
ENDBRANCH   1  21
BRANCH   1  25
HETATM   25  C4  UNL     1      -2.000  51.155 -26.705  1.00  0.00     0.186 C 
HETATM   26  O3  UNL     1      -2.509  51.957 -27.491  1.00  0.00    -0.292 OA
BRANCH  25  27
HETATM   27  C5  UNL     1      -2.397  49.674 -26.741  1.00  0.00     0.260 C 
BRANCH  27  28
HETATM   28  O4  UNL     1      -3.330  49.379 -27.782  1.00  0.00    -0.314 OA
BRANCH  28  29
HETATM   29  C6  UNL     1      -4.258  48.444 -27.441  1.00  0.00     0.259 C 
HETATM   30  O5  UNL     1      -4.517  48.105 -26.294  1.00  0.00    -0.265 OA
BRANCH  29  31
HETATM   31  C7  UNL     1      -4.975  47.931 -28.656  1.00  0.00     0.120 C 
BRANCH  31  32
HETATM   32  C8  UNL     1      -4.834  48.931 -29.792  1.00  0.00     0.112 C 
BRANCH  32  33
HETATM   33  C9  UNL     1      -5.313  48.355 -31.104  1.00  0.00     0.217 C 
HETATM   34  O6  UNL     1      -4.723  48.509 -32.167  1.00  0.00    -0.274 OA
HETATM   35  N1  UNL     1      -6.485  47.638 -30.980  1.00  0.00    -0.361 N 
HETATM   36  H10 UNL     1      -6.856  47.460 -30.056  1.00  0.00     0.162 HD
BRANCH  35  37
HETATM   37  C10 UNL     1      -7.060  46.920 -32.100  1.00  0.00     0.122 C 
BRANCH  37  38
HETATM   38  C11 UNL     1      -8.499  47.363 -32.358  1.00  0.00     0.020 C 
BRANCH  38  39
HETATM   39  C12 UNL     1      -9.467  46.993 -31.232  1.00  0.00     0.012 C 
BRANCH  39  40
HETATM   40  C13 UNL     1     -10.025  48.205 -30.488  1.00  0.00     0.110 C 
BRANCH  40  41
HETATM   41  C14 UNL     1      -8.964  48.892 -29.668  1.00  0.00     0.139 C 
HETATM   42  O7  UNL     1      -8.424  48.485 -28.656  1.00  0.00    -0.650 OA
BRANCH  41  43
HETATM   43  O8  UNL     1      -8.618  50.084 -30.196  1.00  0.00    -0.776 OA
HETATM   44  H19 UNL     1      -7.926  50.419 -29.587  1.00  0.00     0.167 HD
ENDBRANCH  41  43
ENDBRANCH  40  41
ENDBRANCH  39  40
ENDBRANCH  38  39
ENDBRANCH  37  38
ENDBRANCH  35  37
ENDBRANCH  32  33
ENDBRANCH  31  32
ENDBRANCH  29  31
ENDBRANCH  28  29
ENDBRANCH  27  28
ENDBRANCH  25  27
ENDBRANCH   1  25
TORSDOF 15
ENDMDL
MODEL 9
REMARK minimizedAffinity -7.88974142
REMARK CNNscore 0.273513526
REMARK CNNaffinity 7.10356951
REMARK  15 active torsions:
REMARK  status: ('A' for Active; 'I' for Inactive)
REMARK    1  A    between atoms: C2_2  and  O2_4 
REMARK    2  A    between atoms: O2_4  and  C3_5 
REMARK    3  A    between atoms: C3_5  and  C4_6 
REMARK    4  A    between atoms: C4_6  and  C5_8 
REMARK    5  A    between atoms: C5_8  and  O4_9 
REMARK    6  A    between atoms: O4_9  and  C6_10 
REMARK    7  A    between atoms: C6_10  and  C7_12 
REMARK    8  A    between atoms: C7_12  and  C8_13 
REMARK    9  A    between atoms: C8_13  and  C9_14 
REMARK       I    between atoms: C9_14  and  N1_16 
REMARK   10  A    between atoms: N1_16  and  C10_17 
REMARK   11  A    between atoms: C10_17  and  C11_18 
REMARK   12  A    between atoms: C11_18  and  C12_19 
REMARK   13  A    between atoms: C12_19  and  C13_20 
REMARK   14  A    between atoms: C13_20  and  C14_21 
REMARK   15  A    between atoms: C14_21  and  O8_23 
ROOT
HETATM    1  C3  UNL     1      -0.985  51.932 -25.738  1.00  0.00     0.140 C 
HETATM    2  C15 UNL     1      -0.348  53.342 -25.507  1.00  0.00     0.048 C 
HETATM    3  C16 UNL     1      -0.160  53.518 -23.986  1.00  0.00     0.009 C 
HETATM    4  C17 UNL     1      -0.578  52.180 -23.389  1.00  0.00     0.002 C 
HETATM    5  C18 UNL     1      -0.981  52.127 -21.906  1.00  0.00    -0.004 C 
HETATM    6  C19 UNL     1       0.068  52.724 -20.947  1.00  0.00     0.010 C 
HETATM    7  C20 UNL     1       0.678  51.717 -19.975  1.00  0.00     0.035 C 
HETATM    8  C21 UNL     1      -0.326  50.827 -19.276  1.00  0.00    -0.068 C 
HETATM    9  C22 UNL     1      -0.001  50.272 -18.095  1.00  0.00     0.053 C 
HETATM   10  C23 UNL     1      -0.873  49.274 -17.432  1.00  0.00     0.149 C 
HETATM   11  O9  UNL     1      -0.595  48.898 -16.296  1.00  0.00    -0.293 OA
HETATM   12  C24 UNL     1      -2.089  48.764 -18.167  1.00  0.00     0.084 C 
HETATM   13  C25 UNL     1      -2.021  49.037 -19.669  1.00  0.00     0.022 C 
HETATM   14  C26 UNL     1      -1.628  50.497 -20.013  1.00  0.00    -0.016 C 
HETATM   15  C27 UNL     1      -2.750  51.447 -19.533  1.00  0.00     0.020 C 
HETATM   16  C28 UNL     1      -1.352  50.655 -21.547  1.00  0.00     0.002 C 
HETATM   17  C29 UNL     1      -2.456  50.117 -22.488  1.00  0.00     0.007 C 
HETATM   18  C30 UNL     1      -2.054  50.250 -23.971  1.00  0.00     0.013 C 
HETATM   19  C31 UNL     1      -1.704  51.700 -24.353  1.00  0.00    -0.001 C 
HETATM   20  C32 UNL     1      -2.996  52.564 -24.230  1.00  0.00     0.019 C 
ENDROOT
BRANCH   1  21
HETATM   21  O2  UNL     1       0.164  51.053 -25.888  1.00  0.00    -0.301 OA
BRANCH  21  22
HETATM   22  C2  UNL     1       1.106  51.316 -26.829  1.00  0.00     0.256 C 
HETATM   23  C1  UNL     1       2.472  51.281 -26.213  1.00  0.00     0.126 C 
HETATM   24  O1  UNL     1       0.882  51.574 -27.999  1.00  0.00    -0.266 OA
ENDBRANCH  21  22
ENDBRANCH   1  21
BRANCH   1  25
HETATM   25  C4  UNL     1      -1.881  51.999 -27.009  1.00  0.00     0.186 C 
HETATM   26  O3  UNL     1      -2.196  53.057 -27.556  1.00  0.00    -0.292 OA
BRANCH  25  27
HETATM   27  C5  UNL     1      -2.377  50.659 -27.568  1.00  0.00     0.260 C 
BRANCH  27  28
HETATM   28  O4  UNL     1      -3.623  50.252 -26.997  1.00  0.00    -0.314 OA
BRANCH  28  29
HETATM   29  C6  UNL     1      -3.923  48.942 -27.209  1.00  0.00     0.259 C 
HETATM   30  O5  UNL     1      -4.020  48.417 -28.311  1.00  0.00    -0.265 OA
BRANCH  29  31
HETATM   31  C7  UNL     1      -4.053  48.204 -25.908  1.00  0.00     0.120 C 
BRANCH  31  32
HETATM   32  C8  UNL     1      -5.243  48.744 -25.132  1.00  0.00     0.112 C 
BRANCH  32  33
HETATM   33  C9  UNL     1      -6.492  47.934 -25.390  1.00  0.00     0.217 C 
HETATM   34  O6  UNL     1      -6.935  47.711 -26.510  1.00  0.00    -0.274 OA
HETATM   35  N1  UNL     1      -7.081  47.472 -24.231  1.00  0.00    -0.361 N 
HETATM   36  H10 UNL     1      -6.599  47.600 -23.351  1.00  0.00     0.162 HD
BRANCH  35  37
HETATM   37  C10 UNL     1      -8.231  46.591 -24.262  1.00  0.00     0.122 C 
BRANCH  37  38
HETATM   38  C11 UNL     1      -7.835  45.184 -24.704  1.00  0.00     0.020 C 
BRANCH  38  39
HETATM   39  C12 UNL     1      -8.814  44.553 -25.697  1.00  0.00     0.012 C 
BRANCH  39  40
HETATM   40  C13 UNL     1      -9.824  45.547 -26.268  1.00  0.00     0.110 C 
BRANCH  40  41
HETATM   41  C14 UNL     1      -9.749  45.616 -27.771  1.00  0.00     0.139 C 
HETATM   42  O7  UNL     1      -8.752  45.698 -28.464  1.00  0.00    -0.650 OA
BRANCH  41  43
HETATM   43  O8  UNL     1     -10.972  45.557 -28.336  1.00  0.00    -0.776 OA
HETATM   44  H19 UNL     1     -10.790  45.600 -29.298  1.00  0.00     0.167 HD
ENDBRANCH  41  43
ENDBRANCH  40  41
ENDBRANCH  39  40
ENDBRANCH  38  39
ENDBRANCH  37  38
ENDBRANCH  35  37
ENDBRANCH  32  33
ENDBRANCH  31  32
ENDBRANCH  29  31
ENDBRANCH  28  29
ENDBRANCH  27  28
ENDBRANCH  25  27
ENDBRANCH   1  25
TORSDOF 15
ENDMDL
