MODEL 1
REMARK minimizedAffinity -9.77875423
REMARK CNNscore 0.332392693
REMARK CNNaffinity 6.9633956
REMARK  14 active torsions:
REMARK  status: ('A' for Active; 'I' for Inactive)
REMARK    1  A    between atoms: C2_2  and  C3_3 
REMARK    2  A    between atoms: C2_2  and  C35_44 
REMARK    3  A    between atoms: C3_3  and  C4_4 
REMARK    4  A    between atoms: C4_4  and  C5_5 
REMARK    5  A    between atoms: C5_5  and  C6_6 
REMARK    6  A    between atoms: C5_5  and  C7_9 
REMARK    7  A    between atoms: C6_6  and  O2_8 
REMARK    8  A    between atoms: C28_31  and  O4_32 
REMARK    9  A    between atoms: O4_32  and  C29_33 
REMARK   10  A    between atoms: C30_35  and  C31_36 
REMARK   11  A    between atoms: C31_36  and  O6_37 
REMARK   12  A    between atoms: C32_38  and  O7_39 
REMARK   13  A    between atoms: C33_40  and  O8_41 
REMARK   14  A    between atoms: C34_42  and  O9_43 
ROOT
HETATM    1  C7  UNL     1      -0.507  50.235 -21.586  1.00  0.00     0.009 C 
HETATM    2  C8  UNL     1      -0.635  49.777 -20.114  1.00  0.00     0.007 C 
HETATM    3  C9  UNL     1      -1.980  49.018 -20.005  1.00  0.00     0.015 C 
HETATM    4  C10 UNL     1      -2.445  48.782 -21.456  1.00  0.00    -0.010 C 
HETATM    5  C11 UNL     1      -1.710  47.495 -21.955  1.00  0.00     0.021 C 
HETATM    6  C12 UNL     1      -3.920  48.523 -21.788  1.00  0.00    -0.039 C 
HETATM    7  C13 UNL     1      -4.381  48.843 -23.031  1.00  0.00    -0.066 C 
HETATM    8  C14 UNL     1      -3.521  49.606 -24.049  1.00  0.00     0.036 C 
HETATM    9  C15 UNL     1      -2.090  49.992 -23.632  1.00  0.00     0.015 C 
HETATM   10  C16 UNL     1      -1.965  50.127 -22.115  1.00  0.00    -0.028 C 
HETATM   11  C17 UNL     1      -2.798  51.361 -21.664  1.00  0.00     0.016 C 
HETATM   12  C18 UNL     1      -5.820  48.468 -23.482  1.00  0.00    -0.015 C 
HETATM   13  C19 UNL     1      -6.692  49.696 -23.145  1.00  0.00     0.020 C 
HETATM   14  C20 UNL     1      -5.894  48.187 -25.008  1.00  0.00     0.021 C 
HETATM   15  C21 UNL     1      -7.245  47.665 -25.466  1.00  0.00     0.080 C 
HETATM   16  C22 UNL     1      -7.580  46.387 -24.741  1.00  0.00     0.135 C 
HETATM   17  O3  UNL     1      -7.927  45.390 -25.376  1.00  0.00    -0.297 OA
HETATM   18  C23 UNL     1      -7.544  46.421 -23.208  1.00  0.00     0.018 C 
HETATM   19  C24 UNL     1      -8.856  47.047 -22.714  1.00  0.00     0.023 C 
HETATM   20  C25 UNL     1      -7.530  44.955 -22.704  1.00  0.00     0.023 C 
HETATM   21  C26 UNL     1      -6.228  47.143 -22.741  1.00  0.00     0.016 C 
HETATM   22  C27 UNL     1      -6.156  47.362 -21.229  1.00  0.00     0.043 C 
HETATM   23  C28 UNL     1      -4.756  47.778 -20.751  1.00  0.00     0.155 C 
ENDROOT
BRANCH  23  24
HETATM   24  O4  UNL     1      -4.941  48.619 -19.607  1.00  0.00    -0.349 OA
BRANCH  24  25
HETATM   25  C29 UNL     1      -4.712  47.940 -18.360  1.00  0.00     0.292 C 
HETATM   26  O5  UNL     1      -3.848  46.822 -18.515  1.00  0.00    -0.348 OA
HETATM   27  C30 UNL     1      -3.486  46.198 -17.273  1.00  0.00     0.179 C 
HETATM   28  C32 UNL     1      -4.490  46.437 -16.117  1.00  0.00     0.180 C 
HETATM   29  C33 UNL     1      -5.940  46.525 -16.620  1.00  0.00     0.183 C 
HETATM   30  C34 UNL     1      -6.080  47.434 -17.858  1.00  0.00     0.204 C 
BRANCH  27  31
HETATM   31  C31 UNL     1      -3.278  44.704 -17.561  1.00  0.00     0.198 C 
BRANCH  31  32
HETATM   32  O6  UNL     1      -2.108  44.204 -16.924  1.00  0.00    -0.398 OA
HETATM   33  H45 UNL     1      -1.341  44.604 -17.377  1.00  0.00     0.209 HD
ENDBRANCH  31  32
ENDBRANCH  27  31
BRANCH  28  34
HETATM   34  O7  UNL     1      -4.136  47.668 -15.461  1.00  0.00    -0.390 OA
HETATM   35  H47 UNL     1      -4.796  47.841 -14.763  1.00  0.00     0.210 HD
ENDBRANCH  28  34
BRANCH  29  36
HETATM   36  O8  UNL     1      -6.434  45.213 -16.925  1.00  0.00    -0.390 OA
HETATM   37  H49 UNL     1      -6.487  44.713 -16.094  1.00  0.00     0.210 HD
ENDBRANCH  29  36
BRANCH  30  38
HETATM   38  O9  UNL     1      -6.944  48.546 -17.557  1.00  0.00    -0.388 OA
HETATM   39  H51 UNL     1      -7.053  49.017 -18.408  1.00  0.00     0.210 HD
ENDBRANCH  30  38
ENDBRANCH  24  25
ENDBRANCH  23  24
BRANCH   1  40
HETATM   40  C5  UNL     1       0.295  51.538 -21.861  1.00  0.00     0.089 C 
BRANCH  40  41
HETATM   41  C4  UNL     1      -0.153  52.410 -23.053  1.00  0.00     0.020 C 
BRANCH  41  42
HETATM   42  C3  UNL     1       0.748  52.304 -24.301  1.00  0.00     0.034 C 
BRANCH  42  43
HETATM   43  C2  UNL     1       0.087  52.103 -25.653  1.00  0.00    -0.086 C 
HETATM   44  C1  UNL     1      -1.112  52.625 -25.969  1.00  0.00     0.014 C 
BRANCH  43  45
HETATM   45  C35 UNL     1       0.859  51.306 -26.702  1.00  0.00     0.005 C 
HETATM   46  C36 UNL     1       0.568  51.787 -28.127  1.00  0.00     0.014 C 
HETATM   47  C37 UNL     1       2.363  51.307 -26.422  1.00  0.00     0.014 C 
ENDBRANCH  43  45
ENDBRANCH  42  43
ENDBRANCH  41  42
ENDBRANCH  40  41
BRANCH  40  48
HETATM   48  C6  UNL     1       0.294  52.354 -20.580  1.00  0.00     0.144 C 
HETATM   49  O1  UNL     1      -0.633  52.448 -19.792  1.00  0.00    -0.650 OA
BRANCH  48  50
HETATM   50  O2  UNL     1       1.425  53.053 -20.380  1.00  0.00    -0.776 OA
HETATM   51  H8  UNL     1       1.258  53.539 -19.545  1.00  0.00     0.167 HD
ENDBRANCH  48  50
ENDBRANCH  40  48
ENDBRANCH   1  40
TORSDOF 14
ENDMDL
MODEL 2
REMARK minimizedAffinity -8.68153954
REMARK CNNscore 0.329673201
REMARK CNNaffinity 6.90331841
REMARK  14 active torsions:
REMARK  status: ('A' for Active; 'I' for Inactive)
REMARK    1  A    between atoms: C2_2  and  C3_3 
REMARK    2  A    between atoms: C2_2  and  C35_44 
REMARK    3  A    between atoms: C3_3  and  C4_4 
REMARK    4  A    between atoms: C4_4  and  C5_5 
REMARK    5  A    between atoms: C5_5  and  C6_6 
REMARK    6  A    between atoms: C5_5  and  C7_9 
REMARK    7  A    between atoms: C6_6  and  O2_8 
REMARK    8  A    between atoms: C28_31  and  O4_32 
REMARK    9  A    between atoms: O4_32  and  C29_33 
REMARK   10  A    between atoms: C30_35  and  C31_36 
REMARK   11  A    between atoms: C31_36  and  O6_37 
REMARK   12  A    between atoms: C32_38  and  O7_39 
REMARK   13  A    between atoms: C33_40  and  O8_41 
REMARK   14  A    between atoms: C34_42  and  O9_43 
ROOT
HETATM    1  C7  UNL     1      -6.400  49.668 -23.722  1.00  0.00     0.009 C 
HETATM    2  C8  UNL     1      -7.246  49.930 -22.454  1.00  0.00     0.007 C 
HETATM    3  C9  UNL     1      -6.277  50.494 -21.387  1.00  0.00     0.015 C 
HETATM    4  C10 UNL     1      -4.978  50.838 -22.142  1.00  0.00    -0.010 C 
HETATM    5  C11 UNL     1      -5.187  52.258 -22.764  1.00  0.00     0.021 C 
HETATM    6  C12 UNL     1      -3.634  50.944 -21.411  1.00  0.00    -0.039 C 
HETATM    7  C13 UNL     1      -2.484  50.717 -22.107  1.00  0.00    -0.066 C 
HETATM    8  C14 UNL     1      -2.496  50.195 -23.552  1.00  0.00     0.036 C 
HETATM    9  C15 UNL     1      -3.863  49.947 -24.214  1.00  0.00     0.015 C 
HETATM   10  C16 UNL     1      -4.944  49.651 -23.175  1.00  0.00    -0.028 C 
HETATM   11  C17 UNL     1      -4.628  48.278 -22.518  1.00  0.00     0.016 C 
HETATM   12  C18 UNL     1      -1.089  50.956 -21.468  1.00  0.00    -0.015 C 
HETATM   13  C19 UNL     1      -0.668  49.596 -20.872  1.00  0.00     0.020 C 
HETATM   14  C20 UNL     1      -0.038  51.403 -22.521  1.00  0.00     0.021 C 
HETATM   15  C21 UNL     1       1.299  51.799 -21.917  1.00  0.00     0.080 C 
HETATM   16  C22 UNL     1       1.111  52.929 -20.940  1.00  0.00     0.135 C 
HETATM   17  O3  UNL     1       1.807  53.942 -21.024  1.00  0.00    -0.297 OA
HETATM   18  C23 UNL     1       0.090  52.720 -19.814  1.00  0.00     0.018 C 
HETATM   19  C24 UNL     1       0.756  51.878 -18.716  1.00  0.00     0.023 C 
HETATM   20  C25 UNL     1      -0.217  54.107 -19.192  1.00  0.00     0.023 C 
HETATM   21  C26 UNL     1      -1.230  52.122 -20.423  1.00  0.00     0.016 C 
HETATM   22  C27 UNL     1      -2.269  51.737 -19.368  1.00  0.00     0.043 C 
HETATM   23  C28 UNL     1      -3.654  51.449 -19.970  1.00  0.00     0.155 C 
ENDROOT
BRANCH  23  24
HETATM   24  O4  UNL     1      -4.271  50.462 -19.137  1.00  0.00    -0.349 OA
BRANCH  24  25
HETATM   25  C29 UNL     1      -3.324  49.606 -18.473  1.00  0.00     0.292 C 
HETATM   26  O5  UNL     1      -3.519  48.239 -18.809  1.00  0.00    -0.348 OA
HETATM   27  C30 UNL     1      -2.512  47.366 -18.275  1.00  0.00     0.179 C 
HETATM   28  C32 UNL     1      -1.784  47.916 -17.023  1.00  0.00     0.180 C 
HETATM   29  C33 UNL     1      -2.714  48.762 -16.138  1.00  0.00     0.183 C 
HETATM   30  C34 UNL     1      -3.545  49.772 -16.956  1.00  0.00     0.204 C 
BRANCH  27  31
HETATM   31  C31 UNL     1      -3.182  46.010 -18.008  1.00  0.00     0.198 C 
BRANCH  31  32
HETATM   32  O6  UNL     1      -2.328  45.137 -17.276  1.00  0.00    -0.398 OA
HETATM   33  H45 UNL     1      -1.596  44.885 -17.871  1.00  0.00     0.209 HD
ENDBRANCH  31  32
ENDBRANCH  27  31
BRANCH  28  34
HETATM   34  O7  UNL     1      -0.677  48.724 -17.463  1.00  0.00    -0.390 OA
HETATM   35  H47 UNL     1      -0.248  49.106 -16.674  1.00  0.00     0.210 HD
ENDBRANCH  28  34
BRANCH  29  36
HETATM   36  O8  UNL     1      -3.592  47.908 -15.390  1.00  0.00    -0.390 OA
HETATM   37  H49 UNL     1      -3.049  47.397 -14.766  1.00  0.00     0.210 HD
ENDBRANCH  29  36
BRANCH  30  38
HETATM   38  O9  UNL     1      -3.224  51.116 -16.549  1.00  0.00    -0.388 OA
HETATM   39  H51 UNL     1      -3.851  51.684 -17.042  1.00  0.00     0.210 HD
ENDBRANCH  30  38
ENDBRANCH  24  25
ENDBRANCH  23  24
BRANCH   1  40
HETATM   40  C5  UNL     1      -6.859  48.520 -24.663  1.00  0.00     0.089 C 
BRANCH  40  41
HETATM   41  C4  UNL     1      -5.776  47.814 -25.504  1.00  0.00     0.020 C 
BRANCH  41  42
HETATM   42  C3  UNL     1      -6.168  47.563 -26.976  1.00  0.00     0.034 C 
BRANCH  42  43
HETATM   43  C2  UNL     1      -5.242  48.073 -28.067  1.00  0.00    -0.086 C 
HETATM   44  C1  UNL     1      -3.958  48.408 -27.843  1.00  0.00     0.014 C 
BRANCH  43  45
HETATM   45  C35 UNL     1      -5.803  48.157 -29.484  1.00  0.00     0.005 C 
HETATM   46  C36 UNL     1      -5.246  47.061 -30.396  1.00  0.00     0.014 C 
HETATM   47  C37 UNL     1      -7.334  48.146 -29.489  1.00  0.00     0.014 C 
ENDBRANCH  43  45
ENDBRANCH  42  43
ENDBRANCH  41  42
ENDBRANCH  40  41
BRANCH  40  48
HETATM   48  C6  UNL     1      -7.611  47.508 -23.815  1.00  0.00     0.144 C 
HETATM   49  O1  UNL     1      -7.124  46.540 -23.256  1.00  0.00    -0.650 OA
BRANCH  48  50
HETATM   50  O2  UNL     1      -8.937  47.726 -23.757  1.00  0.00    -0.776 OA
HETATM   51  H8  UNL     1      -9.275  46.987 -23.209  1.00  0.00     0.167 HD
ENDBRANCH  48  50
ENDBRANCH  40  48
ENDBRANCH   1  40
TORSDOF 14
ENDMDL
MODEL 3
REMARK minimizedAffinity -9.31782722
REMARK CNNscore 0.30727151
REMARK CNNaffinity 7.19303322
REMARK  14 active torsions:
REMARK  status: ('A' for Active; 'I' for Inactive)
REMARK    1  A    between atoms: C2_2  and  C3_3 
REMARK    2  A    between atoms: C2_2  and  C35_44 
REMARK    3  A    between atoms: C3_3  and  C4_4 
REMARK    4  A    between atoms: C4_4  and  C5_5 
REMARK    5  A    between atoms: C5_5  and  C6_6 
REMARK    6  A    between atoms: C5_5  and  C7_9 
REMARK    7  A    between atoms: C6_6  and  O2_8 
REMARK    8  A    between atoms: C28_31  and  O4_32 
REMARK    9  A    between atoms: O4_32  and  C29_33 
REMARK   10  A    between atoms: C30_35  and  C31_36 
REMARK   11  A    between atoms: C31_36  and  O6_37 
REMARK   12  A    between atoms: C32_38  and  O7_39 
REMARK   13  A    between atoms: C33_40  and  O8_41 
REMARK   14  A    between atoms: C34_42  and  O9_43 
ROOT
HETATM    1  C7  UNL     1      -1.215  49.796 -21.341  1.00  0.00     0.009 C 
HETATM    2  C8  UNL     1      -1.601  49.271 -19.938  1.00  0.00     0.007 C 
HETATM    3  C9  UNL     1      -2.956  48.540 -20.099  1.00  0.00     0.015 C 
HETATM    4  C10 UNL     1      -3.169  48.384 -21.618  1.00  0.00    -0.010 C 
HETATM    5  C11 UNL     1      -2.379  47.105 -22.050  1.00  0.00     0.021 C 
HETATM    6  C12 UNL     1      -4.568  48.177 -22.210  1.00  0.00    -0.039 C 
HETATM    7  C13 UNL     1      -4.805  48.566 -23.495  1.00  0.00    -0.066 C 
HETATM    8  C14 UNL     1      -3.771  49.356 -24.311  1.00  0.00     0.036 C 
HETATM    9  C15 UNL     1      -2.427  49.688 -23.637  1.00  0.00     0.015 C 
HETATM   10  C16 UNL     1      -2.562  49.748 -22.117  1.00  0.00    -0.028 C 
HETATM   11  C17 UNL     1      -3.441  50.978 -21.751  1.00  0.00     0.016 C 
HETATM   12  C18 UNL     1      -6.150  48.248 -24.204  1.00  0.00    -0.015 C 
HETATM   13  C19 UNL     1      -7.048  49.478 -23.959  1.00  0.00     0.020 C 
HETATM   14  C20 UNL     1      -5.965  48.041 -25.732  1.00  0.00     0.021 C 
HETATM   15  C21 UNL     1      -7.225  47.574 -26.440  1.00  0.00     0.080 C 
HETATM   16  C22 UNL     1      -7.699  46.272 -25.850  1.00  0.00     0.135 C 
HETATM   17  O3  UNL     1      -7.948  45.314 -26.584  1.00  0.00    -0.297 OA
HETATM   18  C23 UNL     1      -7.927  46.231 -24.333  1.00  0.00     0.018 C 
HETATM   19  C24 UNL     1      -9.294  46.865 -24.040  1.00  0.00     0.023 C 
HETATM   20  C25 UNL     1      -8.021  44.743 -23.910  1.00  0.00     0.023 C 
HETATM   21  C26 UNL     1      -6.700  46.899 -23.612  1.00  0.00     0.016 C 
HETATM   22  C27 UNL     1      -6.885  47.044 -22.101  1.00  0.00     0.043 C 
HETATM   23  C28 UNL     1      -5.581  47.404 -21.370  1.00  0.00     0.155 C 
ENDROOT
BRANCH  23  24
HETATM   24  O4  UNL     1      -5.947  48.193 -20.234  1.00  0.00    -0.349 OA
BRANCH  24  25
HETATM   25  C29 UNL     1      -7.004  47.608 -19.452  1.00  0.00     0.292 C 
HETATM   26  O5  UNL     1      -8.270  47.747 -20.081  1.00  0.00    -0.348 OA
HETATM   27  C30 UNL     1      -9.331  47.059 -19.399  1.00  0.00     0.179 C 
HETATM   28  C32 UNL     1      -9.070  46.809 -17.893  1.00  0.00     0.180 C 
HETATM   29  C33 UNL     1      -8.259  47.947 -17.250  1.00  0.00     0.183 C 
HETATM   30  C34 UNL     1      -7.043  48.358 -18.105  1.00  0.00     0.204 C 
BRANCH  27  31
HETATM   31  C31 UNL     1     -10.618  47.860 -19.639  1.00  0.00     0.198 C 
BRANCH  31  32
HETATM   32  O6  UNL     1     -11.492  47.799 -18.518  1.00  0.00    -0.398 OA
HETATM   33  H45 UNL     1     -11.831  46.885 -18.466  1.00  0.00     0.209 HD
ENDBRANCH  31  32
ENDBRANCH  27  31
BRANCH  28  34
HETATM   34  O7  UNL     1      -8.346  45.572 -17.760  1.00  0.00    -0.390 OA
HETATM   35  H47 UNL     1      -8.142  45.439 -16.815  1.00  0.00     0.210 HD
ENDBRANCH  28  34
BRANCH  29  36
HETATM   36  O8  UNL     1      -9.102  49.086 -17.028  1.00  0.00    -0.390 OA
HETATM   37  H49 UNL     1      -9.764  48.841 -16.360  1.00  0.00     0.210 HD
ENDBRANCH  29  36
BRANCH  30  38
HETATM   38  O9  UNL     1      -5.825  48.130 -17.370  1.00  0.00    -0.388 OA
HETATM   39  H51 UNL     1      -5.117  48.497 -17.937  1.00  0.00     0.210 HD
ENDBRANCH  30  38
ENDBRANCH  24  25
ENDBRANCH  23  24
BRANCH   1  40
HETATM   40  C5  UNL     1      -0.358  51.090 -21.408  1.00  0.00     0.089 C 
BRANCH  40  41
HETATM   41  C4  UNL     1      -0.526  51.990 -22.651  1.00  0.00     0.020 C 
BRANCH  41  42
HETATM   42  C3  UNL     1       0.622  51.888 -23.677  1.00  0.00     0.034 C 
BRANCH  42  43
HETATM   43  C2  UNL     1       0.488  52.644 -24.988  1.00  0.00    -0.086 C 
HETATM   44  C1  UNL     1       0.129  53.939 -25.055  1.00  0.00     0.014 C 
BRANCH  43  45
HETATM   45  C35 UNL     1       0.824  51.891 -26.272  1.00  0.00     0.005 C 
HETATM   46  C36 UNL     1       2.274  51.399 -26.294  1.00  0.00     0.014 C 
HETATM   47  C37 UNL     1      -0.147  50.736 -26.524  1.00  0.00     0.014 C 
ENDBRANCH  43  45
ENDBRANCH  42  43
ENDBRANCH  41  42
ENDBRANCH  40  41
BRANCH  40  48
HETATM   48  C6  UNL     1      -0.630  51.884 -20.142  1.00  0.00     0.144 C 
HETATM   49  O1  UNL     1      -1.261  51.493 -19.174  1.00  0.00    -0.650 OA
BRANCH  48  50
HETATM   50  O2  UNL     1      -0.149  53.140 -20.173  1.00  0.00    -0.776 OA
HETATM   51  H8  UNL     1      -0.427  53.520 -19.314  1.00  0.00     0.167 HD
ENDBRANCH  48  50
ENDBRANCH  40  48
ENDBRANCH   1  40
TORSDOF 14
ENDMDL
MODEL 4
REMARK minimizedAffinity -8.98654175
REMARK CNNscore 0.304512411
REMARK CNNaffinity 6.54921961
REMARK  14 active torsions:
REMARK  status: ('A' for Active; 'I' for Inactive)
REMARK    1  A    between atoms: C2_2  and  C3_3 
REMARK    2  A    between atoms: C2_2  and  C35_44 
REMARK    3  A    between atoms: C3_3  and  C4_4 
REMARK    4  A    between atoms: C4_4  and  C5_5 
REMARK    5  A    between atoms: C5_5  and  C6_6 
REMARK    6  A    between atoms: C5_5  and  C7_9 
REMARK    7  A    between atoms: C6_6  and  O2_8 
REMARK    8  A    between atoms: C28_31  and  O4_32 
REMARK    9  A    between atoms: O4_32  and  C29_33 
REMARK   10  A    between atoms: C30_35  and  C31_36 
REMARK   11  A    between atoms: C31_36  and  O6_37 
REMARK   12  A    between atoms: C32_38  and  O7_39 
REMARK   13  A    between atoms: C33_40  and  O8_41 
REMARK   14  A    between atoms: C34_42  and  O9_43 
ROOT
HETATM    1  C7  UNL     1      -3.646  51.393 -23.323  1.00  0.00     0.009 C 
HETATM    2  C8  UNL     1      -4.768  51.348 -24.386  1.00  0.00     0.007 C 
HETATM    3  C9  UNL     1      -5.678  50.152 -24.014  1.00  0.00     0.015 C 
HETATM    4  C10 UNL     1      -5.254  49.730 -22.593  1.00  0.00    -0.010 C 
HETATM    5  C11 UNL     1      -6.016  50.672 -21.604  1.00  0.00     0.021 C 
HETATM    6  C12 UNL     1      -5.539  48.321 -22.061  1.00  0.00    -0.039 C 
HETATM    7  C13 UNL     1      -4.735  47.809 -21.085  1.00  0.00    -0.066 C 
HETATM    8  C14 UNL     1      -3.457  48.525 -20.623  1.00  0.00     0.036 C 
HETATM    9  C15 UNL     1      -3.109  49.870 -21.286  1.00  0.00     0.015 C 
HETATM   10  C16 UNL     1      -3.703  49.973 -22.690  1.00  0.00    -0.028 C 
HETATM   11  C17 UNL     1      -2.979  48.944 -23.604  1.00  0.00     0.016 C 
HETATM   12  C18 UNL     1      -5.058  46.455 -20.397  1.00  0.00    -0.015 C 
HETATM   13  C19 UNL     1      -4.289  45.387 -21.205  1.00  0.00     0.020 C 
HETATM   14  C20 UNL     1      -4.578  46.426 -18.920  1.00  0.00     0.021 C 
HETATM   15  C21 UNL     1      -5.012  45.183 -18.163  1.00  0.00     0.080 C 
HETATM   16  C22 UNL     1      -6.514  45.071 -18.166  1.00  0.00     0.135 C 
HETATM   17  O3  UNL     1      -7.123  44.897 -17.109  1.00  0.00    -0.297 OA
HETATM   18  C23 UNL     1      -7.217  45.103 -19.529  1.00  0.00     0.018 C 
HETATM   19  C24 UNL     1      -7.109  43.705 -20.154  1.00  0.00     0.023 C 
HETATM   20  C25 UNL     1      -8.723  45.368 -19.277  1.00  0.00     0.023 C 
HETATM   21  C26 UNL     1      -6.620  46.278 -20.386  1.00  0.00     0.016 C 
HETATM   22  C27 UNL     1      -7.147  46.315 -21.822  1.00  0.00     0.043 C 
HETATM   23  C28 UNL     1      -6.806  47.625 -22.550  1.00  0.00     0.155 C 
ENDROOT
BRANCH  23  24
HETATM   24  O4  UNL     1      -6.657  47.302 -23.937  1.00  0.00    -0.349 OA
BRANCH  24  25
HETATM   25  C29 UNL     1      -7.698  47.853 -24.764  1.00  0.00     0.292 C 
HETATM   26  O5  UNL     1      -8.972  47.309 -24.445  1.00  0.00    -0.348 OA
HETATM   27  C30 UNL     1     -10.056  47.929 -25.154  1.00  0.00     0.179 C 
HETATM   28  C32 UNL     1      -9.648  48.610 -26.485  1.00  0.00     0.180 C 
HETATM   29  C33 UNL     1      -8.505  47.860 -27.190  1.00  0.00     0.183 C 
HETATM   30  C34 UNL     1      -7.362  47.487 -26.224  1.00  0.00     0.204 C 
BRANCH  27  31
HETATM   31  C31 UNL     1     -11.137  46.858 -25.359  1.00  0.00     0.198 C 
BRANCH  31  32
HETATM   32  O6  UNL     1     -12.443  47.382 -25.148  1.00  0.00    -0.398 OA
HETATM   33  H45 UNL     1     -12.526  47.571 -24.194  1.00  0.00     0.209 HD
ENDBRANCH  31  32
ENDBRANCH  27  31
BRANCH  28  34
HETATM   34  O7  UNL     1      -9.229  49.955 -26.193  1.00  0.00    -0.390 OA
HETATM   35  H47 UNL     1      -8.928  50.367 -27.026  1.00  0.00     0.210 HD
ENDBRANCH  28  34
BRANCH  29  36
HETATM   36  O8  UNL     1      -9.011  46.676 -27.822  1.00  0.00    -0.390 OA
HETATM   37  H49 UNL     1      -9.608  46.951 -28.537  1.00  0.00     0.210 HD
ENDBRANCH  29  36
BRANCH  30  38
HETATM   38  O9  UNL     1      -6.141  48.132 -26.633  1.00  0.00    -0.388 OA
HETATM   39  H51 UNL     1      -5.456  47.776 -26.032  1.00  0.00     0.210 HD
ENDBRANCH  30  38
ENDBRANCH  24  25
ENDBRANCH  23  24
BRANCH   1  40
HETATM   40  C5  UNL     1      -2.267  51.961 -23.763  1.00  0.00     0.089 C 
BRANCH  40  41
HETATM   41  C4  UNL     1      -1.007  51.184 -23.330  1.00  0.00     0.020 C 
BRANCH  41  42
HETATM   42  C3  UNL     1       0.002  52.007 -22.500  1.00  0.00     0.034 C 
BRANCH  42  43
HETATM   43  C2  UNL     1       0.068  51.768 -21.001  1.00  0.00    -0.086 C 
HETATM   44  C1  UNL     1       0.097  50.539 -20.454  1.00  0.00     0.014 C 
BRANCH  43  45
HETATM   45  C35 UNL     1       0.149  52.995 -20.096  1.00  0.00     0.005 C 
HETATM   46  C36 UNL     1       0.536  52.633 -18.660  1.00  0.00     0.014 C 
HETATM   47  C37 UNL     1       1.093  54.057 -20.664  1.00  0.00     0.014 C 
ENDBRANCH  43  45
ENDBRANCH  42  43
ENDBRANCH  41  42
ENDBRANCH  40  41
BRANCH  40  48
HETATM   48  C6  UNL     1      -2.299  52.116 -25.274  1.00  0.00     0.144 C 
HETATM   49  O1  UNL     1      -2.894  52.983 -25.892  1.00  0.00    -0.650 OA
BRANCH  48  50
HETATM   50  O2  UNL     1      -1.635  51.150 -25.933  1.00  0.00    -0.776 OA
HETATM   51  H8  UNL     1      -1.773  51.372 -26.878  1.00  0.00     0.167 HD
ENDBRANCH  48  50
ENDBRANCH  40  48
ENDBRANCH   1  40
TORSDOF 14
ENDMDL
MODEL 5
REMARK minimizedAffinity -8.19236469
REMARK CNNscore 0.280674219
REMARK CNNaffinity 6.47665834
REMARK  14 active torsions:
REMARK  status: ('A' for Active; 'I' for Inactive)
REMARK    1  A    between atoms: C2_2  and  C3_3 
REMARK    2  A    between atoms: C2_2  and  C35_44 
REMARK    3  A    between atoms: C3_3  and  C4_4 
REMARK    4  A    between atoms: C4_4  and  C5_5 
REMARK    5  A    between atoms: C5_5  and  C6_6 
REMARK    6  A    between atoms: C5_5  and  C7_9 
REMARK    7  A    between atoms: C6_6  and  O2_8 
REMARK    8  A    between atoms: C28_31  and  O4_32 
REMARK    9  A    between atoms: O4_32  and  C29_33 
REMARK   10  A    between atoms: C30_35  and  C31_36 
REMARK   11  A    between atoms: C31_36  and  O6_37 
REMARK   12  A    between atoms: C32_38  and  O7_39 
REMARK   13  A    between atoms: C33_40  and  O8_41 
REMARK   14  A    between atoms: C34_42  and  O9_43 
ROOT
HETATM    1  C7  UNL     1      -0.608  51.164 -19.959  1.00  0.00     0.009 C 
HETATM    2  C8  UNL     1      -0.276  50.025 -18.966  1.00  0.00     0.007 C 
HETATM    3  C9  UNL     1      -1.442  49.011 -19.055  1.00  0.00     0.015 C 
HETATM    4  C10 UNL     1      -2.255  49.417 -20.301  1.00  0.00    -0.010 C 
HETATM    5  C11 UNL     1      -1.539  48.765 -21.530  1.00  0.00     0.021 C 
HETATM    6  C12 UNL     1      -3.723  49.007 -20.464  1.00  0.00    -0.039 C 
HETATM    7  C13 UNL     1      -4.540  49.775 -21.241  1.00  0.00    -0.066 C 
HETATM    8  C14 UNL     1      -4.084  51.123 -21.819  1.00  0.00     0.036 C 
HETATM    9  C15 UNL     1      -2.649  51.587 -21.511  1.00  0.00     0.015 C 
HETATM   10  C16 UNL     1      -2.132  50.982 -20.206  1.00  0.00    -0.028 C 
HETATM   11  C17 UNL     1      -2.948  51.588 -19.029  1.00  0.00     0.016 C 
HETATM   12  C18 UNL     1      -5.993  49.335 -21.570  1.00  0.00    -0.015 C 
HETATM   13  C19 UNL     1      -6.877  49.984 -20.484  1.00  0.00     0.020 C 
HETATM   14  C20 UNL     1      -6.446  49.835 -22.969  1.00  0.00     0.021 C 
HETATM   15  C21 UNL     1      -7.801  49.297 -23.398  1.00  0.00     0.080 C 
HETATM   16  C22 UNL     1      -7.775  47.792 -23.428  1.00  0.00     0.135 C 
HETATM   17  O3  UNL     1      -8.164  47.186 -24.429  1.00  0.00    -0.297 OA
HETATM   18  C23 UNL     1      -7.328  47.072 -22.149  1.00  0.00     0.018 C 
HETATM   19  C24 UNL     1      -8.519  47.035 -21.182  1.00  0.00     0.023 C 
HETATM   20  C25 UNL     1      -7.006  45.602 -22.522  1.00  0.00     0.023 C 
HETATM   21  C26 UNL     1      -6.028  47.764 -21.600  1.00  0.00     0.016 C 
HETATM   22  C27 UNL     1      -5.573  47.219 -20.245  1.00  0.00     0.043 C 
HETATM   23  C28 UNL     1      -4.153  47.671 -19.864  1.00  0.00     0.155 C 
ENDROOT
BRANCH  23  24
HETATM   24  O4  UNL     1      -4.117  47.765 -18.436  1.00  0.00    -0.349 OA
BRANCH  24  25
HETATM   25  C29 UNL     1      -3.674  46.554 -17.798  1.00  0.00     0.292 C 
HETATM   26  O5  UNL     1      -3.751  45.435 -18.672  1.00  0.00    -0.348 OA
HETATM   27  C30 UNL     1      -3.193  44.233 -18.118  1.00  0.00     0.179 C 
HETATM   28  C32 UNL     1      -3.155  44.196 -16.570  1.00  0.00     0.180 C 
HETATM   29  C33 UNL     1      -4.354  44.929 -15.945  1.00  0.00     0.183 C 
HETATM   30  C34 UNL     1      -4.610  46.302 -16.599  1.00  0.00     0.204 C 
BRANCH  27  31
HETATM   31  C31 UNL     1      -3.981  43.054 -18.707  1.00  0.00     0.198 C 
BRANCH  31  32
HETATM   32  O6  UNL     1      -4.149  42.008 -17.757  1.00  0.00    -0.398 OA
HETATM   33  H45 UNL     1      -3.271  41.608 -17.610  1.00  0.00     0.209 HD
ENDBRANCH  31  32
ENDBRANCH  27  31
BRANCH  28  34
HETATM   34  O7  UNL     1      -1.934  44.820 -16.133  1.00  0.00    -0.390 OA
HETATM   35  H47 UNL     1      -1.933  44.837 -15.158  1.00  0.00     0.210 HD
ENDBRANCH  28  34
BRANCH  29  36
HETATM   36  O8  UNL     1      -5.533  44.117 -16.046  1.00  0.00    -0.390 OA
HETATM   37  H49 UNL     1      -5.402  43.331 -15.490  1.00  0.00     0.210 HD
ENDBRANCH  29  36
BRANCH  30  38
HETATM   38  O9  UNL     1      -4.462  47.348 -15.620  1.00  0.00    -0.388 OA
HETATM   39  H51 UNL     1      -4.727  48.167 -16.087  1.00  0.00     0.210 HD
ENDBRANCH  30  38
ENDBRANCH  24  25
ENDBRANCH  23  24
BRANCH   1  40
HETATM   40  C5  UNL     1      -0.068  52.583 -19.623  1.00  0.00     0.089 C 
BRANCH  40  41
HETATM   41  C4  UNL     1       0.456  52.824 -18.192  1.00  0.00     0.020 C 
BRANCH  41  42
HETATM   42  C3  UNL     1       1.710  52.005 -17.822  1.00  0.00     0.034 C 
BRANCH  42  43
HETATM   43  C2  UNL     1       2.377  52.271 -16.483  1.00  0.00    -0.086 C 
HETATM   44  C1  UNL     1       3.516  52.976 -16.358  1.00  0.00     0.014 C 
BRANCH  43  45
HETATM   45  C35 UNL     1       1.679  51.744 -15.232  1.00  0.00     0.005 C 
HETATM   46  C36 UNL     1       0.982  50.403 -15.478  1.00  0.00     0.014 C 
HETATM   47  C37 UNL     1       2.639  51.650 -14.044  1.00  0.00     0.014 C 
ENDBRANCH  43  45
ENDBRANCH  42  43
ENDBRANCH  41  42
ENDBRANCH  40  41
BRANCH  40  48
HETATM   48  C6  UNL     1       1.008  52.915 -20.643  1.00  0.00     0.144 C 
HETATM   49  O1  UNL     1       1.461  52.151 -21.479  1.00  0.00    -0.650 OA
BRANCH  48  50
HETATM   50  O2  UNL     1       1.501  54.161 -20.527  1.00  0.00    -0.776 OA
HETATM   51  H8  UNL     1       2.191  54.207 -21.222  1.00  0.00     0.167 HD
ENDBRANCH  48  50
ENDBRANCH  40  48
ENDBRANCH   1  40
TORSDOF 14
ENDMDL
MODEL 6
REMARK minimizedAffinity -9.28277969
REMARK CNNscore 0.273478448
REMARK CNNaffinity 6.49547577
REMARK  14 active torsions:
REMARK  status: ('A' for Active; 'I' for Inactive)
REMARK    1  A    between atoms: C2_2  and  C3_3 
REMARK    2  A    between atoms: C2_2  and  C35_44 
REMARK    3  A    between atoms: C3_3  and  C4_4 
REMARK    4  A    between atoms: C4_4  and  C5_5 
REMARK    5  A    between atoms: C5_5  and  C6_6 
REMARK    6  A    between atoms: C5_5  and  C7_9 
REMARK    7  A    between atoms: C6_6  and  O2_8 
REMARK    8  A    between atoms: C28_31  and  O4_32 
REMARK    9  A    between atoms: O4_32  and  C29_33 
REMARK   10  A    between atoms: C30_35  and  C31_36 
REMARK   11  A    between atoms: C31_36  and  O6_37 
REMARK   12  A    between atoms: C32_38  and  O7_39 
REMARK   13  A    between atoms: C33_40  and  O8_41 
REMARK   14  A    between atoms: C34_42  and  O9_43 
ROOT
HETATM    1  C7  UNL     1      -3.864  50.739 -24.374  1.00  0.00     0.009 C 
HETATM    2  C8  UNL     1      -5.338  50.392 -24.062  1.00  0.00     0.007 C 
HETATM    3  C9  UNL     1      -5.411  50.113 -22.541  1.00  0.00     0.015 C 
HETATM    4  C10 UNL     1      -4.069  50.603 -21.961  1.00  0.00    -0.010 C 
HETATM    5  C11 UNL     1      -4.220  52.143 -21.729  1.00  0.00     0.021 C 
HETATM    6  C12 UNL     1      -3.537  50.075 -20.624  1.00  0.00    -0.039 C 
HETATM    7  C13 UNL     1      -2.192  50.088 -20.397  1.00  0.00    -0.066 C 
HETATM    8  C14 UNL     1      -1.184  50.455 -21.496  1.00  0.00     0.036 C 
HETATM    9  C15 UNL     1      -1.739  50.834 -22.881  1.00  0.00     0.015 C 
HETATM   10  C16 UNL     1      -3.103  50.193 -23.133  1.00  0.00    -0.028 C 
HETATM   11  C17 UNL     1      -2.906  48.655 -23.252  1.00  0.00     0.016 C 
HETATM   12  C18 UNL     1      -1.601  49.710 -19.012  1.00  0.00    -0.015 C 
HETATM   13  C19 UNL     1      -1.292  48.200 -19.091  1.00  0.00     0.020 C 
HETATM   14  C20 UNL     1      -0.290  50.488 -18.710  1.00  0.00     0.021 C 
HETATM   15  C21 UNL     1       0.238  50.268 -17.302  1.00  0.00     0.080 C 
HETATM   16  C22 UNL     1      -0.794  50.688 -16.290  1.00  0.00     0.135 C 
HETATM   17  O3  UNL     1      -0.488  51.454 -15.375  1.00  0.00    -0.297 OA
HETATM   18  C23 UNL     1      -2.190  50.060 -16.410  1.00  0.00     0.018 C 
HETATM   19  C24 UNL     1      -2.139  48.661 -15.781  1.00  0.00     0.023 C 
HETATM   20  C25 UNL     1      -3.162  50.905 -15.547  1.00  0.00     0.023 C 
HETATM   21  C26 UNL     1      -2.649  50.115 -17.912  1.00  0.00     0.016 C 
HETATM   22  C27 UNL     1      -3.968  49.385 -18.173  1.00  0.00     0.043 C 
HETATM   23  C28 UNL     1      -4.561  49.700 -19.556  1.00  0.00     0.155 C 
ENDROOT
BRANCH  23  24
HETATM   24  O4  UNL     1      -5.272  48.532 -19.978  1.00  0.00    -0.349 OA
BRANCH  24  25
HETATM   25  C29 UNL     1      -6.565  48.399 -19.360  1.00  0.00     0.292 C 
HETATM   26  O5  UNL     1      -6.477  47.813 -18.068  1.00  0.00    -0.348 OA
HETATM   27  C30 UNL     1      -7.728  47.786 -17.363  1.00  0.00     0.179 C 
HETATM   28  C32 UNL     1      -8.981  47.833 -18.274  1.00  0.00     0.180 C 
HETATM   29  C33 UNL     1      -8.754  47.101 -19.607  1.00  0.00     0.183 C 
HETATM   30  C34 UNL     1      -7.407  47.472 -20.261  1.00  0.00     0.204 C 
BRANCH  27  31
HETATM   31  C31 UNL     1      -7.714  46.543 -16.462  1.00  0.00     0.198 C 
BRANCH  31  32
HETATM   32  O6  UNL     1      -7.283  46.856 -15.142  1.00  0.00    -0.398 OA
HETATM   33  H45 UNL     1      -6.334  47.077 -15.194  1.00  0.00     0.209 HD
ENDBRANCH  31  32
ENDBRANCH  27  31
BRANCH  28  34
HETATM   34  O7  UNL     1      -9.296  49.213 -18.535  1.00  0.00    -0.390 OA
HETATM   35  H47 UNL     1     -10.057  49.240 -19.146  1.00  0.00     0.210 HD
ENDBRANCH  28  34
BRANCH  29  36
HETATM   36  O8  UNL     1      -8.818  45.682 -19.405  1.00  0.00    -0.390 OA
HETATM   37  H49 UNL     1      -9.728  45.458 -19.147  1.00  0.00     0.210 HD
ENDBRANCH  29  36
BRANCH  30  38
HETATM   38  O9  UNL     1      -7.636  48.092 -21.540  1.00  0.00    -0.388 OA
HETATM   39  H51 UNL     1      -6.744  48.211 -21.925  1.00  0.00     0.210 HD
ENDBRANCH  30  38
ENDBRANCH  24  25
ENDBRANCH  23  24
BRANCH   1  40
HETATM   40  C5  UNL     1      -3.332  50.388 -25.792  1.00  0.00     0.089 C 
BRANCH  40  41
HETATM   41  C4  UNL     1      -1.805  50.416 -26.006  1.00  0.00     0.020 C 
BRANCH  41  42
HETATM   42  C3  UNL     1      -1.327  51.401 -27.095  1.00  0.00     0.034 C 
BRANCH  42  43
HETATM   43  C2  UNL     1       0.167  51.595 -27.287  1.00  0.00    -0.086 C 
HETATM   44  C1  UNL     1       0.717  51.935 -28.467  1.00  0.00     0.014 C 
BRANCH  43  45
HETATM   45  C35 UNL     1       1.061  51.436 -26.059  1.00  0.00     0.005 C 
HETATM   46  C36 UNL     1       2.542  51.327 -26.430  1.00  0.00     0.014 C 
HETATM   47  C37 UNL     1       0.834  52.558 -25.043  1.00  0.00     0.014 C 
ENDBRANCH  43  45
ENDBRANCH  42  43
ENDBRANCH  41  42
ENDBRANCH  40  41
BRANCH  40  48
HETATM   48  C6  UNL     1      -3.892  49.025 -26.164  1.00  0.00     0.144 C 
HETATM   49  O1  UNL     1      -3.242  48.060 -26.530  1.00  0.00    -0.650 OA
BRANCH  48  50
HETATM   50  O2  UNL     1      -5.235  48.957 -26.116  1.00  0.00    -0.776 OA
HETATM   51  H8  UNL     1      -5.436  48.043 -26.406  1.00  0.00     0.167 HD
ENDBRANCH  48  50
ENDBRANCH  40  48
ENDBRANCH   1  40
TORSDOF 14
ENDMDL
MODEL 7
REMARK minimizedAffinity -9.90684891
REMARK CNNscore 0.269897908
REMARK CNNaffinity 6.97186089
REMARK  14 active torsions:
REMARK  status: ('A' for Active; 'I' for Inactive)
REMARK    1  A    between atoms: C2_2  and  C3_3 
REMARK    2  A    between atoms: C2_2  and  C35_44 
REMARK    3  A    between atoms: C3_3  and  C4_4 
REMARK    4  A    between atoms: C4_4  and  C5_5 
REMARK    5  A    between atoms: C5_5  and  C6_6 
REMARK    6  A    between atoms: C5_5  and  C7_9 
REMARK    7  A    between atoms: C6_6  and  O2_8 
REMARK    8  A    between atoms: C28_31  and  O4_32 
REMARK    9  A    between atoms: O4_32  and  C29_33 
REMARK   10  A    between atoms: C30_35  and  C31_36 
REMARK   11  A    between atoms: C31_36  and  O6_37 
REMARK   12  A    between atoms: C32_38  and  O7_39 
REMARK   13  A    between atoms: C33_40  and  O8_41 
REMARK   14  A    between atoms: C34_42  and  O9_43 
ROOT
HETATM    1  C7  UNL     1       0.250  51.155 -21.244  1.00  0.00     0.009 C 
HETATM    2  C8  UNL     1       0.310  51.128 -19.699  1.00  0.00     0.007 C 
HETATM    3  C9  UNL     1      -0.950  50.365 -19.223  1.00  0.00     0.015 C 
HETATM    4  C10 UNL     1      -1.540  49.704 -20.485  1.00  0.00    -0.010 C 
HETATM    5  C11 UNL     1      -0.756  48.366 -20.693  1.00  0.00     0.021 C 
HETATM    6  C12 UNL     1      -3.014  49.287 -20.552  1.00  0.00    -0.039 C 
HETATM    7  C13 UNL     1      -3.624  49.217 -21.770  1.00  0.00    -0.066 C 
HETATM    8  C14 UNL     1      -2.937  49.701 -23.055  1.00  0.00     0.036 C 
HETATM    9  C15 UNL     1      -1.508  50.261 -22.937  1.00  0.00     0.015 C 
HETATM   10  C16 UNL     1      -1.241  50.828 -21.544  1.00  0.00    -0.028 C 
HETATM   11  C17 UNL     1      -2.122  52.096 -21.354  1.00  0.00     0.016 C 
HETATM   12  C18 UNL     1      -5.065  48.658 -21.923  1.00  0.00    -0.015 C 
HETATM   13  C19 UNL     1      -5.996  49.886 -21.836  1.00  0.00     0.020 C 
HETATM   14  C20 UNL     1      -5.270  47.952 -23.291  1.00  0.00     0.021 C 
HETATM   15  C21 UNL     1      -6.614  47.254 -23.420  1.00  0.00     0.080 C 
HETATM   16  C22 UNL     1      -6.767  46.220 -22.336  1.00  0.00     0.135 C 
HETATM   17  O3  UNL     1      -7.095  45.067 -22.622  1.00  0.00    -0.297 OA
HETATM   18  C23 UNL     1      -6.579  46.690 -20.887  1.00  0.00     0.018 C 
HETATM   19  C24 UNL     1      -7.881  47.365 -20.432  1.00  0.00     0.023 C 
HETATM   20  C25 UNL     1      -6.394  45.430 -20.003  1.00  0.00     0.023 C 
HETATM   21  C26 UNL     1      -5.286  47.580 -20.801  1.00  0.00     0.016 C 
HETATM   22  C27 UNL     1      -5.079  48.223 -19.428  1.00  0.00     0.043 C 
HETATM   23  C28 UNL     1      -3.677  48.828 -19.257  1.00  0.00     0.155 C 
ENDROOT
BRANCH  23  24
HETATM   24  O4  UNL     1      -3.813  49.949 -18.377  1.00  0.00    -0.349 OA
BRANCH  24  25
HETATM   25  C29 UNL     1      -3.356  49.680 -17.039  1.00  0.00     0.292 C 
HETATM   26  O5  UNL     1      -1.979  49.992 -16.876  1.00  0.00    -0.348 OA
HETATM   27  C30 UNL     1      -1.517  49.866 -15.522  1.00  0.00     0.179 C 
HETATM   28  C32 UNL     1      -2.358  48.905 -14.643  1.00  0.00     0.180 C 
HETATM   29  C33 UNL     1      -2.918  47.723 -15.452  1.00  0.00     0.183 C 
HETATM   30  C34 UNL     1      -3.547  48.170 -16.788  1.00  0.00     0.204 C 
BRANCH  27  31
HETATM   31  C31 UNL     1      -0.040  49.452 -15.583  1.00  0.00     0.198 C 
BRANCH  31  32
HETATM   32  O6  UNL     1       0.193  48.488 -16.604  1.00  0.00    -0.398 OA
HETATM   33  H45 UNL     1      -0.235  47.658 -16.319  1.00  0.00     0.209 HD
ENDBRANCH  31  32
ENDBRANCH  27  31
BRANCH  28  34
HETATM   34  O7  UNL     1      -3.447  49.653 -14.073  1.00  0.00    -0.390 OA
HETATM   35  H47 UNL     1      -4.002  49.037 -13.558  1.00  0.00     0.210 HD
ENDBRANCH  28  34
BRANCH  29  36
HETATM   36  O8  UNL     1      -1.880  46.764 -15.702  1.00  0.00    -0.390 OA
HETATM   37  H49 UNL     1      -1.616  46.382 -14.849  1.00  0.00     0.210 HD
ENDBRANCH  29  36
BRANCH  30  38
HETATM   38  O9  UNL     1      -4.947  47.833 -16.809  1.00  0.00    -0.388 OA
HETATM   39  H51 UNL     1      -5.246  48.062 -17.712  1.00  0.00     0.210 HD
ENDBRANCH  30  38
ENDBRANCH  24  25
ENDBRANCH  23  24
BRANCH   1  40
HETATM   40  C5  UNL     1       0.910  52.364 -21.964  1.00  0.00     0.089 C 
BRANCH  40  41
HETATM   41  C4  UNL     1       0.309  52.802 -23.316  1.00  0.00     0.020 C 
BRANCH  41  42
HETATM   42  C3  UNL     1       0.780  51.971 -24.528  1.00  0.00     0.034 C 
BRANCH  42  43
HETATM   43  C2  UNL     1       0.594  52.552 -25.919  1.00  0.00    -0.086 C 
HETATM   44  C1  UNL     1       0.074  53.773 -26.140  1.00  0.00     0.014 C 
BRANCH  43  45
HETATM   45  C35 UNL     1       1.067  51.712 -27.102  1.00  0.00     0.005 C 
HETATM   46  C36 UNL     1       0.437  52.162 -28.423  1.00  0.00     0.014 C 
HETATM   47  C37 UNL     1       2.594  51.687 -27.206  1.00  0.00     0.014 C 
ENDBRANCH  43  45
ENDBRANCH  42  43
ENDBRANCH  41  42
ENDBRANCH  40  41
BRANCH  40  48
HETATM   48  C6  UNL     1       0.917  53.528 -20.988  1.00  0.00     0.144 C 
HETATM   49  O1  UNL     1       0.077  53.749 -20.132  1.00  0.00    -0.650 OA
BRANCH  48  50
HETATM   50  O2  UNL     1       1.939  54.383 -21.169  1.00  0.00    -0.776 OA
HETATM   51  H8  UNL     1       1.788  55.079 -20.495  1.00  0.00     0.167 HD
ENDBRANCH  48  50
ENDBRANCH  40  48
ENDBRANCH   1  40
TORSDOF 14
ENDMDL
MODEL 8
REMARK minimizedAffinity -8.14356899
REMARK CNNscore 0.267505586
REMARK CNNaffinity 7.02121401
REMARK  14 active torsions:
REMARK  status: ('A' for Active; 'I' for Inactive)
REMARK    1  A    between atoms: C2_2  and  C3_3 
REMARK    2  A    between atoms: C2_2  and  C35_44 
REMARK    3  A    between atoms: C3_3  and  C4_4 
REMARK    4  A    between atoms: C4_4  and  C5_5 
REMARK    5  A    between atoms: C5_5  and  C6_6 
REMARK    6  A    between atoms: C5_5  and  C7_9 
REMARK    7  A    between atoms: C6_6  and  O2_8 
REMARK    8  A    between atoms: C28_31  and  O4_32 
REMARK    9  A    between atoms: O4_32  and  C29_33 
REMARK   10  A    between atoms: C30_35  and  C31_36 
REMARK   11  A    between atoms: C31_36  and  O6_37 
REMARK   12  A    between atoms: C32_38  and  O7_39 
REMARK   13  A    between atoms: C33_40  and  O8_41 
REMARK   14  A    between atoms: C34_42  and  O9_43 
ROOT
HETATM    1  C7  UNL     1      -6.921  49.598 -23.857  1.00  0.00     0.009 C 
HETATM    2  C8  UNL     1      -7.548  49.510 -22.446  1.00  0.00     0.007 C 
HETATM    3  C9  UNL     1      -6.453  49.963 -21.450  1.00  0.00     0.015 C 
HETATM    4  C10 UNL     1      -5.339  50.593 -22.310  1.00  0.00    -0.010 C 
HETATM    5  C11 UNL     1      -5.767  52.073 -22.578  1.00  0.00     0.021 C 
HETATM    6  C12 UNL     1      -3.900  50.708 -21.793  1.00  0.00    -0.039 C 
HETATM    7  C13 UNL     1      -2.877  50.753 -22.694  1.00  0.00    -0.066 C 
HETATM    8  C14 UNL     1      -3.103  50.523 -24.195  1.00  0.00     0.036 C 
HETATM    9  C15 UNL     1      -4.542  50.254 -24.672  1.00  0.00     0.015 C 
HETATM   10  C16 UNL     1      -5.394  49.641 -23.562  1.00  0.00    -0.028 C 
HETATM   11  C17 UNL     1      -4.859  48.211 -23.267  1.00  0.00     0.016 C 
HETATM   12  C18 UNL     1      -1.414  51.020 -22.245  1.00  0.00    -0.015 C 
HETATM   13  C19 UNL     1      -0.788  49.628 -22.022  1.00  0.00     0.020 C 
HETATM   14  C20 UNL     1      -0.605  51.780 -23.332  1.00  0.00     0.021 C 
HETATM   15  C21 UNL     1       0.781  52.201 -22.876  1.00  0.00     0.080 C 
HETATM   16  C22 UNL     1       0.680  53.091 -21.665  1.00  0.00     0.135 C 
HETATM   17  O3  UNL     1       1.268  54.174 -21.643  1.00  0.00    -0.297 OA
HETATM   18  C23 UNL     1      -0.105  52.552 -20.462  1.00  0.00     0.018 C 
HETATM   19  C24 UNL     1       0.809  51.595 -19.685  1.00  0.00     0.023 C 
HETATM   20  C25 UNL     1      -0.406  53.748 -19.522  1.00  0.00     0.023 C 
HETATM   21  C26 UNL     1      -1.460  51.937 -20.969  1.00  0.00     0.016 C 
HETATM   22  C27 UNL     1      -2.262  51.239 -19.869  1.00  0.00     0.043 C 
HETATM   23  C28 UNL     1      -3.704  50.917 -20.294  1.00  0.00     0.155 C 
ENDROOT
BRANCH  23  24
HETATM   24  O4  UNL     1      -4.084  49.724 -19.600  1.00  0.00    -0.349 OA
BRANCH  24  25
HETATM   25  C29 UNL     1      -3.606  49.678 -18.244  1.00  0.00     0.292 C 
HETATM   26  O5  UNL     1      -2.186  49.663 -18.183  1.00  0.00    -0.348 OA
HETATM   27  C30 UNL     1      -1.667  49.753 -16.847  1.00  0.00     0.179 C 
HETATM   28  C32 UNL     1      -2.645  49.277 -15.744  1.00  0.00     0.180 C 
HETATM   29  C33 UNL     1      -3.533  48.116 -16.221  1.00  0.00     0.183 C 
HETATM   30  C34 UNL     1      -4.135  48.372 -17.618  1.00  0.00     0.204 C 
BRANCH  27  31
HETATM   31  C31 UNL     1      -0.342  48.978 -16.821  1.00  0.00     0.198 C 
BRANCH  31  32
HETATM   32  O6  UNL     1       0.603  49.581 -15.945  1.00  0.00    -0.398 OA
HETATM   33  H45 UNL     1       0.874  50.426 -16.352  1.00  0.00     0.209 HD
ENDBRANCH  31  32
ENDBRANCH  27  31
BRANCH  28  34
HETATM   34  O7  UNL     1      -3.475  50.390 -15.366  1.00  0.00    -0.390 OA
HETATM   35  H47 UNL     1      -4.121  50.076 -14.705  1.00  0.00     0.210 HD
ENDBRANCH  28  34
BRANCH  29  36
HETATM   36  O8  UNL     1      -2.780  46.895 -16.236  1.00  0.00    -0.390 OA
HETATM   37  H49 UNL     1      -2.551  46.675 -15.317  1.00  0.00     0.210 HD
ENDBRANCH  29  36
BRANCH  30  38
HETATM   38  O9  UNL     1      -5.573  48.404 -17.535  1.00  0.00    -0.388 OA
HETATM   39  H51 UNL     1      -5.876  48.477 -18.463  1.00  0.00     0.210 HD
ENDBRANCH  30  38
ENDBRANCH  24  25
ENDBRANCH  23  24
BRANCH   1  40
HETATM   40  C5  UNL     1      -7.447  48.610 -24.935  1.00  0.00     0.089 C 
BRANCH  40  41
HETATM   41  C4  UNL     1      -7.208  47.104 -24.696  1.00  0.00     0.020 C 
BRANCH  41  42
HETATM   42  C3  UNL     1      -7.987  46.171 -25.648  1.00  0.00     0.034 C 
BRANCH  42  43
HETATM   43  C2  UNL     1      -7.520  46.058 -27.089  1.00  0.00    -0.086 C 
HETATM   44  C1  UNL     1      -6.941  47.073 -27.755  1.00  0.00     0.014 C 
BRANCH  43  45
HETATM   45  C35 UNL     1      -7.687  44.705 -27.778  1.00  0.00     0.005 C 
HETATM   46  C36 UNL     1      -9.099  44.138 -27.610  1.00  0.00     0.014 C 
HETATM   47  C37 UNL     1      -7.296  44.770 -29.256  1.00  0.00     0.014 C 
ENDBRANCH  43  45
ENDBRANCH  42  43
ENDBRANCH  41  42
ENDBRANCH  40  41
BRANCH  40  48
HETATM   48  C6  UNL     1      -8.929  48.886 -25.123  1.00  0.00     0.144 C 
HETATM   49  O1  UNL     1      -9.843  48.192 -24.712  1.00  0.00    -0.650 OA
BRANCH  48  50
HETATM   50  O2  UNL     1      -9.188  49.979 -25.863  1.00  0.00    -0.776 OA
HETATM   51  H8  UNL     1     -10.167  50.001 -25.915  1.00  0.00     0.167 HD
ENDBRANCH  48  50
ENDBRANCH  40  48
ENDBRANCH   1  40
TORSDOF 14
ENDMDL
MODEL 9
REMARK minimizedAffinity -9.12513161
REMARK CNNscore 0.267162472
REMARK CNNaffinity 6.96290779
REMARK  14 active torsions:
REMARK  status: ('A' for Active; 'I' for Inactive)
REMARK    1  A    between atoms: C2_2  and  C3_3 
REMARK    2  A    between atoms: C2_2  and  C35_44 
REMARK    3  A    between atoms: C3_3  and  C4_4 
REMARK    4  A    between atoms: C4_4  and  C5_5 
REMARK    5  A    between atoms: C5_5  and  C6_6 
REMARK    6  A    between atoms: C5_5  and  C7_9 
REMARK    7  A    between atoms: C6_6  and  O2_8 
REMARK    8  A    between atoms: C28_31  and  O4_32 
REMARK    9  A    between atoms: O4_32  and  C29_33 
REMARK   10  A    between atoms: C30_35  and  C31_36 
REMARK   11  A    between atoms: C31_36  and  O6_37 
REMARK   12  A    between atoms: C32_38  and  O7_39 
REMARK   13  A    between atoms: C33_40  and  O8_41 
REMARK   14  A    between atoms: C34_42  and  O9_43 
ROOT
HETATM    1  C7  UNL     1      -2.169  51.083 -23.490  1.00  0.00     0.009 C 
HETATM    2  C8  UNL     1      -1.663  51.289 -22.042  1.00  0.00     0.007 C 
HETATM    3  C9  UNL     1      -2.516  50.362 -21.143  1.00  0.00     0.015 C 
HETATM    4  C10 UNL     1      -3.270  49.422 -22.106  1.00  0.00    -0.010 C 
HETATM    5  C11 UNL     1      -2.286  48.255 -22.449  1.00  0.00     0.021 C 
HETATM    6  C12 UNL     1      -4.559  48.711 -21.680  1.00  0.00    -0.039 C 
HETATM    7  C13 UNL     1      -5.459  48.346 -22.638  1.00  0.00    -0.066 C 
HETATM    8  C14 UNL     1      -5.304  48.773 -24.105  1.00  0.00     0.036 C 
HETATM    9  C15 UNL     1      -4.076  49.622 -24.480  1.00  0.00     0.015 C 
HETATM   10  C16 UNL     1      -3.562  50.422 -23.285  1.00  0.00    -0.028 C 
HETATM   11  C17 UNL     1      -4.625  51.499 -22.924  1.00  0.00     0.016 C 
HETATM   12  C18 UNL     1      -6.709  47.492 -22.293  1.00  0.00    -0.015 C 
HETATM   13  C19 UNL     1      -7.838  48.504 -22.011  1.00  0.00     0.020 C 
HETATM   14  C20 UNL     1      -7.125  46.571 -23.473  1.00  0.00     0.021 C 
HETATM   15  C21 UNL     1      -8.245  45.605 -23.126  1.00  0.00     0.080 C 
HETATM   16  C22 UNL     1      -7.832  44.726 -21.975  1.00  0.00     0.135 C 
HETATM   17  O3  UNL     1      -7.946  43.502 -22.060  1.00  0.00    -0.297 OA
HETATM   18  C23 UNL     1      -7.353  45.424 -20.695  1.00  0.00     0.018 C 
HETATM   19  C24 UNL     1      -8.590  45.879 -19.908  1.00  0.00     0.023 C 
HETATM   20  C25 UNL     1      -6.629  44.366 -19.823  1.00  0.00     0.023 C 
HETATM   21  C26 UNL     1      -6.338  46.561 -21.082  1.00  0.00     0.016 C 
HETATM   22  C27 UNL     1      -5.903  47.420 -19.893  1.00  0.00     0.043 C 
HETATM   23  C28 UNL     1      -4.694  48.315 -20.212  1.00  0.00     0.155 C 
ENDROOT
BRANCH  23  24
HETATM   24  O4  UNL     1      -4.833  49.498 -19.418  1.00  0.00    -0.349 OA
BRANCH  24  25
HETATM   25  C29 UNL     1      -4.046  49.469 -18.214  1.00  0.00     0.292 C 
HETATM   26  O5  UNL     1      -2.657  49.604 -18.484  1.00  0.00    -0.348 OA
HETATM   27  C30 UNL     1      -1.849  49.715 -17.301  1.00  0.00     0.179 C 
HETATM   28  C32 UNL     1      -2.489  49.109 -16.027  1.00  0.00     0.180 C 
HETATM   29  C33 UNL     1      -3.347  47.873 -16.343  1.00  0.00     0.183 C 
HETATM   30  C34 UNL     1      -4.283  48.098 -17.548  1.00  0.00     0.204 C 
BRANCH  27  31
HETATM   31  C31 UNL     1      -0.487  49.085 -17.622  1.00  0.00     0.198 C 
BRANCH  31  32
HETATM   32  O6  UNL     1       0.045  48.384 -16.503  1.00  0.00    -0.398 OA
HETATM   33  H45 UNL     1       0.286  49.053 -15.834  1.00  0.00     0.209 HD
ENDBRANCH  31  32
ENDBRANCH  27  31
BRANCH  28  34
HETATM   34  O7  UNL     1      -3.312  50.118 -15.413  1.00  0.00    -0.390 OA
HETATM   35  H47 UNL     1      -3.750  49.720 -14.636  1.00  0.00     0.210 HD
ENDBRANCH  28  34
BRANCH  29  36
HETATM   36  O8  UNL     1      -2.502  46.740 -16.592  1.00  0.00    -0.390 OA
HETATM   37  H49 UNL     1      -2.044  46.522 -15.763  1.00  0.00     0.210 HD
ENDBRANCH  29  36
BRANCH  30  38
HETATM   38  O9  UNL     1      -5.657  47.975 -17.133  1.00  0.00    -0.388 OA
HETATM   39  H51 UNL     1      -6.176  48.039 -17.961  1.00  0.00     0.210 HD
ENDBRANCH  30  38
ENDBRANCH  24  25
ENDBRANCH  23  24
BRANCH   1  40
HETATM   40  C5  UNL     1      -2.048  52.287 -24.466  1.00  0.00     0.089 C 
BRANCH  40  41
HETATM   41  C4  UNL     1      -0.680  52.993 -24.557  1.00  0.00     0.020 C 
BRANCH  41  42
HETATM   42  C3  UNL     1       0.516  52.048 -24.797  1.00  0.00     0.034 C 
BRANCH  42  43
HETATM   43  C2  UNL     1       1.155  52.028 -26.175  1.00  0.00    -0.086 C 
HETATM   44  C1  UNL     1       2.426  51.641 -26.389  1.00  0.00     0.014 C 
BRANCH  43  45
HETATM   45  C35 UNL     1       0.282  52.426 -27.362  1.00  0.00     0.005 C 
HETATM   46  C36 UNL     1       0.158  53.945 -27.507  1.00  0.00     0.014 C 
HETATM   47  C37 UNL     1       0.772  51.792 -28.666  1.00  0.00     0.014 C 
ENDBRANCH  43  45
ENDBRANCH  42  43
ENDBRANCH  41  42
ENDBRANCH  40  41
BRANCH  40  48
HETATM   48  C6  UNL     1      -2.487  51.807 -25.839  1.00  0.00     0.144 C 
HETATM   49  O1  UNL     1      -2.205  50.734 -26.346  1.00  0.00    -0.650 OA
BRANCH  48  50
HETATM   50  O2  UNL     1      -3.206  52.712 -26.527  1.00  0.00    -0.776 OA
HETATM   51  H8  UNL     1      -3.382  52.270 -27.385  1.00  0.00     0.167 HD
ENDBRANCH  48  50
ENDBRANCH  40  48
ENDBRANCH   1  40
TORSDOF 14
ENDMDL
