MODEL 1
REMARK minimizedAffinity -9.09605026
REMARK CNNscore 0.353927851
REMARK CNNaffinity 6.6862545
REMARK  6 active torsions:
REMARK  status: ('A' for Active; 'I' for Inactive)
REMARK    1  A    between atoms: C4_4  and  C5_5 
REMARK    2  A    between atoms: C5_5  and  C6_6 
REMARK    3  A    between atoms: C6_6  and  C7_7 
REMARK    4  A    between atoms: C7_7  and  C9_9 
REMARK    5  A    between atoms: C12_12  and  C13_13 
REMARK    6  A    between atoms: C13_13  and  O2_15 
ROOT
HETATM    1  C9  UNL     1      -2.937   8.016  15.141  1.00  0.00    -0.001 C 
HETATM    2  C10 UNL     1      -3.240   6.507  15.315  1.00  0.00     0.007 C 
HETATM    3  C11 UNL     1      -2.250   5.756  14.396  1.00  0.00     0.026 C 
HETATM    4  C12 UNL     1      -1.200   6.819  13.992  1.00  0.00     0.076 C 
HETATM    5  C14 UNL     1      -0.350   6.617  12.746  1.00  0.00    -0.057 C 
HETATM    6  C15 UNL     1       0.124   7.676  12.045  1.00  0.00    -0.067 C 
HETATM    7  C16 UNL     1      -0.208   9.115  12.498  1.00  0.00     0.036 C 
HETATM    8  C17 UNL     1      -1.278   9.321  13.596  1.00  0.00     0.015 C 
HETATM    9  C18 UNL     1      -2.132   8.070  13.811  1.00  0.00    -0.018 C 
HETATM   10  C19 UNL     1      -3.081   7.961  12.576  1.00  0.00     0.017 C 
HETATM   11  C20 UNL     1       0.949   7.506  10.727  1.00  0.00    -0.015 C 
HETATM   12  C21 UNL     1       0.015   7.977   9.576  1.00  0.00     0.020 C 
HETATM   13  C22 UNL     1       2.203   8.428  10.736  1.00  0.00     0.021 C 
HETATM   14  C23 UNL     1       3.428   7.744  11.313  1.00  0.00     0.080 C 
HETATM   15  C24 UNL     1       3.850   6.600  10.422  1.00  0.00     0.135 C 
HETATM   16  O3  UNL     1       5.043   6.308  10.314  1.00  0.00    -0.297 OA
HETATM   17  C25 UNL     1       2.754   5.828   9.673  1.00  0.00     0.018 C 
HETATM   18  C26 UNL     1       2.708   6.341   8.219  1.00  0.00     0.023 C 
HETATM   19  C27 UNL     1       3.185   4.343   9.589  1.00  0.00     0.023 C 
HETATM   20  C28 UNL     1       1.368   5.996  10.411  1.00  0.00     0.013 C 
HETATM   21  C29 UNL     1       1.301   5.101  11.667  1.00  0.00     0.011 C 
HETATM   22  C30 UNL     1      -0.035   5.203  12.374  1.00  0.00     0.036 C 
ENDROOT
BRANCH   1  23
HETATM   23  C7  UNL     1      -4.131   8.995  15.343  1.00  0.00    -0.014 C 
HETATM   24  C8  UNL     1      -3.832   9.865  16.578  1.00  0.00     0.010 C 
BRANCH  23  25
HETATM   25  C6  UNL     1      -5.519   8.328  15.499  1.00  0.00     0.008 C 
BRANCH  25  26
HETATM   26  C5  UNL     1      -5.585   6.865  15.026  1.00  0.00     0.028 C 
BRANCH  26  27
HETATM   27  C4  UNL     1      -6.768   6.554  14.153  1.00  0.00    -0.025 C 
HETATM   28  C2  UNL     1      -6.910   5.553  13.261  1.00  0.00    -0.091 C 
HETATM   29  C1  UNL     1      -5.872   4.513  12.939  1.00  0.00     0.042 C 
HETATM   30  C3  UNL     1      -8.190   5.408  12.476  1.00  0.00     0.042 C 
ENDBRANCH  26  27
ENDBRANCH  25  26
ENDBRANCH  23  25
ENDBRANCH   1  23
BRANCH   4  31
HETATM   31  C13 UNL     1      -0.149   6.930  15.139  1.00  0.00     0.153 C 
HETATM   32  O1  UNL     1      -0.229   7.572  16.176  1.00  0.00    -0.649 OA
BRANCH  31  33
HETATM   33  O2  UNL     1       1.009   6.280  14.886  1.00  0.00    -0.776 OA
HETATM   34  H21 UNL     1       1.564   6.499  15.664  1.00  0.00     0.167 HD
ENDBRANCH  31  33
ENDBRANCH   4  31
TORSDOF 6
ENDMDL
MODEL 2
REMARK minimizedAffinity -8.33940983
REMARK CNNscore 0.332156092
REMARK CNNaffinity 6.32925844
REMARK  6 active torsions:
REMARK  status: ('A' for Active; 'I' for Inactive)
REMARK    1  A    between atoms: C4_4  and  C5_5 
REMARK    2  A    between atoms: C5_5  and  C6_6 
REMARK    3  A    between atoms: C6_6  and  C7_7 
REMARK    4  A    between atoms: C7_7  and  C9_9 
REMARK    5  A    between atoms: C12_12  and  C13_13 
REMARK    6  A    between atoms: C13_13  and  O2_15 
ROOT
HETATM    1  C9  UNL     1      -2.158   9.088  16.098  1.00  0.00    -0.001 C 
HETATM    2  C10 UNL     1      -3.222   9.724  15.169  1.00  0.00     0.007 C 
HETATM    3  C11 UNL     1      -2.692   9.562  13.726  1.00  0.00     0.026 C 
HETATM    4  C12 UNL     1      -1.526   8.551  13.842  1.00  0.00     0.076 C 
HETATM    5  C14 UNL     1      -0.460   8.488  12.759  1.00  0.00    -0.057 C 
HETATM    6  C15 UNL     1       0.805   8.094  13.046  1.00  0.00    -0.067 C 
HETATM    7  C16 UNL     1       1.187   7.714  14.494  1.00  0.00     0.036 C 
HETATM    8  C17 UNL     1       0.189   8.028  15.634  1.00  0.00     0.015 C 
HETATM    9  C18 UNL     1      -0.890   9.022  15.198  1.00  0.00    -0.018 C 
HETATM   10  C19 UNL     1      -0.196  10.417  15.105  1.00  0.00     0.017 C 
HETATM   11  C20 UNL     1       1.941   8.075  11.972  1.00  0.00    -0.015 C 
HETATM   12  C21 UNL     1       2.901   9.240  12.346  1.00  0.00     0.020 C 
HETATM   13  C22 UNL     1       2.748   6.746  12.041  1.00  0.00     0.021 C 
HETATM   14  C23 UNL     1       2.188   5.672  11.128  1.00  0.00     0.080 C 
HETATM   15  C24 UNL     1       2.340   6.091   9.684  1.00  0.00     0.135 C 
HETATM   16  O3  UNL     1       2.537   5.241   8.812  1.00  0.00    -0.297 OA
HETATM   17  C25 UNL     1       2.240   7.586   9.353  1.00  0.00     0.018 C 
HETATM   18  C26 UNL     1       3.669   8.143   9.188  1.00  0.00     0.023 C 
HETATM   19  C27 UNL     1       1.563   7.727   7.967  1.00  0.00     0.023 C 
HETATM   20  C28 UNL     1       1.431   8.341  10.480  1.00  0.00     0.013 C 
HETATM   21  C29 UNL     1      -0.085   8.089  10.333  1.00  0.00     0.011 C 
HETATM   22  C30 UNL     1      -0.896   8.837  11.371  1.00  0.00     0.036 C 
ENDROOT
BRANCH   1  23
HETATM   23  C7  UNL     1      -2.038   9.681  17.532  1.00  0.00    -0.014 C 
HETATM   24  C8  UNL     1      -3.398  10.297  17.910  1.00  0.00     0.010 C 
BRANCH  23  25
HETATM   25  C6  UNL     1      -0.917  10.733  17.724  1.00  0.00     0.008 C 
BRANCH  25  26
HETATM   26  C5  UNL     1      -0.841  11.339  19.136  1.00  0.00     0.028 C 
BRANCH  26  27
HETATM   27  C4  UNL     1       0.295  10.813  19.969  1.00  0.00    -0.025 C 
HETATM   28  C2  UNL     1       1.283  11.506  20.571  1.00  0.00    -0.091 C 
HETATM   29  C1  UNL     1       1.463  12.998  20.518  1.00  0.00     0.042 C 
HETATM   30  C3  UNL     1       2.338  10.787  21.373  1.00  0.00     0.042 C 
ENDBRANCH  26  27
ENDBRANCH  25  26
ENDBRANCH  23  25
ENDBRANCH   1  23
BRANCH   4  31
HETATM   31  C13 UNL     1      -2.126   7.111  13.851  1.00  0.00     0.153 C 
HETATM   32  O1  UNL     1      -1.693   6.117  14.415  1.00  0.00    -0.649 OA
BRANCH  31  33
HETATM   33  O2  UNL     1      -3.218   6.967  13.067  1.00  0.00    -0.776 OA
HETATM   34  H21 UNL     1      -3.423   6.012  13.140  1.00  0.00     0.167 HD
ENDBRANCH  31  33
ENDBRANCH   4  31
TORSDOF 6
ENDMDL
MODEL 3
REMARK minimizedAffinity -7.24021673
REMARK CNNscore 0.292566508
REMARK CNNaffinity 5.62274551
REMARK  6 active torsions:
REMARK  status: ('A' for Active; 'I' for Inactive)
REMARK    1  A    between atoms: C4_4  and  C5_5 
REMARK    2  A    between atoms: C5_5  and  C6_6 
REMARK    3  A    between atoms: C6_6  and  C7_7 
REMARK    4  A    between atoms: C7_7  and  C9_9 
REMARK    5  A    between atoms: C12_12  and  C13_13 
REMARK    6  A    between atoms: C13_13  and  O2_15 
ROOT
HETATM    1  C9  UNL     1       5.012  11.998  22.083  1.00  0.00    -0.001 C 
HETATM    2  C10 UNL     1       4.484  10.640  22.607  1.00  0.00     0.007 C 
HETATM    3  C11 UNL     1       3.096  10.433  21.959  1.00  0.00     0.026 C 
HETATM    4  C12 UNL     1       3.021  11.496  20.836  1.00  0.00     0.076 C 
HETATM    5  C14 UNL     1       1.670  11.934  20.290  1.00  0.00    -0.057 C 
HETATM    6  C15 UNL     1       1.493  13.178  19.781  1.00  0.00    -0.067 C 
HETATM    7  C16 UNL     1       2.668  14.181  19.762  1.00  0.00     0.036 C 
HETATM    8  C17 UNL     1       3.955  13.834  20.549  1.00  0.00     0.015 C 
HETATM    9  C18 UNL     1       3.730  12.700  21.551  1.00  0.00    -0.018 C 
HETATM   10  C19 UNL     1       2.893  13.303  22.723  1.00  0.00     0.017 C 
HETATM   11  C20 UNL     1       0.106  13.683  19.267  1.00  0.00    -0.015 C 
HETATM   12  C21 UNL     1      -0.378  14.734  20.306  1.00  0.00     0.020 C 
HETATM   13  C22 UNL     1       0.250  14.398  17.892  1.00  0.00     0.021 C 
HETATM   14  C23 UNL     1       0.078  13.453  16.718  1.00  0.00     0.080 C 
HETATM   15  C24 UNL     1      -1.338  12.926  16.683  1.00  0.00     0.135 C 
HETATM   16  O3  UNL     1      -1.877  12.675  15.603  1.00  0.00    -0.297 OA
HETATM   17  C25 UNL     1      -2.063  12.718  18.020  1.00  0.00     0.018 C 
HETATM   18  C26 UNL     1      -3.003  13.918  18.254  1.00  0.00     0.023 C 
HETATM   19  C27 UNL     1      -2.980  11.478  17.880  1.00  0.00     0.023 C 
HETATM   20  C28 UNL     1      -1.014  12.544  19.188  1.00  0.00     0.013 C 
HETATM   21  C29 UNL     1      -0.399  11.128  19.169  1.00  0.00     0.011 C 
HETATM   22  C30 UNL     1       0.579  10.911  20.305  1.00  0.00     0.036 C 
ENDROOT
BRANCH   1  23
HETATM   23  C7  UNL     1       5.970  12.785  23.025  1.00  0.00    -0.014 C 
HETATM   24  C8  UNL     1       6.259  14.153  22.378  1.00  0.00     0.010 C 
BRANCH  23  25
HETATM   25  C6  UNL     1       7.305  12.074  23.360  1.00  0.00     0.008 C 
BRANCH  25  26
HETATM   26  C5  UNL     1       8.564  12.919  23.101  1.00  0.00     0.028 C 
BRANCH  26  27
HETATM   27  C4  UNL     1       9.486  12.345  22.061  1.00  0.00    -0.025 C 
HETATM   28  C2  UNL     1      10.006  12.953  20.976  1.00  0.00    -0.091 C 
HETATM   29  C1  UNL     1       9.752  14.377  20.564  1.00  0.00     0.042 C 
HETATM   30  C3  UNL     1      10.923  12.198  20.046  1.00  0.00     0.042 C 
ENDBRANCH  26  27
ENDBRANCH  25  26
ENDBRANCH  23  25
ENDBRANCH   1  23
BRANCH   4  31
HETATM   31  C13 UNL     1       3.760  10.935  19.581  1.00  0.00     0.153 C 
HETATM   32  O1  UNL     1       3.273  10.553  18.528  1.00  0.00    -0.649 OA
BRANCH  31  33
HETATM   33  O2  UNL     1       5.095  10.804  19.745  1.00  0.00    -0.776 OA
HETATM   34  H21 UNL     1       5.385  10.392  18.905  1.00  0.00     0.167 HD
ENDBRANCH  31  33
ENDBRANCH   4  31
TORSDOF 6
ENDMDL
MODEL 4
REMARK minimizedAffinity -6.97009659
REMARK CNNscore 0.284748137
REMARK CNNaffinity 5.2164793
REMARK  6 active torsions:
REMARK  status: ('A' for Active; 'I' for Inactive)
REMARK    1  A    between atoms: C4_4  and  C5_5 
REMARK    2  A    between atoms: C5_5  and  C6_6 
REMARK    3  A    between atoms: C6_6  and  C7_7 
REMARK    4  A    between atoms: C7_7  and  C9_9 
REMARK    5  A    between atoms: C12_12  and  C13_13 
REMARK    6  A    between atoms: C13_13  and  O2_15 
ROOT
HETATM    1  C9  UNL     1       6.431   8.306  13.861  1.00  0.00    -0.001 C 
HETATM    2  C10 UNL     1       7.756   7.819  13.224  1.00  0.00     0.007 C 
HETATM    3  C11 UNL     1       8.887   8.626  13.901  1.00  0.00     0.026 C 
HETATM    4  C12 UNL     1       8.218   9.293  15.128  1.00  0.00     0.076 C 
HETATM    5  C14 UNL     1       8.849  10.520  15.767  1.00  0.00    -0.057 C 
HETATM    6  C15 UNL     1       8.090  11.444  16.406  1.00  0.00    -0.067 C 
HETATM    7  C16 UNL     1       6.557  11.267  16.481  1.00  0.00     0.036 C 
HETATM    8  C17 UNL     1       5.891  10.172  15.613  1.00  0.00     0.015 C 
HETATM    9  C18 UNL     1       6.823   9.664  14.510  1.00  0.00    -0.018 C 
HETATM   10  C19 UNL     1       6.901  10.796  13.439  1.00  0.00     0.017 C 
HETATM   11  C20 UNL     1       8.696  12.746  17.022  1.00  0.00    -0.015 C 
HETATM   12  C21 UNL     1       8.214  13.913  16.113  1.00  0.00     0.020 C 
HETATM   13  C22 UNL     1       8.142  12.993  18.455  1.00  0.00     0.021 C 
HETATM   14  C23 UNL     1       9.003  12.363  19.533  1.00  0.00     0.080 C 
HETATM   15  C24 UNL     1      10.356  13.032  19.570  1.00  0.00     0.135 C 
HETATM   16  O3  UNL     1      10.960  13.149  20.640  1.00  0.00    -0.297 OA
HETATM   17  C25 UNL     1      10.941  13.549  18.248  1.00  0.00     0.018 C 
HETATM   18  C26 UNL     1      10.700  15.070  18.174  1.00  0.00     0.023 C 
HETATM   19  C27 UNL     1      12.478  13.361  18.297  1.00  0.00     0.023 C 
HETATM   20  C28 UNL     1      10.295  12.781  17.029  1.00  0.00     0.013 C 
HETATM   21  C29 UNL     1      10.905  11.370  16.881  1.00  0.00     0.011 C 
HETATM   22  C30 UNL     1      10.340  10.622  15.691  1.00  0.00     0.036 C 
ENDROOT
BRANCH   1  23
HETATM   23  C7  UNL     1       5.158   8.234  12.967  1.00  0.00    -0.014 C 
HETATM   24  C8  UNL     1       3.940   8.024  13.886  1.00  0.00     0.010 C 
BRANCH  23  25
HETATM   25  C6  UNL     1       5.178   7.142  11.869  1.00  0.00     0.008 C 
BRANCH  25  26
HETATM   26  C5  UNL     1       5.370   7.673  10.438  1.00  0.00     0.028 C 
BRANCH  26  27
HETATM   27  C4  UNL     1       4.105   8.158   9.787  1.00  0.00    -0.025 C 
HETATM   28  C2  UNL     1       3.141   7.431   9.187  1.00  0.00    -0.091 C 
HETATM   29  C1  UNL     1       3.141   5.935   9.030  1.00  0.00     0.042 C 
HETATM   30  C3  UNL     1       1.934   8.112   8.591  1.00  0.00     0.042 C 
ENDBRANCH  26  27
ENDBRANCH  25  26
ENDBRANCH  23  25
ENDBRANCH   1  23
BRANCH   4  31
HETATM   31  C13 UNL     1       8.179   8.252  16.289  1.00  0.00     0.153 C 
HETATM   32  O1  UNL     1       9.121   7.701  16.839  1.00  0.00    -0.649 OA
BRANCH  31  33
HETATM   33  O2  UNL     1       6.931   7.886  16.656  1.00  0.00    -0.776 OA
HETATM   34  H21 UNL     1       7.089   7.200  17.337  1.00  0.00     0.167 HD
ENDBRANCH  31  33
ENDBRANCH   4  31
TORSDOF 6
ENDMDL
MODEL 5
REMARK minimizedAffinity -7.84739304
REMARK CNNscore 0.237564087
REMARK CNNaffinity 6.0667038
REMARK  6 active torsions:
REMARK  status: ('A' for Active; 'I' for Inactive)
REMARK    1  A    between atoms: C4_4  and  C5_5 
REMARK    2  A    between atoms: C5_5  and  C6_6 
REMARK    3  A    between atoms: C6_6  and  C7_7 
REMARK    4  A    between atoms: C7_7  and  C9_9 
REMARK    5  A    between atoms: C12_12  and  C13_13 
REMARK    6  A    between atoms: C13_13  and  O2_15 
ROOT
HETATM    1  C9  UNL     1      -2.872   8.409  15.116  1.00  0.00    -0.001 C 
HETATM    2  C10 UNL     1      -3.846   8.883  14.009  1.00  0.00     0.007 C 
HETATM    3  C11 UNL     1      -3.058   8.821  12.680  1.00  0.00     0.026 C 
HETATM    4  C12 UNL     1      -1.787   8.001  13.011  1.00  0.00     0.076 C 
HETATM    5  C14 UNL     1      -0.554   8.117  12.128  1.00  0.00    -0.057 C 
HETATM    6  C15 UNL     1       0.689   7.920  12.635  1.00  0.00    -0.067 C 
HETATM    7  C16 UNL     1       0.870   7.588  14.132  1.00  0.00     0.036 C 
HETATM    8  C17 UNL     1      -0.346   7.730  15.079  1.00  0.00     0.015 C 
HETATM    9  C18 UNL     1      -1.474   8.551  14.449  1.00  0.00    -0.018 C 
HETATM   10  C19 UNL     1      -0.998  10.037  14.453  1.00  0.00     0.017 C 
HETATM   11  C20 UNL     1       1.981   8.089  11.771  1.00  0.00    -0.015 C 
HETATM   12  C21 UNL     1       2.671   9.384  12.286  1.00  0.00     0.020 C 
HETATM   13  C22 UNL     1       2.959   6.900  11.999  1.00  0.00     0.021 C 
HETATM   14  C23 UNL     1       2.738   5.763  11.021  1.00  0.00     0.080 C 
HETATM   15  C24 UNL     1       3.070   6.216   9.618  1.00  0.00     0.135 C 
HETATM   16  O3  UNL     1       3.542   5.416   8.806  1.00  0.00    -0.297 OA
HETATM   17  C25 UNL     1       2.798   7.681   9.251  1.00  0.00     0.018 C 
HETATM   18  C26 UNL     1       4.130   8.454   9.324  1.00  0.00     0.023 C 
HETATM   19  C27 UNL     1       2.356   7.730   7.767  1.00  0.00     0.023 C 
HETATM   20  C28 UNL     1       1.700   8.289  10.210  1.00  0.00     0.013 C 
HETATM   21  C29 UNL     1       0.290   7.807   9.809  1.00  0.00     0.011 C 
HETATM   22  C30 UNL     1      -0.793   8.408  10.681  1.00  0.00     0.036 C 
ENDROOT
BRANCH   1  23
HETATM   23  C7  UNL     1      -3.094   8.998  16.540  1.00  0.00    -0.014 C 
HETATM   24  C8  UNL     1      -4.228  10.037  16.456  1.00  0.00     0.010 C 
BRANCH  23  25
HETATM   25  C6  UNL     1      -1.845   9.640  17.195  1.00  0.00     0.008 C 
BRANCH  25  26
HETATM   26  C5  UNL     1      -2.107  10.310  18.555  1.00  0.00     0.028 C 
BRANCH  26  27
HETATM   27  C4  UNL     1      -1.923  11.802  18.552  1.00  0.00    -0.025 C 
HETATM   28  C2  UNL     1      -2.823  12.757  18.862  1.00  0.00    -0.091 C 
HETATM   29  C1  UNL     1      -4.248  12.516  19.279  1.00  0.00     0.042 C 
HETATM   30  C3  UNL     1      -2.439  14.214  18.799  1.00  0.00     0.042 C 
ENDBRANCH  26  27
ENDBRANCH  25  26
ENDBRANCH  23  25
ENDBRANCH   1  23
BRANCH   4  31
HETATM   31  C13 UNL     1      -2.150   6.486  12.940  1.00  0.00     0.153 C 
HETATM   32  O1  UNL     1      -1.416   5.526  13.121  1.00  0.00    -0.649 OA
BRANCH  31  33
HETATM   33  O2  UNL     1      -3.423   6.245  12.556  1.00  0.00    -0.776 OA
HETATM   34  H21 UNL     1      -3.462   5.267  12.506  1.00  0.00     0.167 HD
ENDBRANCH  31  33
ENDBRANCH   4  31
TORSDOF 6
ENDMDL
MODEL 6
REMARK minimizedAffinity -7.33913851
REMARK CNNscore 0.212564036
REMARK CNNaffinity 6.03826475
REMARK  6 active torsions:
REMARK  status: ('A' for Active; 'I' for Inactive)
REMARK    1  A    between atoms: C4_4  and  C5_5 
REMARK    2  A    between atoms: C5_5  and  C6_6 
REMARK    3  A    between atoms: C6_6  and  C7_7 
REMARK    4  A    between atoms: C7_7  and  C9_9 
REMARK    5  A    between atoms: C12_12  and  C13_13 
REMARK    6  A    between atoms: C13_13  and  O2_15 
ROOT
HETATM    1  C9  UNL     1      -1.266   6.987  13.605  1.00  0.00    -0.001 C 
HETATM    2  C10 UNL     1      -2.635   6.968  12.882  1.00  0.00     0.007 C 
HETATM    3  C11 UNL     1      -3.473   8.108  13.506  1.00  0.00     0.026 C 
HETATM    4  C12 UNL     1      -2.456   8.951  14.314  1.00  0.00     0.076 C 
HETATM    5  C14 UNL     1      -2.939   9.858  15.436  1.00  0.00    -0.057 C 
HETATM    6  C15 UNL     1      -2.141  10.144  16.494  1.00  0.00    -0.067 C 
HETATM    7  C16 UNL     1      -0.724   9.536  16.582  1.00  0.00     0.036 C 
HETATM    8  C17 UNL     1      -0.333   8.415  15.589  1.00  0.00     0.015 C 
HETATM    9  C18 UNL     1      -1.554   7.805  14.897  1.00  0.00    -0.018 C 
HETATM   10  C19 UNL     1      -2.279   6.930  15.966  1.00  0.00     0.017 C 
HETATM   11  C20 UNL     1      -2.624  11.024  17.693  1.00  0.00    -0.015 C 
HETATM   12  C21 UNL     1      -2.787  10.051  18.896  1.00  0.00     0.020 C 
HETATM   13  C22 UNL     1      -1.548  12.082  18.073  1.00  0.00     0.021 C 
HETATM   14  C23 UNL     1      -1.734  13.397  17.340  1.00  0.00     0.080 C 
HETATM   15  C24 UNL     1      -3.026  14.050  17.771  1.00  0.00     0.135 C 
HETATM   16  O3  UNL     1      -3.111  15.280  17.817  1.00  0.00    -0.297 OA
HETATM   17  C25 UNL     1      -4.206  13.141  18.141  1.00  0.00     0.018 C 
HETATM   18  C26 UNL     1      -4.277  13.040  19.678  1.00  0.00     0.023 C 
HETATM   19  C27 UNL     1      -5.512  13.845  17.697  1.00  0.00     0.023 C 
HETATM   20  C28 UNL     1      -4.040  11.727  17.456  1.00  0.00     0.013 C 
HETATM   21  C29 UNL     1      -4.410  11.794  15.959  1.00  0.00     0.011 C 
HETATM   22  C30 UNL     1      -4.306  10.443  15.281  1.00  0.00     0.036 C 
ENDROOT
BRANCH   1  23
HETATM   23  C7  UNL     1      -0.519   5.626  13.723  1.00  0.00    -0.014 C 
HETATM   24  C8  UNL     1       0.954   5.917  14.066  1.00  0.00     0.010 C 
BRANCH  23  25
HETATM   25  C6  UNL     1      -0.594   4.717  12.471  1.00  0.00     0.008 C 
BRANCH  25  26
HETATM   26  C5  UNL     1       0.424   5.059  11.369  1.00  0.00     0.028 C 
BRANCH  26  27
HETATM   27  C4  UNL     1       0.105   6.313  10.605  1.00  0.00    -0.025 C 
HETATM   28  C2  UNL     1       0.839   6.924   9.653  1.00  0.00    -0.091 C 
HETATM   29  C1  UNL     1       2.180   6.463   9.151  1.00  0.00     0.042 C 
HETATM   30  C3  UNL     1       0.338   8.186   8.998  1.00  0.00     0.042 C 
ENDBRANCH  26  27
ENDBRANCH  25  26
ENDBRANCH  23  25
ENDBRANCH   1  23
BRANCH   4  31
HETATM   31  C13 UNL     1      -1.742   9.929  13.331  1.00  0.00     0.153 C 
HETATM   32  O1  UNL     1      -1.269   9.681  12.232  1.00  0.00    -0.649 OA
BRANCH  31  33
HETATM   33  O2  UNL     1      -1.581  11.178  13.822  1.00  0.00    -0.776 OA
HETATM   34  H21 UNL     1      -1.074  11.633  13.117  1.00  0.00     0.167 HD
ENDBRANCH  31  33
ENDBRANCH   4  31
TORSDOF 6
ENDMDL
MODEL 7
REMARK minimizedAffinity -6.60586119
REMARK CNNscore 0.187572986
REMARK CNNaffinity 5.2017808
REMARK  6 active torsions:
REMARK  status: ('A' for Active; 'I' for Inactive)
REMARK    1  A    between atoms: C4_4  and  C5_5 
REMARK    2  A    between atoms: C5_5  and  C6_6 
REMARK    3  A    between atoms: C6_6  and  C7_7 
REMARK    4  A    between atoms: C7_7  and  C9_9 
REMARK    5  A    between atoms: C12_12  and  C13_13 
REMARK    6  A    between atoms: C13_13  and  O2_15 
ROOT
HETATM    1  C9  UNL     1       5.666   8.225  13.605  1.00  0.00    -0.001 C 
HETATM    2  C10 UNL     1       6.496   7.015  13.110  1.00  0.00     0.007 C 
HETATM    3  C11 UNL     1       7.982   7.417  13.259  1.00  0.00     0.026 C 
HETATM    4  C12 UNL     1       7.962   8.689  14.141  1.00  0.00     0.076 C 
HETATM    5  C14 UNL     1       9.144   9.646  14.125  1.00  0.00    -0.057 C 
HETATM    6  C15 UNL     1       8.976  10.968  14.378  1.00  0.00    -0.067 C 
HETATM    7  C16 UNL     1       7.566  11.526  14.674  1.00  0.00     0.036 C 
HETATM    8  C17 UNL     1       6.339  10.614  14.431  1.00  0.00     0.015 C 
HETATM    9  C18 UNL     1       6.685   9.400  13.566  1.00  0.00    -0.018 C 
HETATM   10  C19 UNL     1       6.874   9.931  12.111  1.00  0.00     0.017 C 
HETATM   11  C20 UNL     1      10.157  11.990  14.312  1.00  0.00    -0.015 C 
HETATM   12  C21 UNL     1       9.902  12.853  13.044  1.00  0.00     0.020 C 
HETATM   13  C22 UNL     1      10.142  12.935  15.549  1.00  0.00     0.021 C 
HETATM   14  C23 UNL     1      10.974  12.406  16.701  1.00  0.00     0.080 C 
HETATM   15  C24 UNL     1      12.434  12.373  16.312  1.00  0.00     0.135 C 
HETATM   16  O3  UNL     1      13.304  12.573  17.163  1.00  0.00    -0.297 OA
HETATM   17  C25 UNL     1      12.782  12.085  14.846  1.00  0.00     0.018 C 
HETATM   18  C26 UNL     1      13.100  13.424  14.150  1.00  0.00     0.023 C 
HETATM   19  C27 UNL     1      14.097  11.266  14.817  1.00  0.00     0.023 C 
HETATM   20  C28 UNL     1      11.595  11.313  14.145  1.00  0.00     0.013 C 
HETATM   21  C29 UNL     1      11.587   9.825  14.556  1.00  0.00     0.011 C 
HETATM   22  C30 UNL     1      10.488   9.044  13.865  1.00  0.00     0.036 C 
ENDROOT
BRANCH   1  23
HETATM   23  C7  UNL     1       4.262   8.420  12.960  1.00  0.00    -0.014 C 
HETATM   24  C8  UNL     1       3.201   8.250  14.063  1.00  0.00     0.010 C 
BRANCH  23  25
HETATM   25  C6  UNL     1       3.939   7.475  11.775  1.00  0.00     0.008 C 
BRANCH  25  26
HETATM   26  C5  UNL     1       4.578   7.883  10.437  1.00  0.00     0.028 C 
BRANCH  26  27
HETATM   27  C4  UNL     1       3.588   8.147   9.337  1.00  0.00    -0.025 C 
HETATM   28  C2  UNL     1       2.908   7.254   8.590  1.00  0.00    -0.091 C 
HETATM   29  C1  UNL     1       3.015   5.758   8.700  1.00  0.00     0.042 C 
HETATM   30  C3  UNL     1       1.948   7.725   7.527  1.00  0.00     0.042 C 
ENDBRANCH  26  27
ENDBRANCH  25  26
ENDBRANCH  23  25
ENDBRANCH   1  23
BRANCH   4  31
HETATM   31  C13 UNL     1       7.865   8.248  15.634  1.00  0.00     0.153 C 
HETATM   32  O1  UNL     1       7.102   8.661  16.494  1.00  0.00    -0.649 OA
BRANCH  31  33
HETATM   33  O2  UNL     1       8.806   7.349  16.002  1.00  0.00    -0.776 OA
HETATM   34  H21 UNL     1       8.642   7.231  16.961  1.00  0.00     0.167 HD
ENDBRANCH  31  33
ENDBRANCH   4  31
TORSDOF 6
ENDMDL
MODEL 8
REMARK minimizedAffinity -7.76512289
REMARK CNNscore 0.185481429
REMARK CNNaffinity 5.86658859
REMARK  6 active torsions:
REMARK  status: ('A' for Active; 'I' for Inactive)
REMARK    1  A    between atoms: C4_4  and  C5_5 
REMARK    2  A    between atoms: C5_5  and  C6_6 
REMARK    3  A    between atoms: C6_6  and  C7_7 
REMARK    4  A    between atoms: C7_7  and  C9_9 
REMARK    5  A    between atoms: C12_12  and  C13_13 
REMARK    6  A    between atoms: C13_13  and  O2_15 
ROOT
HETATM    1  C9  UNL     1      -2.966   8.828  14.594  1.00  0.00    -0.001 C 
HETATM    2  C10 UNL     1      -1.926   8.725  13.452  1.00  0.00     0.007 C 
HETATM    3  C11 UNL     1      -0.598   9.276  14.021  1.00  0.00     0.026 C 
HETATM    4  C12 UNL     1      -0.826   9.356  15.551  1.00  0.00     0.076 C 
HETATM    5  C14 UNL     1       0.039  10.272  16.403  1.00  0.00    -0.057 C 
HETATM    6  C15 UNL     1      -0.438  10.814  17.551  1.00  0.00    -0.067 C 
HETATM    7  C16 UNL     1      -1.885  10.516  18.004  1.00  0.00     0.036 C 
HETATM    8  C17 UNL     1      -2.844   9.809  17.016  1.00  0.00     0.015 C 
HETATM    9  C18 UNL     1      -2.319   9.843  15.579  1.00  0.00    -0.018 C 
HETATM   10  C19 UNL     1      -2.501  11.309  15.075  1.00  0.00     0.017 C 
HETATM   11  C20 UNL     1       0.400  11.806  18.421  1.00  0.00    -0.015 C 
HETATM   12  C21 UNL     1      -0.265  13.200  18.239  1.00  0.00     0.020 C 
HETATM   13  C22 UNL     1       0.319  11.428  19.928  1.00  0.00     0.021 C 
HETATM   14  C23 UNL     1       1.427  10.485  20.357  1.00  0.00     0.080 C 
HETATM   15  C24 UNL     1       2.765  11.177  20.249  1.00  0.00     0.135 C 
HETATM   16  O3  UNL     1       3.668  10.903  21.043  1.00  0.00    -0.297 OA
HETATM   17  C25 UNL     1       2.953  12.213  19.132  1.00  0.00     0.018 C 
HETATM   18  C26 UNL     1       2.790  13.619  19.742  1.00  0.00     0.023 C 
HETATM   19  C27 UNL     1       4.419  12.128  18.640  1.00  0.00     0.023 C 
HETATM   20  C28 UNL     1       1.926  11.945  17.962  1.00  0.00     0.013 C 
HETATM   21  C29 UNL     1       2.380  10.754  17.092  1.00  0.00     0.011 C 
HETATM   22  C30 UNL     1       1.440  10.498  15.932  1.00  0.00     0.036 C 
ENDROOT
BRANCH   1  23
HETATM   23  C7  UNL     1      -4.451   9.027  14.171  1.00  0.00    -0.014 C 
HETATM   24  C8  UNL     1      -5.316   9.027  15.446  1.00  0.00     0.010 C 
BRANCH  23  25
HETATM   25  C6  UNL     1      -5.002   7.984  13.167  1.00  0.00     0.008 C 
BRANCH  25  26
HETATM   26  C5  UNL     1      -6.099   7.066  13.732  1.00  0.00     0.028 C 
BRANCH  26  27
HETATM   27  C4  UNL     1      -5.909   5.610  13.411  1.00  0.00    -0.025 C 
HETATM   28  C2  UNL     1      -6.774   4.763  12.818  1.00  0.00    -0.091 C 
HETATM   29  C1  UNL     1      -8.161   5.113  12.352  1.00  0.00     0.042 C 
HETATM   30  C3  UNL     1      -6.390   3.325  12.578  1.00  0.00     0.042 C 
ENDBRANCH  26  27
ENDBRANCH  25  26
ENDBRANCH  23  25
ENDBRANCH   1  23
BRANCH   4  31
HETATM   31  C13 UNL     1      -0.573   7.942  16.158  1.00  0.00     0.153 C 
HETATM   32  O1  UNL     1       0.492   7.360  16.295  1.00  0.00    -0.649 OA
BRANCH  31  33
HETATM   33  O2  UNL     1      -1.703   7.280  16.496  1.00  0.00    -0.776 OA
HETATM   34  H21 UNL     1      -1.371   6.408  16.796  1.00  0.00     0.167 HD
ENDBRANCH  31  33
ENDBRANCH   4  31
TORSDOF 6
ENDMDL
MODEL 9
REMARK minimizedAffinity -6.96382189
REMARK CNNscore 0.181472331
REMARK CNNaffinity 5.66138983
REMARK  6 active torsions:
REMARK  status: ('A' for Active; 'I' for Inactive)
REMARK    1  A    between atoms: C4_4  and  C5_5 
REMARK    2  A    between atoms: C5_5  and  C6_6 
REMARK    3  A    between atoms: C6_6  and  C7_7 
REMARK    4  A    between atoms: C7_7  and  C9_9 
REMARK    5  A    between atoms: C12_12  and  C13_13 
REMARK    6  A    between atoms: C13_13  and  O2_15 
ROOT
HETATM    1  C9  UNL     1     -17.157   2.589  14.734  1.00  0.00    -0.001 C 
HETATM    2  C10 UNL     1     -17.553   2.268  16.197  1.00  0.00     0.007 C 
HETATM    3  C11 UNL     1     -17.174   0.789  16.436  1.00  0.00     0.026 C 
HETATM    4  C12 UNL     1     -16.273   0.411  15.235  1.00  0.00     0.076 C 
HETATM    5  C14 UNL     1     -16.088  -1.049  14.850  1.00  0.00    -0.057 C 
HETATM    6  C15 UNL     1     -15.830  -1.406  13.568  1.00  0.00    -0.067 C 
HETATM    7  C16 UNL     1     -15.734  -0.325  12.469  1.00  0.00     0.036 C 
HETATM    8  C17 UNL     1     -16.180   1.119  12.803  1.00  0.00     0.015 C 
HETATM    9  C18 UNL     1     -17.014   1.182  14.085  1.00  0.00    -0.018 C 
HETATM   10  C19 UNL     1     -18.411   0.581  13.736  1.00  0.00     0.017 C 
HETATM   11  C20 UNL     1     -15.693  -2.899  13.126  1.00  0.00    -0.015 C 
HETATM   12  C21 UNL     1     -16.963  -3.211  12.283  1.00  0.00     0.020 C 
HETATM   13  C22 UNL     1     -14.450  -3.095  12.211  1.00  0.00     0.021 C 
HETATM   14  C23 UNL     1     -13.200  -3.457  12.990  1.00  0.00     0.080 C 
HETATM   15  C24 UNL     1     -13.368  -4.812  13.635  1.00  0.00     0.135 C 
HETATM   16  O3  UNL     1     -12.393  -5.554  13.779  1.00  0.00    -0.297 OA
HETATM   17  C25 UNL     1     -14.773  -5.221  14.098  1.00  0.00     0.018 C 
HETATM   18  C26 UNL     1     -15.380  -6.160  13.036  1.00  0.00     0.023 C 
HETATM   19  C27 UNL     1     -14.626  -6.070  15.385  1.00  0.00     0.023 C 
HETATM   20  C28 UNL     1     -15.662  -3.938  14.340  1.00  0.00     0.013 C 
HETATM   21  C29 UNL     1     -15.294  -3.257  15.676  1.00  0.00     0.011 C 
HETATM   22  C30 UNL     1     -16.161  -2.047  15.962  1.00  0.00     0.036 C 
ENDROOT
BRANCH   1  23
HETATM   23  C7  UNL     1     -17.999   3.676  14.005  1.00  0.00    -0.014 C 
HETATM   24  C8  UNL     1     -18.204   3.224  12.547  1.00  0.00     0.010 C 
BRANCH  23  25
HETATM   25  C6  UNL     1     -17.402   5.105  14.028  1.00  0.00     0.008 C 
BRANCH  25  26
HETATM   26  C5  UNL     1     -16.350   5.344  15.126  1.00  0.00     0.028 C 
BRANCH  26  27
HETATM   27  C4  UNL     1     -14.942   5.456  14.614  1.00  0.00    -0.025 C 
HETATM   28  C2  UNL     1     -14.039   6.430  14.851  1.00  0.00    -0.091 C 
HETATM   29  C1  UNL     1     -14.271   7.651  15.697  1.00  0.00     0.042 C 
HETATM   30  C3  UNL     1     -12.662   6.357  14.241  1.00  0.00     0.042 C 
ENDBRANCH  26  27
ENDBRANCH  25  26
ENDBRANCH  23  25
ENDBRANCH   1  23
BRANCH   4  31
HETATM   31  C13 UNL     1     -14.823   0.898  15.540  1.00  0.00     0.153 C 
HETATM   32  O1  UNL     1     -14.094   0.563  16.462  1.00  0.00    -0.649 OA
BRANCH  31  33
HETATM   33  O2  UNL     1     -14.381   1.861  14.702  1.00  0.00    -0.776 OA
HETATM   34  H21 UNL     1     -13.499   2.088  15.065  1.00  0.00     0.167 HD
ENDBRANCH  31  33
ENDBRANCH   4  31
TORSDOF 6
ENDMDL
