MODEL 1
REMARK minimizedAffinity -7.31322336
REMARK CNNscore 0.713039219
REMARK CNNaffinity 7.10529375
REMARK  7 active torsions:
REMARK  status: ('A' for Active; 'I' for Inactive)
REMARK    1  A    between atoms: C2_2  and  C30_32 
REMARK    2  A    between atoms: C3_3  and  C4_4 
REMARK    3  A    between atoms: C4_4  and  O1_5 
REMARK    4  A    between atoms: C4_4  and  C5_6 
REMARK    5  A    between atoms: C5_6  and  C6_7 
REMARK    6  A    between atoms: C6_7  and  C8_9 
REMARK    7  A    between atoms: C30_32  and  O3_33 
ROOT
HETATM    1  C8  UNL     1      -0.031  52.094 -10.902  1.00  0.00    -0.002 C 
HETATM    2  C9  UNL     1       1.036  51.042 -10.573  1.00  0.00     0.006 C 
HETATM    3  C10 UNL     1       1.396  51.345  -9.133  1.00  0.00     0.011 C 
HETATM    4  C11 UNL     1       1.588  52.876  -9.093  1.00  0.00    -0.032 C 
HETATM    5  C12 UNL     1       1.407  53.333  -7.632  1.00  0.00     0.016 C 
HETATM    6  C13 UNL     1       3.011  53.307  -9.631  1.00  0.00     0.004 C 
HETATM    7  C14 UNL     1       4.252  52.666  -8.991  1.00  0.00     0.007 C 
HETATM    8  C15 UNL     1       4.805  53.304  -7.727  1.00  0.00     0.007 C 
HETATM    9  C16 UNL     1       4.624  54.821  -7.537  1.00  0.00     0.010 C 
HETATM   10  C17 UNL     1       5.908  55.551  -7.013  1.00  0.00     0.018 C 
HETATM   11  C18 UNL     1       7.090  55.482  -7.995  1.00  0.00     0.023 C 
HETATM   12  C19 UNL     1       6.330  54.984  -5.645  1.00  0.00     0.023 C 
HETATM   13  C20 UNL     1       5.595  57.039  -6.793  1.00  0.00     0.135 C 
HETATM   14  O2  UNL     1       6.453  57.840  -6.414  1.00  0.00    -0.297 OA
HETATM   15  C21 UNL     1       4.165  57.482  -6.961  1.00  0.00     0.080 C 
HETATM   16  C22 UNL     1       3.608  57.036  -8.303  1.00  0.00     0.018 C 
HETATM   17  C23 UNL     1       3.986  55.599  -8.686  1.00  0.00    -0.026 A 
HETATM   18  C24 UNL     1       4.465  55.414 -10.111  1.00  0.00     0.021 A 
HETATM   19  C25 UNL     1       3.123  54.834  -9.710  1.00  0.00    -0.027 A 
HETATM   20  C26 UNL     1       1.884  55.504 -10.285  1.00  0.00     0.011 C 
HETATM   21  C27 UNL     1       1.005  54.508 -11.039  1.00  0.00     0.011 C 
HETATM   22  C28 UNL     1       0.445  53.394 -10.112  1.00  0.00    -0.032 C 
HETATM   23  C29 UNL     1      -0.792  53.959  -9.366  1.00  0.00     0.016 C 
ENDROOT
BRANCH   1  24
HETATM   24  C6  UNL     1      -0.359  52.195 -12.429  1.00  0.00    -0.011 C 
HETATM   25  C7  UNL     1      -1.874  52.228 -12.669  1.00  0.00     0.010 C 
BRANCH  24  26
HETATM   26  C5  UNL     1       0.275  51.016 -13.226  1.00  0.00     0.040 C 
BRANCH  26  27
HETATM   27  C4  UNL     1       1.428  51.398 -14.173  1.00  0.00     0.141 C 
BRANCH  27  28
HETATM   28  C3  UNL     1       0.907  51.649 -15.565  1.00  0.00     0.009 C 
HETATM   29  C2  UNL     1       1.530  52.250 -16.601  1.00  0.00    -0.062 C 
HETATM   30  C1  UNL     1       2.929  52.809 -16.566  1.00  0.00     0.045 C 
BRANCH  29  31
HETATM   31  C30 UNL     1       0.829  52.414 -17.925  1.00  0.00     0.198 C 
BRANCH  31  32
HETATM   32  O3  UNL     1       1.583  53.308 -18.730  1.00  0.00    -0.397 OA
HETATM   33  H48 UNL     1       1.120  53.376 -19.583  1.00  0.00     0.209 HD
ENDBRANCH  31  32
ENDBRANCH  29  31
ENDBRANCH  27  28
BRANCH  27  34
HETATM   34  O1  UNL     1       2.368  50.327 -14.220  1.00  0.00    -0.392 OA
HETATM   35  H6  UNL     1       2.452  50.028 -15.144  1.00  0.00     0.210 HD
ENDBRANCH  27  34
ENDBRANCH  26  27
ENDBRANCH  24  26
ENDBRANCH   1  24
TORSDOF 7
ENDMDL
MODEL 2
REMARK minimizedAffinity -7.75315094
REMARK CNNscore 0.62137866
REMARK CNNaffinity 6.41126108
REMARK  7 active torsions:
REMARK  status: ('A' for Active; 'I' for Inactive)
REMARK    1  A    between atoms: C2_2  and  C30_32 
REMARK    2  A    between atoms: C3_3  and  C4_4 
REMARK    3  A    between atoms: C4_4  and  O1_5 
REMARK    4  A    between atoms: C4_4  and  C5_6 
REMARK    5  A    between atoms: C5_6  and  C6_7 
REMARK    6  A    between atoms: C6_7  and  C8_9 
REMARK    7  A    between atoms: C30_32  and  O3_33 
ROOT
HETATM    1  C8  UNL     1       5.809  56.322  -7.728  1.00  0.00    -0.002 C 
HETATM    2  C9  UNL     1       6.329  55.162  -8.588  1.00  0.00     0.006 C 
HETATM    3  C10 UNL     1       5.553  55.307  -9.880  1.00  0.00     0.011 C 
HETATM    4  C11 UNL     1       4.091  55.524  -9.435  1.00  0.00    -0.032 C 
HETATM    5  C12 UNL     1       3.345  56.215 -10.594  1.00  0.00     0.016 C 
HETATM    6  C13 UNL     1       3.381  54.162  -9.060  1.00  0.00     0.004 C 
HETATM    7  C14 UNL     1       3.387  53.031 -10.100  1.00  0.00     0.007 C 
HETATM    8  C15 UNL     1       2.291  53.032 -11.153  1.00  0.00     0.007 C 
HETATM    9  C16 UNL     1       0.923  53.633 -10.782  1.00  0.00     0.010 C 
HETATM   10  C17 UNL     1      -0.297  52.772 -11.258  1.00  0.00     0.018 C 
HETATM   11  C18 UNL     1      -0.356  51.384 -10.597  1.00  0.00     0.023 C 
HETATM   12  C19 UNL     1      -0.283  52.622 -12.791  1.00  0.00     0.023 C 
HETATM   13  C20 UNL     1      -1.603  53.496 -10.899  1.00  0.00     0.135 C 
HETATM   14  O2  UNL     1      -2.710  53.008 -11.138  1.00  0.00    -0.297 OA
HETATM   15  C21 UNL     1      -1.494  54.885 -10.327  1.00  0.00     0.080 C 
HETATM   16  C22 UNL     1      -0.550  54.914  -9.135  1.00  0.00     0.018 C 
HETATM   17  C23 UNL     1       0.731  54.097  -9.339  1.00  0.00    -0.026 A 
HETATM   18  C24 UNL     1       1.124  53.208  -8.177  1.00  0.00     0.021 A 
HETATM   19  C25 UNL     1       1.979  54.418  -8.492  1.00  0.00    -0.027 A 
HETATM   20  C26 UNL     1       1.929  55.574  -7.503  1.00  0.00     0.011 C 
HETATM   21  C27 UNL     1       3.319  55.928  -6.979  1.00  0.00     0.011 C 
HETATM   22  C28 UNL     1       4.264  56.427  -8.106  1.00  0.00    -0.032 C 
HETATM   23  C29 UNL     1       3.956  57.924  -8.371  1.00  0.00     0.016 C 
ENDROOT
BRANCH   1  24
HETATM   24  C6  UNL     1       6.232  56.223  -6.224  1.00  0.00    -0.011 C 
HETATM   25  C7  UNL     1       6.566  57.607  -5.652  1.00  0.00     0.010 C 
BRANCH  24  26
HETATM   26  C5  UNL     1       7.448  55.268  -6.037  1.00  0.00     0.040 C 
BRANCH  26  27
HETATM   27  C4  UNL     1       7.989  55.155  -4.599  1.00  0.00     0.141 C 
BRANCH  27  28
HETATM   28  C3  UNL     1       9.467  54.860  -4.612  1.00  0.00     0.009 C 
HETATM   29  C2  UNL     1      10.495  55.715  -4.805  1.00  0.00    -0.062 C 
HETATM   30  C1  UNL     1      10.356  57.194  -5.055  1.00  0.00     0.045 C 
BRANCH  29  31
HETATM   31  C30 UNL     1      11.917  55.218  -4.789  1.00  0.00     0.198 C 
BRANCH  31  32
HETATM   32  O3  UNL     1      12.767  56.263  -5.237  1.00  0.00    -0.397 OA
HETATM   33  H48 UNL     1      13.677  55.922  -5.194  1.00  0.00     0.209 HD
ENDBRANCH  31  32
ENDBRANCH  29  31
ENDBRANCH  27  28
BRANCH  27  34
HETATM   34  O1  UNL     1       7.314  54.094  -3.928  1.00  0.00    -0.392 OA
HETATM   35  H6  UNL     1       7.977  53.444  -3.631  1.00  0.00     0.210 HD
ENDBRANCH  27  34
ENDBRANCH  26  27
ENDBRANCH  24  26
ENDBRANCH   1  24
TORSDOF 7
ENDMDL
MODEL 3
REMARK minimizedAffinity -7.10747862
REMARK CNNscore 0.576983273
REMARK CNNaffinity 6.71168661
REMARK  7 active torsions:
REMARK  status: ('A' for Active; 'I' for Inactive)
REMARK    1  A    between atoms: C2_2  and  C30_32 
REMARK    2  A    between atoms: C3_3  and  C4_4 
REMARK    3  A    between atoms: C4_4  and  O1_5 
REMARK    4  A    between atoms: C4_4  and  C5_6 
REMARK    5  A    between atoms: C5_6  and  C6_7 
REMARK    6  A    between atoms: C6_7  and  C8_9 
REMARK    7  A    between atoms: C30_32  and  O3_33 
ROOT
HETATM    1  C8  UNL     1       2.912  55.232  -8.724  1.00  0.00    -0.002 C 
HETATM    2  C9  UNL     1       1.651  56.097  -8.594  1.00  0.00     0.006 C 
HETATM    3  C10 UNL     1       0.615  55.130  -8.059  1.00  0.00     0.011 C 
HETATM    4  C11 UNL     1       0.766  53.871  -8.939  1.00  0.00    -0.032 C 
HETATM    5  C12 UNL     1       0.183  52.678  -8.155  1.00  0.00     0.016 C 
HETATM    6  C13 UNL     1       0.027  54.029 -10.327  1.00  0.00     0.004 C 
HETATM    7  C14 UNL     1      -1.461  54.414 -10.317  1.00  0.00     0.007 C 
HETATM    8  C15 UNL     1      -2.479  53.294 -10.178  1.00  0.00     0.007 C 
HETATM    9  C16 UNL     1      -2.119  51.906 -10.739  1.00  0.00     0.010 C 
HETATM   10  C17 UNL     1      -3.283  51.224 -11.537  1.00  0.00     0.018 C 
HETATM   11  C18 UNL     1      -3.685  51.998 -12.805  1.00  0.00     0.023 C 
HETATM   12  C19 UNL     1      -4.512  51.027 -10.631  1.00  0.00     0.023 C 
HETATM   13  C20 UNL     1      -2.840  49.824 -11.987  1.00  0.00     0.135 C 
HETATM   14  O2  UNL     1      -3.567  49.093 -12.665  1.00  0.00    -0.297 OA
HETATM   15  C21 UNL     1      -1.511  49.320 -11.490  1.00  0.00     0.080 C 
HETATM   16  C22 UNL     1      -0.404  50.322 -11.775  1.00  0.00     0.018 C 
HETATM   17  C23 UNL     1      -0.796  51.778 -11.491  1.00  0.00    -0.026 A 
HETATM   18  C24 UNL     1      -0.412  52.773 -12.566  1.00  0.00     0.021 A 
HETATM   19  C25 UNL     1       0.308  52.824 -11.234  1.00  0.00    -0.027 A 
HETATM   20  C26 UNL     1       1.764  52.381 -11.219  1.00  0.00     0.011 C 
HETATM   21  C27 UNL     1       2.678  53.472 -10.664  1.00  0.00     0.011 C 
HETATM   22  C28 UNL     1       2.363  53.807  -9.180  1.00  0.00    -0.032 C 
HETATM   23  C29 UNL     1       3.049  52.742  -8.285  1.00  0.00     0.016 C 
ENDROOT
BRANCH   1  24
HETATM   24  C6  UNL     1       4.057  55.918  -9.543  1.00  0.00    -0.011 C 
HETATM   25  C7  UNL     1       3.529  56.476 -10.870  1.00  0.00     0.010 C 
BRANCH  24  26
HETATM   26  C5  UNL     1       5.230  54.930  -9.815  1.00  0.00     0.040 C 
BRANCH  26  27
HETATM   27  C4  UNL     1       6.244  54.770  -8.667  1.00  0.00     0.141 C 
BRANCH  27  28
HETATM   28  C3  UNL     1       6.168  55.946  -7.726  1.00  0.00     0.009 C 
HETATM   29  C2  UNL     1       6.768  56.105  -6.527  1.00  0.00    -0.062 C 
HETATM   30  C1  UNL     1       7.670  55.094  -5.869  1.00  0.00     0.045 C 
BRANCH  29  31
HETATM   31  C30 UNL     1       6.558  57.365  -5.728  1.00  0.00     0.198 C 
BRANCH  31  32
HETATM   32  O3  UNL     1       5.259  57.865  -6.002  1.00  0.00    -0.397 OA
HETATM   33  H48 UNL     1       5.145  58.663  -5.457  1.00  0.00     0.209 HD
ENDBRANCH  31  32
ENDBRANCH  29  31
ENDBRANCH  27  28
BRANCH  27  34
HETATM   34  O1  UNL     1       7.559  54.700  -9.212  1.00  0.00    -0.392 OA
HETATM   35  H6  UNL     1       8.091  55.424  -8.832  1.00  0.00     0.210 HD
ENDBRANCH  27  34
ENDBRANCH  26  27
ENDBRANCH  24  26
ENDBRANCH   1  24
TORSDOF 7
ENDMDL
MODEL 4
REMARK minimizedAffinity -6.96764565
REMARK CNNscore 0.544573665
REMARK CNNaffinity 6.02603292
REMARK  7 active torsions:
REMARK  status: ('A' for Active; 'I' for Inactive)
REMARK    1  A    between atoms: C2_2  and  C30_32 
REMARK    2  A    between atoms: C3_3  and  C4_4 
REMARK    3  A    between atoms: C4_4  and  O1_5 
REMARK    4  A    between atoms: C4_4  and  C5_6 
REMARK    5  A    between atoms: C5_6  and  C6_7 
REMARK    6  A    between atoms: C6_7  and  C8_9 
REMARK    7  A    between atoms: C30_32  and  O3_33 
ROOT
HETATM    1  C8  UNL     1     -12.921  46.086 -28.006  1.00  0.00    -0.002 C 
HETATM    2  C9  UNL     1     -12.894  47.515 -28.565  1.00  0.00     0.006 C 
HETATM    3  C10 UNL     1     -12.365  47.331 -29.973  1.00  0.00     0.011 C 
HETATM    4  C11 UNL     1     -11.150  46.393 -29.815  1.00  0.00    -0.032 C 
HETATM    5  C12 UNL     1     -10.896  45.719 -31.178  1.00  0.00     0.016 C 
HETATM    6  C13 UNL     1      -9.860  47.175 -29.340  1.00  0.00     0.004 C 
HETATM    7  C14 UNL     1      -9.405  48.391 -30.163  1.00  0.00     0.007 C 
HETATM    8  C15 UNL     1      -8.512  48.136 -31.366  1.00  0.00     0.007 C 
HETATM    9  C16 UNL     1      -7.565  46.923 -31.328  1.00  0.00     0.010 C 
HETATM   10  C17 UNL     1      -6.119  47.233 -31.848  1.00  0.00     0.018 C 
HETATM   11  C18 UNL     1      -5.370  48.264 -30.985  1.00  0.00     0.023 C 
HETATM   12  C19 UNL     1      -6.164  47.710 -33.311  1.00  0.00     0.023 C 
HETATM   13  C20 UNL     1      -5.284  45.944 -31.831  1.00  0.00     0.135 C 
HETATM   14  O2  UNL     1      -4.096  45.928 -32.164  1.00  0.00    -0.297 OA
HETATM   15  C21 UNL     1      -5.992  44.660 -31.487  1.00  0.00     0.080 C 
HETATM   16  C22 UNL     1      -6.756  44.790 -30.179  1.00  0.00     0.018 C 
HETATM   17  C23 UNL     1      -7.515  46.115 -30.033  1.00  0.00    -0.026 A 
HETATM   18  C24 UNL     1      -7.365  46.802 -28.692  1.00  0.00     0.021 A 
HETATM   19  C25 UNL     1      -8.708  46.203 -29.058  1.00  0.00    -0.027 A 
HETATM   20  C26 UNL     1      -9.138  44.958 -28.296  1.00  0.00     0.011 C 
HETATM   21  C27 UNL     1     -10.493  45.153 -27.618  1.00  0.00     0.011 C 
HETATM   22  C28 UNL     1     -11.636  45.391 -28.643  1.00  0.00    -0.032 C 
HETATM   23  C29 UNL     1     -12.084  44.015 -29.199  1.00  0.00     0.016 C 
ENDROOT
BRANCH   1  24
HETATM   24  C6  UNL     1     -13.145  46.025 -26.458  1.00  0.00    -0.011 C 
HETATM   25  C7  UNL     1     -13.523  44.608 -26.009  1.00  0.00     0.010 C 
BRANCH  24  26
HETATM   26  C5  UNL     1     -14.242  47.033 -26.002  1.00  0.00     0.040 C 
BRANCH  26  27
HETATM   27  C4  UNL     1     -15.024  46.635 -24.735  1.00  0.00     0.141 C 
BRANCH  27  28
HETATM   28  C3  UNL     1     -14.210  46.924 -23.500  1.00  0.00     0.009 C 
HETATM   29  C2  UNL     1     -14.609  46.926 -22.210  1.00  0.00    -0.062 C 
HETATM   30  C1  UNL     1     -16.007  46.625 -21.735  1.00  0.00     0.045 C 
BRANCH  29  31
HETATM   31  C30 UNL     1     -13.635  47.252 -21.107  1.00  0.00     0.198 C 
BRANCH  31  32
HETATM   32  O3  UNL     1     -13.726  48.638 -20.816  1.00  0.00    -0.397 OA
HETATM   33  H48 UNL     1     -13.105  48.813 -20.088  1.00  0.00     0.209 HD
ENDBRANCH  31  32
ENDBRANCH  29  31
ENDBRANCH  27  28
BRANCH  27  34
HETATM   34  O1  UNL     1     -15.310  45.240 -24.782  1.00  0.00    -0.392 OA
HETATM   35  H6  UNL     1     -14.919  44.817 -23.995  1.00  0.00     0.210 HD
ENDBRANCH  27  34
ENDBRANCH  26  27
ENDBRANCH  24  26
ENDBRANCH   1  24
TORSDOF 7
ENDMDL
MODEL 5
REMARK minimizedAffinity -7.2012372
REMARK CNNscore 0.506724477
REMARK CNNaffinity 6.79298162
REMARK  7 active torsions:
REMARK  status: ('A' for Active; 'I' for Inactive)
REMARK    1  A    between atoms: C2_2  and  C30_32 
REMARK    2  A    between atoms: C3_3  and  C4_4 
REMARK    3  A    between atoms: C4_4  and  O1_5 
REMARK    4  A    between atoms: C4_4  and  C5_6 
REMARK    5  A    between atoms: C5_6  and  C6_7 
REMARK    6  A    between atoms: C6_7  and  C8_9 
REMARK    7  A    between atoms: C30_32  and  O3_33 
ROOT
HETATM    1  C8  UNL     1      -2.399  52.921  -9.486  1.00  0.00    -0.002 C 
HETATM    2  C9  UNL     1      -2.013  52.141  -8.223  1.00  0.00     0.006 C 
HETATM    3  C10 UNL     1      -1.083  53.090  -7.495  1.00  0.00     0.011 C 
HETATM    4  C11 UNL     1      -0.112  53.596  -8.582  1.00  0.00    -0.032 C 
HETATM    5  C12 UNL     1       0.485  54.931  -8.094  1.00  0.00     0.016 C 
HETATM    6  C13 UNL     1       1.040  52.554  -8.875  1.00  0.00     0.004 C 
HETATM    7  C14 UNL     1       1.886  52.056  -7.692  1.00  0.00     0.007 C 
HETATM    8  C15 UNL     1       3.082  52.895  -7.276  1.00  0.00     0.007 C 
HETATM    9  C16 UNL     1       3.807  53.719  -8.356  1.00  0.00     0.010 C 
HETATM   10  C17 UNL     1       5.370  53.638  -8.271  1.00  0.00     0.018 C 
HETATM   11  C18 UNL     1       5.919  52.222  -8.513  1.00  0.00     0.023 C 
HETATM   12  C19 UNL     1       5.863  54.166  -6.911  1.00  0.00     0.023 C 
HETATM   13  C20 UNL     1       5.986  54.548  -9.344  1.00  0.00     0.135 C 
HETATM   14  O2  UNL     1       7.206  54.635  -9.508  1.00  0.00    -0.297 OA
HETATM   15  C21 UNL     1       5.050  55.419 -10.140  1.00  0.00     0.080 C 
HETATM   16  C22 UNL     1       3.925  54.600 -10.751  1.00  0.00     0.018 C 
HETATM   17  C23 UNL     1       3.331  53.554  -9.798  1.00  0.00    -0.026 A 
HETATM   18  C24 UNL     1       3.122  52.179 -10.396  1.00  0.00     0.021 A 
HETATM   19  C25 UNL     1       1.908  53.018 -10.052  1.00  0.00    -0.027 A 
HETATM   20  C26 UNL     1       1.101  53.573 -11.217  1.00  0.00     0.011 C 
HETATM   21  C27 UNL     1      -0.365  53.152 -11.138  1.00  0.00     0.011 C 
HETATM   22  C28 UNL     1      -1.073  53.716  -9.876  1.00  0.00    -0.032 C 
HETATM   23  C29 UNL     1      -1.485  55.183 -10.165  1.00  0.00     0.016 C 
ENDROOT
BRANCH   1  24
HETATM   24  C6  UNL     1      -3.120  52.045 -10.565  1.00  0.00    -0.011 C 
HETATM   25  C7  UNL     1      -4.211  52.845 -11.288  1.00  0.00     0.010 C 
BRANCH  24  26
HETATM   26  C5  UNL     1      -3.737  50.761  -9.935  1.00  0.00     0.040 C 
BRANCH  26  27
HETATM   27  C4  UNL     1      -4.966  50.187 -10.666  1.00  0.00     0.141 C 
BRANCH  27  28
HETATM   28  C3  UNL     1      -6.145  50.104  -9.731  1.00  0.00     0.009 C 
HETATM   29  C2  UNL     1      -7.350  49.532  -9.944  1.00  0.00    -0.062 C 
HETATM   30  C1  UNL     1      -7.766  48.835 -11.214  1.00  0.00     0.045 C 
BRANCH  29  31
HETATM   31  C30 UNL     1      -8.411  49.561  -8.875  1.00  0.00     0.198 C 
BRANCH  31  32
HETATM   32  O3  UNL     1      -7.863  49.032  -7.678  1.00  0.00    -0.397 OA
HETATM   33  H48 UNL     1      -8.562  49.085  -7.002  1.00  0.00     0.209 HD
ENDBRANCH  31  32
ENDBRANCH  29  31
ENDBRANCH  27  28
BRANCH  27  34
HETATM   34  O1  UNL     1      -4.658  48.877 -11.137  1.00  0.00    -0.392 OA
HETATM   35  H6  UNL     1      -5.296  48.250 -10.749  1.00  0.00     0.210 HD
ENDBRANCH  27  34
ENDBRANCH  26  27
ENDBRANCH  24  26
ENDBRANCH   1  24
TORSDOF 7
ENDMDL
MODEL 6
REMARK minimizedAffinity -7.88803864
REMARK CNNscore 0.461320698
REMARK CNNaffinity 6.02011061
REMARK  7 active torsions:
REMARK  status: ('A' for Active; 'I' for Inactive)
REMARK    1  A    between atoms: C2_2  and  C30_32 
REMARK    2  A    between atoms: C3_3  and  C4_4 
REMARK    3  A    between atoms: C4_4  and  O1_5 
REMARK    4  A    between atoms: C4_4  and  C5_6 
REMARK    5  A    between atoms: C5_6  and  C6_7 
REMARK    6  A    between atoms: C6_7  and  C8_9 
REMARK    7  A    between atoms: C30_32  and  O3_33 
ROOT
HETATM    1  C8  UNL     1      -7.984  47.004 -30.548  1.00  0.00    -0.002 C 
HETATM    2  C9  UNL     1      -7.489  47.084 -29.097  1.00  0.00     0.006 C 
HETATM    3  C10 UNL     1      -8.127  45.876 -28.442  1.00  0.00     0.011 C 
HETATM    4  C11 UNL     1      -9.599  45.914 -28.902  1.00  0.00    -0.032 C 
HETATM    5  C12 UNL     1     -10.172  44.489 -28.762  1.00  0.00     0.016 C 
HETATM    6  C13 UNL     1     -10.457  46.936 -28.053  1.00  0.00     0.004 C 
HETATM    7  C14 UNL     1     -10.452  46.791 -26.524  1.00  0.00     0.007 C 
HETATM    8  C15 UNL     1     -11.441  45.819 -25.902  1.00  0.00     0.007 C 
HETATM    9  C16 UNL     1     -12.780  45.580 -26.623  1.00  0.00     0.010 C 
HETATM   10  C17 UNL     1     -14.021  45.564 -25.665  1.00  0.00     0.018 C 
HETATM   11  C18 UNL     1     -14.261  46.910 -24.960  1.00  0.00     0.023 C 
HETATM   12  C19 UNL     1     -13.878  44.443 -24.619  1.00  0.00     0.023 C 
HETATM   13  C20 UNL     1     -15.287  45.250 -26.476  1.00  0.00     0.135 C 
HETATM   14  O2  UNL     1     -16.405  45.213 -25.957  1.00  0.00    -0.297 OA
HETATM   15  C21 UNL     1     -15.112  44.886 -27.927  1.00  0.00     0.080 C 
HETATM   16  C22 UNL     1     -14.284  45.930 -28.658  1.00  0.00     0.018 C 
HETATM   17  C23 UNL     1     -13.064  46.420 -27.867  1.00  0.00    -0.026 A 
HETATM   18  C24 UNL     1     -12.860  47.920 -27.856  1.00  0.00     0.021 A 
HETATM   19  C25 UNL     1     -11.877  47.056 -28.619  1.00  0.00    -0.027 A 
HETATM   20  C26 UNL     1     -11.919  47.140 -30.138  1.00  0.00     0.011 C 
HETATM   21  C27 UNL     1     -10.558  47.519 -30.718  1.00  0.00     0.011 C 
HETATM   22  C28 UNL     1      -9.473  46.447 -30.423  1.00  0.00    -0.032 C 
HETATM   23  C29 UNL     1      -9.624  45.303 -31.459  1.00  0.00     0.016 C 
ENDROOT
BRANCH   1  24
HETATM   24  C6  UNL     1      -7.713  48.307 -31.372  1.00  0.00    -0.011 C 
HETATM   25  C7  UNL     1      -8.506  49.493 -30.808  1.00  0.00     0.010 C 
BRANCH  24  26
HETATM   26  C5  UNL     1      -8.060  48.109 -32.878  1.00  0.00     0.040 C 
BRANCH  26  27
HETATM   27  C4  UNL     1      -7.220  47.052 -33.620  1.00  0.00     0.141 C 
BRANCH  27  28
HETATM   28  C3  UNL     1      -5.837  47.580 -33.905  1.00  0.00     0.009 C 
HETATM   29  C2  UNL     1      -4.658  47.176 -33.388  1.00  0.00    -0.062 C 
HETATM   30  C1  UNL     1      -4.489  46.068 -32.381  1.00  0.00     0.045 C 
BRANCH  29  31
HETATM   31  C30 UNL     1      -3.372  47.843 -33.800  1.00  0.00     0.198 C 
BRANCH  31  32
HETATM   32  O3  UNL     1      -3.679  49.101 -34.380  1.00  0.00    -0.397 OA
HETATM   33  H48 UNL     1      -2.831  49.517 -34.615  1.00  0.00     0.209 HD
ENDBRANCH  31  32
ENDBRANCH  29  31
ENDBRANCH  27  28
BRANCH  27  34
HETATM   34  O1  UNL     1      -7.856  46.735 -34.855  1.00  0.00    -0.392 OA
HETATM   35  H6  UNL     1      -7.235  46.925 -35.582  1.00  0.00     0.210 HD
ENDBRANCH  27  34
ENDBRANCH  26  27
ENDBRANCH  24  26
ENDBRANCH   1  24
TORSDOF 7
ENDMDL
MODEL 7
REMARK minimizedAffinity -7.40215492
REMARK CNNscore 0.455222309
REMARK CNNaffinity 5.47755051
REMARK  7 active torsions:
REMARK  status: ('A' for Active; 'I' for Inactive)
REMARK    1  A    between atoms: C2_2  and  C30_32 
REMARK    2  A    between atoms: C3_3  and  C4_4 
REMARK    3  A    between atoms: C4_4  and  O1_5 
REMARK    4  A    between atoms: C4_4  and  C5_6 
REMARK    5  A    between atoms: C5_6  and  C6_7 
REMARK    6  A    between atoms: C6_7  and  C8_9 
REMARK    7  A    between atoms: C30_32  and  O3_33 
ROOT
HETATM    1  C8  UNL     1       1.222  69.651 -39.657  1.00  0.00    -0.002 C 
HETATM    2  C9  UNL     1       0.356  68.442 -39.279  1.00  0.00     0.006 C 
HETATM    3  C10 UNL     1       0.494  68.369 -37.772  1.00  0.00     0.011 C 
HETATM    4  C11 UNL     1       2.007  68.521 -37.510  1.00  0.00    -0.032 C 
HETATM    5  C12 UNL     1       2.184  69.007 -36.057  1.00  0.00     0.016 C 
HETATM    6  C13 UNL     1       2.784  67.162 -37.733  1.00  0.00     0.004 C 
HETATM    7  C14 UNL     1       2.302  65.918 -36.970  1.00  0.00     0.007 C 
HETATM    8  C15 UNL     1       2.828  65.706 -35.560  1.00  0.00     0.007 C 
HETATM    9  C16 UNL     1       4.232  66.237 -35.217  1.00  0.00     0.010 C 
HETATM   10  C17 UNL     1       5.105  65.232 -34.390  1.00  0.00     0.018 C 
HETATM   11  C18 UNL     1       5.421  63.933 -35.151  1.00  0.00     0.023 C 
HETATM   12  C19 UNL     1       4.421  64.901 -33.051  1.00  0.00     0.023 C 
HETATM   13  C20 UNL     1       6.450  65.888 -34.046  1.00  0.00     0.135 C 
HETATM   14  O2  UNL     1       7.332  65.289 -33.427  1.00  0.00    -0.297 OA
HETATM   15  C21 UNL     1       6.629  67.340 -34.406  1.00  0.00     0.080 C 
HETATM   16  C22 UNL     1       6.301  67.586 -35.869  1.00  0.00     0.018 C 
HETATM   17  C23 UNL     1       5.043  66.854 -36.355  1.00  0.00    -0.026 A 
HETATM   18  C24 UNL     1       5.181  66.145 -37.686  1.00  0.00     0.021 A 
HETATM   19  C25 UNL     1       4.297  67.373 -37.601  1.00  0.00    -0.027 A 
HETATM   20  C26 UNL     1       4.796  68.631 -38.296  1.00  0.00     0.011 C 
HETATM   21  C27 UNL     1       3.781  69.154 -39.311  1.00  0.00     0.011 C 
HETATM   22  C28 UNL     1       2.448  69.588 -38.641  1.00  0.00    -0.032 C 
HETATM   23  C29 UNL     1       2.638  71.013 -38.059  1.00  0.00     0.016 C 
ENDROOT
BRANCH   1  24
HETATM   24  C6  UNL     1       1.496  69.767 -41.194  1.00  0.00    -0.011 C 
HETATM   25  C7  UNL     1       1.757  71.223 -41.600  1.00  0.00     0.010 C 
BRANCH  24  26
HETATM   26  C5  UNL     1       0.314  69.191 -42.028  1.00  0.00     0.040 C 
BRANCH  26  27
HETATM   27  C4  UNL     1      -0.531  70.230 -42.789  1.00  0.00     0.141 C 
BRANCH  27  28
HETATM   28  C3  UNL     1      -1.993  70.063 -42.464  1.00  0.00     0.009 C 
HETATM   29  C2  UNL     1      -2.782  68.986 -42.662  1.00  0.00    -0.062 C 
HETATM   30  C1  UNL     1      -2.333  67.683 -43.271  1.00  0.00     0.045 C 
BRANCH  29  31
HETATM   31  C30 UNL     1      -4.237  69.020 -42.271  1.00  0.00     0.198 C 
BRANCH  31  32
HETATM   32  O3  UNL     1      -4.984  68.301 -43.240  1.00  0.00    -0.397 OA
HETATM   33  H48 UNL     1      -5.913  68.321 -42.950  1.00  0.00     0.209 HD
ENDBRANCH  31  32
ENDBRANCH  29  31
ENDBRANCH  27  28
BRANCH  27  34
HETATM   34  O1  UNL     1      -0.347  70.043 -44.190  1.00  0.00    -0.392 OA
HETATM   35  H6  UNL     1      -1.215  69.867 -44.597  1.00  0.00     0.210 HD
ENDBRANCH  27  34
ENDBRANCH  26  27
ENDBRANCH  24  26
ENDBRANCH   1  24
TORSDOF 7
ENDMDL
MODEL 8
REMARK minimizedAffinity -7.73572445
REMARK CNNscore 0.416548878
REMARK CNNaffinity 5.7575841
REMARK  7 active torsions:
REMARK  status: ('A' for Active; 'I' for Inactive)
REMARK    1  A    between atoms: C2_2  and  C30_32 
REMARK    2  A    between atoms: C3_3  and  C4_4 
REMARK    3  A    between atoms: C4_4  and  O1_5 
REMARK    4  A    between atoms: C4_4  and  C5_6 
REMARK    5  A    between atoms: C5_6  and  C6_7 
REMARK    6  A    between atoms: C6_7  and  C8_9 
REMARK    7  A    between atoms: C30_32  and  O3_33 
ROOT
HETATM    1  C8  UNL     1     -12.896  46.880 -27.377  1.00  0.00    -0.002 C 
HETATM    2  C9  UNL     1     -12.669  48.245 -28.041  1.00  0.00     0.006 C 
HETATM    3  C10 UNL     1     -12.281  47.885 -29.460  1.00  0.00     0.011 C 
HETATM    4  C11 UNL     1     -11.232  46.764 -29.306  1.00  0.00    -0.032 C 
HETATM    5  C12 UNL     1     -11.193  45.972 -30.629  1.00  0.00     0.016 C 
HETATM    6  C13 UNL     1      -9.799  47.341 -28.970  1.00  0.00     0.004 C 
HETATM    7  C14 UNL     1      -9.207  48.406 -29.906  1.00  0.00     0.007 C 
HETATM    8  C15 UNL     1      -8.458  47.927 -31.138  1.00  0.00     0.007 C 
HETATM    9  C16 UNL     1      -7.727  46.574 -31.067  1.00  0.00     0.010 C 
HETATM   10  C17 UNL     1      -6.290  46.597 -31.695  1.00  0.00     0.018 C 
HETATM   11  C18 UNL     1      -5.320  47.536 -30.957  1.00  0.00     0.023 C 
HETATM   12  C19 UNL     1      -6.361  46.982 -33.184  1.00  0.00     0.023 C 
HETATM   13  C20 UNL     1      -5.684  45.187 -31.633  1.00  0.00     0.135 C 
HETATM   14  O2  UNL     1      -4.543  44.946 -32.034  1.00  0.00    -0.297 OA
HETATM   15  C21 UNL     1      -6.571  44.069 -31.153  1.00  0.00     0.080 C 
HETATM   16  C22 UNL     1      -7.207  44.409 -29.815  1.00  0.00     0.018 C 
HETATM   17  C23 UNL     1      -7.721  45.852 -29.722  1.00  0.00    -0.026 A 
HETATM   18  C24 UNL     1      -7.361  46.586 -28.446  1.00  0.00     0.021 A 
HETATM   19  C25 UNL     1      -8.808  46.204 -28.686  1.00  0.00    -0.027 A 
HETATM   20  C26 UNL     1      -9.385  45.103 -27.809  1.00  0.00     0.011 C 
HETATM   21  C27 UNL     1     -10.636  45.570 -27.068  1.00  0.00     0.011 C 
HETATM   22  C28 UNL     1     -11.793  45.936 -28.037  1.00  0.00    -0.032 C 
HETATM   23  C29 UNL     1     -12.505  44.625 -28.461  1.00  0.00     0.016 C 
ENDROOT
BRANCH   1  24
HETATM   24  C6  UNL     1     -13.014  46.956 -25.818  1.00  0.00    -0.011 C 
HETATM   25  C7  UNL     1     -11.635  46.860 -25.153  1.00  0.00     0.010 C 
BRANCH  24  26
HETATM   26  C5  UNL     1     -13.947  45.839 -25.263  1.00  0.00     0.040 C 
BRANCH  26  27
HETATM   27  C4  UNL     1     -15.062  46.314 -24.313  1.00  0.00     0.141 C 
BRANCH  27  28
HETATM   28  C3  UNL     1     -16.417  46.103 -24.940  1.00  0.00     0.009 C 
HETATM   29  C2  UNL     1     -17.623  46.045 -24.337  1.00  0.00    -0.062 C 
HETATM   30  C1  UNL     1     -17.860  46.188 -22.856  1.00  0.00     0.045 C 
BRANCH  29  31
HETATM   31  C30 UNL     1     -18.873  45.817 -25.147  1.00  0.00     0.198 C 
BRANCH  31  32
HETATM   32  O3  UNL     1     -19.678  46.984 -25.078  1.00  0.00    -0.397 OA
HETATM   33  H48 UNL     1     -20.464  46.815 -25.626  1.00  0.00     0.209 HD
ENDBRANCH  31  32
ENDBRANCH  29  31
ENDBRANCH  27  28
BRANCH  27  34
HETATM   34  O1  UNL     1     -14.888  47.704 -24.049  1.00  0.00    -0.392 OA
HETATM   35  H6  UNL     1     -15.695  48.176 -24.327  1.00  0.00     0.210 HD
ENDBRANCH  27  34
ENDBRANCH  26  27
ENDBRANCH  24  26
ENDBRANCH   1  24
TORSDOF 7
ENDMDL
MODEL 9
REMARK minimizedAffinity -7.32520533
REMARK CNNscore 0.337856472
REMARK CNNaffinity 5.66084051
REMARK  7 active torsions:
REMARK  status: ('A' for Active; 'I' for Inactive)
REMARK    1  A    between atoms: C2_2  and  C30_32 
REMARK    2  A    between atoms: C3_3  and  C4_4 
REMARK    3  A    between atoms: C4_4  and  O1_5 
REMARK    4  A    between atoms: C4_4  and  C5_6 
REMARK    5  A    between atoms: C5_6  and  C6_7 
REMARK    6  A    between atoms: C6_7  and  C8_9 
REMARK    7  A    between atoms: C30_32  and  O3_33 
ROOT
HETATM    1  C8  UNL     1       3.261  69.208 -39.028  1.00  0.00    -0.002 C 
HETATM    2  C9  UNL     1       2.035  68.667 -38.282  1.00  0.00     0.006 C 
HETATM    3  C10 UNL     1       2.500  68.602 -36.842  1.00  0.00     0.011 C 
HETATM    4  C11 UNL     1       3.890  67.935 -36.910  1.00  0.00    -0.032 C 
HETATM    5  C12 UNL     1       4.658  68.319 -35.629  1.00  0.00     0.016 C 
HETATM    6  C13 UNL     1       3.784  66.363 -37.036  1.00  0.00     0.004 C 
HETATM    7  C14 UNL     1       2.955  65.605 -35.986  1.00  0.00     0.007 C 
HETATM    8  C15 UNL     1       3.645  65.211 -34.691  1.00  0.00     0.007 C 
HETATM    9  C16 UNL     1       5.158  64.926 -34.727  1.00  0.00     0.010 C 
HETATM   10  C17 UNL     1       5.581  63.650 -33.922  1.00  0.00     0.018 C 
HETATM   11  C18 UNL     1       4.986  62.349 -34.488  1.00  0.00     0.023 C 
HETATM   12  C19 UNL     1       5.197  63.798 -32.438  1.00  0.00     0.023 C 
HETATM   13  C20 UNL     1       7.109  63.501 -33.967  1.00  0.00     0.135 C 
HETATM   14  O2  UNL     1       7.691  62.553 -33.436  1.00  0.00    -0.297 OA
HETATM   15  C21 UNL     1       7.898  64.614 -34.605  1.00  0.00     0.080 C 
HETATM   16  C22 UNL     1       7.374  64.930 -35.997  1.00  0.00     0.018 C 
HETATM   17  C23 UNL     1       5.843  64.960 -36.092  1.00  0.00    -0.026 A 
HETATM   18  C24 UNL     1       5.253  64.226 -37.278  1.00  0.00     0.021 A 
HETATM   19  C25 UNL     1       5.170  65.738 -37.241  1.00  0.00    -0.027 A 
HETATM   20  C26 UNL     1       6.037  66.501 -38.231  1.00  0.00     0.011 C 
HETATM   21  C27 UNL     1       5.205  67.437 -39.104  1.00  0.00     0.011 C 
HETATM   22  C28 UNL     1       4.501  68.547 -38.275  1.00  0.00    -0.032 C 
HETATM   23  C29 UNL     1       5.529  69.676 -38.002  1.00  0.00     0.016 C 
ENDROOT
BRANCH   1  24
HETATM   24  C6  UNL     1       3.148  69.088 -40.585  1.00  0.00    -0.011 C 
HETATM   25  C7  UNL     1       4.004  70.151 -41.285  1.00  0.00     0.010 C 
BRANCH  24  26
HETATM   26  C5  UNL     1       1.669  69.205 -41.059  1.00  0.00     0.040 C 
BRANCH  26  27
HETATM   27  C4  UNL     1       1.185  68.092 -42.007  1.00  0.00     0.141 C 
BRANCH  27  28
HETATM   28  C3  UNL     1      -0.321  68.071 -42.071  1.00  0.00     0.009 C 
HETATM   29  C2  UNL     1      -1.152  68.969 -42.641  1.00  0.00    -0.062 C 
HETATM   30  C1  UNL     1      -0.715  70.220 -43.357  1.00  0.00     0.045 C 
BRANCH  29  31
HETATM   31  C30 UNL     1      -2.645  68.771 -42.591  1.00  0.00     0.198 C 
BRANCH  31  32
HETATM   32  O3  UNL     1      -2.926  67.391 -42.771  1.00  0.00    -0.397 OA
HETATM   33  H48 UNL     1      -3.892  67.291 -42.712  1.00  0.00     0.209 HD
ENDBRANCH  31  32
ENDBRANCH  29  31
ENDBRANCH  27  28
BRANCH  27  34
HETATM   34  O1  UNL     1       1.642  66.833 -41.519  1.00  0.00    -0.392 OA
HETATM   35  H6  UNL     1       0.868  66.262 -41.360  1.00  0.00     0.210 HD
ENDBRANCH  27  34
ENDBRANCH  26  27
ENDBRANCH  24  26
ENDBRANCH   1  24
TORSDOF 7
ENDMDL
