MODEL 1
REMARK minimizedAffinity -9.06252289
REMARK CNNscore 0.527046442
REMARK CNNaffinity 7.23557281
REMARK  11 active torsions:
REMARK  status: ('A' for Active; 'I' for Inactive)
REMARK    1  A    between atoms: C2_2  and  O1_4 
REMARK    2  A    between atoms: C2_2  and  C4_5 
REMARK    3  A    between atoms: C5_6  and  C6_7 
REMARK    4  A    between atoms: C6_7  and  C7_8 
REMARK    5  A    between atoms: C7_8  and  C8_9 
REMARK    6  A    between atoms: C7_8  and  C14_21 
REMARK    7  A    between atoms: C8_9  and  O3_11 
REMARK    8  A    between atoms: O3_11  and  C9_12 
REMARK    9  A    between atoms: C10_13  and  O4_14 
REMARK   10  A    between atoms: C11_15  and  O5_16 
REMARK   11  A    between atoms: C13_19  and  O7_20 
ROOT
HETATM    1  C7  UNL     1       0.174   6.043  13.120  1.00  0.00     0.094 C 
ENDROOT
BRANCH   1   2
HETATM    2  C6  UNL     1       0.083   4.498  13.242  1.00  0.00     0.042 C 
BRANCH   2   3
HETATM    3  C5  UNL     1      -0.595   3.792  12.102  1.00  0.00    -0.027 C 
HETATM    4  C4  UNL     1      -1.911   3.512  12.075  1.00  0.00     0.006 C 
BRANCH   4   5
HETATM    5  C2  UNL     1      -2.654   2.779  10.979  1.00  0.00     0.068 C 
HETATM    6  C1  UNL     1      -3.276   1.489  11.520  1.00  0.00     0.050 C 
HETATM    7  C3  UNL     1      -3.734   3.674  10.370  1.00  0.00     0.050 C 
BRANCH   5   8
HETATM    8  O1  UNL     1      -1.747   2.426   9.935  1.00  0.00    -0.387 OA
HETATM    9  H7  UNL     1      -1.081   1.839  10.335  1.00  0.00     0.211 HD
ENDBRANCH   5   8
ENDBRANCH   4   5
ENDBRANCH   2   3
ENDBRANCH   1   2
BRANCH   1  10
HETATM   10  C8  UNL     1       0.810   6.283  11.755  1.00  0.00     0.264 C 
HETATM   11  O2  UNL     1       0.212   6.662  10.756  1.00  0.00    -0.265 OA
BRANCH  10  12
HETATM   12  O3  UNL     1       2.133   5.976  11.785  1.00  0.00    -0.308 OA
BRANCH  12  13
HETATM   13  C9  UNL     1       2.873   6.094  10.542  1.00  0.00     0.218 C 
HETATM   14  C10 UNL     1       2.433   7.414   9.896  1.00  0.00     0.183 C 
HETATM   15  C11 UNL     1       2.934   7.553   8.453  1.00  0.00     0.173 C 
HETATM   16  C12 UNL     1       2.571   6.303   7.662  1.00  0.00     0.205 C 
HETATM   17  O6  UNL     1       3.125   5.154   8.287  1.00  0.00    -0.356 OA
HETATM   18  C13 UNL     1       2.574   4.920   9.581  1.00  0.00     0.288 C 
BRANCH  14  19
HETATM   19  O4  UNL     1       2.931   8.524  10.658  1.00  0.00    -0.390 OA
HETATM   20  H15 UNL     1       2.523   9.317  10.249  1.00  0.00     0.210 HD
ENDBRANCH  14  19
BRANCH  15  21
HETATM   21  O5  UNL     1       2.345   8.722   7.878  1.00  0.00    -0.391 OA
HETATM   22  H17 UNL     1       2.725   8.826   6.984  1.00  0.00     0.210 HD
ENDBRANCH  15  21
BRANCH  18  23
HETATM   23  O7  UNL     1       3.104   3.683  10.036  1.00  0.00    -0.369 OA
HETATM   24  H21 UNL     1       3.743   3.865  10.754  1.00  0.00     0.212 HD
ENDBRANCH  18  23
ENDBRANCH  12  13
ENDBRANCH  10  12
ENDBRANCH   1  10
BRANCH   1  25
HETATM   25  C14 UNL     1      -1.183   6.789  13.287  1.00  0.00     0.009 C 
HETATM   26  C15 UNL     1      -2.215   5.978  14.134  1.00  0.00     0.007 C 
HETATM   27  C16 UNL     1      -2.995   6.974  15.012  1.00  0.00     0.015 C 
HETATM   28  C17 UNL     1      -2.726   8.343  14.376  1.00  0.00    -0.013 C 
HETATM   29  C18 UNL     1      -3.704   8.491  13.172  1.00  0.00     0.021 C 
HETATM   30  C19 UNL     1      -2.926   9.604  15.215  1.00  0.00    -0.068 C 
HETATM   31  C23 UNL     1      -1.206   8.181  14.003  1.00  0.00    -0.028 C 
HETATM   32  C20 UNL     1      -2.219  10.730  14.927  1.00  0.00    -0.068 C 
HETATM   33  C35 UNL     1      -3.958   9.539  16.310  1.00  0.00     0.036 C 
HETATM   34  C21 UNL     1      -1.146  10.732  13.830  1.00  0.00     0.036 C 
HETATM   35  C25 UNL     1      -2.433  12.064  15.696  1.00  0.00    -0.015 C 
HETATM   36  C22 UNL     1      -0.825   9.391  13.142  1.00  0.00     0.015 C 
HETATM   37  C26 UNL     1      -1.184  12.275  16.593  1.00  0.00     0.020 C 
HETATM   38  C27 UNL     1      -2.545  13.247  14.689  1.00  0.00     0.021 C 
HETATM   39  C33 UNL     1      -3.776  12.037  16.516  1.00  0.00     0.013 C 
HETATM   40  C28 UNL     1      -3.288  14.483  15.193  1.00  0.00     0.080 C 
HETATM   41  C29 UNL     1      -3.413  14.533  16.698  1.00  0.00     0.135 C 
HETATM   42  O8  UNL     1      -3.103  15.554  17.313  1.00  0.00    -0.297 OA
HETATM   43  C30 UNL     1      -4.035  13.309  17.392  1.00  0.00     0.018 C 
HETATM   44  C31 UNL     1      -3.494  13.201  18.835  1.00  0.00     0.023 C 
HETATM   45  C32 UNL     1      -5.553  13.582  17.498  1.00  0.00     0.023 C 
HETATM   46  C34 UNL     1      -3.919  10.718  17.282  1.00  0.00     0.011 C 
HETATM   47  C24 UNL     1      -0.276   8.141  15.258  1.00  0.00     0.016 C 
ENDBRANCH   1  25
TORSDOF 11
ENDMDL
MODEL 2
REMARK minimizedAffinity -9.92826557
REMARK CNNscore 0.386625826
REMARK CNNaffinity 7.57413483
REMARK  11 active torsions:
REMARK  status: ('A' for Active; 'I' for Inactive)
REMARK    1  A    between atoms: C2_2  and  O1_4 
REMARK    2  A    between atoms: C2_2  and  C4_5 
REMARK    3  A    between atoms: C5_6  and  C6_7 
REMARK    4  A    between atoms: C6_7  and  C7_8 
REMARK    5  A    between atoms: C7_8  and  C8_9 
REMARK    6  A    between atoms: C7_8  and  C14_21 
REMARK    7  A    between atoms: C8_9  and  O3_11 
REMARK    8  A    between atoms: O3_11  and  C9_12 
REMARK    9  A    between atoms: C10_13  and  O4_14 
REMARK   10  A    between atoms: C11_15  and  O5_16 
REMARK   11  A    between atoms: C13_19  and  O7_20 
ROOT
HETATM    1  C7  UNL     1      -4.101   6.264  14.264  1.00  0.00     0.094 C 
ENDROOT
BRANCH   1   2
HETATM    2  C6  UNL     1      -4.486   5.310  13.102  1.00  0.00     0.042 C 
BRANCH   2   3
HETATM    3  C5  UNL     1      -3.455   4.280  12.733  1.00  0.00    -0.027 C 
HETATM    4  C4  UNL     1      -3.324   3.765  11.497  1.00  0.00     0.006 C 
BRANCH   4   5
HETATM    5  C2  UNL     1      -2.333   2.707  11.063  1.00  0.00     0.068 C 
HETATM    6  C1  UNL     1      -0.941   3.010  11.624  1.00  0.00     0.050 C 
HETATM    7  C3  UNL     1      -2.796   1.321  11.514  1.00  0.00     0.050 C 
BRANCH   5   8
HETATM    8  O1  UNL     1      -2.240   2.688   9.639  1.00  0.00    -0.387 OA
HETATM    9  H7  UNL     1      -1.923   3.570   9.373  1.00  0.00     0.211 HD
ENDBRANCH   5   8
ENDBRANCH   4   5
ENDBRANCH   2   3
ENDBRANCH   1   2
BRANCH   1  10
HETATM   10  C8  UNL     1      -3.344   7.403  13.591  1.00  0.00     0.264 C 
HETATM   11  O2  UNL     1      -3.802   8.140  12.727  1.00  0.00    -0.265 OA
BRANCH  10  12
HETATM   12  O3  UNL     1      -2.067   7.464  14.050  1.00  0.00    -0.308 OA
BRANCH  12  13
HETATM   13  C9  UNL     1      -1.691   8.635  14.821  1.00  0.00     0.218 C 
HETATM   14  C10 UNL     1      -0.586   9.343  14.028  1.00  0.00     0.183 C 
HETATM   15  C11 UNL     1       0.093  10.455  14.837  1.00  0.00     0.173 C 
HETATM   16  C12 UNL     1       0.529   9.909  16.191  1.00  0.00     0.205 C 
HETATM   17  O6  UNL     1      -0.592   9.381  16.886  1.00  0.00    -0.356 OA
HETATM   18  C13 UNL     1      -1.162   8.256  16.224  1.00  0.00     0.288 C 
BRANCH  14  19
HETATM   19  O4  UNL     1      -1.133   9.922  12.833  1.00  0.00    -0.390 OA
HETATM   20  H15 UNL     1      -0.357  10.258  12.334  1.00  0.00     0.210 HD
ENDBRANCH  14  19
BRANCH  15  21
HETATM   21  O5  UNL     1       1.208  10.945  14.090  1.00  0.00    -0.391 OA
HETATM   22  H17 UNL     1       1.587  11.691  14.594  1.00  0.00     0.210 HD
ENDBRANCH  15  21
BRANCH  18  23
HETATM   23  O7  UNL     1      -2.176   7.745  17.078  1.00  0.00    -0.369 OA
HETATM   24  H21 UNL     1      -3.047   7.946  16.681  1.00  0.00     0.212 HD
ENDBRANCH  18  23
ENDBRANCH  12  13
ENDBRANCH  10  12
ENDBRANCH   1  10
BRANCH   1  25
HETATM   25  C14 UNL     1      -5.303   6.767  15.118  1.00  0.00     0.009 C 
HETATM   26  C15 UNL     1      -5.110   8.232  15.624  1.00  0.00     0.007 C 
HETATM   27  C16 UNL     1      -6.477   8.938  15.565  1.00  0.00     0.015 C 
HETATM   28  C17 UNL     1      -7.496   7.799  15.446  1.00  0.00    -0.013 C 
HETATM   29  C18 UNL     1      -7.736   7.245  16.882  1.00  0.00     0.021 C 
HETATM   30  C19 UNL     1      -8.887   8.102  14.893  1.00  0.00    -0.068 C 
HETATM   31  C23 UNL     1      -6.725   6.839  14.466  1.00  0.00    -0.028 C 
HETATM   32  C20 UNL     1      -9.599   7.122  14.272  1.00  0.00    -0.068 C 
HETATM   33  C35 UNL     1      -9.424   9.491  15.117  1.00  0.00     0.036 C 
HETATM   34  C21 UNL     1      -8.990   5.735  14.028  1.00  0.00     0.036 C 
HETATM   35  C25 UNL     1     -11.048   7.349  13.755  1.00  0.00    -0.015 C 
HETATM   36  C22 UNL     1      -7.513   5.525  14.414  1.00  0.00     0.015 C 
HETATM   37  C26 UNL     1     -10.974   7.396  12.206  1.00  0.00     0.020 C 
HETATM   38  C27 UNL     1     -11.959   6.162  14.188  1.00  0.00     0.021 C 
HETATM   39  C33 UNL     1     -11.675   8.652  14.378  1.00  0.00     0.013 C 
HETATM   40  C28 UNL     1     -13.454   6.463  14.265  1.00  0.00     0.080 C 
HETATM   41  C29 UNL     1     -13.852   7.708  13.506  1.00  0.00     0.135 C 
HETATM   42  O8  UNL     1     -14.797   7.678  12.715  1.00  0.00    -0.297 OA
HETATM   43  C30 UNL     1     -13.105   9.008  13.848  1.00  0.00     0.018 C 
HETATM   44  C31 UNL     1     -13.107   9.945  12.621  1.00  0.00     0.023 C 
HETATM   45  C32 UNL     1     -13.922   9.713  14.956  1.00  0.00     0.023 C 
HETATM   46  C34 UNL     1     -10.682   9.817  14.312  1.00  0.00     0.011 C 
HETATM   47  C24 UNL     1      -6.611   7.417  13.019  1.00  0.00     0.016 C 
ENDBRANCH   1  25
TORSDOF 11
ENDMDL
MODEL 3
REMARK minimizedAffinity -8.06847286
REMARK CNNscore 0.293979824
REMARK CNNaffinity 5.96708059
REMARK  11 active torsions:
REMARK  status: ('A' for Active; 'I' for Inactive)
REMARK    1  A    between atoms: C2_2  and  O1_4 
REMARK    2  A    between atoms: C2_2  and  C4_5 
REMARK    3  A    between atoms: C5_6  and  C6_7 
REMARK    4  A    between atoms: C6_7  and  C7_8 
REMARK    5  A    between atoms: C7_8  and  C8_9 
REMARK    6  A    between atoms: C7_8  and  C14_21 
REMARK    7  A    between atoms: C8_9  and  O3_11 
REMARK    8  A    between atoms: O3_11  and  C9_12 
REMARK    9  A    between atoms: C10_13  and  O4_14 
REMARK   10  A    between atoms: C11_15  and  O5_16 
REMARK   11  A    between atoms: C13_19  and  O7_20 
ROOT
HETATM    1  C7  UNL     1       1.108  10.646  19.717  1.00  0.00     0.094 C 
ENDROOT
BRANCH   1   2
HETATM    2  C6  UNL     1      -0.119  11.591  19.612  1.00  0.00     0.042 C 
BRANCH   2   3
HETATM    3  C5  UNL     1      -1.133  11.232  18.562  1.00  0.00    -0.027 C 
HETATM    4  C4  UNL     1      -2.151  12.035  18.203  1.00  0.00     0.006 C 
BRANCH   4   5
HETATM    5  C2  UNL     1      -3.223  11.726  17.180  1.00  0.00     0.068 C 
HETATM    6  C1  UNL     1      -2.743  12.088  15.771  1.00  0.00     0.050 C 
HETATM    7  C3  UNL     1      -3.617  10.250  17.243  1.00  0.00     0.050 C 
BRANCH   5   8
HETATM    8  O1  UNL     1      -4.391  12.497  17.459  1.00  0.00    -0.387 OA
HETATM    9  H7  UNL     1      -4.127  13.432  17.391  1.00  0.00     0.211 HD
ENDBRANCH   5   8
ENDBRANCH   4   5
ENDBRANCH   2   3
ENDBRANCH   1   2
BRANCH   1  10
HETATM   10  C8  UNL     1       1.891  10.890  18.431  1.00  0.00     0.264 C 
HETATM   11  O2  UNL     1       2.009  11.974  17.873  1.00  0.00    -0.265 OA
BRANCH  10  12
HETATM   12  O3  UNL     1       2.409   9.727  17.960  1.00  0.00    -0.308 OA
BRANCH  12  13
HETATM   13  C9  UNL     1       2.473   9.561  16.519  1.00  0.00     0.218 C 
HETATM   14  C10 UNL     1       2.041   8.119  16.226  1.00  0.00     0.183 C 
HETATM   15  C11 UNL     1       2.305   7.715  14.770  1.00  0.00     0.173 C 
HETATM   16  C12 UNL     1       3.748   8.036  14.403  1.00  0.00     0.205 C 
HETATM   17  O6  UNL     1       4.005   9.418  14.605  1.00  0.00    -0.356 OA
HETATM   18  C13 UNL     1       3.901   9.796  15.975  1.00  0.00     0.288 C 
BRANCH  14  19
HETATM   19  O4  UNL     1       0.639   7.962  16.492  1.00  0.00    -0.390 OA
HETATM   20  H15 UNL     1       0.465   7.002  16.386  1.00  0.00     0.210 HD
ENDBRANCH  14  19
BRANCH  15  21
HETATM   21  O5  UNL     1       2.030   6.320  14.628  1.00  0.00    -0.391 OA
HETATM   22  H17 UNL     1       2.144   6.098  13.684  1.00  0.00     0.210 HD
ENDBRANCH  15  21
BRANCH  18  23
HETATM   23  O7  UNL     1       4.309  11.154  16.060  1.00  0.00    -0.369 OA
HETATM   24  H21 UNL     1       3.521  11.705  16.238  1.00  0.00     0.212 HD
ENDBRANCH  18  23
ENDBRANCH  12  13
ENDBRANCH  10  12
ENDBRANCH   1  10
BRANCH   1  25
HETATM   25  C14 UNL     1       1.977  10.847  20.994  1.00  0.00     0.009 C 
HETATM   26  C15 UNL     1       3.069   9.743  21.157  1.00  0.00     0.007 C 
HETATM   27  C16 UNL     1       4.340  10.412  21.713  1.00  0.00     0.015 C 
HETATM   28  C17 UNL     1       3.859  11.761  22.259  1.00  0.00    -0.013 C 
HETATM   29  C18 UNL     1       3.262  11.498  23.674  1.00  0.00     0.021 C 
HETATM   30  C19 UNL     1       4.872  12.888  22.452  1.00  0.00    -0.068 C 
HETATM   31  C23 UNL     1       2.820  12.156  21.145  1.00  0.00    -0.028 C 
HETATM   32  C20 UNL     1       4.464  14.185  22.395  1.00  0.00    -0.068 C 
HETATM   33  C35 UNL     1       6.293  12.486  22.751  1.00  0.00     0.036 C 
HETATM   34  C21 UNL     1       3.014  14.544  22.042  1.00  0.00     0.036 C 
HETATM   35  C25 UNL     1       5.433  15.373  22.657  1.00  0.00    -0.015 C 
HETATM   36  C22 UNL     1       2.067  13.392  21.652  1.00  0.00     0.015 C 
HETATM   37  C26 UNL     1       5.689  16.058  21.289  1.00  0.00     0.020 C 
HETATM   38  C27 UNL     1       4.770  16.397  23.625  1.00  0.00     0.021 C 
HETATM   39  C33 UNL     1       6.757  14.882  23.352  1.00  0.00     0.013 C 
HETATM   40  C28 UNL     1       5.729  17.289  24.410  1.00  0.00     0.080 C 
HETATM   41  C29 UNL     1       7.118  17.341  23.815  1.00  0.00     0.135 C 
HETATM   42  O8  UNL     1       7.669  18.425  23.618  1.00  0.00    -0.297 OA
HETATM   43  C30 UNL     1       7.831  15.999  23.578  1.00  0.00     0.018 C 
HETATM   44  C31 UNL     1       8.841  16.146  22.419  1.00  0.00     0.023 C 
HETATM   45  C32 UNL     1       8.650  15.698  24.855  1.00  0.00     0.023 C 
HETATM   46  C34 UNL     1       7.303  13.629  22.658  1.00  0.00     0.011 C 
HETATM   47  C24 UNL     1       3.500  12.504  19.781  1.00  0.00     0.016 C 
ENDBRANCH   1  25
TORSDOF 11
ENDMDL
MODEL 4
REMARK minimizedAffinity -8.76220894
REMARK CNNscore 0.266253322
REMARK CNNaffinity 6.52245712
REMARK  11 active torsions:
REMARK  status: ('A' for Active; 'I' for Inactive)
REMARK    1  A    between atoms: C2_2  and  O1_4 
REMARK    2  A    between atoms: C2_2  and  C4_5 
REMARK    3  A    between atoms: C5_6  and  C6_7 
REMARK    4  A    between atoms: C6_7  and  C7_8 
REMARK    5  A    between atoms: C7_8  and  C8_9 
REMARK    6  A    between atoms: C7_8  and  C14_21 
REMARK    7  A    between atoms: C8_9  and  O3_11 
REMARK    8  A    between atoms: O3_11  and  C9_12 
REMARK    9  A    between atoms: C10_13  and  O4_14 
REMARK   10  A    between atoms: C11_15  and  O5_16 
REMARK   11  A    between atoms: C13_19  and  O7_20 
ROOT
HETATM    1  C7  UNL     1       4.126   7.001  11.893  1.00  0.00     0.094 C 
ENDROOT
BRANCH   1   2
HETATM    2  C6  UNL     1       4.390   6.026  10.714  1.00  0.00     0.042 C 
BRANCH   2   3
HETATM    3  C5  UNL     1       3.480   6.175   9.527  1.00  0.00    -0.027 C 
HETATM    4  C4  UNL     1       3.154   7.362   8.982  1.00  0.00     0.006 C 
BRANCH   4   5
HETATM    5  C2  UNL     1       2.222   7.589   7.812  1.00  0.00     0.068 C 
HETATM    6  C1  UNL     1       2.256   6.393   6.856  1.00  0.00     0.050 C 
HETATM    7  C3  UNL     1       0.794   7.835   8.301  1.00  0.00     0.050 C 
BRANCH   5   8
HETATM    8  O1  UNL     1       2.634   8.746   7.085  1.00  0.00    -0.387 OA
HETATM    9  H7  UNL     1       3.534   8.562   6.762  1.00  0.00     0.211 HD
ENDBRANCH   5   8
ENDBRANCH   4   5
ENDBRANCH   2   3
ENDBRANCH   1   2
BRANCH   1  10
HETATM   10  C8  UNL     1       5.083   8.163  11.651  1.00  0.00     0.264 C 
HETATM   11  O2  UNL     1       5.355   8.635  10.554  1.00  0.00    -0.265 OA
BRANCH  10  12
HETATM   12  O3  UNL     1       5.631   8.582  12.821  1.00  0.00    -0.308 OA
BRANCH  12  13
HETATM   13  C9  UNL     1       7.044   8.323  13.025  1.00  0.00     0.218 C 
HETATM   14  C10 UNL     1       7.187   7.779  14.452  1.00  0.00     0.183 C 
HETATM   15  C11 UNL     1       8.650   7.703  14.904  1.00  0.00     0.173 C 
HETATM   16  C12 UNL     1       9.333   9.043  14.660  1.00  0.00     0.205 C 
HETATM   17  O6  UNL     1       9.239   9.393  13.287  1.00  0.00    -0.356 OA
HETATM   18  C13 UNL     1       7.893   9.606  12.871  1.00  0.00     0.288 C 
BRANCH  14  19
HETATM   19  O4  UNL     1       6.617   6.464  14.536  1.00  0.00    -0.390 OA
HETATM   20  H15 UNL     1       6.650   6.233  15.489  1.00  0.00     0.210 HD
ENDBRANCH  14  19
BRANCH  15  21
HETATM   21  O5  UNL     1       8.681   7.347  16.288  1.00  0.00    -0.391 OA
HETATM   22  H17 UNL     1       9.620   7.243  16.538  1.00  0.00     0.210 HD
ENDBRANCH  15  21
BRANCH  18  23
HETATM   23  O7  UNL     1       7.946  10.077  11.531  1.00  0.00    -0.369 OA
HETATM   24  H21 UNL     1       7.620   9.369  10.940  1.00  0.00     0.212 HD
ENDBRANCH  18  23
ENDBRANCH  12  13
ENDBRANCH  10  12
ENDBRANCH   1  10
BRANCH   1  25
HETATM   25  C14 UNL     1       2.646   7.463  12.035  1.00  0.00     0.009 C 
HETATM   26  C15 UNL     1       1.653   6.266  12.179  1.00  0.00     0.007 C 
HETATM   27  C16 UNL     1       0.562   6.675  13.185  1.00  0.00     0.015 C 
HETATM   28  C17 UNL     1       0.676   8.200  13.283  1.00  0.00    -0.013 C 
HETATM   29  C18 UNL     1      -0.089   8.797  12.064  1.00  0.00     0.021 C 
HETATM   30  C19 UNL     1       0.102   8.912  14.507  1.00  0.00    -0.068 C 
HETATM   31  C23 UNL     1       2.241   8.363  13.250  1.00  0.00    -0.028 C 
HETATM   32  C20 UNL     1       0.626  10.102  14.907  1.00  0.00    -0.068 C 
HETATM   33  C35 UNL     1      -1.073   8.260  15.187  1.00  0.00     0.036 C 
HETATM   34  C21 UNL     1       1.853  10.703  14.208  1.00  0.00     0.036 C 
HETATM   35  C25 UNL     1       0.037  10.909  16.098  1.00  0.00    -0.015 C 
HETATM   36  C22 UNL     1       2.532   9.862  13.110  1.00  0.00     0.015 C 
HETATM   37  C26 UNL     1       1.050  10.795  17.268  1.00  0.00     0.020 C 
HETATM   38  C27 UNL     1      -0.119  12.407  15.702  1.00  0.00     0.021 C 
HETATM   39  C33 UNL     1      -1.399  10.390  16.481  1.00  0.00     0.013 C 
HETATM   40  C28 UNL     1      -1.155  13.202  16.493  1.00  0.00     0.080 C 
HETATM   41  C29 UNL     1      -1.544  12.544  17.797  1.00  0.00     0.135 C 
HETATM   42  O8  UNL     1      -1.542  13.192  18.844  1.00  0.00    -0.297 OA
HETATM   43  C30 UNL     1      -2.038  11.089  17.729  1.00  0.00     0.018 C 
HETATM   44  C31 UNL     1      -1.743  10.379  19.068  1.00  0.00     0.023 C 
HETATM   45  C32 UNL     1      -3.576  11.147  17.576  1.00  0.00     0.023 C 
HETATM   46  C34 UNL     1      -1.423   8.859  16.549  1.00  0.00     0.011 C 
HETATM   47  C24 UNL     1       2.930   7.834  14.548  1.00  0.00     0.016 C 
ENDBRANCH   1  25
TORSDOF 11
ENDMDL
MODEL 5
REMARK minimizedAffinity -8.56707382
REMARK CNNscore 0.259487301
REMARK CNNaffinity 6.66030884
REMARK  11 active torsions:
REMARK  status: ('A' for Active; 'I' for Inactive)
REMARK    1  A    between atoms: C2_2  and  O1_4 
REMARK    2  A    between atoms: C2_2  and  C4_5 
REMARK    3  A    between atoms: C5_6  and  C6_7 
REMARK    4  A    between atoms: C6_7  and  C7_8 
REMARK    5  A    between atoms: C7_8  and  C8_9 
REMARK    6  A    between atoms: C7_8  and  C14_21 
REMARK    7  A    between atoms: C8_9  and  O3_11 
REMARK    8  A    between atoms: O3_11  and  C9_12 
REMARK    9  A    between atoms: C10_13  and  O4_14 
REMARK   10  A    between atoms: C11_15  and  O5_16 
REMARK   11  A    between atoms: C13_19  and  O7_20 
ROOT
HETATM    1  C7  UNL     1      -2.665   6.720  14.017  1.00  0.00     0.094 C 
ENDROOT
BRANCH   1   2
HETATM    2  C6  UNL     1      -3.943   6.216  13.295  1.00  0.00     0.042 C 
BRANCH   2   3
HETATM    3  C5  UNL     1      -3.894   4.800  12.794  1.00  0.00    -0.027 C 
HETATM    4  C4  UNL     1      -4.714   4.317  11.843  1.00  0.00     0.006 C 
BRANCH   4   5
HETATM    5  C2  UNL     1      -4.742   2.899  11.313  1.00  0.00     0.068 C 
HETATM    6  C1  UNL     1      -3.512   2.121  11.790  1.00  0.00     0.050 C 
HETATM    7  C3  UNL     1      -6.022   2.187  11.753  1.00  0.00     0.050 C 
BRANCH   5   8
HETATM    8  O1  UNL     1      -4.727   2.916   9.887  1.00  0.00    -0.387 OA
HETATM    9  H7  UNL     1      -3.896   3.352   9.625  1.00  0.00     0.211 HD
ENDBRANCH   5   8
ENDBRANCH   4   5
ENDBRANCH   2   3
ENDBRANCH   1   2
BRANCH   1  10
HETATM   10  C8  UNL     1      -1.541   6.492  13.012  1.00  0.00     0.264 C 
HETATM   11  O2  UNL     1      -1.418   7.084  11.947  1.00  0.00    -0.265 OA
BRANCH  10  12
HETATM   12  O3  UNL     1      -0.712   5.505  13.440  1.00  0.00    -0.308 OA
BRANCH  12  13
HETATM   13  C9  UNL     1       0.486   5.257  12.659  1.00  0.00     0.218 C 
HETATM   14  C10 UNL     1       1.409   6.461  12.879  1.00  0.00     0.183 C 
HETATM   15  C11 UNL     1       2.603   6.466  11.918  1.00  0.00     0.173 C 
HETATM   16  C12 UNL     1       2.109   6.295  10.486  1.00  0.00     0.205 C 
HETATM   17  O6  UNL     1       1.364   5.091  10.371  1.00  0.00    -0.356 OA
HETATM   18  C13 UNL     1       0.171   5.113  11.152  1.00  0.00     0.288 C 
BRANCH  14  19
HETATM   19  O4  UNL     1       1.911   6.456  14.225  1.00  0.00    -0.390 OA
HETATM   20  H15 UNL     1       2.399   7.302  14.319  1.00  0.00     0.210 HD
ENDBRANCH  14  19
BRANCH  15  21
HETATM   21  O5  UNL     1       3.313   7.696  12.079  1.00  0.00    -0.391 OA
HETATM   22  H17 UNL     1       4.102   7.652  11.504  1.00  0.00     0.210 HD
ENDBRANCH  15  21
BRANCH  18  23
HETATM   23  O7  UNL     1      -0.542   3.923  10.846  1.00  0.00    -0.369 OA
HETATM   24  H21 UNL     1      -0.495   3.325  11.619  1.00  0.00     0.212 HD
ENDBRANCH  18  23
ENDBRANCH  12  13
ENDBRANCH  10  12
ENDBRANCH   1  10
BRANCH   1  25
HETATM   25  C14 UNL     1      -2.736   8.196  14.510  1.00  0.00     0.009 C 
HETATM   26  C15 UNL     1      -3.925   8.446  15.492  1.00  0.00     0.007 C 
HETATM   27  C16 UNL     1      -3.445   9.425  16.578  1.00  0.00     0.015 C 
HETATM   28  C17 UNL     1      -2.173  10.053  15.998  1.00  0.00    -0.013 C 
HETATM   29  C18 UNL     1      -2.620  11.192  15.033  1.00  0.00     0.021 C 
HETATM   30  C19 UNL     1      -1.165  10.701  16.946  1.00  0.00    -0.068 C 
HETATM   31  C23 UNL     1      -1.530   8.792  15.311  1.00  0.00    -0.028 C 
HETATM   32  C20 UNL     1       0.149  10.767  16.599  1.00  0.00    -0.068 C 
HETATM   33  C35 UNL     1      -1.708  11.289  18.222  1.00  0.00     0.036 C 
HETATM   34  C21 UNL     1       0.660  10.113  15.308  1.00  0.00     0.036 C 
HETATM   35  C25 UNL     1       1.208  11.480  17.486  1.00  0.00    -0.015 C 
HETATM   36  C22 UNL     1      -0.344   9.291  14.477  1.00  0.00     0.015 C 
HETATM   37  C26 UNL     1       2.087  10.370  18.121  1.00  0.00     0.020 C 
HETATM   38  C27 UNL     1       2.104  12.404  16.609  1.00  0.00     0.021 C 
HETATM   39  C33 UNL     1       0.519  12.402  18.560  1.00  0.00     0.013 C 
HETATM   40  C28 UNL     1       2.788  13.557  17.339  1.00  0.00     0.080 C 
HETATM   41  C29 UNL     1       2.839  13.369  18.838  1.00  0.00     0.135 C 
HETATM   42  O8  UNL     1       3.900  13.518  19.447  1.00  0.00    -0.297 OA
HETATM   43  C30 UNL     1       1.507  13.097  19.558  1.00  0.00     0.018 C 
HETATM   44  C31 UNL     1       1.771  12.289  20.847  1.00  0.00     0.023 C 
HETATM   45  C32 UNL     1       0.947  14.471  19.991  1.00  0.00     0.023 C 
HETATM   46  C34 UNL     1      -0.638  11.669  19.245  1.00  0.00     0.011 C 
HETATM   47  C24 UNL     1      -1.013   7.739  16.343  1.00  0.00     0.016 C 
ENDBRANCH   1  25
TORSDOF 11
ENDMDL
MODEL 6
REMARK minimizedAffinity -10.2977219
REMARK CNNscore 0.227668449
REMARK CNNaffinity 6.79174614
REMARK  11 active torsions:
REMARK  status: ('A' for Active; 'I' for Inactive)
REMARK    1  A    between atoms: C2_2  and  O1_4 
REMARK    2  A    between atoms: C2_2  and  C4_5 
REMARK    3  A    between atoms: C5_6  and  C6_7 
REMARK    4  A    between atoms: C6_7  and  C7_8 
REMARK    5  A    between atoms: C7_8  and  C8_9 
REMARK    6  A    between atoms: C7_8  and  C14_21 
REMARK    7  A    between atoms: C8_9  and  O3_11 
REMARK    8  A    between atoms: O3_11  and  C9_12 
REMARK    9  A    between atoms: C10_13  and  O4_14 
REMARK   10  A    between atoms: C11_15  and  O5_16 
REMARK   11  A    between atoms: C13_19  and  O7_20 
ROOT
HETATM    1  C7  UNL     1      -0.875   4.843  12.732  1.00  0.00     0.094 C 
ENDROOT
BRANCH   1   2
HETATM    2  C6  UNL     1      -1.278   3.646  11.830  1.00  0.00     0.042 C 
BRANCH   2   3
HETATM    3  C5  UNL     1      -2.695   3.655  11.328  1.00  0.00    -0.027 C 
HETATM    4  C4  UNL     1      -3.612   2.731  11.669  1.00  0.00     0.006 C 
BRANCH   4   5
HETATM    5  C2  UNL     1      -5.043   2.660  11.180  1.00  0.00     0.068 C 
HETATM    6  C1  UNL     1      -5.577   1.228  11.286  1.00  0.00     0.050 C 
HETATM    7  C3  UNL     1      -5.931   3.616  11.976  1.00  0.00     0.050 C 
BRANCH   5   8
HETATM    8  O1  UNL     1      -5.104   3.053   9.810  1.00  0.00    -0.387 OA
HETATM    9  H7  UNL     1      -4.552   2.420   9.317  1.00  0.00     0.211 HD
ENDBRANCH   5   8
ENDBRANCH   4   5
ENDBRANCH   2   3
ENDBRANCH   1   2
BRANCH   1  10
HETATM   10  C8  UNL     1       0.366   5.426  12.065  1.00  0.00     0.264 C 
HETATM   11  O2  UNL     1       1.364   5.820  12.655  1.00  0.00    -0.265 OA
BRANCH  10  12
HETATM   12  O3  UNL     1       0.199   5.489  10.718  1.00  0.00    -0.308 OA
BRANCH  12  13
HETATM   13  C9  UNL     1       1.290   6.040   9.936  1.00  0.00     0.218 C 
HETATM   14  C10 UNL     1       2.579   5.419  10.487  1.00  0.00     0.183 C 
HETATM   15  C11 UNL     1       3.838   6.099   9.935  1.00  0.00     0.173 C 
HETATM   16  C12 UNL     1       3.728   7.607  10.117  1.00  0.00     0.205 C 
HETATM   17  O6  UNL     1       2.559   8.091   9.471  1.00  0.00    -0.356 OA
HETATM   18  C13 UNL     1       1.363   7.580  10.055  1.00  0.00     0.288 C 
BRANCH  14  19
HETATM   19  O4  UNL     1       2.634   4.023  10.153  1.00  0.00    -0.390 OA
HETATM   20  H15 UNL     1       3.422   3.679  10.625  1.00  0.00     0.210 HD
ENDBRANCH  14  19
BRANCH  15  21
HETATM   21  O5  UNL     1       4.977   5.573  10.620  1.00  0.00    -0.391 OA
HETATM   22  H17 UNL     1       5.769   5.973  10.210  1.00  0.00     0.210 HD
ENDBRANCH  15  21
BRANCH  18  23
HETATM   23  O7  UNL     1       0.279   8.238   9.415  1.00  0.00    -0.369 OA
HETATM   24  H21 UNL     1      -0.176   7.594   8.836  1.00  0.00     0.212 HD
ENDBRANCH  18  23
ENDBRANCH  12  13
ENDBRANCH  10  12
ENDBRANCH   1  10
BRANCH   1  25
HETATM   25  C14 UNL     1      -1.995   5.904  12.943  1.00  0.00     0.009 C 
HETATM   26  C15 UNL     1      -3.190   5.358  13.787  1.00  0.00     0.007 C 
HETATM   27  C16 UNL     1      -3.681   6.493  14.704  1.00  0.00     0.015 C 
HETATM   28  C17 UNL     1      -3.079   7.767  14.099  1.00  0.00    -0.013 C 
HETATM   29  C18 UNL     1      -4.000   8.194  12.918  1.00  0.00     0.021 C 
HETATM   30  C19 UNL     1      -2.942   9.012  14.974  1.00  0.00    -0.068 C 
HETATM   31  C23 UNL     1      -1.655   7.234  13.694  1.00  0.00    -0.028 C 
HETATM   32  C20 UNL     1      -1.975   9.929  14.702  1.00  0.00    -0.068 C 
HETATM   33  C35 UNL     1      -3.945   9.179  16.086  1.00  0.00     0.036 C 
HETATM   34  C21 UNL     1      -0.948   9.691  13.586  1.00  0.00     0.036 C 
HETATM   35  C25 UNL     1      -1.833  11.250  15.509  1.00  0.00    -0.015 C 
HETATM   36  C22 UNL     1      -0.987   8.333  12.858  1.00  0.00     0.015 C 
HETATM   37  C26 UNL     1      -0.563  11.111  16.388  1.00  0.00     0.020 C 
HETATM   38  C27 UNL     1      -1.652  12.452  14.536  1.00  0.00     0.021 C 
HETATM   39  C33 UNL     1      -3.130  11.542  16.352  1.00  0.00     0.013 C 
HETATM   40  C28 UNL     1      -2.050  13.821  15.084  1.00  0.00     0.080 C 
HETATM   41  C29 UNL     1      -2.141  13.856  16.592  1.00  0.00     0.135 C 
HETATM   42  O8  UNL     1      -1.575  14.747  17.228  1.00  0.00    -0.297 OA
HETATM   43  C30 UNL     1      -3.047  12.811  17.266  1.00  0.00     0.018 C 
HETATM   44  C31 UNL     1      -2.535  12.527  18.695  1.00  0.00     0.023 C 
HETATM   45  C32 UNL     1      -4.445  13.458  17.406  1.00  0.00     0.023 C 
HETATM   46  C34 UNL     1      -3.596  10.280  17.086  1.00  0.00     0.011 C 
HETATM   47  C24 UNL     1      -0.752   6.922  14.931  1.00  0.00     0.016 C 
ENDBRANCH   1  25
TORSDOF 11
ENDMDL
MODEL 7
REMARK minimizedAffinity -8.114048
REMARK CNNscore 0.187247887
REMARK CNNaffinity 6.31597471
REMARK  11 active torsions:
REMARK  status: ('A' for Active; 'I' for Inactive)
REMARK    1  A    between atoms: C2_2  and  O1_4 
REMARK    2  A    between atoms: C2_2  and  C4_5 
REMARK    3  A    between atoms: C5_6  and  C6_7 
REMARK    4  A    between atoms: C6_7  and  C7_8 
REMARK    5  A    between atoms: C7_8  and  C8_9 
REMARK    6  A    between atoms: C7_8  and  C14_21 
REMARK    7  A    between atoms: C8_9  and  O3_11 
REMARK    8  A    between atoms: O3_11  and  C9_12 
REMARK    9  A    between atoms: C10_13  and  O4_14 
REMARK   10  A    between atoms: C11_15  and  O5_16 
REMARK   11  A    between atoms: C13_19  and  O7_20 
ROOT
HETATM    1  C7  UNL     1      -0.076   9.022  12.537  1.00  0.00     0.094 C 
ENDROOT
BRANCH   1   2
HETATM    2  C6  UNL     1      -0.284   8.207  11.232  1.00  0.00     0.042 C 
BRANCH   2   3
HETATM    3  C5  UNL     1       0.918   8.089  10.337  1.00  0.00    -0.027 C 
HETATM    4  C4  UNL     1       0.963   7.296   9.251  1.00  0.00     0.006 C 
BRANCH   4   5
HETATM    5  C2  UNL     1       2.146   7.104   8.326  1.00  0.00     0.068 C 
HETATM    6  C1  UNL     1       1.734   7.340   6.869  1.00  0.00     0.050 C 
HETATM    7  C3  UNL     1       3.288   8.043   8.712  1.00  0.00     0.050 C 
BRANCH   5   8
HETATM    8  O1  UNL     1       2.631   5.766   8.435  1.00  0.00    -0.387 OA
HETATM    9  H7  UNL     1       1.899   5.184   8.164  1.00  0.00     0.211 HD
ENDBRANCH   5   8
ENDBRANCH   4   5
ENDBRANCH   2   3
ENDBRANCH   1   2
BRANCH   1  10
HETATM   10  C8  UNL     1      -1.468   9.130  13.148  1.00  0.00     0.264 C 
HETATM   11  O2  UNL     1      -1.739   9.726  14.183  1.00  0.00    -0.265 OA
BRANCH  10  12
HETATM   12  O3  UNL     1      -2.370   8.433  12.408  1.00  0.00    -0.308 OA
BRANCH  12  13
HETATM   13  C9  UNL     1      -3.148   7.416  13.091  1.00  0.00     0.218 C 
HETATM   14  C10 UNL     1      -4.073   8.155  14.065  1.00  0.00     0.183 C 
HETATM   15  C11 UNL     1      -4.773   7.202  15.042  1.00  0.00     0.173 C 
HETATM   16  C12 UNL     1      -3.741   6.297  15.703  1.00  0.00     0.205 C 
HETATM   17  O6  UNL     1      -3.021   5.577  14.713  1.00  0.00    -0.356 OA
HETATM   18  C13 UNL     1      -2.249   6.431  13.873  1.00  0.00     0.288 C 
BRANCH  14  19
HETATM   19  O4  UNL     1      -5.079   8.877  13.337  1.00  0.00    -0.390 OA
HETATM   20  H15 UNL     1      -5.557   9.401  14.015  1.00  0.00     0.210 HD
ENDBRANCH  14  19
BRANCH  15  21
HETATM   21  O5  UNL     1      -5.479   7.981  16.011  1.00  0.00    -0.391 OA
HETATM   22  H17 UNL     1      -5.966   7.357  16.583  1.00  0.00     0.210 HD
ENDBRANCH  15  21
BRANCH  18  23
HETATM   23  O7  UNL     1      -1.481   5.589  13.025  1.00  0.00    -0.369 OA
HETATM   24  H21 UNL     1      -1.842   5.649  12.118  1.00  0.00     0.212 HD
ENDBRANCH  18  23
ENDBRANCH  12  13
ENDBRANCH  10  12
ENDBRANCH   1  10
BRANCH   1  25
HETATM   25  C14 UNL     1       0.966   8.415  13.523  1.00  0.00     0.009 C 
HETATM   26  C15 UNL     1       1.669   7.145  12.948  1.00  0.00     0.007 C 
HETATM   27  C16 UNL     1       3.145   7.180  13.386  1.00  0.00     0.015 C 
HETATM   28  C17 UNL     1       3.184   8.199  14.530  1.00  0.00    -0.013 C 
HETATM   29  C18 UNL     1       2.718   7.460  15.820  1.00  0.00     0.021 C 
HETATM   30  C19 UNL     1       4.515   8.853  14.898  1.00  0.00    -0.068 C 
HETATM   31  C23 UNL     1       2.189   9.283  13.970  1.00  0.00    -0.028 C 
HETATM   32  C20 UNL     1       4.530  10.086  15.472  1.00  0.00    -0.068 C 
HETATM   33  C35 UNL     1       5.764   8.050  14.642  1.00  0.00     0.036 C 
HETATM   34  C21 UNL     1       3.233  10.883  15.671  1.00  0.00     0.036 C 
HETATM   35  C25 UNL     1       5.846  10.771  15.936  1.00  0.00    -0.015 C 
HETATM   36  C22 UNL     1       1.932  10.283  15.103  1.00  0.00     0.015 C 
HETATM   37  C26 UNL     1       6.130  11.928  14.943  1.00  0.00     0.020 C 
HETATM   38  C27 UNL     1       5.666  11.358  17.368  1.00  0.00     0.021 C 
HETATM   39  C33 UNL     1       7.027   9.732  16.017  1.00  0.00     0.013 C 
HETATM   40  C28 UNL     1       6.947  11.551  18.175  1.00  0.00     0.080 C 
HETATM   41  C29 UNL     1       8.196  11.555  17.323  1.00  0.00     0.135 C 
HETATM   42  O8  UNL     1       9.029  12.454  17.447  1.00  0.00    -0.297 OA
HETATM   43  C30 UNL     1       8.417  10.348  16.395  1.00  0.00     0.018 C 
HETATM   44  C31 UNL     1       9.267  10.778  15.180  1.00  0.00     0.023 C 
HETATM   45  C32 UNL     1       9.254   9.321  17.193  1.00  0.00     0.023 C 
HETATM   46  C34 UNL     1       7.061   8.849  14.766  1.00  0.00     0.011 C 
HETATM   47  C24 UNL     1       2.766  10.052  12.738  1.00  0.00     0.016 C 
ENDBRANCH   1  25
TORSDOF 11
ENDMDL
MODEL 8
REMARK minimizedAffinity -7.86864758
REMARK CNNscore 0.184299722
REMARK CNNaffinity 6.01124239
REMARK  11 active torsions:
REMARK  status: ('A' for Active; 'I' for Inactive)
REMARK    1  A    between atoms: C2_2  and  O1_4 
REMARK    2  A    between atoms: C2_2  and  C4_5 
REMARK    3  A    between atoms: C5_6  and  C6_7 
REMARK    4  A    between atoms: C6_7  and  C7_8 
REMARK    5  A    between atoms: C7_8  and  C8_9 
REMARK    6  A    between atoms: C7_8  and  C14_21 
REMARK    7  A    between atoms: C8_9  and  O3_11 
REMARK    8  A    between atoms: O3_11  and  C9_12 
REMARK    9  A    between atoms: C10_13  and  O4_14 
REMARK   10  A    between atoms: C11_15  and  O5_16 
REMARK   11  A    between atoms: C13_19  and  O7_20 
ROOT
HETATM    1  C7  UNL     1      -5.442 -10.522   7.732  1.00  0.00     0.094 C 
ENDROOT
BRANCH   1   2
HETATM    2  C6  UNL     1      -4.832 -10.320   9.145  1.00  0.00     0.042 C 
BRANCH   2   3
HETATM    3  C5  UNL     1      -5.793 -10.440  10.295  1.00  0.00    -0.027 C 
HETATM    4  C4  UNL     1      -5.991  -9.469  11.205  1.00  0.00     0.006 C 
BRANCH   4   5
HETATM    5  C2  UNL     1      -6.915  -9.532  12.402  1.00  0.00     0.068 C 
HETATM    6  C1  UNL     1      -8.281  -8.928  12.060  1.00  0.00     0.050 C 
HETATM    7  C3  UNL     1      -7.078 -10.975  12.880  1.00  0.00     0.050 C 
BRANCH   5   8
HETATM    8  O1  UNL     1      -6.359  -8.781  13.481  1.00  0.00    -0.387 OA
HETATM    9  H7  UNL     1      -6.284  -7.862  13.167  1.00  0.00     0.211 HD
ENDBRANCH   5   8
ENDBRANCH   4   5
ENDBRANCH   2   3
ENDBRANCH   1   2
BRANCH   1  10
HETATM   10  C8  UNL     1      -6.497  -9.428   7.610  1.00  0.00     0.264 C 
HETATM   11  O2  UNL     1      -6.262  -8.230   7.508  1.00  0.00    -0.265 OA
BRANCH  10  12
HETATM   12  O3  UNL     1      -7.746  -9.959   7.673  1.00  0.00    -0.308 OA
BRANCH  12  13
HETATM   13  C9  UNL     1      -8.821  -9.210   7.049  1.00  0.00     0.218 C 
HETATM   14  C10 UNL     1      -9.682  -8.651   8.189  1.00  0.00     0.183 C 
HETATM   15  C11 UNL     1     -11.001  -8.054   7.685  1.00  0.00     0.173 C 
HETATM   16  C12 UNL     1     -11.708  -9.059   6.785  1.00  0.00     0.205 C 
HETATM   17  O6  UNL     1     -10.864  -9.420   5.702  1.00  0.00    -0.356 OA
HETATM   18  C13 UNL     1      -9.689 -10.103   6.132  1.00  0.00     0.288 C 
BRANCH  14  19
HETATM   19  O4  UNL     1      -8.961  -7.628   8.893  1.00  0.00    -0.390 OA
HETATM   20  H15 UNL     1      -9.527  -7.400   9.661  1.00  0.00     0.210 HD
ENDBRANCH  14  19
BRANCH  15  21
HETATM   21  O5  UNL     1     -11.806  -7.711   8.815  1.00  0.00    -0.391 OA
HETATM   22  H17 UNL     1     -12.612  -7.276   8.474  1.00  0.00     0.210 HD
ENDBRANCH  15  21
BRANCH  18  23
HETATM   23  O7  UNL     1      -9.005 -10.524   4.960  1.00  0.00    -0.369 OA
HETATM   24  H21 UNL     1      -8.197  -9.980   4.860  1.00  0.00     0.212 HD
ENDBRANCH  18  23
ENDBRANCH  12  13
ENDBRANCH  10  12
ENDBRANCH   1  10
BRANCH   1  25
HETATM   25  C14 UNL     1      -4.410 -10.490   6.567  1.00  0.00     0.009 C 
HETATM   26  C15 UNL     1      -3.207 -11.459   6.802  1.00  0.00     0.007 C 
HETATM   27  C16 UNL     1      -2.831 -12.086   5.447  1.00  0.00     0.015 C 
HETATM   28  C17 UNL     1      -3.503 -11.186   4.404  1.00  0.00    -0.013 C 
HETATM   29  C18 UNL     1      -2.576  -9.950   4.199  1.00  0.00     0.021 C 
HETATM   30  C19 UNL     1      -3.759 -11.735   3.002  1.00  0.00    -0.068 C 
HETATM   31  C23 UNL     1      -4.871 -10.898   5.127  1.00  0.00    -0.028 C 
HETATM   32  C20 UNL     1      -4.780 -11.237   2.254  1.00  0.00    -0.068 C 
HETATM   33  C35 UNL     1      -2.809 -12.790   2.498  1.00  0.00     0.036 C 
HETATM   34  C21 UNL     1      -5.749 -10.195   2.830  1.00  0.00     0.036 C 
HETATM   35  C25 UNL     1      -5.044 -11.703   0.794  1.00  0.00    -0.015 C 
HETATM   36  C22 UNL     1      -5.587  -9.813   4.314  1.00  0.00     0.015 C 
HETATM   37  C26 UNL     1      -6.330 -12.570   0.821  1.00  0.00     0.020 C 
HETATM   38  C27 UNL     1      -5.279 -10.468  -0.125  1.00  0.00     0.021 C 
HETATM   39  C33 UNL     1      -3.801 -12.472   0.211  1.00  0.00     0.013 C 
HETATM   40  C28 UNL     1      -5.000 -10.680  -1.611  1.00  0.00     0.080 C 
HETATM   41  C29 UNL     1      -4.963 -12.137  -2.010  1.00  0.00     0.135 C 
HETATM   42  O8  UNL     1      -5.613 -12.533  -2.978  1.00  0.00    -0.297 OA
HETATM   43  C30 UNL     1      -4.007 -13.055  -1.228  1.00  0.00     0.018 C 
HETATM   44  C31 UNL     1      -4.544 -14.502  -1.251  1.00  0.00     0.023 C 
HETATM   45  C32 UNL     1      -2.665 -13.058  -1.998  1.00  0.00     0.023 C 
HETATM   46  C34 UNL     1      -3.270 -13.493   1.222  1.00  0.00     0.011 C 
HETATM   47  C24 UNL     1      -5.789 -12.159   5.207  1.00  0.00     0.016 C 
ENDBRANCH   1  25
TORSDOF 11
ENDMDL
MODEL 9
REMARK minimizedAffinity -9.11077499
REMARK CNNscore 0.183483317
REMARK CNNaffinity 6.79420233
REMARK  11 active torsions:
REMARK  status: ('A' for Active; 'I' for Inactive)
REMARK    1  A    between atoms: C2_2  and  O1_4 
REMARK    2  A    between atoms: C2_2  and  C4_5 
REMARK    3  A    between atoms: C5_6  and  C6_7 
REMARK    4  A    between atoms: C6_7  and  C7_8 
REMARK    5  A    between atoms: C7_8  and  C8_9 
REMARK    6  A    between atoms: C7_8  and  C14_21 
REMARK    7  A    between atoms: C8_9  and  O3_11 
REMARK    8  A    between atoms: O3_11  and  C9_12 
REMARK    9  A    between atoms: C10_13  and  O4_14 
REMARK   10  A    between atoms: C11_15  and  O5_16 
REMARK   11  A    between atoms: C13_19  and  O7_20 
ROOT
HETATM    1  C7  UNL     1      -1.832   5.784  12.083  1.00  0.00     0.094 C 
ENDROOT
BRANCH   1   2
HETATM    2  C6  UNL     1      -0.379   5.517  11.607  1.00  0.00     0.042 C 
BRANCH   2   3
HETATM    3  C5  UNL     1       0.130   6.426  10.523  1.00  0.00    -0.027 C 
HETATM    4  C4  UNL     1       1.370   6.348  10.006  1.00  0.00     0.006 C 
BRANCH   4   5
HETATM    5  C2  UNL     1       1.959   7.246   8.940  1.00  0.00     0.068 C 
HETATM    6  C1  UNL     1       2.472   6.416   7.759  1.00  0.00     0.050 C 
HETATM    7  C3  UNL     1       0.923   8.264   8.461  1.00  0.00     0.050 C 
BRANCH   5   8
HETATM    8  O1  UNL     1       3.062   7.974   9.478  1.00  0.00    -0.387 OA
HETATM    9  H7  UNL     1       3.720   7.312   9.755  1.00  0.00     0.211 HD
ENDBRANCH   5   8
ENDBRANCH   4   5
ENDBRANCH   2   3
ENDBRANCH   1   2
BRANCH   1  10
HETATM   10  C8  UNL     1      -2.561   4.467  11.844  1.00  0.00     0.264 C 
HETATM   11  O2  UNL     1      -2.329   3.688  10.928  1.00  0.00    -0.265 OA
BRANCH  10  12
HETATM   12  O3  UNL     1      -3.542   4.290  12.768  1.00  0.00    -0.308 OA
BRANCH  12  13
HETATM   13  C9  UNL     1      -4.886   4.053  12.275  1.00  0.00     0.218 C 
HETATM   14  C10 UNL     1      -5.843   4.666  13.305  1.00  0.00     0.183 C 
HETATM   15  C11 UNL     1      -7.303   4.270  13.054  1.00  0.00     0.173 C 
HETATM   16  C12 UNL     1      -7.406   2.756  12.909  1.00  0.00     0.205 C 
HETATM   17  O6  UNL     1      -6.566   2.311  11.854  1.00  0.00    -0.356 OA
HETATM   18  C13 UNL     1      -5.185   2.543  12.122  1.00  0.00     0.288 C 
BRANCH  14  19
HETATM   19  O4  UNL     1      -5.750   6.099  13.270  1.00  0.00    -0.390 OA
HETATM   20  H15 UNL     1      -6.303   6.408  14.019  1.00  0.00     0.210 HD
ENDBRANCH  14  19
BRANCH  15  21
HETATM   21  O5  UNL     1      -8.097   4.743  14.144  1.00  0.00    -0.391 OA
HETATM   22  H17 UNL     1      -9.028   4.535  13.934  1.00  0.00     0.210 HD
ENDBRANCH  15  21
BRANCH  18  23
HETATM   23  O7  UNL     1      -4.453   1.938  11.066  1.00  0.00    -0.369 OA
HETATM   24  H21 UNL     1      -4.076   2.645  10.505  1.00  0.00     0.212 HD
ENDBRANCH  18  23
ENDBRANCH  12  13
ENDBRANCH  10  12
ENDBRANCH   1  10
BRANCH   1  25
HETATM   25  C14 UNL     1      -1.953   6.278  13.555  1.00  0.00     0.009 C 
HETATM   26  C15 UNL     1      -0.713   5.893  14.423  1.00  0.00     0.007 C 
HETATM   27  C16 UNL     1      -0.420   7.065  15.377  1.00  0.00     0.015 C 
HETATM   28  C17 UNL     1      -1.702   7.905  15.363  1.00  0.00    -0.013 C 
HETATM   29  C18 UNL     1      -2.705   7.230  16.346  1.00  0.00     0.021 C 
HETATM   30  C19 UNL     1      -1.636   9.369  15.796  1.00  0.00    -0.068 C 
HETATM   31  C23 UNL     1      -2.077   7.812  13.837  1.00  0.00    -0.028 C 
HETATM   32  C20 UNL     1      -2.538  10.262  15.308  1.00  0.00    -0.068 C 
HETATM   33  C35 UNL     1      -0.578   9.736  16.803  1.00  0.00     0.036 C 
HETATM   34  C21 UNL     1      -3.569   9.849  14.249  1.00  0.00     0.036 C 
HETATM   35  C25 UNL     1      -2.569  11.747  15.768  1.00  0.00    -0.015 C 
HETATM   36  C22 UNL     1      -3.477   8.418  13.682  1.00  0.00     0.015 C 
HETATM   37  C26 UNL     1      -2.040  12.599  14.584  1.00  0.00     0.020 C 
HETATM   38  C27 UNL     1      -4.031  12.175  16.093  1.00  0.00     0.021 C 
HETATM   39  C33 UNL     1      -1.733  11.949  17.087  1.00  0.00     0.013 C 
HETATM   40  C28 UNL     1      -4.183  13.352  17.053  1.00  0.00     0.080 C 
HETATM   41  C29 UNL     1      -2.924  14.177  17.191  1.00  0.00     0.135 C 
HETATM   42  O8  UNL     1      -2.971  15.403  17.078  1.00  0.00    -0.297 OA
HETATM   43  C30 UNL     1      -1.636  13.433  17.580  1.00  0.00     0.018 C 
HETATM   44  C31 UNL     1      -0.411  14.199  17.034  1.00  0.00     0.023 C 
HETATM   45  C32 UNL     1      -1.545  13.476  19.123  1.00  0.00     0.023 C 
HETATM   46  C34 UNL     1      -0.379  11.240  16.987  1.00  0.00     0.011 C 
HETATM   47  C24 UNL     1      -1.083   8.597  12.922  1.00  0.00     0.016 C 
ENDBRANCH   1  25
TORSDOF 11
ENDMDL
