MODEL 1
REMARK minimizedAffinity -9.21857357
REMARK CNNscore 0.700355172
REMARK CNNaffinity 6.75038481
REMARK  14 active torsions:
REMARK  status: ('A' for Active; 'I' for Inactive)
REMARK    1  A    between atoms: C19_20  and  O2_21 
REMARK    2  A    between atoms: C19_20  and  C20_22 
REMARK    3  A    between atoms: C20_22  and  C21_24 
REMARK    4  A    between atoms: C21_24  and  O4_25 
REMARK    5  A    between atoms: O4_25  and  C22_26 
REMARK    6  A    between atoms: C22_26  and  C23_28 
REMARK    7  A    between atoms: C23_28  and  C24_29 
REMARK    8  A    between atoms: C24_29  and  C25_30 
REMARK       I    between atoms: C25_30  and  N1_32 
REMARK    9  A    between atoms: N1_32  and  C26_33 
REMARK   10  A    between atoms: C26_33  and  C27_34 
REMARK   11  A    between atoms: C26_33  and  C36_45 
REMARK   12  A    between atoms: C27_34  and  C28_35 
REMARK   13  A    between atoms: C33_41  and  O7_42 
REMARK   14  A    between atoms: C36_45  and  O9_47 
ROOT
HETATM    1  O4  UNL     1      -0.239  52.214 -13.332  1.00  0.00    -0.314 OA
ENDROOT
BRANCH   1   2
HETATM    2  C21 UNL     1      -0.550  51.658 -12.060  1.00  0.00     0.260 C 
BRANCH   2   3
HETATM    3  C20 UNL     1      -1.211  52.681 -11.144  1.00  0.00     0.185 C 
HETATM    4  O3  UNL     1      -2.371  52.502 -10.756  1.00  0.00    -0.292 OA
BRANCH   3   5
HETATM    5  C19 UNL     1      -0.400  53.929 -10.707  1.00  0.00     0.128 C 
HETATM    6  C14 UNL     1       0.595  53.730  -9.520  1.00  0.00    -0.002 C 
HETATM    7  C13 UNL     1       1.958  53.088  -9.847  1.00  0.00     0.013 C 
HETATM    8  C15 UNL     1      -0.087  52.926  -8.377  1.00  0.00     0.019 C 
HETATM    9  C16 UNL     1       0.858  55.221  -9.147  1.00  0.00     0.002 C 
HETATM   10  C12 UNL     1       2.987  53.263  -8.711  1.00  0.00     0.007 C 
HETATM   11  C11 UNL     1       3.164  54.743  -8.303  1.00  0.00     0.002 C 
HETATM   12  C2  UNL     1       4.236  55.020  -7.197  1.00  0.00    -0.016 C 
HETATM   13  C10 UNL     1       1.786  55.380  -7.935  1.00  0.00    -0.004 C 
HETATM   14  C1  UNL     1       3.788  54.474  -5.820  1.00  0.00     0.020 C 
HETATM   15  C3  UNL     1       5.600  54.383  -7.573  1.00  0.00     0.022 C 
HETATM   16  C7  UNL     1       4.435  56.536  -7.110  1.00  0.00    -0.068 C 
HETATM   17  C4  UNL     1       6.736  54.781  -6.630  1.00  0.00     0.084 C 
HETATM   18  C5  UNL     1       6.774  56.267  -6.361  1.00  0.00     0.149 C 
HETATM   19  O1  UNL     1       7.752  56.809  -5.849  1.00  0.00    -0.293 OA
HETATM   20  C6  UNL     1       5.593  57.093  -6.711  1.00  0.00     0.053 C 
HETATM   21  C8  UNL     1       3.316  57.425  -7.605  1.00  0.00     0.035 C 
HETATM   22  C9  UNL     1       1.923  56.828  -7.425  1.00  0.00     0.010 C 
HETATM   23  C17 UNL     1      -0.541  55.822  -9.091  1.00  0.00     0.009 C 
HETATM   24  C18 UNL     1      -1.329  55.066 -10.179  1.00  0.00     0.047 C 
BRANCH   5  25
HETATM   25  O2  UNL     1       0.295  54.458 -11.844  1.00  0.00    -0.381 OA
HETATM   26  H27 UNL     1      -0.377  54.695 -12.509  1.00  0.00     0.211 HD
ENDBRANCH   5  25
ENDBRANCH   3   5
ENDBRANCH   2   3
ENDBRANCH   1   2
BRANCH   1  27
HETATM   27  C22 UNL     1       0.884  51.710 -13.908  1.00  0.00     0.259 C 
HETATM   28  O5  UNL     1       1.704  51.008 -13.332  1.00  0.00    -0.265 OA
BRANCH  27  29
HETATM   29  C23 UNL     1       1.082  52.226 -15.314  1.00  0.00     0.120 C 
BRANCH  29  30
HETATM   30  C24 UNL     1       1.022  51.164 -16.406  1.00  0.00     0.112 C 
BRANCH  30  31
HETATM   31  C25 UNL     1       0.481  51.720 -17.707  1.00  0.00     0.218 C 
HETATM   32  O6  UNL     1       0.743  52.839 -18.122  1.00  0.00    -0.274 OA
HETATM   33  N1  UNL     1      -0.328  50.830 -18.380  1.00  0.00    -0.346 N 
HETATM   34  H34 UNL     1      -0.773  50.119 -17.813  1.00  0.00     0.163 HD
BRANCH  33  35
HETATM   35  C26 UNL     1      -1.097  51.281 -19.553  1.00  0.00     0.186 C 
BRANCH  35  36
HETATM   36  C27 UNL     1      -0.982  50.259 -20.690  1.00  0.00     0.077 C 
BRANCH  36  37
HETATM   37  C28 UNL     1      -0.902  50.874 -22.052  1.00  0.00    -0.028 A 
HETATM   38  C29 UNL     1      -1.533  50.421 -23.194  1.00  0.00     0.096 A 
HETATM   39  N2  UNL     1      -1.213  51.262 -24.225  1.00  0.00    -0.365 N 
HETATM   40  C30 UNL     1      -0.374  52.258 -23.784  1.00  0.00     0.043 A 
HETATM   41  H39 UNL     1      -1.540  51.170 -25.177  1.00  0.00     0.165 HD
HETATM   42  C31 UNL     1       0.201  53.328 -24.484  1.00  0.00     0.033 A 
HETATM   43  C35 UNL     1      -0.157  52.040 -22.423  1.00  0.00     0.001 A 
HETATM   44  C32 UNL     1       1.027  54.203 -23.769  1.00  0.00     0.039 A 
HETATM   45  C33 UNL     1       1.260  53.999 -22.413  1.00  0.00     0.066 A 
HETATM   46  C34 UNL     1       0.680  52.934 -21.724  1.00  0.00     0.050 A 
BRANCH  45  47
HETATM   47  O7  UNL     1       2.069  54.840 -21.704  1.00  0.00    -0.361 OA
HETATM   48  H42 UNL     1       2.378  55.546 -22.294  1.00  0.00     0.217 HD
ENDBRANCH  45  47
ENDBRANCH  36  37
ENDBRANCH  35  36
BRANCH  35  49
HETATM   49  C36 UNL     1      -2.553  51.393 -19.108  1.00  0.00     0.163 C 
HETATM   50  O8  UNL     1      -2.940  51.454 -17.948  1.00  0.00    -0.648 OA
BRANCH  49  51
HETATM   51  O9  UNL     1      -3.432  51.428 -20.125  1.00  0.00    -0.775 OA
HETATM   52  H44 UNL     1      -4.306  51.542 -19.701  1.00  0.00     0.167 HD
ENDBRANCH  49  51
ENDBRANCH  35  49
ENDBRANCH  33  35
ENDBRANCH  30  31
ENDBRANCH  29  30
ENDBRANCH  27  29
ENDBRANCH   1  27
TORSDOF 14
ENDMDL
MODEL 2
REMARK minimizedAffinity -9.32416725
REMARK CNNscore 0.518284321
REMARK CNNaffinity 6.50048208
REMARK  14 active torsions:
REMARK  status: ('A' for Active; 'I' for Inactive)
REMARK    1  A    between atoms: C19_20  and  O2_21 
REMARK    2  A    between atoms: C19_20  and  C20_22 
REMARK    3  A    between atoms: C20_22  and  C21_24 
REMARK    4  A    between atoms: C21_24  and  O4_25 
REMARK    5  A    between atoms: O4_25  and  C22_26 
REMARK    6  A    between atoms: C22_26  and  C23_28 
REMARK    7  A    between atoms: C23_28  and  C24_29 
REMARK    8  A    between atoms: C24_29  and  C25_30 
REMARK       I    between atoms: C25_30  and  N1_32 
REMARK    9  A    between atoms: N1_32  and  C26_33 
REMARK   10  A    between atoms: C26_33  and  C27_34 
REMARK   11  A    between atoms: C26_33  and  C36_45 
REMARK   12  A    between atoms: C27_34  and  C28_35 
REMARK   13  A    between atoms: C33_41  and  O7_42 
REMARK   14  A    between atoms: C36_45  and  O9_47 
ROOT
HETATM    1  O4  UNL     1      -6.334  47.714 -24.898  1.00  0.00    -0.314 OA
ENDROOT
BRANCH   1   2
HETATM    2  C21 UNL     1      -7.529  48.091 -25.570  1.00  0.00     0.260 C 
BRANCH   2   3
HETATM    3  C20 UNL     1      -7.610  47.476 -26.962  1.00  0.00     0.185 C 
HETATM    4  O3  UNL     1      -6.579  47.096 -27.529  1.00  0.00    -0.292 OA
BRANCH   3   5
HETATM    5  C19 UNL     1      -8.999  47.331 -27.638  1.00  0.00     0.128 C 
HETATM    6  C14 UNL     1     -10.058  46.477 -26.871  1.00  0.00    -0.002 C 
HETATM    7  C13 UNL     1     -10.809  47.164 -25.713  1.00  0.00     0.013 C 
HETATM    8  C15 UNL     1      -9.412  45.161 -26.351  1.00  0.00     0.019 C 
HETATM    9  C16 UNL     1     -11.085  46.242 -28.020  1.00  0.00     0.002 C 
HETATM   10  C12 UNL     1     -12.059  46.380 -25.266  1.00  0.00     0.007 C 
HETATM   11  C11 UNL     1     -13.019  46.087 -26.440  1.00  0.00     0.002 C 
HETATM   12  C2  UNL     1     -14.347  45.347 -26.066  1.00  0.00    -0.016 C 
HETATM   13  C10 UNL     1     -12.264  45.356 -27.596  1.00  0.00    -0.004 C 
HETATM   14  C1  UNL     1     -14.082  43.883 -25.639  1.00  0.00     0.020 C 
HETATM   15  C3  UNL     1     -15.087  46.082 -24.918  1.00  0.00     0.022 C 
HETATM   16  C7  UNL     1     -15.255  45.367 -27.299  1.00  0.00    -0.068 C 
HETATM   17  C4  UNL     1     -16.482  45.520 -24.639  1.00  0.00     0.084 C 
HETATM   18  C5  UNL     1     -17.290  45.319 -25.899  1.00  0.00     0.149 C 
HETATM   19  O1  UNL     1     -18.504  45.129 -25.867  1.00  0.00    -0.293 OA
HETATM   20  C6  UNL     1     -16.597  45.338 -27.209  1.00  0.00     0.053 C 
HETATM   21  C8  UNL     1     -14.605  45.545 -28.653  1.00  0.00     0.035 C 
HETATM   22  C9  UNL     1     -13.203  44.951 -28.751  1.00  0.00     0.010 C 
HETATM   23  C17 UNL     1     -10.212  45.802 -29.189  1.00  0.00     0.009 C 
HETATM   24  C18 UNL     1      -8.900  46.592 -29.008  1.00  0.00     0.047 C 
BRANCH   5  25
HETATM   25  O2  UNL     1      -9.527  48.636 -27.908  1.00  0.00    -0.381 OA
HETATM   26  H27 UNL     1      -8.897  49.086 -28.501  1.00  0.00     0.211 HD
ENDBRANCH   5  25
ENDBRANCH   3   5
ENDBRANCH   2   3
ENDBRANCH   1   2
BRANCH   1  27
HETATM   27  C22 UNL     1      -5.386  48.687 -24.845  1.00  0.00     0.259 C 
HETATM   28  O5  UNL     1      -5.529  49.766 -24.285  1.00  0.00    -0.265 OA
BRANCH  27  29
HETATM   29  C23 UNL     1      -4.173  48.343 -25.676  1.00  0.00     0.120 C 
BRANCH  29  30
HETATM   30  C24 UNL     1      -3.878  49.310 -26.819  1.00  0.00     0.112 C 
BRANCH  30  31
HETATM   31  C25 UNL     1      -2.621  50.116 -26.568  1.00  0.00     0.218 C 
HETATM   32  O6  UNL     1      -1.493  49.651 -26.653  1.00  0.00    -0.274 OA
HETATM   33  N1  UNL     1      -2.878  51.431 -26.244  1.00  0.00    -0.346 N 
HETATM   34  H34 UNL     1      -3.788  51.619 -25.842  1.00  0.00     0.163 HD
BRANCH  33  35
HETATM   35  C26 UNL     1      -1.784  52.297 -25.771  1.00  0.00     0.186 C 
BRANCH  35  36
HETATM   36  C27 UNL     1      -0.712  51.461 -25.062  1.00  0.00     0.077 C 
BRANCH  36  37
HETATM   37  C28 UNL     1      -0.842  51.447 -23.571  1.00  0.00    -0.028 A 
HETATM   38  C29 UNL     1      -1.652  50.611 -22.828  1.00  0.00     0.096 A 
HETATM   39  N2  UNL     1      -1.478  50.911 -21.503  1.00  0.00    -0.365 N 
HETATM   40  C30 UNL     1      -0.573  51.936 -21.361  1.00  0.00     0.043 A 
HETATM   41  H39 UNL     1      -1.945  50.450 -20.734  1.00  0.00     0.165 HD
HETATM   42  C31 UNL     1      -0.095  52.562 -20.203  1.00  0.00     0.033 A 
HETATM   43  C35 UNL     1      -0.159  52.298 -22.643  1.00  0.00     0.001 A 
HETATM   44  C32 UNL     1       0.837  53.594 -20.359  1.00  0.00     0.039 A 
HETATM   45  C33 UNL     1       1.259  53.973 -21.629  1.00  0.00     0.066 A 
HETATM   46  C34 UNL     1       0.781  53.341 -22.777  1.00  0.00     0.050 A 
BRANCH  45  47
HETATM   47  O7  UNL     1       2.163  54.983 -21.798  1.00  0.00    -0.361 OA
HETATM   48  H42 UNL     1       2.431  55.310 -20.925  1.00  0.00     0.217 HD
ENDBRANCH  45  47
ENDBRANCH  36  37
ENDBRANCH  35  36
BRANCH  35  49
HETATM   49  C36 UNL     1      -1.182  52.961 -27.007  1.00  0.00     0.163 C 
HETATM   50  O8  UNL     1       0.014  53.100 -27.230  1.00  0.00    -0.648 OA
BRANCH  49  51
HETATM   51  O9  UNL     1      -2.098  53.403 -27.888  1.00  0.00    -0.775 OA
HETATM   52  H44 UNL     1      -1.579  53.761 -28.635  1.00  0.00     0.167 HD
ENDBRANCH  49  51
ENDBRANCH  35  49
ENDBRANCH  33  35
ENDBRANCH  30  31
ENDBRANCH  29  30
ENDBRANCH  27  29
ENDBRANCH   1  27
TORSDOF 14
ENDMDL
MODEL 3
REMARK minimizedAffinity -9.90952778
REMARK CNNscore 0.430396289
REMARK CNNaffinity 6.6006279
REMARK  14 active torsions:
REMARK  status: ('A' for Active; 'I' for Inactive)
REMARK    1  A    between atoms: C19_20  and  O2_21 
REMARK    2  A    between atoms: C19_20  and  C20_22 
REMARK    3  A    between atoms: C20_22  and  C21_24 
REMARK    4  A    between atoms: C21_24  and  O4_25 
REMARK    5  A    between atoms: O4_25  and  C22_26 
REMARK    6  A    between atoms: C22_26  and  C23_28 
REMARK    7  A    between atoms: C23_28  and  C24_29 
REMARK    8  A    between atoms: C24_29  and  C25_30 
REMARK       I    between atoms: C25_30  and  N1_32 
REMARK    9  A    between atoms: N1_32  and  C26_33 
REMARK   10  A    between atoms: C26_33  and  C27_34 
REMARK   11  A    between atoms: C26_33  and  C36_45 
REMARK   12  A    between atoms: C27_34  and  C28_35 
REMARK   13  A    between atoms: C33_41  and  O7_42 
REMARK   14  A    between atoms: C36_45  and  O9_47 
ROOT
HETATM    1  O4  UNL     1      -6.024  47.437 -28.011  1.00  0.00    -0.314 OA
ENDROOT
BRANCH   1   2
HETATM    2  C21 UNL     1      -7.221  47.743 -28.715  1.00  0.00     0.260 C 
BRANCH   2   3
HETATM    3  C20 UNL     1      -8.426  47.794 -27.783  1.00  0.00     0.185 C 
HETATM    4  O3  UNL     1      -8.287  48.186 -26.618  1.00  0.00    -0.292 OA
BRANCH   3   5
HETATM    5  C19 UNL     1      -9.813  47.360 -28.326  1.00  0.00     0.128 C 
HETATM    6  C14 UNL     1     -10.794  46.721 -27.292  1.00  0.00    -0.002 C 
HETATM    7  C13 UNL     1     -11.571  47.685 -26.373  1.00  0.00     0.013 C 
HETATM    8  C15 UNL     1     -10.046  45.675 -26.418  1.00  0.00     0.019 C 
HETATM    9  C16 UNL     1     -11.823  46.078 -28.271  1.00  0.00     0.002 C 
HETATM   10  C12 UNL     1     -12.754  47.002 -25.657  1.00  0.00     0.007 C 
HETATM   11  C11 UNL     1     -13.711  46.300 -26.646  1.00  0.00     0.002 C 
HETATM   12  C2  UNL     1     -14.975  45.631 -26.009  1.00  0.00    -0.016 C 
HETATM   13  C10 UNL     1     -12.927  45.295 -27.549  1.00  0.00    -0.004 C 
HETATM   14  C1  UNL     1     -14.599  44.391 -25.163  1.00  0.00     0.020 C 
HETATM   15  C3  UNL     1     -15.746  46.638 -25.115  1.00  0.00     0.022 C 
HETATM   16  C7  UNL     1     -15.906  45.212 -27.151  1.00  0.00    -0.068 C 
HETATM   17  C4  UNL     1     -17.091  46.104 -24.622  1.00  0.00     0.084 C 
HETATM   18  C5  UNL     1     -17.906  45.473 -25.726  1.00  0.00     0.149 C 
HETATM   19  O1  UNL     1     -19.103  45.227 -25.589  1.00  0.00    -0.293 OA
HETATM   20  C6  UNL     1     -17.240  45.128 -27.005  1.00  0.00     0.053 C 
HETATM   21  C8  UNL     1     -15.294  45.002 -28.519  1.00  0.00     0.035 C 
HETATM   22  C9  UNL     1     -13.855  44.495 -28.485  1.00  0.00     0.010 C 
HETATM   23  C17 UNL     1     -10.941  45.353 -29.281  1.00  0.00     0.009 C 
HETATM   24  C18 UNL     1      -9.687  46.240 -29.405  1.00  0.00     0.047 C 
BRANCH   5  25
HETATM   25  O2  UNL     1     -10.438  48.482 -28.964  1.00  0.00    -0.381 OA
HETATM   26  H27 UNL     1      -9.853  48.764 -29.691  1.00  0.00     0.211 HD
ENDBRANCH   5  25
ENDBRANCH   3   5
ENDBRANCH   2   3
ENDBRANCH   1   2
BRANCH   1  27
HETATM   27  C22 UNL     1      -4.926  48.106 -28.449  1.00  0.00     0.259 C 
HETATM   28  O5  UNL     1      -4.580  48.182 -29.621  1.00  0.00    -0.265 OA
BRANCH  27  29
HETATM   29  C23 UNL     1      -4.093  48.641 -27.308  1.00  0.00     0.120 C 
BRANCH  29  30
HETATM   30  C24 UNL     1      -4.676  48.408 -25.918  1.00  0.00     0.112 C 
BRANCH  30  31
HETATM   31  C25 UNL     1      -3.888  49.130 -24.846  1.00  0.00     0.218 C 
HETATM   32  O6  UNL     1      -4.137  49.042 -23.652  1.00  0.00    -0.274 OA
HETATM   33  N1  UNL     1      -2.855  49.889 -25.352  1.00  0.00    -0.346 N 
HETATM   34  H34 UNL     1      -2.958  50.193 -26.313  1.00  0.00     0.163 HD
BRANCH  33  35
HETATM   35  C26 UNL     1      -2.122  50.813 -24.468  1.00  0.00     0.186 C 
BRANCH  35  36
HETATM   36  C27 UNL     1      -0.699  51.034 -24.993  1.00  0.00     0.077 C 
BRANCH  36  37
HETATM   37  C28 UNL     1      -0.005  52.211 -24.383  1.00  0.00    -0.028 A 
HETATM   38  C29 UNL     1       0.517  53.296 -25.060  1.00  0.00     0.096 A 
HETATM   39  N2  UNL     1       1.059  54.155 -24.143  1.00  0.00    -0.365 N 
HETATM   40  C30 UNL     1       0.911  53.652 -22.873  1.00  0.00     0.043 A 
HETATM   41  H39 UNL     1       1.508  55.035 -24.361  1.00  0.00     0.165 HD
HETATM   42  C31 UNL     1       1.308  54.186 -21.639  1.00  0.00     0.033 A 
HETATM   43  C35 UNL     1       0.249  52.429 -22.990  1.00  0.00     0.001 A 
HETATM   44  C32 UNL     1       1.022  53.444 -20.488  1.00  0.00     0.039 A 
HETATM   45  C33 UNL     1       0.368  52.221 -20.585  1.00  0.00     0.066 A 
HETATM   46  C34 UNL     1      -0.028  51.699 -21.816  1.00  0.00     0.050 A 
BRANCH  45  47
HETATM   47  O7  UNL     1       0.088  51.483 -19.470  1.00  0.00    -0.361 OA
HETATM   48  H42 UNL     1       0.389  51.973 -18.689  1.00  0.00     0.217 HD
ENDBRANCH  45  47
ENDBRANCH  36  37
ENDBRANCH  35  36
BRANCH  35  49
HETATM   49  C36 UNL     1      -2.886  52.135 -24.484  1.00  0.00     0.163 C 
HETATM   50  O8  UNL     1      -3.293  52.734 -23.496  1.00  0.00    -0.648 OA
BRANCH  49  51
HETATM   51  O9  UNL     1      -3.091  52.632 -25.717  1.00  0.00    -0.775 OA
HETATM   52  H44 UNL     1      -3.546  53.485 -25.574  1.00  0.00     0.167 HD
ENDBRANCH  49  51
ENDBRANCH  35  49
ENDBRANCH  33  35
ENDBRANCH  30  31
ENDBRANCH  29  30
ENDBRANCH  27  29
ENDBRANCH   1  27
TORSDOF 14
ENDMDL
MODEL 4
REMARK minimizedAffinity -9.90431786
REMARK CNNscore 0.427811354
REMARK CNNaffinity 7.48387575
REMARK  14 active torsions:
REMARK  status: ('A' for Active; 'I' for Inactive)
REMARK    1  A    between atoms: C19_20  and  O2_21 
REMARK    2  A    between atoms: C19_20  and  C20_22 
REMARK    3  A    between atoms: C20_22  and  C21_24 
REMARK    4  A    between atoms: C21_24  and  O4_25 
REMARK    5  A    between atoms: O4_25  and  C22_26 
REMARK    6  A    between atoms: C22_26  and  C23_28 
REMARK    7  A    between atoms: C23_28  and  C24_29 
REMARK    8  A    between atoms: C24_29  and  C25_30 
REMARK       I    between atoms: C25_30  and  N1_32 
REMARK    9  A    between atoms: N1_32  and  C26_33 
REMARK   10  A    between atoms: C26_33  and  C27_34 
REMARK   11  A    between atoms: C26_33  and  C36_45 
REMARK   12  A    between atoms: C27_34  and  C28_35 
REMARK   13  A    between atoms: C33_41  and  O7_42 
REMARK   14  A    between atoms: C36_45  and  O9_47 
ROOT
HETATM    1  O4  UNL     1      -2.962  49.353 -15.761  1.00  0.00    -0.314 OA
ENDROOT
BRANCH   1   2
HETATM    2  C21 UNL     1      -3.509  49.499 -17.066  1.00  0.00     0.260 C 
BRANCH   2   3
HETATM    3  C20 UNL     1      -3.006  48.416 -18.012  1.00  0.00     0.185 C 
HETATM    4  O3  UNL     1      -1.899  47.899 -17.825  1.00  0.00    -0.292 OA
BRANCH   3   5
HETATM    5  C19 UNL     1      -3.910  47.975 -19.194  1.00  0.00     0.128 C 
HETATM    6  C14 UNL     1      -3.715  48.741 -20.541  1.00  0.00    -0.002 C 
HETATM    7  C13 UNL     1      -2.527  48.314 -21.425  1.00  0.00     0.013 C 
HETATM    8  C15 UNL     1      -3.632  50.272 -20.280  1.00  0.00     0.019 C 
HETATM    9  C16 UNL     1      -5.022  48.314 -21.275  1.00  0.00     0.002 C 
HETATM   10  C12 UNL     1      -2.628  48.862 -22.864  1.00  0.00     0.007 C 
HETATM   11  C11 UNL     1      -3.969  48.496 -23.537  1.00  0.00     0.002 C 
HETATM   12  C2  UNL     1      -4.132  48.961 -25.024  1.00  0.00    -0.016 C 
HETATM   13  C10 UNL     1      -5.171  48.965 -22.657  1.00  0.00    -0.004 C 
HETATM   14  C1  UNL     1      -4.256  50.499 -25.129  1.00  0.00     0.020 C 
HETATM   15  C3  UNL     1      -2.933  48.489 -25.888  1.00  0.00     0.022 C 
HETATM   16  C7  UNL     1      -5.398  48.303 -25.581  1.00  0.00    -0.068 C 
HETATM   17  C4  UNL     1      -3.127  48.743 -27.383  1.00  0.00     0.084 C 
HETATM   18  C5  UNL     1      -4.486  48.303 -27.876  1.00  0.00     0.149 C 
HETATM   19  O1  UNL     1      -4.733  48.182 -29.074  1.00  0.00    -0.293 OA
HETATM   20  C6  UNL     1      -5.554  48.023 -26.887  1.00  0.00     0.053 C 
HETATM   21  C8  UNL     1      -6.453  47.853 -24.594  1.00  0.00     0.035 C 
HETATM   22  C9  UNL     1      -6.533  48.713 -23.335  1.00  0.00     0.010 C 
HETATM   23  C17 UNL     1      -6.105  48.543 -20.229  1.00  0.00     0.009 C 
HETATM   24  C18 UNL     1      -5.421  48.215 -18.887  1.00  0.00     0.047 C 
BRANCH   5  25
HETATM   25  O2  UNL     1      -3.749  46.566 -19.405  1.00  0.00    -0.381 OA
HETATM   26  H27 UNL     1      -4.012  46.117 -18.580  1.00  0.00     0.211 HD
ENDBRANCH   5  25
ENDBRANCH   3   5
ENDBRANCH   2   3
ENDBRANCH   1   2
BRANCH   1  27
HETATM   27  C22 UNL     1      -2.874  50.510 -15.054  1.00  0.00     0.259 C 
HETATM   28  O5  UNL     1      -3.510  51.526 -15.302  1.00  0.00    -0.265 OA
BRANCH  27  29
HETATM   29  C23 UNL     1      -1.795  50.450 -13.998  1.00  0.00     0.120 C 
BRANCH  29  30
HETATM   30  C24 UNL     1      -0.767  49.340 -14.187  1.00  0.00     0.112 C 
BRANCH  30  31
HETATM   31  C25 UNL     1       0.217  49.662 -15.292  1.00  0.00     0.218 C 
HETATM   32  O6  UNL     1       0.726  48.813 -16.009  1.00  0.00    -0.274 OA
HETATM   33  N1  UNL     1       0.470  51.011 -15.415  1.00  0.00    -0.346 N 
HETATM   34  H34 UNL     1       0.315  51.568 -14.583  1.00  0.00     0.163 HD
BRANCH  33  35
HETATM   35  C26 UNL     1       1.552  51.477 -16.299  1.00  0.00     0.186 C 
BRANCH  35  36
HETATM   36  C27 UNL     1       1.024  52.535 -17.274  1.00  0.00     0.077 C 
BRANCH  36  37
HETATM   37  C28 UNL     1       0.552  51.974 -18.579  1.00  0.00    -0.028 A 
HETATM   38  C29 UNL     1      -0.140  50.793 -18.761  1.00  0.00     0.096 A 
HETATM   39  N2  UNL     1      -0.391  50.643 -20.098  1.00  0.00    -0.365 N 
HETATM   40  C30 UNL     1       0.131  51.701 -20.802  1.00  0.00     0.043 A 
HETATM   41  H39 UNL     1      -0.888  49.867 -20.515  1.00  0.00     0.165 HD
HETATM   42  C31 UNL     1       0.112  51.965 -22.179  1.00  0.00     0.033 A 
HETATM   43  C35 UNL     1       0.734  52.553 -19.877  1.00  0.00     0.001 A 
HETATM   44  C32 UNL     1       0.731  53.138 -22.624  1.00  0.00     0.039 A 
HETATM   45  C33 UNL     1       1.342  53.997 -21.718  1.00  0.00     0.066 A 
HETATM   46  C34 UNL     1       1.353  53.729 -20.350  1.00  0.00     0.050 A 
BRANCH  45  47
HETATM   47  O7  UNL     1       1.957  55.142 -22.138  1.00  0.00    -0.361 OA
HETATM   48  H42 UNL     1       1.849  55.218 -23.099  1.00  0.00     0.217 HD
ENDBRANCH  45  47
ENDBRANCH  36  37
ENDBRANCH  35  36
BRANCH  35  49
HETATM   49  C36 UNL     1       2.620  52.094 -15.400  1.00  0.00     0.163 C 
HETATM   50  O8  UNL     1       2.861  51.758 -14.247  1.00  0.00    -0.648 OA
BRANCH  49  51
HETATM   51  O9  UNL     1       3.323  53.080 -15.987  1.00  0.00    -0.775 OA
HETATM   52  H44 UNL     1       3.987  53.349 -15.321  1.00  0.00     0.167 HD
ENDBRANCH  49  51
ENDBRANCH  35  49
ENDBRANCH  33  35
ENDBRANCH  30  31
ENDBRANCH  29  30
ENDBRANCH  27  29
ENDBRANCH   1  27
TORSDOF 14
ENDMDL
MODEL 5
REMARK minimizedAffinity -9.56495571
REMARK CNNscore 0.423427522
REMARK CNNaffinity 7.18205118
REMARK  14 active torsions:
REMARK  status: ('A' for Active; 'I' for Inactive)
REMARK    1  A    between atoms: C19_20  and  O2_21 
REMARK    2  A    between atoms: C19_20  and  C20_22 
REMARK    3  A    between atoms: C20_22  and  C21_24 
REMARK    4  A    between atoms: C21_24  and  O4_25 
REMARK    5  A    between atoms: O4_25  and  C22_26 
REMARK    6  A    between atoms: C22_26  and  C23_28 
REMARK    7  A    between atoms: C23_28  and  C24_29 
REMARK    8  A    between atoms: C24_29  and  C25_30 
REMARK       I    between atoms: C25_30  and  N1_32 
REMARK    9  A    between atoms: N1_32  and  C26_33 
REMARK   10  A    between atoms: C26_33  and  C27_34 
REMARK   11  A    between atoms: C26_33  and  C36_45 
REMARK   12  A    between atoms: C27_34  and  C28_35 
REMARK   13  A    between atoms: C33_41  and  O7_42 
REMARK   14  A    between atoms: C36_45  and  O9_47 
ROOT
HETATM    1  O4  UNL     1      -2.737  50.029 -15.825  1.00  0.00    -0.314 OA
ENDROOT
BRANCH   1   2
HETATM    2  C21 UNL     1      -2.025  50.688 -14.785  1.00  0.00     0.260 C 
BRANCH   2   3
HETATM    3  C20 UNL     1      -2.760  50.597 -13.454  1.00  0.00     0.185 C 
HETATM    4  O3  UNL     1      -3.439  49.597 -13.192  1.00  0.00    -0.292 OA
BRANCH   3   5
HETATM    5  C19 UNL     1      -2.630  51.767 -12.444  1.00  0.00     0.128 C 
HETATM    6  C14 UNL     1      -1.234  51.948 -11.767  1.00  0.00    -0.002 C 
HETATM    7  C13 UNL     1      -0.146  52.670 -12.585  1.00  0.00     0.013 C 
HETATM    8  C15 UNL     1      -0.686  50.572 -11.291  1.00  0.00     0.019 C 
HETATM    9  C16 UNL     1      -1.634  52.888 -10.589  1.00  0.00     0.002 C 
HETATM   10  C12 UNL     1       1.053  53.115 -11.722  1.00  0.00     0.007 C 
HETATM   11  C11 UNL     1       0.618  53.974 -10.514  1.00  0.00     0.002 C 
HETATM   12  C2  UNL     1       1.778  54.521  -9.616  1.00  0.00    -0.016 C 
HETATM   13  C10 UNL     1      -0.457  53.223  -9.665  1.00  0.00    -0.004 C 
HETATM   14  C1  UNL     1       2.472  53.385  -8.827  1.00  0.00     0.020 C 
HETATM   15  C3  UNL     1       2.838  55.265 -10.469  1.00  0.00     0.022 C 
HETATM   16  C7  UNL     1       1.172  55.531  -8.637  1.00  0.00    -0.068 C 
HETATM   17  C4  UNL     1       3.893  55.987  -9.631  1.00  0.00     0.084 C 
HETATM   18  C5  UNL     1       3.288  56.798  -8.509  1.00  0.00     0.149 C 
HETATM   19  O1  UNL     1       3.938  57.645  -7.899  1.00  0.00    -0.293 OA
HETATM   20  C6  UNL     1       1.877  56.557  -8.126  1.00  0.00     0.053 C 
HETATM   21  C8  UNL     1      -0.306  55.423  -8.335  1.00  0.00     0.035 C 
HETATM   22  C9  UNL     1      -0.849  53.997  -8.390  1.00  0.00     0.010 C 
HETATM   23  C17 UNL     1      -2.867  52.211 -10.002  1.00  0.00     0.009 C 
HETATM   24  C18 UNL     1      -3.575  51.580 -11.216  1.00  0.00     0.047 C 
BRANCH   5  25
HETATM   25  O2  UNL     1      -3.023  52.987 -13.087  1.00  0.00    -0.381 OA
HETATM   26  H27 UNL     1      -3.948  52.877 -13.374  1.00  0.00     0.211 HD
ENDBRANCH   5  25
ENDBRANCH   3   5
ENDBRANCH   2   3
ENDBRANCH   1   2
BRANCH   1  27
HETATM   27  C22 UNL     1      -2.480  50.503 -17.072  1.00  0.00     0.259 C 
HETATM   28  O5  UNL     1      -3.052  51.457 -17.584  1.00  0.00    -0.265 OA
BRANCH  27  29
HETATM   29  C23 UNL     1      -1.496  49.634 -17.820  1.00  0.00     0.120 C 
BRANCH  29  30
HETATM   30  C24 UNL     1      -0.172  50.307 -18.165  1.00  0.00     0.112 C 
BRANCH  30  31
HETATM   31  C25 UNL     1      -0.060  50.611 -19.644  1.00  0.00     0.218 C 
HETATM   32  O6  UNL     1      -0.091  49.752 -20.513  1.00  0.00    -0.274 OA
HETATM   33  N1  UNL     1       0.069  51.957 -19.911  1.00  0.00    -0.346 N 
HETATM   34  H34 UNL     1       0.451  52.523 -19.163  1.00  0.00     0.163 HD
BRANCH  33  35
HETATM   35  C26 UNL     1       0.393  52.406 -21.277  1.00  0.00     0.186 C 
BRANCH  35  36
HETATM   36  C27 UNL     1      -0.892  52.653 -22.075  1.00  0.00     0.077 C 
BRANCH  36  37
HETATM   37  C28 UNL     1      -0.932  51.945 -23.393  1.00  0.00    -0.028 A 
HETATM   38  C29 UNL     1      -1.234  50.613 -23.598  1.00  0.00     0.096 A 
HETATM   39  N2  UNL     1      -1.168  50.359 -24.942  1.00  0.00    -0.365 N 
HETATM   40  C30 UNL     1      -0.819  51.500 -25.625  1.00  0.00     0.043 A 
HETATM   41  H39 UNL     1      -1.347  49.464 -25.377  1.00  0.00     0.165 HD
HETATM   42  C31 UNL     1      -0.637  51.708 -27.000  1.00  0.00     0.033 A 
HETATM   43  C35 UNL     1      -0.660  52.513 -24.679  1.00  0.00     0.001 A 
HETATM   44  C32 UNL     1      -0.278  52.993 -27.421  1.00  0.00     0.039 A 
HETATM   45  C33 UNL     1      -0.109  54.014 -26.492  1.00  0.00     0.066 A 
HETATM   46  C34 UNL     1      -0.296  53.800 -25.127  1.00  0.00     0.050 A 
BRANCH  45  47
HETATM   47  O7  UNL     1       0.249  55.272 -26.887  1.00  0.00    -0.361 OA
HETATM   48  H42 UNL     1       0.316  55.287 -27.855  1.00  0.00     0.217 HD
ENDBRANCH  45  47
ENDBRANCH  36  37
ENDBRANCH  35  36
BRANCH  35  49
HETATM   49  C36 UNL     1       1.170  53.713 -21.137  1.00  0.00     0.163 C 
HETATM   50  O8  UNL     1       1.533  54.428 -22.063  1.00  0.00    -0.648 OA
BRANCH  49  51
HETATM   51  O9  UNL     1       1.439  54.053 -19.864  1.00  0.00    -0.775 OA
HETATM   52  H44 UNL     1       1.895  54.916 -19.923  1.00  0.00     0.167 HD
ENDBRANCH  49  51
ENDBRANCH  35  49
ENDBRANCH  33  35
ENDBRANCH  30  31
ENDBRANCH  29  30
ENDBRANCH  27  29
ENDBRANCH   1  27
TORSDOF 14
ENDMDL
MODEL 6
REMARK minimizedAffinity -8.99668694
REMARK CNNscore 0.410269797
REMARK CNNaffinity 6.40541697
REMARK  14 active torsions:
REMARK  status: ('A' for Active; 'I' for Inactive)
REMARK    1  A    between atoms: C19_20  and  O2_21 
REMARK    2  A    between atoms: C19_20  and  C20_22 
REMARK    3  A    between atoms: C20_22  and  C21_24 
REMARK    4  A    between atoms: C21_24  and  O4_25 
REMARK    5  A    between atoms: O4_25  and  C22_26 
REMARK    6  A    between atoms: C22_26  and  C23_28 
REMARK    7  A    between atoms: C23_28  and  C24_29 
REMARK    8  A    between atoms: C24_29  and  C25_30 
REMARK       I    between atoms: C25_30  and  N1_32 
REMARK    9  A    between atoms: N1_32  and  C26_33 
REMARK   10  A    between atoms: C26_33  and  C27_34 
REMARK   11  A    between atoms: C26_33  and  C36_45 
REMARK   12  A    between atoms: C27_34  and  C28_35 
REMARK   13  A    between atoms: C33_41  and  O7_42 
REMARK   14  A    between atoms: C36_45  and  O9_47 
ROOT
HETATM    1  O4  UNL     1      -8.628  48.257 -19.794  1.00  0.00    -0.314 OA
ENDROOT
BRANCH   1   2
HETATM    2  C21 UNL     1      -7.750  47.352 -20.454  1.00  0.00     0.260 C 
BRANCH   2   3
HETATM    3  C20 UNL     1      -6.308  47.842 -20.421  1.00  0.00     0.185 C 
HETATM    4  O3  UNL     1      -5.826  48.269 -19.365  1.00  0.00    -0.292 OA
BRANCH   3   5
HETATM    5  C19 UNL     1      -5.466  47.781 -21.722  1.00  0.00     0.128 C 
HETATM    6  C14 UNL     1      -4.775  49.110 -22.165  1.00  0.00    -0.002 C 
HETATM    7  C13 UNL     1      -3.460  49.489 -21.454  1.00  0.00     0.013 C 
HETATM    8  C15 UNL     1      -5.774  50.297 -22.054  1.00  0.00     0.019 C 
HETATM    9  C16 UNL     1      -4.422  48.743 -23.638  1.00  0.00     0.002 C 
HETATM   10  C12 UNL     1      -2.682  50.597 -22.192  1.00  0.00     0.007 C 
HETATM   11  C11 UNL     1      -2.420  50.244 -23.673  1.00  0.00     0.002 C 
HETATM   12  C2  UNL     1      -1.581  51.288 -24.484  1.00  0.00    -0.016 C 
HETATM   13  C10 UNL     1      -3.759  49.899 -24.400  1.00  0.00    -0.004 C 
HETATM   14  C1  UNL     1      -2.372  52.597 -24.717  1.00  0.00     0.020 C 
HETATM   15  C3  UNL     1      -0.254  51.622 -23.753  1.00  0.00     0.022 C 
HETATM   16  C7  UNL     1      -1.227  50.654 -25.832  1.00  0.00    -0.068 C 
HETATM   17  C4  UNL     1       0.695  52.485 -24.585  1.00  0.00     0.084 C 
HETATM   18  C5  UNL     1       0.851  51.979 -26.000  1.00  0.00     0.149 C 
HETATM   19  O1  UNL     1       1.756  52.373 -26.732  1.00  0.00    -0.293 OA
HETATM   20  C6  UNL     1      -0.122  50.991 -26.522  1.00  0.00     0.053 C 
HETATM   21  C8  UNL     1      -2.102  49.528 -26.335  1.00  0.00     0.035 C 
HETATM   22  C9  UNL     1      -3.563  49.637 -25.907  1.00  0.00     0.010 C 
HETATM   23  C17 UNL     1      -5.720  48.151 -24.174  1.00  0.00     0.009 C 
HETATM   24  C18 UNL     1      -6.343  47.430 -22.963  1.00  0.00     0.047 C 
BRANCH   5  25
HETATM   25  O2  UNL     1      -4.487  46.740 -21.599  1.00  0.00    -0.381 OA
HETATM   26  H27 UNL     1      -4.970  45.905 -21.458  1.00  0.00     0.211 HD
ENDBRANCH   5  25
ENDBRANCH   3   5
ENDBRANCH   2   3
ENDBRANCH   1   2
BRANCH   1  27
HETATM   27  C22 UNL     1      -9.634  47.661 -19.101  1.00  0.00     0.259 C 
HETATM   28  O5  UNL     1      -9.485  47.039 -18.057  1.00  0.00    -0.265 OA
BRANCH  27  29
HETATM   29  C23 UNL     1     -10.951  47.735 -19.837  1.00  0.00     0.120 C 
BRANCH  29  30
HETATM   30  C24 UNL     1     -12.171  47.979 -18.954  1.00  0.00     0.112 C 
BRANCH  30  31
HETATM   31  C25 UNL     1     -13.382  47.208 -19.436  1.00  0.00     0.218 C 
HETATM   32  O6  UNL     1     -14.105  46.557 -18.696  1.00  0.00    -0.274 OA
HETATM   33  N1  UNL     1     -13.591  47.323 -20.794  1.00  0.00    -0.346 N 
HETATM   34  H34 UNL     1     -12.775  47.547 -21.350  1.00  0.00     0.163 HD
BRANCH  33  35
HETATM   35  C26 UNL     1     -14.598  46.475 -21.455  1.00  0.00     0.186 C 
BRANCH  35  36
HETATM   36  C27 UNL     1     -16.011  46.949 -21.094  1.00  0.00     0.077 C 
BRANCH  36  37
HETATM   37  C28 UNL     1     -17.050  45.875 -21.183  1.00  0.00    -0.028 A 
HETATM   38  C29 UNL     1     -17.207  44.814 -20.313  1.00  0.00     0.096 A 
HETATM   39  N2  UNL     1     -18.272  44.065 -20.735  1.00  0.00    -0.365 N 
HETATM   40  C30 UNL     1     -18.815  44.610 -21.874  1.00  0.00     0.043 A 
HETATM   41  H39 UNL     1     -18.615  43.229 -20.281  1.00  0.00     0.165 HD
HETATM   42  C31 UNL     1     -19.905  44.185 -22.646  1.00  0.00     0.033 A 
HETATM   43  C35 UNL     1     -18.067  45.746 -22.183  1.00  0.00     0.001 A 
HETATM   44  C32 UNL     1     -20.241  44.945 -23.772  1.00  0.00     0.039 A 
HETATM   45  C33 UNL     1     -19.504  46.078 -24.099  1.00  0.00     0.066 A 
HETATM   46  C34 UNL     1     -18.423  46.496 -23.324  1.00  0.00     0.050 A 
BRANCH  45  47
HETATM   47  O7  UNL     1     -19.814  46.826 -25.199  1.00  0.00    -0.361 OA
HETATM   48  H42 UNL     1     -20.597  46.443 -25.625  1.00  0.00     0.217 HD
ENDBRANCH  45  47
ENDBRANCH  36  37
ENDBRANCH  35  36
BRANCH  35  49
HETATM   49  C36 UNL     1     -14.377  46.620 -22.959  1.00  0.00     0.163 C 
HETATM   50  O8  UNL     1     -13.825  45.798 -23.679  1.00  0.00    -0.648 OA
BRANCH  49  51
HETATM   51  O9  UNL     1     -14.857  47.767 -23.472  1.00  0.00    -0.775 OA
HETATM   52  H44 UNL     1     -14.686  47.706 -24.433  1.00  0.00     0.167 HD
ENDBRANCH  49  51
ENDBRANCH  35  49
ENDBRANCH  33  35
ENDBRANCH  30  31
ENDBRANCH  29  30
ENDBRANCH  27  29
ENDBRANCH   1  27
TORSDOF 14
ENDMDL
MODEL 7
REMARK minimizedAffinity -9.30975246
REMARK CNNscore 0.409900784
REMARK CNNaffinity 6.48466873
REMARK  14 active torsions:
REMARK  status: ('A' for Active; 'I' for Inactive)
REMARK    1  A    between atoms: C19_20  and  O2_21 
REMARK    2  A    between atoms: C19_20  and  C20_22 
REMARK    3  A    between atoms: C20_22  and  C21_24 
REMARK    4  A    between atoms: C21_24  and  O4_25 
REMARK    5  A    between atoms: O4_25  and  C22_26 
REMARK    6  A    between atoms: C22_26  and  C23_28 
REMARK    7  A    between atoms: C23_28  and  C24_29 
REMARK    8  A    between atoms: C24_29  and  C25_30 
REMARK       I    between atoms: C25_30  and  N1_32 
REMARK    9  A    between atoms: N1_32  and  C26_33 
REMARK   10  A    between atoms: C26_33  and  C27_34 
REMARK   11  A    between atoms: C26_33  and  C36_45 
REMARK   12  A    between atoms: C27_34  and  C28_35 
REMARK   13  A    between atoms: C33_41  and  O7_42 
REMARK   14  A    between atoms: C36_45  and  O9_47 
ROOT
HETATM    1  O4  UNL     1      -7.519  46.810 -25.528  1.00  0.00    -0.314 OA
ENDROOT
BRANCH   1   2
HETATM    2  C21 UNL     1      -7.332  47.741 -26.587  1.00  0.00     0.260 C 
BRANCH   2   3
HETATM    3  C20 UNL     1      -8.512  47.740 -27.552  1.00  0.00     0.185 C 
HETATM    4  O3  UNL     1      -9.654  47.530 -27.128  1.00  0.00    -0.292 OA
BRANCH   3   5
HETATM    5  C19 UNL     1      -8.251  48.017 -29.056  1.00  0.00     0.128 C 
HETATM    6  C14 UNL     1      -8.804  46.959 -30.063  1.00  0.00    -0.002 C 
HETATM    7  C13 UNL     1     -10.303  47.042 -30.415  1.00  0.00     0.013 C 
HETATM    8  C15 UNL     1      -8.475  45.523 -29.568  1.00  0.00     0.019 C 
HETATM    9  C16 UNL     1      -8.002  47.366 -31.336  1.00  0.00     0.002 C 
HETATM   10  C12 UNL     1     -10.669  46.211 -31.661  1.00  0.00     0.007 C 
HETATM   11  C11 UNL     1      -9.801  46.576 -32.885  1.00  0.00     0.002 C 
HETATM   12  C2  UNL     1     -10.146  45.822 -34.213  1.00  0.00    -0.016 C 
HETATM   13  C10 UNL     1      -8.283  46.453 -32.537  1.00  0.00    -0.004 C 
HETATM   14  C1  UNL     1      -9.774  44.322 -34.131  1.00  0.00     0.020 C 
HETATM   15  C3  UNL     1     -11.655  45.951 -34.549  1.00  0.00     0.022 C 
HETATM   16  C7  UNL     1      -9.356  46.486 -35.345  1.00  0.00    -0.068 C 
HETATM   17  C4  UNL     1     -12.018  45.403 -35.930  1.00  0.00     0.084 C 
HETATM   18  C5  UNL     1     -11.077  45.881 -37.010  1.00  0.00     0.149 C 
HETATM   19  O1  UNL     1     -11.350  45.768 -38.204  1.00  0.00    -0.293 OA
HETATM   20  C6  UNL     1      -9.784  46.492 -36.620  1.00  0.00     0.053 C 
HETATM   21  C8  UNL     1      -8.110  47.260 -34.977  1.00  0.00     0.035 C 
HETATM   22  C9  UNL     1      -7.375  46.710 -33.757  1.00  0.00     0.010 C 
HETATM   23  C17 UNL     1      -6.573  47.498 -30.825  1.00  0.00     0.009 C 
HETATM   24  C18 UNL     1      -6.726  48.028 -29.386  1.00  0.00     0.047 C 
BRANCH   5  25
HETATM   25  O2  UNL     1      -8.755  49.318 -29.387  1.00  0.00    -0.381 OA
HETATM   26  H27 UNL     1      -8.284  49.962 -28.828  1.00  0.00     0.211 HD
ENDBRANCH   5  25
ENDBRANCH   3   5
ENDBRANCH   2   3
ENDBRANCH   1   2
BRANCH   1  27
HETATM   27  C22 UNL     1      -7.784  47.375 -24.322  1.00  0.00     0.259 C 
HETATM   28  O5  UNL     1      -8.901  47.687 -23.931  1.00  0.00    -0.265 OA
BRANCH  27  29
HETATM   29  C23 UNL     1      -6.522  47.706 -23.560  1.00  0.00     0.120 C 
BRANCH  29  30
HETATM   30  C24 UNL     1      -5.385  48.269 -24.406  1.00  0.00     0.112 C 
BRANCH  30  31
HETATM   31  C25 UNL     1      -4.649  49.386 -23.694  1.00  0.00     0.218 C 
HETATM   32  O6  UNL     1      -5.035  49.888 -22.648  1.00  0.00    -0.274 OA
HETATM   33  N1  UNL     1      -3.494  49.770 -24.340  1.00  0.00    -0.346 N 
HETATM   34  H34 UNL     1      -3.459  49.582 -25.335  1.00  0.00     0.163 HD
BRANCH  33  35
HETATM   35  C26 UNL     1      -2.771  50.974 -23.896  1.00  0.00     0.186 C 
BRANCH  35  36
HETATM   36  C27 UNL     1      -1.311  50.632 -23.579  1.00  0.00     0.077 C 
BRANCH  36  37
HETATM   37  C28 UNL     1      -0.919  50.904 -22.161  1.00  0.00    -0.028 A 
HETATM   38  C29 UNL     1      -1.285  50.165 -21.053  1.00  0.00     0.096 A 
HETATM   39  N2  UNL     1      -0.717  50.736 -19.947  1.00  0.00    -0.365 N 
HETATM   40  C30 UNL     1       0.012  51.845 -20.305  1.00  0.00     0.043 A 
HETATM   41  H39 UNL     1      -0.815  50.398 -18.999  1.00  0.00     0.165 HD
HETATM   42  C31 UNL     1       0.756  52.730 -19.513  1.00  0.00     0.033 A 
HETATM   43  C35 UNL     1      -0.099  51.980 -21.690  1.00  0.00     0.001 A 
HETATM   44  C32 UNL     1       1.406  53.789 -20.156  1.00  0.00     0.039 A 
HETATM   45  C33 UNL     1       1.303  53.943 -21.534  1.00  0.00     0.066 A 
HETATM   46  C34 UNL     1       0.565  53.056 -22.316  1.00  0.00     0.050 A 
BRANCH  45  47
HETATM   47  O7  UNL     1       1.927  54.975 -22.175  1.00  0.00    -0.361 OA
HETATM   48  H42 UNL     1       2.424  55.492 -21.522  1.00  0.00     0.217 HD
ENDBRANCH  45  47
ENDBRANCH  36  37
ENDBRANCH  35  36
BRANCH  35  49
HETATM   49  C36 UNL     1      -2.826  51.972 -25.051  1.00  0.00     0.163 C 
HETATM   50  O8  UNL     1      -3.313  51.757 -26.153  1.00  0.00    -0.648 OA
BRANCH  49  51
HETATM   51  O9  UNL     1      -2.282  53.168 -24.763  1.00  0.00    -0.775 OA
HETATM   52  H44 UNL     1      -2.423  53.710 -25.565  1.00  0.00     0.167 HD
ENDBRANCH  49  51
ENDBRANCH  35  49
ENDBRANCH  33  35
ENDBRANCH  30  31
ENDBRANCH  29  30
ENDBRANCH  27  29
ENDBRANCH   1  27
TORSDOF 14
ENDMDL
MODEL 8
REMARK minimizedAffinity -9.42529678
REMARK CNNscore 0.383963078
REMARK CNNaffinity 6.93779325
REMARK  14 active torsions:
REMARK  status: ('A' for Active; 'I' for Inactive)
REMARK    1  A    between atoms: C19_20  and  O2_21 
REMARK    2  A    between atoms: C19_20  and  C20_22 
REMARK    3  A    between atoms: C20_22  and  C21_24 
REMARK    4  A    between atoms: C21_24  and  O4_25 
REMARK    5  A    between atoms: O4_25  and  C22_26 
REMARK    6  A    between atoms: C22_26  and  C23_28 
REMARK    7  A    between atoms: C23_28  and  C24_29 
REMARK    8  A    between atoms: C24_29  and  C25_30 
REMARK       I    between atoms: C25_30  and  N1_32 
REMARK    9  A    between atoms: N1_32  and  C26_33 
REMARK   10  A    between atoms: C26_33  and  C27_34 
REMARK   11  A    between atoms: C26_33  and  C36_45 
REMARK   12  A    between atoms: C27_34  and  C28_35 
REMARK   13  A    between atoms: C33_41  and  O7_42 
REMARK   14  A    between atoms: C36_45  and  O9_47 
ROOT
HETATM    1  O4  UNL     1      -4.384  47.930 -27.926  1.00  0.00    -0.314 OA
ENDROOT
BRANCH   1   2
HETATM    2  C21 UNL     1      -5.607  48.222 -28.592  1.00  0.00     0.260 C 
BRANCH   2   3
HETATM    3  C20 UNL     1      -5.598  47.721 -30.031  1.00  0.00     0.185 C 
HETATM    4  O3  UNL     1      -4.555  47.765 -30.693  1.00  0.00    -0.292 OA
BRANCH   3   5
HETATM    5  C19 UNL     1      -6.909  47.151 -30.634  1.00  0.00     0.128 C 
HETATM    6  C14 UNL     1      -6.844  45.689 -31.180  1.00  0.00    -0.002 C 
HETATM    7  C13 UNL     1      -6.945  44.549 -30.148  1.00  0.00     0.013 C 
HETATM    8  C15 UNL     1      -5.559  45.491 -32.034  1.00  0.00     0.019 C 
HETATM    9  C16 UNL     1      -8.151  45.669 -32.029  1.00  0.00     0.002 C 
HETATM   10  C12 UNL     1      -7.233  43.180 -30.798  1.00  0.00     0.007 C 
HETATM   11  C11 UNL     1      -8.485  43.211 -31.701  1.00  0.00     0.002 C 
HETATM   12  C2  UNL     1      -8.887  41.847 -32.355  1.00  0.00    -0.016 C 
HETATM   13  C10 UNL     1      -8.362  44.343 -32.771  1.00  0.00    -0.004 C 
HETATM   14  C1  UNL     1      -7.864  41.406 -33.429  1.00  0.00     0.020 C 
HETATM   15  C3  UNL     1      -9.007  40.732 -31.283  1.00  0.00     0.022 C 
HETATM   16  C7  UNL     1     -10.265  42.027 -33.000  1.00  0.00    -0.068 C 
HETATM   17  C4  UNL     1      -9.584  39.425 -31.830  1.00  0.00     0.084 C 
HETATM   18  C5  UNL     1     -10.819  39.642 -32.671  1.00  0.00     0.149 C 
HETATM   19  O1  UNL     1     -11.567  38.715 -32.976  1.00  0.00    -0.293 OA
HETATM   20  C6  UNL     1     -11.131  41.009 -33.153  1.00  0.00     0.053 C 
HETATM   21  C8  UNL     1     -10.696  43.430 -33.366  1.00  0.00     0.035 C 
HETATM   22  C9  UNL     1      -9.544  44.350 -33.762  1.00  0.00     0.010 C 
HETATM   23  C17 UNL     1      -8.070  46.962 -32.832  1.00  0.00     0.009 C 
HETATM   24  C18 UNL     1      -7.367  47.957 -31.889  1.00  0.00     0.047 C 
BRANCH   5  25
HETATM   25  O2  UNL     1      -7.959  47.263 -29.664  1.00  0.00    -0.381 OA
HETATM   26  H27 UNL     1      -8.056  48.210 -29.452  1.00  0.00     0.211 HD
ENDBRANCH   5  25
ENDBRANCH   3   5
ENDBRANCH   2   3
ENDBRANCH   1   2
BRANCH   1  27
HETATM   27  C22 UNL     1      -3.639  49.022 -27.613  1.00  0.00     0.259 C 
HETATM   28  O5  UNL     1      -3.536  50.018 -28.317  1.00  0.00    -0.265 OA
BRANCH  27  29
HETATM   29  C23 UNL     1      -2.833  48.818 -26.351  1.00  0.00     0.120 C 
BRANCH  29  30
HETATM   30  C24 UNL     1      -3.657  48.610 -25.085  1.00  0.00     0.112 C 
BRANCH  30  31
HETATM   31  C25 UNL     1      -3.251  49.565 -23.982  1.00  0.00     0.218 C 
HETATM   32  O6  UNL     1      -4.053  50.190 -23.303  1.00  0.00    -0.274 OA
HETATM   33  N1  UNL     1      -1.886  49.650 -23.816  1.00  0.00    -0.346 N 
HETATM   34  H34 UNL     1      -1.325  49.412 -24.625  1.00  0.00     0.163 HD
BRANCH  33  35
HETATM   35  C26 UNL     1      -1.318  50.681 -22.930  1.00  0.00     0.186 C 
BRANCH  35  36
HETATM   36  C27 UNL     1      -1.655  52.080 -23.459  1.00  0.00     0.077 C 
BRANCH  36  37
HETATM   37  C28 UNL     1      -1.614  52.189 -24.951  1.00  0.00    -0.028 A 
HETATM   38  C29 UNL     1      -2.674  52.502 -25.779  1.00  0.00     0.096 A 
HETATM   39  N2  UNL     1      -2.224  52.508 -27.071  1.00  0.00    -0.365 N 
HETATM   40  C30 UNL     1      -0.886  52.196 -27.111  1.00  0.00     0.043 A 
HETATM   41  H39 UNL     1      -2.788  52.710 -27.886  1.00  0.00     0.165 HD
HETATM   42  C31 UNL     1      -0.017  52.087 -28.205  1.00  0.00     0.033 A 
HETATM   43  C35 UNL     1      -0.474  51.986 -25.794  1.00  0.00     0.001 A 
HETATM   44  C32 UNL     1       1.316  51.750 -27.946  1.00  0.00     0.039 A 
HETATM   45  C33 UNL     1       1.745  51.532 -26.641  1.00  0.00     0.066 A 
HETATM   46  C34 UNL     1       0.875  51.647 -25.557  1.00  0.00     0.050 A 
BRANCH  45  47
HETATM   47  O7  UNL     1       3.041  51.197 -26.373  1.00  0.00    -0.361 OA
HETATM   48  H42 UNL     1       3.537  51.181 -27.207  1.00  0.00     0.217 HD
ENDBRANCH  45  47
ENDBRANCH  36  37
ENDBRANCH  35  36
BRANCH  35  49
HETATM   49  C36 UNL     1      -1.958  50.483 -21.558  1.00  0.00     0.163 C 
HETATM   50  O8  UNL     1      -1.808  49.504 -20.837  1.00  0.00    -0.648 OA
BRANCH  49  51
HETATM   51  O9  UNL     1      -2.733  51.510 -21.165  1.00  0.00    -0.775 OA
HETATM   52  H44 UNL     1      -3.037  51.269 -20.267  1.00  0.00     0.167 HD
ENDBRANCH  49  51
ENDBRANCH  35  49
ENDBRANCH  33  35
ENDBRANCH  30  31
ENDBRANCH  29  30
ENDBRANCH  27  29
ENDBRANCH   1  27
TORSDOF 14
ENDMDL
MODEL 9
REMARK minimizedAffinity -9.56419945
REMARK CNNscore 0.318700105
REMARK CNNaffinity 6.87559175
REMARK  14 active torsions:
REMARK  status: ('A' for Active; 'I' for Inactive)
REMARK    1  A    between atoms: C19_20  and  O2_21 
REMARK    2  A    between atoms: C19_20  and  C20_22 
REMARK    3  A    between atoms: C20_22  and  C21_24 
REMARK    4  A    between atoms: C21_24  and  O4_25 
REMARK    5  A    between atoms: O4_25  and  C22_26 
REMARK    6  A    between atoms: C22_26  and  C23_28 
REMARK    7  A    between atoms: C23_28  and  C24_29 
REMARK    8  A    between atoms: C24_29  and  C25_30 
REMARK       I    between atoms: C25_30  and  N1_32 
REMARK    9  A    between atoms: N1_32  and  C26_33 
REMARK   10  A    between atoms: C26_33  and  C27_34 
REMARK   11  A    between atoms: C26_33  and  C36_45 
REMARK   12  A    between atoms: C27_34  and  C28_35 
REMARK   13  A    between atoms: C33_41  and  O7_42 
REMARK   14  A    between atoms: C36_45  and  O9_47 
ROOT
HETATM    1  O4  UNL     1      -0.352  50.143 -16.020  1.00  0.00    -0.314 OA
ENDROOT
BRANCH   1   2
HETATM    2  C21 UNL     1      -0.396  49.277 -17.148  1.00  0.00     0.260 C 
BRANCH   2   3
HETATM    3  C20 UNL     1      -1.804  49.172 -17.722  1.00  0.00     0.185 C 
HETATM    4  O3  UNL     1      -2.783  49.377 -16.995  1.00  0.00    -0.292 OA
BRANCH   3   5
HETATM    5  C19 UNL     1      -1.977  48.818 -19.222  1.00  0.00     0.128 C 
HETATM    6  C14 UNL     1      -1.823  49.995 -20.237  1.00  0.00    -0.002 C 
HETATM    7  C13 UNL     1      -0.388  50.418 -20.609  1.00  0.00     0.013 C 
HETATM    8  C15 UNL     1      -2.608  51.241 -19.736  1.00  0.00     0.019 C 
HETATM    9  C16 UNL     1      -2.460  49.338 -21.499  1.00  0.00     0.002 C 
HETATM   10  C12 UNL     1      -0.338  51.319 -21.860  1.00  0.00     0.007 C 
HETATM   11  C11 UNL     1      -1.051  50.680 -23.072  1.00  0.00     0.002 C 
HETATM   12  C2  UNL     1      -0.995  51.500 -24.404  1.00  0.00    -0.016 C 
HETATM   13  C10 UNL     1      -2.517  50.288 -22.703  1.00  0.00    -0.004 C 
HETATM   14  C1  UNL     1      -1.847  52.789 -24.316  1.00  0.00     0.020 C 
HETATM   15  C3  UNL     1       0.465  51.882 -24.761  1.00  0.00     0.022 C 
HETATM   16  C7  UNL     1      -1.532  50.605 -25.525  1.00  0.00    -0.068 C 
HETATM   17  C4  UNL     1       0.605  52.515 -26.146  1.00  0.00     0.084 C 
HETATM   18  C5  UNL     1      -0.135  51.745 -27.214  1.00  0.00     0.149 C 
HETATM   19  O1  UNL     1       0.068  51.938 -28.411  1.00  0.00    -0.293 OA
HETATM   20  C6  UNL     1      -1.143  50.737 -26.806  1.00  0.00     0.053 C 
HETATM   21  C8  UNL     1      -2.442  49.460 -25.140  1.00  0.00     0.035 C 
HETATM   22  C9  UNL     1      -3.302  49.737 -23.910  1.00  0.00     0.010 C 
HETATM   23  C17 UNL     1      -3.755  48.737 -20.968  1.00  0.00     0.009 C 
HETATM   24  C18 UNL     1      -3.415  48.295 -19.531  1.00  0.00     0.047 C 
BRANCH   5  25
HETATM   25  O2  UNL     1      -1.070  47.760 -19.561  1.00  0.00    -0.381 OA
HETATM   26  H27 UNL     1      -1.292  46.997 -18.996  1.00  0.00     0.211 HD
ENDBRANCH   5  25
ENDBRANCH   3   5
ENDBRANCH   2   3
ENDBRANCH   1   2
BRANCH   1  27
HETATM   27  C22 UNL     1       0.421  51.248 -16.189  1.00  0.00     0.259 C 
HETATM   28  O5  UNL     1       0.680  51.756 -17.272  1.00  0.00    -0.265 OA
BRANCH  27  29
HETATM   29  C23 UNL     1       1.044  51.709 -14.892  1.00  0.00     0.120 C 
BRANCH  29  30
HETATM   30  C24 UNL     1       0.053  52.069 -13.791  1.00  0.00     0.112 C 
BRANCH  30  31
HETATM   31  C25 UNL     1       0.751  52.547 -12.535  1.00  0.00     0.218 C 
HETATM   32  O6  UNL     1       1.719  51.983 -12.046  1.00  0.00    -0.274 OA
HETATM   33  N1  UNL     1       0.190  53.690 -12.006  1.00  0.00    -0.346 N 
HETATM   34  H34 UNL     1      -0.781  53.856 -12.240  1.00  0.00     0.163 HD
BRANCH  33  35
HETATM   35  C26 UNL     1       0.616  54.169 -10.680  1.00  0.00     0.186 C 
BRANCH  35  36
HETATM   36  C27 UNL     1       1.513  55.405 -10.824  1.00  0.00     0.077 C 
BRANCH  36  37
HETATM   37  C28 UNL     1       2.877  55.235 -10.232  1.00  0.00    -0.028 A 
HETATM   38  C29 UNL     1       3.857  54.367 -10.671  1.00  0.00     0.096 A 
HETATM   39  N2  UNL     1       4.957  54.520  -9.871  1.00  0.00    -0.365 N 
HETATM   40  C30 UNL     1       4.715  55.469  -8.905  1.00  0.00     0.043 A 
HETATM   41  H39 UNL     1       5.826  54.012  -9.968  1.00  0.00     0.165 HD
HETATM   42  C31 UNL     1       5.545  55.946  -7.882  1.00  0.00     0.033 A 
HETATM   43  C35 UNL     1       3.415  55.934  -9.103  1.00  0.00     0.001 A 
HETATM   44  C32 UNL     1       5.029  56.930  -7.031  1.00  0.00     0.039 A 
HETATM   45  C33 UNL     1       3.733  57.402  -7.209  1.00  0.00     0.066 A 
HETATM   46  C34 UNL     1       2.915  56.925  -8.233  1.00  0.00     0.050 A 
BRANCH  45  47
HETATM   47  O7  UNL     1       3.212  58.357  -6.383  1.00  0.00    -0.361 OA
HETATM   48  H42 UNL     1       3.892  58.617  -5.741  1.00  0.00     0.217 HD
ENDBRANCH  45  47
ENDBRANCH  36  37
ENDBRANCH  35  36
BRANCH  35  49
HETATM   49  C36 UNL     1      -0.654  54.542  -9.918  1.00  0.00     0.163 C 
HETATM   50  O8  UNL     1      -0.982  54.101  -8.824  1.00  0.00    -0.648 OA
BRANCH  49  51
HETATM   51  O9  UNL     1      -1.428  55.438 -10.556  1.00  0.00    -0.775 OA
HETATM   52  H44 UNL     1      -2.171  55.612  -9.945  1.00  0.00     0.167 HD
ENDBRANCH  49  51
ENDBRANCH  35  49
ENDBRANCH  33  35
ENDBRANCH  30  31
ENDBRANCH  29  30
ENDBRANCH  27  29
ENDBRANCH   1  27
TORSDOF 14
ENDMDL
