MODEL 1
REMARK minimizedAffinity -8.96617126
REMARK  12 active torsions:
REMARK  status: ('A' for Active; 'I' for Inactive)
REMARK    1  A    between atoms: C2_2  and  C3_3 
REMARK    2  A    between atoms: C2_2  and  C22_26 
REMARK    3  A    between atoms: C3_3  and  C4_4 
REMARK    4  A    between atoms: C4_4  and  C5_5 
REMARK    5  A    between atoms: C4_4  and  N1_18 
REMARK    6  A    between atoms: C5_5  and  C6_6 
REMARK    7  A    between atoms: C9_9  and  C10_10 
REMARK       I    between atoms: N1_18  and  C18_19 
REMARK    8  A    between atoms: C18_19  and  C19_21 
REMARK    9  A    between atoms: C19_21  and  C20_22 
REMARK   10  A    between atoms: C20_22  and  C21_23 
REMARK   11  A    between atoms: C21_23  and  O3_25 
REMARK   12  A    between atoms: C22_26  and  O5_28 
ROOT
HETATM    1  C4  UNL     1      -2.678  50.456 -26.663  1.00  0.00     0.089 C 
ENDROOT
BRANCH   1   2
HETATM    2  C3  UNL     1      -3.587  49.914 -27.787  1.00  0.00     0.040 C 
BRANCH   2   3
HETATM    3  C2  UNL     1      -4.162  48.506 -27.581  1.00  0.00     0.081 C 
HETATM    4  C1  UNL     1      -4.942  48.345 -26.279  1.00  0.00     0.021 C 
BRANCH   3   5
HETATM    5  C22 UNL     1      -5.040  48.154 -28.760  1.00  0.00     0.143 C 
HETATM    6  O4  UNL     1      -4.657  47.709 -29.830  1.00  0.00    -0.650 OA
BRANCH   5   7
HETATM    7  O5  UNL     1      -6.347  48.402 -28.556  1.00  0.00    -0.776 OA
HETATM    8  H25 UNL     1      -6.768  48.147 -29.404  1.00  0.00     0.167 HD
ENDBRANCH   5   7
ENDBRANCH   3   5
ENDBRANCH   2   3
ENDBRANCH   1   2
BRANCH   1   9
HETATM    9  C5  UNL     1      -2.312  49.409 -25.580  1.00  0.00     0.063 C 
BRANCH   9  10
HETATM   10  C6  UNL     1      -1.766  49.981 -24.291  1.00  0.00    -0.056 A 
HETATM   11  C7  UNL     1      -1.011  51.159 -24.292  1.00  0.00     0.008 A 
HETATM   12  C8  UNL     1      -0.504  51.680 -23.097  1.00  0.00     0.013 A 
HETATM   13  C9  UNL     1      -0.724  51.033 -21.872  1.00  0.00    -0.026 A 
HETATM   14  C16 UNL     1      -1.464  49.842 -21.884  1.00  0.00     0.013 A 
HETATM   15  C17 UNL     1      -1.973  49.317 -23.076  1.00  0.00     0.008 A 
BRANCH  13  16
HETATM   16  C10 UNL     1      -0.191  51.584 -20.615  1.00  0.00    -0.026 A 
HETATM   17  C11 UNL     1      -0.511  51.003 -19.377  1.00  0.00     0.012 A 
HETATM   18  C12 UNL     1      -0.004  51.525 -18.182  1.00  0.00     0.001 A 
HETATM   19  C13 UNL     1       0.831  52.638 -18.208  1.00  0.00     0.000 A 
HETATM   20  C14 UNL     1       1.161  53.230 -19.424  1.00  0.00     0.001 A 
HETATM   21  C15 UNL     1       0.654  52.706 -20.617  1.00  0.00     0.012 A 
ENDBRANCH  13  16
ENDBRANCH   9  10
ENDBRANCH   1   9
BRANCH   1  22
HETATM   22  N1  UNL     1      -1.466  51.048 -27.250  1.00  0.00    -0.356 N 
HETATM   23  C18 UNL     1      -1.346  52.380 -27.584  1.00  0.00     0.218 C 
HETATM   24  O1  UNL     1      -2.253  53.195 -27.471  1.00  0.00    -0.274 OA
HETATM   25  H19 UNL     1      -0.638  50.465 -27.302  1.00  0.00     0.162 HD
BRANCH  23  26
HETATM   26  C19 UNL     1       0.027  52.730 -28.111  1.00  0.00     0.113 C 
BRANCH  26  27
HETATM   27  C20 UNL     1       0.985  51.550 -28.019  1.00  0.00     0.119 C 
BRANCH  27  28
HETATM   28  C21 UNL     1       2.081  51.828 -27.034  1.00  0.00     0.139 C 
HETATM   29  O2  UNL     1       1.964  52.314 -25.921  1.00  0.00    -0.650 OA
BRANCH  28  30
HETATM   30  O3  UNL     1       3.291  51.476 -27.506  1.00  0.00    -0.776 OA
HETATM   31  H24 UNL     1       3.913  51.704 -26.784  1.00  0.00     0.167 HD
ENDBRANCH  28  30
ENDBRANCH  27  28
ENDBRANCH  26  27
ENDBRANCH  23  26
ENDBRANCH   1  22
TORSDOF 12
ENDMDL
MODEL 2
REMARK minimizedAffinity -8.84721756
REMARK  12 active torsions:
REMARK  status: ('A' for Active; 'I' for Inactive)
REMARK    1  A    between atoms: C2_2  and  C3_3 
REMARK    2  A    between atoms: C2_2  and  C22_26 
REMARK    3  A    between atoms: C3_3  and  C4_4 
REMARK    4  A    between atoms: C4_4  and  C5_5 
REMARK    5  A    between atoms: C4_4  and  N1_18 
REMARK    6  A    between atoms: C5_5  and  C6_6 
REMARK    7  A    between atoms: C9_9  and  C10_10 
REMARK       I    between atoms: N1_18  and  C18_19 
REMARK    8  A    between atoms: C18_19  and  C19_21 
REMARK    9  A    between atoms: C19_21  and  C20_22 
REMARK   10  A    between atoms: C20_22  and  C21_23 
REMARK   11  A    between atoms: C21_23  and  O3_25 
REMARK   12  A    between atoms: C22_26  and  O5_28 
ROOT
HETATM    1  C4  UNL     1       0.220  51.826 -24.768  1.00  0.00     0.089 C 
ENDROOT
BRANCH   1   2
HETATM    2  C3  UNL     1       1.311  52.108 -25.823  1.00  0.00     0.040 C 
BRANCH   2   3
HETATM    3  C2  UNL     1       0.828  52.643 -27.178  1.00  0.00     0.081 C 
HETATM    4  C1  UNL     1       0.026  51.628 -27.989  1.00  0.00     0.021 C 
BRANCH   3   5
HETATM    5  C22 UNL     1       0.007  53.892 -26.952  1.00  0.00     0.143 C 
HETATM    6  O4  UNL     1       0.305  54.822 -26.221  1.00  0.00    -0.650 OA
BRANCH   5   7
HETATM    7  O5  UNL     1      -1.159  53.904 -27.625  1.00  0.00    -0.776 OA
HETATM    8  H25 UNL     1      -1.573  54.751 -27.358  1.00  0.00     0.167 HD
ENDBRANCH   5   7
ENDBRANCH   3   5
ENDBRANCH   2   3
ENDBRANCH   1   2
BRANCH   1   9
HETATM    9  C5  UNL     1      -0.034  52.997 -23.786  1.00  0.00     0.063 C 
BRANCH   9  10
HETATM   10  C6  UNL     1       0.134  52.656 -22.322  1.00  0.00    -0.056 A 
HETATM   11  C7  UNL     1      -0.519  51.552 -21.763  1.00  0.00     0.008 A 
HETATM   12  C8  UNL     1      -0.364  51.245 -20.407  1.00  0.00     0.013 A 
HETATM   13  C9  UNL     1       0.434  52.038 -19.570  1.00  0.00    -0.026 A 
HETATM   14  C16 UNL     1       1.068  53.155 -20.134  1.00  0.00     0.013 A 
HETATM   15  C17 UNL     1       0.916  53.466 -21.489  1.00  0.00     0.008 A 
BRANCH  13  16
HETATM   16  C10 UNL     1       0.597  51.712 -18.143  1.00  0.00    -0.026 A 
HETATM   17  C11 UNL     1       1.313  52.562 -17.284  1.00  0.00     0.012 A 
HETATM   18  C12 UNL     1       1.468  52.254 -15.928  1.00  0.00     0.001 A 
HETATM   19  C13 UNL     1       0.908  51.089 -15.411  1.00  0.00     0.000 A 
HETATM   20  C14 UNL     1       0.194  50.232 -16.245  1.00  0.00     0.001 A 
HETATM   21  C15 UNL     1       0.040  50.543 -17.599  1.00  0.00     0.012 A 
ENDBRANCH  13  16
ENDBRANCH   9  10
ENDBRANCH   1   9
BRANCH   1  22
HETATM   22  N1  UNL     1      -1.026  51.427 -25.441  1.00  0.00    -0.356 N 
HETATM   23  C18 UNL     1      -2.249  52.018 -25.208  1.00  0.00     0.218 C 
HETATM   24  O1  UNL     1      -2.431  52.902 -24.380  1.00  0.00    -0.274 OA
HETATM   25  H19 UNL     1      -0.953  50.760 -26.201  1.00  0.00     0.162 HD
BRANCH  23  26
HETATM   26  C19 UNL     1      -3.347  51.456 -26.082  1.00  0.00     0.113 C 
BRANCH  26  27
HETATM   27  C20 UNL     1      -2.946  51.437 -27.550  1.00  0.00     0.119 C 
BRANCH  27  28
HETATM   28  C21 UNL     1      -3.343  50.142 -28.194  1.00  0.00     0.139 C 
HETATM   29  O2  UNL     1      -3.298  49.029 -27.696  1.00  0.00    -0.650 OA
BRANCH  28  30
HETATM   30  O3  UNL     1      -3.782  50.313 -29.455  1.00  0.00    -0.776 OA
HETATM   31  H24 UNL     1      -4.006  49.410 -29.762  1.00  0.00     0.167 HD
ENDBRANCH  28  30
ENDBRANCH  27  28
ENDBRANCH  26  27
ENDBRANCH  23  26
ENDBRANCH   1  22
TORSDOF 12
ENDMDL
MODEL 3
REMARK minimizedAffinity -8.84439564
REMARK  12 active torsions:
REMARK  status: ('A' for Active; 'I' for Inactive)
REMARK    1  A    between atoms: C2_2  and  C3_3 
REMARK    2  A    between atoms: C2_2  and  C22_26 
REMARK    3  A    between atoms: C3_3  and  C4_4 
REMARK    4  A    between atoms: C4_4  and  C5_5 
REMARK    5  A    between atoms: C4_4  and  N1_18 
REMARK    6  A    between atoms: C5_5  and  C6_6 
REMARK    7  A    between atoms: C9_9  and  C10_10 
REMARK       I    between atoms: N1_18  and  C18_19 
REMARK    8  A    between atoms: C18_19  and  C19_21 
REMARK    9  A    between atoms: C19_21  and  C20_22 
REMARK   10  A    between atoms: C20_22  and  C21_23 
REMARK   11  A    between atoms: C21_23  and  O3_25 
REMARK   12  A    between atoms: C22_26  and  O5_28 
ROOT
HETATM    1  C4  UNL     1      -0.712  51.430 -25.147  1.00  0.00     0.089 C 
ENDROOT
BRANCH   1   2
HETATM    2  C3  UNL     1       0.357  52.249 -25.901  1.00  0.00     0.040 C 
BRANCH   2   3
HETATM    3  C2  UNL     1       1.043  51.551 -27.084  1.00  0.00     0.081 C 
HETATM    4  C1  UNL     1       0.861  52.276 -28.415  1.00  0.00     0.021 C 
BRANCH   3   5
HETATM    5  C22 UNL     1       2.515  51.391 -26.777  1.00  0.00     0.143 C 
HETATM    6  O4  UNL     1       2.991  50.673 -25.912  1.00  0.00    -0.650 OA
BRANCH   5   7
HETATM    7  O5  UNL     1       3.316  52.155 -27.543  1.00  0.00    -0.776 OA
HETATM    8  H25 UNL     1       4.216  51.955 -27.210  1.00  0.00     0.167 HD
ENDBRANCH   5   7
ENDBRANCH   3   5
ENDBRANCH   2   3
ENDBRANCH   1   2
BRANCH   1   9
HETATM    9  C5  UNL     1      -1.510  52.242 -24.095  1.00  0.00     0.063 C 
BRANCH   9  10
HETATM   10  C6  UNL     1      -1.072  52.043 -22.661  1.00  0.00    -0.056 A 
HETATM   11  C7  UNL     1      -1.937  51.475 -21.719  1.00  0.00     0.008 A 
HETATM   12  C8  UNL     1      -1.527  51.298 -20.393  1.00  0.00     0.013 A 
HETATM   13  C9  UNL     1      -0.250  51.694 -19.969  1.00  0.00    -0.026 A 
HETATM   14  C16 UNL     1       0.603  52.281 -20.916  1.00  0.00     0.013 A 
HETATM   15  C17 UNL     1       0.197  52.460 -22.242  1.00  0.00     0.008 A 
BRANCH  13  16
HETATM   16  C10 UNL     1       0.180  51.505 -18.573  1.00  0.00    -0.026 A 
HETATM   17  C11 UNL     1      -0.135  50.330 -17.871  1.00  0.00     0.012 A 
HETATM   18  C12 UNL     1       0.274  50.149 -16.546  1.00  0.00     0.001 A 
HETATM   19  C13 UNL     1       1.004  51.143 -15.902  1.00  0.00     0.000 A 
HETATM   20  C14 UNL     1       1.328  52.317 -16.578  1.00  0.00     0.001 A 
HETATM   21  C15 UNL     1       0.919  52.494 -17.903  1.00  0.00     0.012 A 
ENDBRANCH  13  16
ENDBRANCH   9  10
ENDBRANCH   1   9
BRANCH   1  22
HETATM   22  N1  UNL     1      -1.618  50.792 -26.114  1.00  0.00    -0.356 N 
HETATM   23  C18 UNL     1      -2.502  51.485 -26.912  1.00  0.00     0.218 C 
HETATM   24  O1  UNL     1      -2.659  52.699 -26.861  1.00  0.00    -0.274 OA
HETATM   25  H19 UNL     1      -1.498  49.799 -26.282  1.00  0.00     0.162 HD
BRANCH  23  26
HETATM   26  C19 UNL     1      -3.266  50.586 -27.858  1.00  0.00     0.113 C 
BRANCH  26  27
HETATM   27  C20 UNL     1      -3.460  49.192 -27.279  1.00  0.00     0.119 C 
BRANCH  27  28
HETATM   28  C21 UNL     1      -4.539  48.455 -28.015  1.00  0.00     0.139 C 
HETATM   29  O2  UNL     1      -4.517  48.085 -29.176  1.00  0.00    -0.650 OA
BRANCH  28  30
HETATM   30  O3  UNL     1      -5.613  48.217 -27.238  1.00  0.00    -0.776 OA
HETATM   31  H24 UNL     1      -6.238  47.739 -27.822  1.00  0.00     0.167 HD
ENDBRANCH  28  30
ENDBRANCH  27  28
ENDBRANCH  26  27
ENDBRANCH  23  26
ENDBRANCH   1  22
TORSDOF 12
ENDMDL
MODEL 4
REMARK minimizedAffinity -8.63779163
REMARK  12 active torsions:
REMARK  status: ('A' for Active; 'I' for Inactive)
REMARK    1  A    between atoms: C2_2  and  C3_3 
REMARK    2  A    between atoms: C2_2  and  C22_26 
REMARK    3  A    between atoms: C3_3  and  C4_4 
REMARK    4  A    between atoms: C4_4  and  C5_5 
REMARK    5  A    between atoms: C4_4  and  N1_18 
REMARK    6  A    between atoms: C5_5  and  C6_6 
REMARK    7  A    between atoms: C9_9  and  C10_10 
REMARK       I    between atoms: N1_18  and  C18_19 
REMARK    8  A    between atoms: C18_19  and  C19_21 
REMARK    9  A    between atoms: C19_21  and  C20_22 
REMARK   10  A    between atoms: C20_22  and  C21_23 
REMARK   11  A    between atoms: C21_23  and  O3_25 
REMARK   12  A    between atoms: C22_26  and  O5_28 
ROOT
HETATM    1  C4  UNL     1       0.069  52.784 -24.918  1.00  0.00     0.089 C 
ENDROOT
BRANCH   1   2
HETATM    2  C3  UNL     1       0.595  52.961 -26.359  1.00  0.00     0.040 C 
BRANCH   2   3
HETATM    3  C2  UNL     1       1.044  51.684 -27.083  1.00  0.00     0.081 C 
HETATM    4  C1  UNL     1       0.837  51.730 -28.595  1.00  0.00     0.021 C 
BRANCH   3   5
HETATM    5  C22 UNL     1       2.498  51.421 -26.765  1.00  0.00     0.143 C 
HETATM    6  O4  UNL     1       2.917  50.657 -25.910  1.00  0.00    -0.650 OA
BRANCH   5   7
HETATM    7  O5  UNL     1       3.356  52.145 -27.509  1.00  0.00    -0.776 OA
HETATM    8  H25 UNL     1       4.237  51.880 -27.171  1.00  0.00     0.167 HD
ENDBRANCH   5   7
ENDBRANCH   3   5
ENDBRANCH   2   3
ENDBRANCH   1   2
BRANCH   1   9
HETATM    9  C5  UNL     1       0.698  53.756 -23.887  1.00  0.00     0.063 C 
BRANCH   9  10
HETATM   10  C6  UNL     1       0.686  53.270 -22.455  1.00  0.00    -0.056 A 
HETATM   11  C7  UNL     1       0.048  52.073 -22.109  1.00  0.00     0.008 A 
HETATM   12  C8  UNL     1       0.036  51.632 -20.782  1.00  0.00     0.013 A 
HETATM   13  C9  UNL     1       0.647  52.377 -19.763  1.00  0.00    -0.026 A 
HETATM   14  C16 UNL     1       1.266  53.585 -20.117  1.00  0.00     0.013 A 
HETATM   15  C17 UNL     1       1.281  54.031 -21.442  1.00  0.00     0.008 A 
BRANCH  13  16
HETATM   16  C10 UNL     1       0.635  51.909 -18.367  1.00  0.00    -0.026 A 
HETATM   17  C11 UNL     1       1.320  52.612 -17.362  1.00  0.00     0.012 A 
HETATM   18  C12 UNL     1       1.308  52.170 -16.036  1.00  0.00     0.001 A 
HETATM   19  C13 UNL     1       0.611  51.015 -15.693  1.00  0.00     0.000 A 
HETATM   20  C14 UNL     1      -0.075  50.302 -16.674  1.00  0.00     0.001 A 
HETATM   21  C15 UNL     1      -0.063  50.747 -17.998  1.00  0.00     0.012 A 
ENDBRANCH  13  16
ENDBRANCH   9  10
ENDBRANCH   1   9
BRANCH   1  22
HETATM   22  N1  UNL     1      -1.399  52.892 -24.913  1.00  0.00    -0.356 N 
HETATM   23  C18 UNL     1      -2.249  51.807 -24.939  1.00  0.00     0.218 C 
HETATM   24  O1  UNL     1      -1.869  50.646 -25.019  1.00  0.00    -0.274 OA
HETATM   25  H19 UNL     1      -1.800  53.811 -24.764  1.00  0.00     0.162 HD
BRANCH  23  26
HETATM   26  C19 UNL     1      -3.706  52.203 -24.862  1.00  0.00     0.113 C 
BRANCH  26  27
HETATM   27  C20 UNL     1      -4.216  52.204 -23.427  1.00  0.00     0.119 C 
BRANCH  27  28
HETATM   28  C21 UNL     1      -5.161  51.062 -23.199  1.00  0.00     0.139 C 
HETATM   29  O2  UNL     1      -5.205  50.326 -22.227  1.00  0.00    -0.650 OA
BRANCH  28  30
HETATM   30  O3  UNL     1      -6.020  50.899 -24.223  1.00  0.00    -0.776 OA
HETATM   31  H24 UNL     1      -6.575  50.136 -23.960  1.00  0.00     0.167 HD
ENDBRANCH  28  30
ENDBRANCH  27  28
ENDBRANCH  26  27
ENDBRANCH  23  26
ENDBRANCH   1  22
TORSDOF 12
ENDMDL
MODEL 5
REMARK minimizedAffinity -8.63013077
REMARK  12 active torsions:
REMARK  status: ('A' for Active; 'I' for Inactive)
REMARK    1  A    between atoms: C2_2  and  C3_3 
REMARK    2  A    between atoms: C2_2  and  C22_26 
REMARK    3  A    between atoms: C3_3  and  C4_4 
REMARK    4  A    between atoms: C4_4  and  C5_5 
REMARK    5  A    between atoms: C4_4  and  N1_18 
REMARK    6  A    between atoms: C5_5  and  C6_6 
REMARK    7  A    between atoms: C9_9  and  C10_10 
REMARK       I    between atoms: N1_18  and  C18_19 
REMARK    8  A    between atoms: C18_19  and  C19_21 
REMARK    9  A    between atoms: C19_21  and  C20_22 
REMARK   10  A    between atoms: C20_22  and  C21_23 
REMARK   11  A    between atoms: C21_23  and  O3_25 
REMARK   12  A    between atoms: C22_26  and  O5_28 
ROOT
HETATM    1  C4  UNL     1      -1.520  50.880 -24.182  1.00  0.00     0.089 C 
ENDROOT
BRANCH   1   2
HETATM    2  C3  UNL     1      -0.703  51.078 -25.478  1.00  0.00     0.040 C 
BRANCH   2   3
HETATM    3  C2  UNL     1       0.301  52.239 -25.481  1.00  0.00     0.081 C 
HETATM    4  C1  UNL     1       1.665  51.871 -26.059  1.00  0.00     0.021 C 
BRANCH   3   5
HETATM    5  C22 UNL     1      -0.291  53.401 -26.246  1.00  0.00     0.143 C 
HETATM    6  O4  UNL     1       0.216  54.503 -26.380  1.00  0.00    -0.650 OA
BRANCH   5   7
HETATM    7  O5  UNL     1      -1.499  53.140 -26.780  1.00  0.00    -0.776 OA
HETATM    8  H25 UNL     1      -1.749  53.983 -27.214  1.00  0.00     0.167 HD
ENDBRANCH   5   7
ENDBRANCH   3   5
ENDBRANCH   2   3
ENDBRANCH   1   2
BRANCH   1   9
HETATM    9  C5  UNL     1      -2.056  49.440 -23.982  1.00  0.00     0.063 C 
BRANCH   9  10
HETATM   10  C6  UNL     1      -3.049  48.973 -25.022  1.00  0.00    -0.056 A 
HETATM   11  C7  UNL     1      -2.668  48.817 -26.359  1.00  0.00     0.008 A 
HETATM   12  C8  UNL     1      -3.593  48.389 -27.318  1.00  0.00     0.013 A 
HETATM   13  C9  UNL     1      -4.925  48.120 -26.971  1.00  0.00    -0.026 A 
HETATM   14  C16 UNL     1      -5.303  48.300 -25.632  1.00  0.00     0.013 A 
HETATM   15  C17 UNL     1      -4.382  48.727 -24.671  1.00  0.00     0.008 A 
BRANCH  13  16
HETATM   16  C10 UNL     1      -5.897  47.668 -27.981  1.00  0.00    -0.026 A 
HETATM   17  C11 UNL     1      -5.582  47.691 -29.350  1.00  0.00     0.012 A 
HETATM   18  C12 UNL     1      -6.504  47.262 -30.310  1.00  0.00     0.001 A 
HETATM   19  C13 UNL     1      -7.757  46.803 -29.915  1.00  0.00     0.000 A 
HETATM   20  C14 UNL     1      -8.091  46.772 -28.563  1.00  0.00     0.001 A 
HETATM   21  C15 UNL     1      -7.167  47.201 -27.606  1.00  0.00     0.012 A 
ENDBRANCH  13  16
ENDBRANCH   9  10
ENDBRANCH   1   9
BRANCH   1  22
HETATM   22  N1  UNL     1      -0.720  51.308 -23.024  1.00  0.00    -0.356 N 
HETATM   23  C18 UNL     1      -1.261  51.797 -21.855  1.00  0.00     0.218 C 
HETATM   24  O1  UNL     1      -2.461  51.971 -21.680  1.00  0.00    -0.274 OA
HETATM   25  H19 UNL     1       0.276  51.122 -23.050  1.00  0.00     0.162 HD
BRANCH  23  26
HETATM   26  C19 UNL     1      -0.214  52.102 -20.808  1.00  0.00     0.113 C 
BRANCH  26  27
HETATM   27  C20 UNL     1       1.109  52.517 -21.437  1.00  0.00     0.119 C 
BRANCH  27  28
HETATM   28  C21 UNL     1       1.458  53.927 -21.060  1.00  0.00     0.139 C 
HETATM   29  O2  UNL     1       1.860  54.808 -21.800  1.00  0.00    -0.650 OA
BRANCH  28  30
HETATM   30  O3  UNL     1       1.280  54.161 -19.746  1.00  0.00    -0.776 OA
HETATM   31  H24 UNL     1       1.538  55.098 -19.626  1.00  0.00     0.167 HD
ENDBRANCH  28  30
ENDBRANCH  27  28
ENDBRANCH  26  27
ENDBRANCH  23  26
ENDBRANCH   1  22
TORSDOF 12
ENDMDL
MODEL 6
REMARK minimizedAffinity -8.60629559
REMARK  12 active torsions:
REMARK  status: ('A' for Active; 'I' for Inactive)
REMARK    1  A    between atoms: C2_2  and  C3_3 
REMARK    2  A    between atoms: C2_2  and  C22_26 
REMARK    3  A    between atoms: C3_3  and  C4_4 
REMARK    4  A    between atoms: C4_4  and  C5_5 
REMARK    5  A    between atoms: C4_4  and  N1_18 
REMARK    6  A    between atoms: C5_5  and  C6_6 
REMARK    7  A    between atoms: C9_9  and  C10_10 
REMARK       I    between atoms: N1_18  and  C18_19 
REMARK    8  A    between atoms: C18_19  and  C19_21 
REMARK    9  A    between atoms: C19_21  and  C20_22 
REMARK   10  A    between atoms: C20_22  and  C21_23 
REMARK   11  A    between atoms: C21_23  and  O3_25 
REMARK   12  A    between atoms: C22_26  and  O5_28 
ROOT
HETATM    1  C4  UNL     1      -1.426  50.642 -23.962  1.00  0.00     0.089 C 
ENDROOT
BRANCH   1   2
HETATM    2  C3  UNL     1      -1.941  51.899 -23.226  1.00  0.00     0.040 C 
BRANCH   2   3
HETATM    3  C2  UNL     1      -3.245  52.513 -23.754  1.00  0.00     0.081 C 
HETATM    4  C1  UNL     1      -3.489  52.255 -25.239  1.00  0.00     0.021 C 
BRANCH   3   5
HETATM    5  C22 UNL     1      -4.404  51.985 -22.938  1.00  0.00     0.143 C 
HETATM    6  O4  UNL     1      -4.320  51.404 -21.868  1.00  0.00    -0.650 OA
BRANCH   5   7
HETATM    7  O5  UNL     1      -5.606  52.182 -23.512  1.00  0.00    -0.776 OA
HETATM    8  H25 UNL     1      -6.235  51.771 -22.882  1.00  0.00     0.167 HD
ENDBRANCH   5   7
ENDBRANCH   3   5
ENDBRANCH   2   3
ENDBRANCH   1   2
BRANCH   1   9
HETATM    9  C5  UNL     1      -2.253  49.361 -23.686  1.00  0.00     0.063 C 
BRANCH   9  10
HETATM   10  C6  UNL     1      -3.156  48.922 -24.817  1.00  0.00    -0.056 A 
HETATM   11  C7  UNL     1      -2.646  48.721 -26.105  1.00  0.00     0.008 A 
HETATM   12  C8  UNL     1      -3.488  48.320 -27.148  1.00  0.00     0.013 A 
HETATM   13  C9  UNL     1      -4.860  48.122 -26.938  1.00  0.00    -0.026 A 
HETATM   14  C16 UNL     1      -5.365  48.346 -25.649  1.00  0.00     0.013 A 
HETATM   15  C17 UNL     1      -4.528  48.747 -24.603  1.00  0.00     0.008 A 
BRANCH  13  16
HETATM   16  C10 UNL     1      -5.744  47.698 -28.038  1.00  0.00    -0.026 A 
HETATM   17  C11 UNL     1      -5.344  47.824 -29.378  1.00  0.00     0.012 A 
HETATM   18  C12 UNL     1      -6.182  47.421 -30.422  1.00  0.00     0.001 A 
HETATM   19  C13 UNL     1      -7.436  46.886 -30.141  1.00  0.00     0.000 A 
HETATM   20  C14 UNL     1      -7.853  46.753 -28.819  1.00  0.00     0.001 A 
HETATM   21  C15 UNL     1      -7.013  47.155 -27.778  1.00  0.00     0.012 A 
ENDBRANCH  13  16
ENDBRANCH   9  10
ENDBRANCH   1   9
BRANCH   1  22
HETATM   22  N1  UNL     1      -1.347  50.915 -25.406  1.00  0.00    -0.356 N 
HETATM   23  C18 UNL     1      -0.205  51.348 -26.044  1.00  0.00     0.218 C 
HETATM   24  O1  UNL     1       0.846  51.599 -25.466  1.00  0.00    -0.274 OA
HETATM   25  H19 UNL     1      -2.144  50.656 -25.975  1.00  0.00     0.162 HD
BRANCH  23  26
HETATM   26  C19 UNL     1      -0.386  51.488 -27.539  1.00  0.00     0.113 C 
BRANCH  26  27
HETATM   27  C20 UNL     1       0.285  52.745 -28.074  1.00  0.00     0.119 C 
BRANCH  27  28
HETATM   28  C21 UNL     1      -0.527  53.963 -27.745  1.00  0.00     0.139 C 
HETATM   29  O2  UNL     1      -0.163  54.943 -27.117  1.00  0.00    -0.650 OA
BRANCH  28  30
HETATM   30  O3  UNL     1      -1.780  53.885 -28.231  1.00  0.00    -0.776 OA
HETATM   31  H24 UNL     1      -2.204  54.724 -27.955  1.00  0.00     0.167 HD
ENDBRANCH  28  30
ENDBRANCH  27  28
ENDBRANCH  26  27
ENDBRANCH  23  26
ENDBRANCH   1  22
TORSDOF 12
ENDMDL
MODEL 7
REMARK minimizedAffinity -8.46663189
REMARK  12 active torsions:
REMARK  status: ('A' for Active; 'I' for Inactive)
REMARK    1  A    between atoms: C2_2  and  C3_3 
REMARK    2  A    between atoms: C2_2  and  C22_26 
REMARK    3  A    between atoms: C3_3  and  C4_4 
REMARK    4  A    between atoms: C4_4  and  C5_5 
REMARK    5  A    between atoms: C4_4  and  N1_18 
REMARK    6  A    between atoms: C5_5  and  C6_6 
REMARK    7  A    between atoms: C9_9  and  C10_10 
REMARK       I    between atoms: N1_18  and  C18_19 
REMARK    8  A    between atoms: C18_19  and  C19_21 
REMARK    9  A    between atoms: C19_21  and  C20_22 
REMARK   10  A    between atoms: C20_22  and  C21_23 
REMARK   11  A    between atoms: C21_23  and  O3_25 
REMARK   12  A    between atoms: C22_26  and  O5_28 
ROOT
HETATM    1  C4  UNL     1      -1.396  50.624 -25.789  1.00  0.00     0.089 C 
ENDROOT
BRANCH   1   2
HETATM    2  C3  UNL     1      -0.454  51.059 -26.933  1.00  0.00     0.040 C 
BRANCH   2   3
HETATM    3  C2  UNL     1       0.587  52.134 -26.588  1.00  0.00     0.081 C 
HETATM    4  C1  UNL     1       2.000  51.794 -27.056  1.00  0.00     0.021 C 
BRANCH   3   5
HETATM    5  C22 UNL     1       0.147  53.454 -27.178  1.00  0.00     0.143 C 
HETATM    6  O4  UNL     1      -0.205  53.640 -28.332  1.00  0.00    -0.650 OA
BRANCH   5   7
HETATM    7  O5  UNL     1       0.198  54.481 -26.309  1.00  0.00    -0.776 OA
HETATM    8  H25 UNL     1      -0.090  55.252 -26.843  1.00  0.00     0.167 HD
ENDBRANCH   5   7
ENDBRANCH   3   5
ENDBRANCH   2   3
ENDBRANCH   1   2
BRANCH   1   9
HETATM    9  C5  UNL     1      -1.872  51.786 -24.881  1.00  0.00     0.063 C 
BRANCH   9  10
HETATM   10  C6  UNL     1      -1.405  51.711 -23.444  1.00  0.00    -0.056 A 
HETATM   11  C7  UNL     1      -0.091  52.045 -23.098  1.00  0.00     0.008 A 
HETATM   12  C8  UNL     1       0.336  51.968 -21.768  1.00  0.00     0.013 A 
HETATM   13  C9  UNL     1      -0.531  51.544 -20.751  1.00  0.00    -0.026 A 
HETATM   14  C16 UNL     1      -1.840  51.191 -21.110  1.00  0.00     0.013 A 
HETATM   15  C17 UNL     1      -2.272  51.266 -22.438  1.00  0.00     0.008 A 
BRANCH  13  16
HETATM   16  C10 UNL     1      -0.080  51.465 -19.351  1.00  0.00    -0.026 A 
HETATM   17  C11 UNL     1       0.604  52.534 -18.750  1.00  0.00     0.012 A 
HETATM   18  C12 UNL     1       1.031  52.461 -17.420  1.00  0.00     0.001 A 
HETATM   19  C13 UNL     1       0.781  51.315 -16.671  1.00  0.00     0.000 A 
HETATM   20  C14 UNL     1       0.105  50.243 -17.247  1.00  0.00     0.001 A 
HETATM   21  C15 UNL     1      -0.322  50.319 -18.576  1.00  0.00     0.012 A 
ENDBRANCH  13  16
ENDBRANCH   9  10
ENDBRANCH   1   9
BRANCH   1  22
HETATM   22  N1  UNL     1      -2.544  49.892 -26.348  1.00  0.00    -0.356 N 
HETATM   23  C18 UNL     1      -3.225  48.902 -25.673  1.00  0.00     0.218 C 
HETATM   24  O1  UNL     1      -2.914  48.497 -24.560  1.00  0.00    -0.274 OA
HETATM   25  H19 UNL     1      -2.921  50.217 -27.230  1.00  0.00     0.162 HD
BRANCH  23  26
HETATM   26  C19 UNL     1      -4.400  48.362 -26.456  1.00  0.00     0.113 C 
BRANCH  26  27
HETATM   27  C20 UNL     1      -4.168  48.455 -27.958  1.00  0.00     0.119 C 
BRANCH  27  28
HETATM   28  C21 UNL     1      -5.398  48.046 -28.713  1.00  0.00     0.139 C 
HETATM   29  O2  UNL     1      -5.445  47.429 -29.764  1.00  0.00    -0.650 OA
BRANCH  28  30
HETATM   30  O3  UNL     1      -6.528  48.441 -28.097  1.00  0.00    -0.776 OA
HETATM   31  H24 UNL     1      -7.249  48.121 -28.678  1.00  0.00     0.167 HD
ENDBRANCH  28  30
ENDBRANCH  27  28
ENDBRANCH  26  27
ENDBRANCH  23  26
ENDBRANCH   1  22
TORSDOF 12
ENDMDL
MODEL 8
REMARK minimizedAffinity -8.41663265
REMARK  12 active torsions:
REMARK  status: ('A' for Active; 'I' for Inactive)
REMARK    1  A    between atoms: C2_2  and  C3_3 
REMARK    2  A    between atoms: C2_2  and  C22_26 
REMARK    3  A    between atoms: C3_3  and  C4_4 
REMARK    4  A    between atoms: C4_4  and  C5_5 
REMARK    5  A    between atoms: C4_4  and  N1_18 
REMARK    6  A    between atoms: C5_5  and  C6_6 
REMARK    7  A    between atoms: C9_9  and  C10_10 
REMARK       I    between atoms: N1_18  and  C18_19 
REMARK    8  A    between atoms: C18_19  and  C19_21 
REMARK    9  A    between atoms: C19_21  and  C20_22 
REMARK   10  A    between atoms: C20_22  and  C21_23 
REMARK   11  A    between atoms: C21_23  and  O3_25 
REMARK   12  A    between atoms: C22_26  and  O5_28 
ROOT
HETATM    1  C4  UNL     1      -0.848  52.283 -24.656  1.00  0.00     0.089 C 
ENDROOT
BRANCH   1   2
HETATM    2  C3  UNL     1      -0.300  53.576 -25.299  1.00  0.00     0.040 C 
BRANCH   2   3
HETATM    3  C2  UNL     1       0.380  53.422 -26.667  1.00  0.00     0.081 C 
HETATM    4  C1  UNL     1       1.314  52.218 -26.757  1.00  0.00     0.021 C 
BRANCH   3   5
HETATM    5  C22 UNL     1      -0.682  53.336 -27.740  1.00  0.00     0.143 C 
HETATM    6  O4  UNL     1      -1.840  53.709 -27.633  1.00  0.00    -0.650 OA
BRANCH   5   7
HETATM    7  O5  UNL     1      -0.256  52.763 -28.881  1.00  0.00    -0.776 OA
HETATM    8  H25 UNL     1      -1.052  52.763 -29.453  1.00  0.00     0.167 HD
ENDBRANCH   5   7
ENDBRANCH   3   5
ENDBRANCH   2   3
ENDBRANCH   1   2
BRANCH   1   9
HETATM    9  C5  UNL     1      -0.631  51.007 -25.508  1.00  0.00     0.063 C 
BRANCH   9  10
HETATM   10  C6  UNL     1      -1.889  50.239 -25.848  1.00  0.00    -0.056 A 
HETATM   11  C7  UNL     1      -2.553  49.484 -24.874  1.00  0.00     0.008 A 
HETATM   12  C8  UNL     1      -3.713  48.771 -25.196  1.00  0.00     0.013 A 
HETATM   13  C9  UNL     1      -4.234  48.781 -26.498  1.00  0.00    -0.026 A 
HETATM   14  C16 UNL     1      -3.549  49.524 -27.472  1.00  0.00     0.013 A 
HETATM   15  C17 UNL     1      -2.389  50.238 -27.155  1.00  0.00     0.008 A 
BRANCH  13  16
HETATM   16  C10 UNL     1      -5.456  48.032 -26.834  1.00  0.00    -0.026 A 
HETATM   17  C11 UNL     1      -5.715  47.624 -28.153  1.00  0.00     0.012 A 
HETATM   18  C12 UNL     1      -6.875  46.912 -28.473  1.00  0.00     0.001 A 
HETATM   19  C13 UNL     1      -7.795  46.596 -27.478  1.00  0.00     0.000 A 
HETATM   20  C14 UNL     1      -7.558  46.991 -26.163  1.00  0.00     0.001 A 
HETATM   21  C15 UNL     1      -6.398  47.702 -25.846  1.00  0.00     0.012 A 
ENDBRANCH  13  16
ENDBRANCH   9  10
ENDBRANCH   1   9
BRANCH   1  22
HETATM   22  N1  UNL     1      -0.275  52.120 -23.311  1.00  0.00    -0.356 N 
HETATM   23  C18 UNL     1      -1.029  52.015 -22.162  1.00  0.00     0.218 C 
HETATM   24  O1  UNL     1      -2.251  52.098 -22.139  1.00  0.00    -0.274 OA
HETATM   25  H19 UNL     1       0.724  51.959 -23.245  1.00  0.00     0.162 HD
BRANCH  23  26
HETATM   26  C19 UNL     1      -0.186  51.792 -20.927  1.00  0.00     0.113 C 
BRANCH  26  27
HETATM   27  C20 UNL     1       1.202  52.400 -21.074  1.00  0.00     0.119 C 
BRANCH  27  28
HETATM   28  C21 UNL     1       1.175  53.869 -20.775  1.00  0.00     0.139 C 
HETATM   29  O2  UNL     1       1.672  54.765 -21.438  1.00  0.00    -0.650 OA
BRANCH  28  30
HETATM   30  O3  UNL     1       0.511  54.144 -19.636  1.00  0.00    -0.776 OA
HETATM   31  H24 UNL     1       0.562  55.119 -19.551  1.00  0.00     0.167 HD
ENDBRANCH  28  30
ENDBRANCH  27  28
ENDBRANCH  26  27
ENDBRANCH  23  26
ENDBRANCH   1  22
TORSDOF 12
ENDMDL
MODEL 9
REMARK minimizedAffinity -8.4014349
REMARK  12 active torsions:
REMARK  status: ('A' for Active; 'I' for Inactive)
REMARK    1  A    between atoms: C2_2  and  C3_3 
REMARK    2  A    between atoms: C2_2  and  C22_26 
REMARK    3  A    between atoms: C3_3  and  C4_4 
REMARK    4  A    between atoms: C4_4  and  C5_5 
REMARK    5  A    between atoms: C4_4  and  N1_18 
REMARK    6  A    between atoms: C5_5  and  C6_6 
REMARK    7  A    between atoms: C9_9  and  C10_10 
REMARK       I    between atoms: N1_18  and  C18_19 
REMARK    8  A    between atoms: C18_19  and  C19_21 
REMARK    9  A    between atoms: C19_21  and  C20_22 
REMARK   10  A    between atoms: C20_22  and  C21_23 
REMARK   11  A    between atoms: C21_23  and  O3_25 
REMARK   12  A    between atoms: C22_26  and  O5_28 
ROOT
HETATM    1  C4  UNL     1      -2.749  51.019 -25.457  1.00  0.00     0.089 C 
ENDROOT
BRANCH   1   2
HETATM    2  C3  UNL     1      -2.547  49.491 -25.352  1.00  0.00     0.040 C 
BRANCH   2   3
HETATM    3  C2  UNL     1      -3.506  48.618 -26.173  1.00  0.00     0.081 C 
HETATM    4  C1  UNL     1      -4.857  48.390 -25.500  1.00  0.00     0.021 C 
BRANCH   3   5
HETATM    5  C22 UNL     1      -3.702  49.245 -27.534  1.00  0.00     0.143 C 
HETATM    6  O4  UNL     1      -2.911  49.977 -28.106  1.00  0.00    -0.650 OA
BRANCH   5   7
HETATM    7  O5  UNL     1      -4.888  48.952 -28.100  1.00  0.00    -0.776 OA
HETATM    8  H25 UNL     1      -4.868  49.443 -28.949  1.00  0.00     0.167 HD
ENDBRANCH   5   7
ENDBRANCH   3   5
ENDBRANCH   2   3
ENDBRANCH   1   2
BRANCH   1   9
HETATM    9  C5  UNL     1      -3.456  51.653 -24.233  1.00  0.00     0.063 C 
BRANCH   9  10
HETATM   10  C6  UNL     1      -2.688  51.569 -22.933  1.00  0.00    -0.056 A 
HETATM   11  C7  UNL     1      -3.186  50.834 -21.851  1.00  0.00     0.008 A 
HETATM   12  C8  UNL     1      -2.472  50.766 -20.649  1.00  0.00     0.013 A 
HETATM   13  C9  UNL     1      -1.252  51.438 -20.490  1.00  0.00    -0.026 A 
HETATM   14  C16 UNL     1      -0.771  52.189 -21.573  1.00  0.00     0.013 A 
HETATM   15  C17 UNL     1      -1.481  52.261 -22.776  1.00  0.00     0.008 A 
BRANCH  13  16
HETATM   16  C10 UNL     1      -0.502  51.363 -19.225  1.00  0.00    -0.026 A 
HETATM   17  C11 UNL     1       0.298  52.433 -18.793  1.00  0.00     0.012 A 
HETATM   18  C12 UNL     1       1.010  52.364 -17.592  1.00  0.00     0.001 A 
HETATM   19  C13 UNL     1       0.933  51.220 -16.802  1.00  0.00     0.000 A 
HETATM   20  C14 UNL     1       0.145  50.146 -17.211  1.00  0.00     0.001 A 
HETATM   21  C15 UNL     1      -0.566  50.219 -18.412  1.00  0.00     0.012 A 
ENDBRANCH  13  16
ENDBRANCH   9  10
ENDBRANCH   1   9
BRANCH   1  22
HETATM   22  N1  UNL     1      -1.455  51.671 -25.712  1.00  0.00    -0.356 N 
HETATM   23  C18 UNL     1      -1.288  52.738 -26.568  1.00  0.00     0.218 C 
HETATM   24  O1  UNL     1      -2.191  53.220 -27.241  1.00  0.00    -0.274 OA
HETATM   25  H19 UNL     1      -0.669  51.392 -25.136  1.00  0.00     0.162 HD
BRANCH  23  26
HETATM   26  C19 UNL     1       0.134  53.252 -26.593  1.00  0.00     0.113 C 
BRANCH  26  27
HETATM   27  C20 UNL     1       1.132  52.167 -26.214  1.00  0.00     0.119 C 
BRANCH  27  28
HETATM   28  C21 UNL     1       1.913  51.719 -27.414  1.00  0.00     0.139 C 
HETATM   29  O2  UNL     1       1.501  51.596 -28.556  1.00  0.00    -0.650 OA
BRANCH  28  30
HETATM   30  O3  UNL     1       3.196  51.443 -27.113  1.00  0.00    -0.776 OA
HETATM   31  H24 UNL     1       3.594  51.166 -27.965  1.00  0.00     0.167 HD
ENDBRANCH  28  30
ENDBRANCH  27  28
ENDBRANCH  26  27
ENDBRANCH  23  26
ENDBRANCH   1  22
TORSDOF 12
ENDMDL
