MODEL 1
REMARK minimizedAffinity -9.25145245
REMARK  10 active torsions:
REMARK  status: ('A' for Active; 'I' for Inactive)
REMARK    1  A    between atoms: C2_2  and  O1_4 
REMARK    2  A    between atoms: C2_2  and  C4_5 
REMARK    3  A    between atoms: C4_5  and  O2_6 
REMARK    4  A    between atoms: C4_5  and  C5_7 
REMARK    5  A    between atoms: C5_7  and  O3_8 
REMARK    6  A    between atoms: C5_7  and  C6_9 
REMARK    7  A    between atoms: C6_9  and  C7_10 
REMARK    8  A    between atoms: C7_10  and  C8_11 
REMARK    9  A    between atoms: C7_10  and  C9_13 
REMARK   10  A    between atoms: C8_11  and  O4_12 
ROOT
HETATM    1  C9  UNL     1      -0.874  52.195 -21.302  1.00  0.00     0.001 C 
HETATM    2  C10 UNL     1      -0.109  51.231 -20.345  1.00  0.00     0.007 C 
HETATM    3  C11 UNL     1      -1.059  50.076 -19.981  1.00  0.00     0.015 C 
HETATM    4  C12 UNL     1      -2.447  50.540 -20.461  1.00  0.00    -0.013 C 
HETATM    5  C13 UNL     1      -3.026  51.449 -19.331  1.00  0.00     0.021 C 
HETATM    6  C14 UNL     1      -3.504  49.472 -20.721  1.00  0.00    -0.070 C 
HETATM    7  C15 UNL     1      -3.571  48.335 -20.002  1.00  0.00    -0.022 C 
HETATM    8  C16 UNL     1      -4.637  47.290 -20.160  1.00  0.00     0.034 C 
HETATM    9  C17 UNL     1      -5.548  47.502 -21.390  1.00  0.00     0.013 C 
HETATM   10  C18 UNL     1      -6.715  46.457 -21.498  1.00  0.00     0.018 C 
HETATM   11  C19 UNL     1      -6.117  45.064 -21.819  1.00  0.00     0.023 C 
HETATM   12  C20 UNL     1      -7.584  46.292 -20.243  1.00  0.00     0.023 C 
HETATM   13  C21 UNL     1      -7.644  46.844 -22.660  1.00  0.00     0.135 C 
HETATM   14  O5  UNL     1      -8.125  46.008 -23.427  1.00  0.00    -0.297 OA
HETATM   15  C22 UNL     1      -8.049  48.294 -22.775  1.00  0.00     0.080 C 
HETATM   16  C23 UNL     1      -6.819  49.184 -22.810  1.00  0.00     0.017 C 
HETATM   17  C24 UNL     1      -5.911  49.027 -21.565  1.00  0.00    -0.031 C 
HETATM   18  C25 UNL     1      -6.628  49.640 -20.339  1.00  0.00     0.016 C 
HETATM   19  C26 UNL     1      -4.535  49.774 -21.816  1.00  0.00     0.024 C 
HETATM   20  C27 UNL     1      -4.649  51.285 -22.133  1.00  0.00     0.010 C 
HETATM   21  C28 UNL     1      -3.310  52.040 -22.310  1.00  0.00     0.011 C 
HETATM   22  C29 UNL     1      -2.068  51.294 -21.785  1.00  0.00    -0.029 C 
HETATM   23  C30 UNL     1      -1.538  50.343 -22.906  1.00  0.00     0.016 C 
ENDROOT
BRANCH   1  24
HETATM   24  C7  UNL     1       0.054  52.853 -22.373  1.00  0.00     0.016 C 
BRANCH  24  25
HETATM   25  C6  UNL     1       0.244  51.940 -23.619  1.00  0.00     0.041 C 
BRANCH  25  26
HETATM   26  C5  UNL     1       0.805  52.703 -24.843  1.00  0.00     0.150 C 
BRANCH  26  27
HETATM   27  C4  UNL     1      -0.294  53.457 -25.650  1.00  0.00     0.180 C 
BRANCH  27  28
HETATM   28  C2  UNL     1      -0.782  52.698 -26.922  1.00  0.00     0.079 C 
HETATM   29  C1  UNL     1      -1.159  51.251 -26.567  1.00  0.00     0.048 C 
HETATM   30  C3  UNL     1       0.226  52.688 -28.071  1.00  0.00     0.048 C 
BRANCH  28  31
HETATM   31  O1  UNL     1      -1.979  53.335 -27.395  1.00  0.00    -0.388 OA
HETATM   32  H7  UNL     1      -2.528  53.470 -26.595  1.00  0.00     0.210 HD
ENDBRANCH  28  31
ENDBRANCH  27  28
BRANCH  27  33
HETATM   33  O2  UNL     1       0.195  54.738 -26.095  1.00  0.00    -0.390 OA
HETATM   34  H9  UNL     1       0.159  55.346 -25.337  1.00  0.00     0.210 HD
ENDBRANCH  27  33
ENDBRANCH  26  27
BRANCH  26  35
HETATM   35  O3  UNL     1       1.510  51.788 -25.689  1.00  0.00    -0.393 OA
HETATM   36  H11 UNL     1       0.860  51.247 -26.170  1.00  0.00     0.210 HD
ENDBRANCH  26  35
ENDBRANCH  25  26
ENDBRANCH  24  25
BRANCH  24  37
HETATM   37  C8  UNL     1       1.435  53.211 -21.788  1.00  0.00     0.169 C 
BRANCH  37  38
HETATM   38  O4  UNL     1       1.404  54.513 -21.218  1.00  0.00    -0.400 OA
HETATM   39  H17 UNL     1       1.194  55.126 -21.950  1.00  0.00     0.209 HD
ENDBRANCH  37  38
ENDBRANCH  24  37
ENDBRANCH   1  24
TORSDOF 10
ENDMDL
MODEL 2
REMARK minimizedAffinity -9.05942631
REMARK  10 active torsions:
REMARK  status: ('A' for Active; 'I' for Inactive)
REMARK    1  A    between atoms: C2_2  and  O1_4 
REMARK    2  A    between atoms: C2_2  and  C4_5 
REMARK    3  A    between atoms: C4_5  and  O2_6 
REMARK    4  A    between atoms: C4_5  and  C5_7 
REMARK    5  A    between atoms: C5_7  and  O3_8 
REMARK    6  A    between atoms: C5_7  and  C6_9 
REMARK    7  A    between atoms: C6_9  and  C7_10 
REMARK    8  A    between atoms: C7_10  and  C8_11 
REMARK    9  A    between atoms: C7_10  and  C9_13 
REMARK   10  A    between atoms: C8_11  and  O4_12 
ROOT
HETATM    1  C9  UNL     1      -1.241  51.154 -22.894  1.00  0.00     0.001 C 
HETATM    2  C10 UNL     1      -2.555  51.712 -23.521  1.00  0.00     0.007 C 
HETATM    3  C11 UNL     1      -3.726  50.863 -22.994  1.00  0.00     0.015 C 
HETATM    4  C12 UNL     1      -3.061  49.640 -22.335  1.00  0.00    -0.013 C 
HETATM    5  C13 UNL     1      -2.765  48.623 -23.483  1.00  0.00     0.021 C 
HETATM    6  C14 UNL     1      -3.865  48.870 -21.292  1.00  0.00    -0.070 C 
HETATM    7  C15 UNL     1      -5.203  48.741 -21.365  1.00  0.00    -0.022 C 
HETATM    8  C16 UNL     1      -6.033  47.928 -20.414  1.00  0.00     0.034 C 
HETATM    9  C17 UNL     1      -5.257  47.419 -19.179  1.00  0.00     0.013 C 
HETATM   10  C18 UNL     1      -6.107  46.496 -18.235  1.00  0.00     0.018 C 
HETATM   11  C19 UNL     1      -7.207  47.347 -17.553  1.00  0.00     0.023 C 
HETATM   12  C20 UNL     1      -6.814  45.314 -18.915  1.00  0.00     0.023 C 
HETATM   13  C21 UNL     1      -5.206  45.925 -17.128  1.00  0.00     0.135 C 
HETATM   14  O5  UNL     1      -5.583  45.822 -15.960  1.00  0.00    -0.297 OA
HETATM   15  C22 UNL     1      -3.858  45.381 -17.538  1.00  0.00     0.080 C 
HETATM   16  C23 UNL     1      -3.081  46.428 -18.315  1.00  0.00     0.017 C 
HETATM   17  C24 UNL     1      -3.816  46.923 -19.585  1.00  0.00    -0.031 C 
HETATM   18  C25 UNL     1      -3.823  45.787 -20.636  1.00  0.00     0.016 C 
HETATM   19  C26 UNL     1      -3.068  48.195 -20.169  1.00  0.00     0.024 C 
HETATM   20  C27 UNL     1      -1.579  47.978 -20.535  1.00  0.00     0.010 C 
HETATM   21  C28 UNL     1      -0.858  49.190 -21.170  1.00  0.00     0.011 C 
HETATM   22  C29 UNL     1      -1.790  50.301 -21.694  1.00  0.00    -0.029 C 
HETATM   23  C30 UNL     1      -2.127  51.274 -20.518  1.00  0.00     0.016 C 
ENDROOT
BRANCH   1  24
HETATM   24  C7  UNL     1      -0.183  52.267 -22.605  1.00  0.00     0.016 C 
BRANCH  24  25
HETATM   25  C6  UNL     1       0.679  52.590 -23.859  1.00  0.00     0.041 C 
BRANCH  25  26
HETATM   26  C5  UNL     1       0.078  53.723 -24.726  1.00  0.00     0.150 C 
BRANCH  26  27
HETATM   27  C4  UNL     1      -0.312  53.256 -26.160  1.00  0.00     0.180 C 
BRANCH  27  28
HETATM   28  C2  UNL     1       0.668  52.211 -26.776  1.00  0.00     0.079 C 
HETATM   29  C1  UNL     1       0.622  52.277 -28.310  1.00  0.00     0.048 C 
HETATM   30  C3  UNL     1       0.414  50.772 -26.326  1.00  0.00     0.048 C 
BRANCH  28  31
HETATM   31  O1  UNL     1       2.005  52.563 -26.385  1.00  0.00    -0.388 OA
HETATM   32  H7  UNL     1       2.068  53.528 -26.538  1.00  0.00     0.210 HD
ENDBRANCH  28  31
ENDBRANCH  27  28
BRANCH  27  33
HETATM   33  O2  UNL     1      -0.343  54.376 -27.065  1.00  0.00    -0.390 OA
HETATM   34  H9  UNL     1      -1.178  54.853 -26.914  1.00  0.00     0.210 HD
ENDBRANCH  27  33
ENDBRANCH  26  27
BRANCH  26  35
HETATM   35  O3  UNL     1       1.005  54.813 -24.788  1.00  0.00    -0.393 OA
HETATM   36  H11 UNL     1       1.729  54.571 -25.390  1.00  0.00     0.210 HD
ENDBRANCH  26  35
ENDBRANCH  25  26
ENDBRANCH  24  25
BRANCH  24  37
HETATM   37  C8  UNL     1       0.744  51.882 -21.434  1.00  0.00     0.169 C 
BRANCH  37  38
HETATM   38  O4  UNL     1       1.228  53.050 -20.785  1.00  0.00    -0.400 OA
HETATM   39  H17 UNL     1       1.741  53.542 -21.457  1.00  0.00     0.209 HD
ENDBRANCH  37  38
ENDBRANCH  24  37
ENDBRANCH   1  24
TORSDOF 10
ENDMDL
MODEL 3
REMARK minimizedAffinity -9.04444313
REMARK  10 active torsions:
REMARK  status: ('A' for Active; 'I' for Inactive)
REMARK    1  A    between atoms: C2_2  and  O1_4 
REMARK    2  A    between atoms: C2_2  and  C4_5 
REMARK    3  A    between atoms: C4_5  and  O2_6 
REMARK    4  A    between atoms: C4_5  and  C5_7 
REMARK    5  A    between atoms: C5_7  and  O3_8 
REMARK    6  A    between atoms: C5_7  and  C6_9 
REMARK    7  A    between atoms: C6_9  and  C7_10 
REMARK    8  A    between atoms: C7_10  and  C8_11 
REMARK    9  A    between atoms: C7_10  and  C9_13 
REMARK   10  A    between atoms: C8_11  and  O4_12 
ROOT
HETATM    1  C9  UNL     1      -2.007  51.436 -23.344  1.00  0.00     0.001 C 
HETATM    2  C10 UNL     1      -3.069  52.406 -23.947  1.00  0.00     0.007 C 
HETATM    3  C11 UNL     1      -4.460  51.809 -23.675  1.00  0.00     0.015 C 
HETATM    4  C12 UNL     1      -4.188  50.365 -23.212  1.00  0.00    -0.013 C 
HETATM    5  C13 UNL     1      -4.012  49.510 -24.507  1.00  0.00     0.021 C 
HETATM    6  C14 UNL     1      -5.267  49.666 -22.393  1.00  0.00    -0.070 C 
HETATM    7  C15 UNL     1      -6.580  49.896 -22.584  1.00  0.00    -0.022 C 
HETATM    8  C16 UNL     1      -7.684  49.177 -21.865  1.00  0.00     0.034 C 
HETATM    9  C17 UNL     1      -7.200  48.290 -20.695  1.00  0.00     0.013 C 
HETATM   10  C18 UNL     1      -8.349  47.473 -20.006  1.00  0.00     0.018 C 
HETATM   11  C19 UNL     1      -9.286  48.452 -19.256  1.00  0.00     0.023 C 
HETATM   12  C20 UNL     1      -9.234  46.639 -20.945  1.00  0.00     0.023 C 
HETATM   13  C21 UNL     1      -7.745  46.517 -18.965  1.00  0.00     0.135 C 
HETATM   14  O5  UNL     1      -8.268  46.322 -17.866  1.00  0.00    -0.297 OA
HETATM   15  C22 UNL     1      -6.527  45.722 -19.372  1.00  0.00     0.080 C 
HETATM   16  C23 UNL     1      -5.438  46.649 -19.881  1.00  0.00     0.017 C 
HETATM   17  C24 UNL     1      -5.881  47.517 -21.084  1.00  0.00    -0.031 C 
HETATM   18  C25 UNL     1      -6.037  46.609 -22.327  1.00  0.00     0.016 C 
HETATM   19  C26 UNL     1      -4.789  48.633 -21.363  1.00  0.00     0.024 C 
HETATM   20  C27 UNL     1      -3.364  48.107 -21.656  1.00  0.00     0.010 C 
HETATM   21  C28 UNL     1      -2.305  49.183 -21.999  1.00  0.00     0.011 C 
HETATM   22  C29 UNL     1      -2.879  50.565 -22.369  1.00  0.00    -0.029 C 
HETATM   23  C30 UNL     1      -3.108  51.385 -21.058  1.00  0.00     0.016 C 
ENDROOT
BRANCH   1  24
HETATM   24  C7  UNL     1      -0.755  52.178 -22.776  1.00  0.00     0.016 C 
BRANCH  24  25
HETATM   25  C6  UNL     1       0.326  52.416 -23.870  1.00  0.00     0.041 C 
BRANCH  25  26
HETATM   26  C5  UNL     1       0.027  53.653 -24.751  1.00  0.00     0.150 C 
BRANCH  26  27
HETATM   27  C4  UNL     1      -0.247  53.291 -26.241  1.00  0.00     0.180 C 
BRANCH  27  28
HETATM   28  C2  UNL     1       0.701  52.194 -26.813  1.00  0.00     0.079 C 
HETATM   29  C1  UNL     1       0.741  52.271 -28.348  1.00  0.00     0.048 C 
HETATM   30  C3  UNL     1       0.341  50.770 -26.390  1.00  0.00     0.048 C 
BRANCH  28  31
HETATM   31  O1  UNL     1       2.034  52.465 -26.350  1.00  0.00    -0.388 OA
HETATM   32  H7  UNL     1       2.161  53.425 -26.492  1.00  0.00     0.210 HD
ENDBRANCH  28  31
ENDBRANCH  27  28
BRANCH  27  33
HETATM   33  O2  UNL     1      -0.090  54.452 -27.081  1.00  0.00    -0.390 OA
HETATM   34  H9  UNL     1      -0.894  54.993 -26.987  1.00  0.00     0.210 HD
ENDBRANCH  27  33
ENDBRANCH  26  27
BRANCH  26  35
HETATM   35  O3  UNL     1       1.116  54.579 -24.652  1.00  0.00    -0.393 OA
HETATM   36  H11 UNL     1       1.862  54.236 -25.172  1.00  0.00     0.210 HD
ENDBRANCH  26  35
ENDBRANCH  25  26
ENDBRANCH  24  25
BRANCH  24  37
HETATM   37  C8  UNL     1      -0.126  51.412 -21.595  1.00  0.00     0.169 C 
BRANCH  37  38
HETATM   38  O4  UNL     1       1.112  52.008 -21.226  1.00  0.00    -0.400 OA
HETATM   39  H17 UNL     1       1.694  51.932 -22.009  1.00  0.00     0.209 HD
ENDBRANCH  37  38
ENDBRANCH  24  37
ENDBRANCH   1  24
TORSDOF 10
ENDMDL
MODEL 4
REMARK minimizedAffinity -8.87821579
REMARK  10 active torsions:
REMARK  status: ('A' for Active; 'I' for Inactive)
REMARK    1  A    between atoms: C2_2  and  O1_4 
REMARK    2  A    between atoms: C2_2  and  C4_5 
REMARK    3  A    between atoms: C4_5  and  O2_6 
REMARK    4  A    between atoms: C4_5  and  C5_7 
REMARK    5  A    between atoms: C5_7  and  O3_8 
REMARK    6  A    between atoms: C5_7  and  C6_9 
REMARK    7  A    between atoms: C6_9  and  C7_10 
REMARK    8  A    between atoms: C7_10  and  C8_11 
REMARK    9  A    between atoms: C7_10  and  C9_13 
REMARK   10  A    between atoms: C8_11  and  O4_12 
ROOT
HETATM    1  C9  UNL     1      -1.049  52.121 -21.875  1.00  0.00     0.001 C 
HETATM    2  C10 UNL     1       0.396  52.651 -21.627  1.00  0.00     0.007 C 
HETATM    3  C11 UNL     1       0.813  52.234 -20.206  1.00  0.00     0.015 C 
HETATM    4  C12 UNL     1      -0.489  51.757 -19.536  1.00  0.00    -0.013 C 
HETATM    5  C13 UNL     1      -1.212  53.037 -19.010  1.00  0.00     0.021 C 
HETATM    6  C14 UNL     1      -0.370  50.822 -18.337  1.00  0.00    -0.070 C 
HETATM    7  C15 UNL     1       0.650  50.898 -17.462  1.00  0.00    -0.022 C 
HETATM    8  C16 UNL     1       0.774  50.059 -16.223  1.00  0.00     0.034 C 
HETATM    9  C17 UNL     1      -0.260  48.915 -16.132  1.00  0.00     0.013 C 
HETATM   10  C18 UNL     1      -0.183  48.099 -14.794  1.00  0.00     0.018 C 
HETATM   11  C19 UNL     1       1.140  47.294 -14.768  1.00  0.00     0.023 C 
HETATM   12  C20 UNL     1      -0.227  48.928 -13.501  1.00  0.00     0.023 C 
HETATM   13  C21 UNL     1      -1.343  47.091 -14.740  1.00  0.00     0.135 C 
HETATM   14  O5  UNL     1      -1.199  45.944 -14.313  1.00  0.00    -0.297 OA
HETATM   15  C22 UNL     1      -2.715  47.586 -15.129  1.00  0.00     0.080 C 
HETATM   16  C23 UNL     1      -2.676  48.219 -16.508  1.00  0.00     0.017 C 
HETATM   17  C24 UNL     1      -1.681  49.401 -16.615  1.00  0.00    -0.031 C 
HETATM   18  C25 UNL     1      -2.235  50.598 -15.806  1.00  0.00     0.016 C 
HETATM   19  C26 UNL     1      -1.507  49.811 -18.137  1.00  0.00     0.024 C 
HETATM   20  C27 UNL     1      -2.810  50.219 -18.867  1.00  0.00     0.010 C 
HETATM   21  C28 UNL     1      -2.643  50.689 -20.331  1.00  0.00     0.011 C 
HETATM   22  C29 UNL     1      -1.199  51.045 -20.740  1.00  0.00    -0.029 C 
HETATM   23  C30 UNL     1      -0.470  49.742 -21.205  1.00  0.00     0.016 C 
ENDROOT
BRANCH   1  24
HETATM   24  C7  UNL     1      -1.295  51.692 -23.357  1.00  0.00     0.016 C 
BRANCH  24  25
HETATM   25  C6  UNL     1      -0.073  52.012 -24.267  1.00  0.00     0.041 C 
BRANCH  25  26
HETATM   26  C5  UNL     1      -0.235  53.339 -25.046  1.00  0.00     0.150 C 
BRANCH  26  27
HETATM   27  C4  UNL     1      -0.544  53.127 -26.558  1.00  0.00     0.180 C 
BRANCH  27  28
HETATM   28  C2  UNL     1       0.214  51.924 -27.199  1.00  0.00     0.079 C 
HETATM   29  C1  UNL     1      -0.385  50.596 -26.709  1.00  0.00     0.048 C 
HETATM   30  C3  UNL     1       1.720  51.923 -26.941  1.00  0.00     0.048 C 
BRANCH  28  31
HETATM   31  O1  UNL     1       0.012  51.971 -28.620  1.00  0.00    -0.388 OA
HETATM   32  H7  UNL     1      -0.946  52.137 -28.735  1.00  0.00     0.210 HD
ENDBRANCH  28  31
ENDBRANCH  27  28
BRANCH  27  33
HETATM   33  O2  UNL     1      -0.179  54.296 -27.318  1.00  0.00    -0.390 OA
HETATM   34  H9  UNL     1      -0.880  54.959 -27.192  1.00  0.00     0.210 HD
ENDBRANCH  27  33
ENDBRANCH  26  27
BRANCH  26  35
HETATM   35  O3  UNL     1       0.945  54.132 -24.881  1.00  0.00    -0.393 OA
HETATM   36  H11 UNL     1       1.652  53.754 -25.431  1.00  0.00     0.210 HD
ENDBRANCH  26  35
ENDBRANCH  25  26
ENDBRANCH  24  25
BRANCH  24  37
HETATM   37  C8  UNL     1      -2.554  52.363 -23.943  1.00  0.00     0.169 C 
BRANCH  37  38
HETATM   38  O4  UNL     1      -3.530  52.548 -22.925  1.00  0.00    -0.400 OA
HETATM   39  H17 UNL     1      -3.760  51.654 -22.602  1.00  0.00     0.209 HD
ENDBRANCH  37  38
ENDBRANCH  24  37
ENDBRANCH   1  24
TORSDOF 10
ENDMDL
MODEL 5
REMARK minimizedAffinity -8.87148952
REMARK  10 active torsions:
REMARK  status: ('A' for Active; 'I' for Inactive)
REMARK    1  A    between atoms: C2_2  and  O1_4 
REMARK    2  A    between atoms: C2_2  and  C4_5 
REMARK    3  A    between atoms: C4_5  and  O2_6 
REMARK    4  A    between atoms: C4_5  and  C5_7 
REMARK    5  A    between atoms: C5_7  and  O3_8 
REMARK    6  A    between atoms: C5_7  and  C6_9 
REMARK    7  A    between atoms: C6_9  and  C7_10 
REMARK    8  A    between atoms: C7_10  and  C8_11 
REMARK    9  A    between atoms: C7_10  and  C9_13 
REMARK   10  A    between atoms: C8_11  and  O4_12 
ROOT
HETATM    1  C9  UNL     1      -1.819  50.799 -21.692  1.00  0.00     0.001 C 
HETATM    2  C10 UNL     1      -1.269  52.245 -21.888  1.00  0.00     0.007 C 
HETATM    3  C11 UNL     1      -0.583  52.669 -20.577  1.00  0.00     0.015 C 
HETATM    4  C12 UNL     1      -1.017  51.612 -19.544  1.00  0.00    -0.013 C 
HETATM    5  C13 UNL     1      -2.420  52.054 -19.020  1.00  0.00     0.021 C 
HETATM    6  C14 UNL     1      -0.147  51.430 -18.306  1.00  0.00    -0.070 C 
HETATM    7  C15 UNL     1       0.518  52.453 -17.734  1.00  0.00    -0.022 C 
HETATM    8  C16 UNL     1       1.321  52.346 -16.471  1.00  0.00     0.034 C 
HETATM    9  C17 UNL     1       1.527  50.897 -15.976  1.00  0.00     0.013 C 
HETATM   10  C18 UNL     1       2.289  50.799 -14.608  1.00  0.00     0.018 C 
HETATM   11  C19 UNL     1       3.759  51.244 -14.815  1.00  0.00     0.023 C 
HETATM   12  C20 UNL     1       1.722  51.652 -13.463  1.00  0.00     0.023 C 
HETATM   13  C21 UNL     1       2.308  49.337 -14.134  1.00  0.00     0.135 C 
HETATM   14  O5  UNL     1       3.301  48.824 -13.615  1.00  0.00    -0.297 OA
HETATM   15  C22 UNL     1       1.016  48.559 -14.223  1.00  0.00     0.080 C 
HETATM   16  C23 UNL     1       0.464  48.612 -15.636  1.00  0.00     0.017 C 
HETATM   17  C24 UNL     1       0.204  50.053 -16.141  1.00  0.00    -0.031 C 
HETATM   18  C25 UNL     1      -1.007  50.641 -15.377  1.00  0.00     0.016 C 
HETATM   19  C26 UNL     1      -0.101  50.022 -17.697  1.00  0.00     0.024 C 
HETATM   20  C27 UNL     1      -1.305  49.146 -18.119  1.00  0.00     0.010 C 
HETATM   21  C28 UNL     1      -1.656  49.163 -19.626  1.00  0.00     0.011 C 
HETATM   22  C29 UNL     1      -1.020  50.316 -20.429  1.00  0.00    -0.029 C 
HETATM   23  C30 UNL     1       0.408  49.881 -20.893  1.00  0.00     0.016 C 
ENDROOT
BRANCH   1  24
HETATM   24  C7  UNL     1      -1.757  49.941 -22.997  1.00  0.00     0.016 C 
BRANCH  24  25
HETATM   25  C6  UNL     1      -2.294  50.720 -24.232  1.00  0.00     0.041 C 
BRANCH  25  26
HETATM   26  C5  UNL     1      -1.295  50.733 -25.415  1.00  0.00     0.150 C 
BRANCH  26  27
HETATM   27  C4  UNL     1      -1.173  52.128 -26.098  1.00  0.00     0.180 C 
BRANCH  27  28
HETATM   28  C2  UNL     1       0.261  52.461 -26.612  1.00  0.00     0.079 C 
HETATM   29  C1  UNL     1       0.387  52.111 -28.103  1.00  0.00     0.048 C 
HETATM   30  C3  UNL     1       1.381  51.769 -25.836  1.00  0.00     0.048 C 
BRANCH  28  31
HETATM   31  O1  UNL     1       0.461  53.879 -26.500  1.00  0.00    -0.388 OA
HETATM   32  H7  UNL     1      -0.356  54.280 -26.862  1.00  0.00     0.210 HD
ENDBRANCH  28  31
ENDBRANCH  27  28
BRANCH  27  33
HETATM   33  O2  UNL     1      -1.535  53.176 -25.177  1.00  0.00    -0.390 OA
HETATM   34  H9  UNL     1      -2.507  53.202 -25.129  1.00  0.00     0.210 HD
ENDBRANCH  27  33
ENDBRANCH  26  27
BRANCH  26  35
HETATM   35  O3  UNL     1      -1.679  49.738 -26.370  1.00  0.00    -0.393 OA
HETATM   36  H11 UNL     1      -2.453  50.062 -26.861  1.00  0.00     0.210 HD
ENDBRANCH  26  35
ENDBRANCH  25  26
ENDBRANCH  24  25
BRANCH  24  37
HETATM   37  C8  UNL     1      -2.539  48.621 -22.848  1.00  0.00     0.169 C 
BRANCH  37  38
HETATM   38  O4  UNL     1      -3.668  48.618 -23.713  1.00  0.00    -0.400 OA
HETATM   39  H17 UNL     1      -4.233  49.363 -23.427  1.00  0.00     0.209 HD
ENDBRANCH  37  38
ENDBRANCH  24  37
ENDBRANCH   1  24
TORSDOF 10
ENDMDL
MODEL 6
REMARK minimizedAffinity -8.83417702
REMARK  10 active torsions:
REMARK  status: ('A' for Active; 'I' for Inactive)
REMARK    1  A    between atoms: C2_2  and  O1_4 
REMARK    2  A    between atoms: C2_2  and  C4_5 
REMARK    3  A    between atoms: C4_5  and  O2_6 
REMARK    4  A    between atoms: C4_5  and  C5_7 
REMARK    5  A    between atoms: C5_7  and  O3_8 
REMARK    6  A    between atoms: C5_7  and  C6_9 
REMARK    7  A    between atoms: C6_9  and  C7_10 
REMARK    8  A    between atoms: C7_10  and  C8_11 
REMARK    9  A    between atoms: C7_10  and  C9_13 
REMARK   10  A    between atoms: C8_11  and  O4_12 
ROOT
HETATM    1  C9  UNL     1      -5.890  48.755 -23.173  1.00  0.00     0.001 C 
HETATM    2  C10 UNL     1      -6.710  49.024 -21.873  1.00  0.00     0.007 C 
HETATM    3  C11 UNL     1      -5.763  49.666 -20.844  1.00  0.00     0.015 C 
HETATM    4  C12 UNL     1      -4.352  49.471 -21.429  1.00  0.00    -0.013 C 
HETATM    5  C13 UNL     1      -3.902  48.030 -21.029  1.00  0.00     0.021 C 
HETATM    6  C14 UNL     1      -3.246  50.403 -20.946  1.00  0.00    -0.070 C 
HETATM    7  C15 UNL     1      -3.211  50.888 -19.690  1.00  0.00    -0.022 C 
HETATM    8  C16 UNL     1      -2.106  51.742 -19.138  1.00  0.00     0.034 C 
HETATM    9  C17 UNL     1      -1.095  52.227 -20.201  1.00  0.00     0.013 C 
HETATM   10  C18 UNL     1       0.106  53.043 -19.604  1.00  0.00     0.018 C 
HETATM   11  C19 UNL     1      -0.421  54.397 -19.067  1.00  0.00     0.023 C 
HETATM   12  C20 UNL     1       0.864  52.370 -18.450  1.00  0.00     0.023 C 
HETATM   13  C21 UNL     1       1.123  53.346 -20.716  1.00  0.00     0.135 C 
HETATM   14  O5  UNL     1       1.694  54.435 -20.808  1.00  0.00    -0.297 OA
HETATM   15  C22 UNL     1       1.495  52.217 -21.647  1.00  0.00     0.080 C 
HETATM   16  C23 UNL     1       0.249  51.615 -22.270  1.00  0.00     0.017 C 
HETATM   17  C24 UNL     1      -0.762  51.077 -21.227  1.00  0.00    -0.031 C 
HETATM   18  C25 UNL     1      -0.174  49.807 -20.568  1.00  0.00     0.016 C 
HETATM   19  C26 UNL     1      -2.131  50.728 -21.948  1.00  0.00     0.024 C 
HETATM   20  C27 UNL     1      -2.032  49.691 -23.093  1.00  0.00     0.010 C 
HETATM   21  C28 UNL     1      -3.371  49.289 -23.757  1.00  0.00     0.011 C 
HETATM   22  C29 UNL     1      -4.633  49.674 -22.960  1.00  0.00    -0.029 C 
HETATM   23  C30 UNL     1      -5.034  51.140 -23.324  1.00  0.00     0.016 C 
ENDROOT
BRANCH   1  24
HETATM   24  C7  UNL     1      -6.737  48.927 -24.474  1.00  0.00     0.016 C 
BRANCH  24  25
HETATM   25  C6  UNL     1      -8.259  49.038 -24.168  1.00  0.00     0.041 C 
BRANCH  25  26
HETATM   26  C5  UNL     1      -9.104  47.996 -24.940  1.00  0.00     0.150 C 
BRANCH  26  27
HETATM   27  C4  UNL     1      -9.981  48.628 -26.061  1.00  0.00     0.180 C 
BRANCH  27  28
HETATM   28  C2  UNL     1      -9.708  48.049 -27.483  1.00  0.00     0.079 C 
HETATM   29  C1  UNL     1     -10.996  48.067 -28.322  1.00  0.00     0.048 C 
HETATM   30  C3  UNL     1      -9.126  46.636 -27.484  1.00  0.00     0.048 C 
BRANCH  28  31
HETATM   31  O1  UNL     1      -8.769  48.911 -28.147  1.00  0.00    -0.388 OA
HETATM   32  H7  UNL     1      -9.096  49.819 -27.980  1.00  0.00     0.210 HD
ENDBRANCH  28  31
ENDBRANCH  27  28
BRANCH  27  33
HETATM   33  O2  UNL     1      -9.752  50.048 -26.142  1.00  0.00    -0.390 OA
HETATM   34  H9  UNL     1     -10.247  50.468 -25.417  1.00  0.00     0.210 HD
ENDBRANCH  27  33
ENDBRANCH  26  27
BRANCH  26  35
HETATM   35  O3  UNL     1      -9.920  47.270 -24.014  1.00  0.00    -0.393 OA
HETATM   36  H11 UNL     1     -10.656  47.841 -23.735  1.00  0.00     0.210 HD
ENDBRANCH  26  35
ENDBRANCH  25  26
ENDBRANCH  24  25
BRANCH  24  37
HETATM   37  C8  UNL     1      -6.500  47.770 -25.466  1.00  0.00     0.169 C 
BRANCH  37  38
HETATM   38  O4  UNL     1      -6.080  48.280 -26.725  1.00  0.00    -0.400 OA
HETATM   39  H17 UNL     1      -6.813  48.840 -27.050  1.00  0.00     0.209 HD
ENDBRANCH  37  38
ENDBRANCH  24  37
ENDBRANCH   1  24
TORSDOF 10
ENDMDL
MODEL 7
REMARK minimizedAffinity -8.82599545
REMARK  10 active torsions:
REMARK  status: ('A' for Active; 'I' for Inactive)
REMARK    1  A    between atoms: C2_2  and  O1_4 
REMARK    2  A    between atoms: C2_2  and  C4_5 
REMARK    3  A    between atoms: C4_5  and  O2_6 
REMARK    4  A    between atoms: C4_5  and  C5_7 
REMARK    5  A    between atoms: C5_7  and  O3_8 
REMARK    6  A    between atoms: C5_7  and  C6_9 
REMARK    7  A    between atoms: C6_9  and  C7_10 
REMARK    8  A    between atoms: C7_10  and  C8_11 
REMARK    9  A    between atoms: C7_10  and  C9_13 
REMARK   10  A    between atoms: C8_11  and  O4_12 
ROOT
HETATM    1  C9  UNL     1      -1.485  50.490 -22.636  1.00  0.00     0.001 C 
HETATM    2  C10 UNL     1      -1.865  49.912 -24.034  1.00  0.00     0.007 C 
HETATM    3  C11 UNL     1      -3.070  48.974 -23.843  1.00  0.00     0.015 C 
HETATM    4  C12 UNL     1      -3.173  48.766 -22.321  1.00  0.00    -0.013 C 
HETATM    5  C13 UNL     1      -2.161  47.633 -21.959  1.00  0.00     0.021 C 
HETATM    6  C14 UNL     1      -4.516  48.323 -21.753  1.00  0.00    -0.070 C 
HETATM    7  C15 UNL     1      -5.355  47.517 -22.431  1.00  0.00    -0.022 C 
HETATM    8  C16 UNL     1      -6.650  46.986 -21.889  1.00  0.00     0.034 C 
HETATM    9  C17 UNL     1      -7.079  47.622 -20.547  1.00  0.00     0.013 C 
HETATM   10  C18 UNL     1      -8.386  46.999 -19.942  1.00  0.00     0.018 C 
HETATM   11  C19 UNL     1      -9.590  47.378 -20.840  1.00  0.00     0.023 C 
HETATM   12  C20 UNL     1      -8.396  45.468 -19.806  1.00  0.00     0.023 C 
HETATM   13  C21 UNL     1      -8.639  47.592 -18.546  1.00  0.00     0.135 C 
HETATM   14  O5  UNL     1      -9.766  47.900 -18.156  1.00  0.00    -0.297 OA
HETATM   15  C22 UNL     1      -7.461  47.689 -17.607  1.00  0.00     0.080 C 
HETATM   16  C23 UNL     1      -6.322  48.446 -18.265  1.00  0.00     0.017 C 
HETATM   17  C24 UNL     1      -5.840  47.803 -19.589  1.00  0.00    -0.031 C 
HETATM   18  C25 UNL     1      -5.107  46.479 -19.266  1.00  0.00     0.016 C 
HETATM   19  C26 UNL     1      -4.855  48.798 -20.334  1.00  0.00     0.024 C 
HETATM   20  C27 UNL     1      -3.603  49.220 -19.527  1.00  0.00     0.010 C 
HETATM   21  C28 UNL     1      -2.600  50.135 -20.268  1.00  0.00     0.011 C 
HETATM   22  C29 UNL     1      -2.781  50.193 -21.799  1.00  0.00    -0.029 C 
HETATM   23  C30 UNL     1      -3.842  51.289 -22.140  1.00  0.00     0.016 C 
ENDROOT
BRANCH   1  24
HETATM   24  C7  UNL     1      -0.953  51.957 -22.707  1.00  0.00     0.016 C 
BRANCH  24  25
HETATM   25  C6  UNL     1       0.115  52.136 -23.825  1.00  0.00     0.041 C 
BRANCH  25  26
HETATM   26  C5  UNL     1      -0.110  53.412 -24.671  1.00  0.00     0.150 C 
BRANCH  26  27
HETATM   27  C4  UNL     1      -0.363  53.111 -26.179  1.00  0.00     0.180 C 
BRANCH  27  28
HETATM   28  C2  UNL     1       0.705  52.179 -26.828  1.00  0.00     0.079 C 
HETATM   29  C1  UNL     1       0.700  52.346 -28.355  1.00  0.00     0.048 C 
HETATM   30  C3  UNL     1       0.540  50.699 -26.482  1.00  0.00     0.048 C 
BRANCH  28  31
HETATM   31  O1  UNL     1       2.002  52.593 -26.369  1.00  0.00    -0.388 OA
HETATM   32  H7  UNL     1       2.003  53.569 -26.457  1.00  0.00     0.210 HD
ENDBRANCH  28  31
ENDBRANCH  27  28
BRANCH  27  33
HETATM   33  O2  UNL     1      -0.367  54.331 -26.945  1.00  0.00    -0.390 OA
HETATM   34  H9  UNL     1      -1.230  54.760 -26.810  1.00  0.00     0.210 HD
ENDBRANCH  27  33
ENDBRANCH  26  27
BRANCH  26  35
HETATM   35  O3  UNL     1       1.013  54.287 -24.516  1.00  0.00    -0.393 OA
HETATM   36  H11 UNL     1       1.758  53.930 -25.030  1.00  0.00     0.210 HD
ENDBRANCH  26  35
ENDBRANCH  25  26
ENDBRANCH  24  25
BRANCH  24  37
HETATM   37  C8  UNL     1      -0.360  52.414 -21.359  1.00  0.00     0.169 C 
BRANCH  37  38
HETATM   38  O4  UNL     1       0.852  53.127 -21.571  1.00  0.00    -0.400 OA
HETATM   39  H17 UNL     1       1.467  52.497 -21.999  1.00  0.00     0.209 HD
ENDBRANCH  37  38
ENDBRANCH  24  37
ENDBRANCH   1  24
TORSDOF 10
ENDMDL
MODEL 8
REMARK minimizedAffinity -8.72860813
REMARK  10 active torsions:
REMARK  status: ('A' for Active; 'I' for Inactive)
REMARK    1  A    between atoms: C2_2  and  O1_4 
REMARK    2  A    between atoms: C2_2  and  C4_5 
REMARK    3  A    between atoms: C4_5  and  O2_6 
REMARK    4  A    between atoms: C4_5  and  C5_7 
REMARK    5  A    between atoms: C5_7  and  O3_8 
REMARK    6  A    between atoms: C5_7  and  C6_9 
REMARK    7  A    between atoms: C6_9  and  C7_10 
REMARK    8  A    between atoms: C7_10  and  C8_11 
REMARK    9  A    between atoms: C7_10  and  C9_13 
REMARK   10  A    between atoms: C8_11  and  O4_12 
ROOT
HETATM    1  C9  UNL     1      -2.581  49.544 -22.873  1.00  0.00     0.001 C 
HETATM    2  C10 UNL     1      -3.947  48.871 -22.537  1.00  0.00     0.007 C 
HETATM    3  C11 UNL     1      -4.032  48.716 -21.009  1.00  0.00     0.015 C 
HETATM    4  C12 UNL     1      -2.605  48.996 -20.503  1.00  0.00    -0.013 C 
HETATM    5  C13 UNL     1      -1.811  47.660 -20.652  1.00  0.00     0.021 C 
HETATM    6  C14 UNL     1      -2.438  49.421 -19.048  1.00  0.00    -0.070 C 
HETATM    7  C15 UNL     1      -3.242  48.969 -18.067  1.00  0.00    -0.022 C 
HETATM    8  C16 UNL     1      -3.073  49.290 -16.611  1.00  0.00     0.034 C 
HETATM    9  C17 UNL     1      -2.020  50.384 -16.326  1.00  0.00     0.013 C 
HETATM   10  C18 UNL     1      -1.784  50.651 -14.797  1.00  0.00     0.018 C 
HETATM   11  C19 UNL     1      -3.053  51.307 -14.197  1.00  0.00     0.023 C 
HETATM   12  C20 UNL     1      -1.475  49.413 -13.942  1.00  0.00     0.023 C 
HETATM   13  C21 UNL     1      -0.620  51.640 -14.623  1.00  0.00     0.135 C 
HETATM   14  O5  UNL     1      -0.642  52.542 -13.783  1.00  0.00    -0.297 OA
HETATM   15  C22 UNL     1       0.622  51.407 -15.448  1.00  0.00     0.080 C 
HETATM   16  C23 UNL     1       0.268  51.318 -16.921  1.00  0.00     0.017 C 
HETATM   17  C24 UNL     1      -0.751  50.196 -17.243  1.00  0.00    -0.031 C 
HETATM   18  C25 UNL     1      -0.058  48.824 -17.069  1.00  0.00     0.016 C 
HETATM   19  C26 UNL     1      -1.264  50.358 -18.735  1.00  0.00     0.024 C 
HETATM   20  C27 UNL     1      -0.162  50.326 -19.822  1.00  0.00     0.010 C 
HETATM   21  C28 UNL     1      -0.657  50.412 -21.285  1.00  0.00     0.011 C 
HETATM   22  C29 UNL     1      -2.162  50.140 -21.481  1.00  0.00    -0.029 C 
HETATM   23  C30 UNL     1      -2.948  51.475 -21.266  1.00  0.00     0.016 C 
ENDROOT
BRANCH   1  24
HETATM   24  C7  UNL     1      -2.658  50.497 -24.109  1.00  0.00     0.016 C 
BRANCH  24  25
HETATM   25  C6  UNL     1      -2.288  51.962 -23.738  1.00  0.00     0.041 C 
BRANCH  25  26
HETATM   26  C5  UNL     1      -1.113  52.517 -24.578  1.00  0.00     0.150 C 
BRANCH  26  27
HETATM   27  C4  UNL     1      -1.329  52.357 -26.113  1.00  0.00     0.180 C 
BRANCH  27  28
HETATM   28  C2  UNL     1      -0.152  52.900 -26.980  1.00  0.00     0.079 C 
HETATM   29  C1  UNL     1      -0.685  53.836 -28.076  1.00  0.00     0.048 C 
HETATM   30  C3  UNL     1       0.708  51.812 -27.622  1.00  0.00     0.048 C 
BRANCH  28  31
HETATM   31  O1  UNL     1       0.700  53.691 -26.136  1.00  0.00    -0.388 OA
HETATM   32  H7  UNL     1       0.091  54.261 -25.624  1.00  0.00     0.210 HD
ENDBRANCH  28  31
ENDBRANCH  27  28
BRANCH  27  33
HETATM   33  O2  UNL     1      -2.512  53.063 -26.533  1.00  0.00    -0.390 OA
HETATM   34  H9  UNL     1      -3.281  52.517 -26.294  1.00  0.00     0.210 HD
ENDBRANCH  27  33
ENDBRANCH  26  27
BRANCH  26  35
HETATM   35  O3  UNL     1       0.102  51.877 -24.173  1.00  0.00    -0.393 OA
HETATM   36  H11 UNL     1       0.111  50.973 -24.532  1.00  0.00     0.210 HD
ENDBRANCH  26  35
ENDBRANCH  25  26
ENDBRANCH  24  25
BRANCH  24  37
HETATM   37  C8  UNL     1      -4.055  50.473 -24.761  1.00  0.00     0.169 C 
BRANCH  37  38
HETATM   38  O4  UNL     1      -4.623  51.777 -24.754  1.00  0.00    -0.400 OA
HETATM   39  H17 UNL     1      -4.708  52.032 -23.813  1.00  0.00     0.209 HD
ENDBRANCH  37  38
ENDBRANCH  24  37
ENDBRANCH   1  24
TORSDOF 10
ENDMDL
MODEL 9
REMARK minimizedAffinity -8.67930222
REMARK  10 active torsions:
REMARK  status: ('A' for Active; 'I' for Inactive)
REMARK    1  A    between atoms: C2_2  and  O1_4 
REMARK    2  A    between atoms: C2_2  and  C4_5 
REMARK    3  A    between atoms: C4_5  and  O2_6 
REMARK    4  A    between atoms: C4_5  and  C5_7 
REMARK    5  A    between atoms: C5_7  and  O3_8 
REMARK    6  A    between atoms: C5_7  and  C6_9 
REMARK    7  A    between atoms: C6_9  and  C7_10 
REMARK    8  A    between atoms: C7_10  and  C8_11 
REMARK    9  A    between atoms: C7_10  and  C9_13 
REMARK   10  A    between atoms: C8_11  and  O4_12 
ROOT
HETATM    1  C9  UNL     1      -5.735  48.468 -22.569  1.00  0.00     0.001 C 
HETATM    2  C10 UNL     1      -5.071  48.710 -21.179  1.00  0.00     0.007 C 
HETATM    3  C11 UNL     1      -3.747  49.458 -21.414  1.00  0.00     0.015 C 
HETATM    4  C12 UNL     1      -3.501  49.359 -22.931  1.00  0.00    -0.013 C 
HETATM    5  C13 UNL     1      -2.828  47.971 -23.180  1.00  0.00     0.021 C 
HETATM    6  C14 UNL     1      -2.579  50.391 -23.571  1.00  0.00    -0.070 C 
HETATM    7  C15 UNL     1      -1.523  50.916 -22.920  1.00  0.00    -0.022 C 
HETATM    8  C16 UNL     1      -0.539  51.872 -23.528  1.00  0.00     0.034 C 
HETATM    9  C17 UNL     1      -0.953  52.404 -24.918  1.00  0.00     0.013 C 
HETATM   10  C18 UNL     1       0.122  53.332 -25.586  1.00  0.00     0.018 C 
HETATM   11  C19 UNL     1       0.214  54.656 -24.786  1.00  0.00     0.023 C 
HETATM   12  C20 UNL     1       1.545  52.759 -25.664  1.00  0.00     0.023 C 
HETATM   13  C21 UNL     1      -0.319  53.681 -27.017  1.00  0.00     0.135 C 
HETATM   14  O5  UNL     1      -0.176  54.808 -27.494  1.00  0.00    -0.297 OA
HETATM   15  C22 UNL     1      -0.842  52.557 -27.878  1.00  0.00     0.080 C 
HETATM   16  C23 UNL     1      -1.978  51.838 -27.174  1.00  0.00     0.017 C 
HETATM   17  C24 UNL     1      -1.577  51.253 -25.797  1.00  0.00    -0.031 C 
HETATM   18  C25 UNL     1      -0.623  50.055 -26.020  1.00  0.00     0.016 C 
HETATM   19  C26 UNL     1      -2.877  50.773 -25.026  1.00  0.00     0.024 C 
HETATM   20  C27 UNL     1      -3.731  49.712 -25.763  1.00  0.00     0.010 C 
HETATM   21  C28 UNL     1      -4.963  49.184 -24.991  1.00  0.00     0.011 C 
HETATM   22  C29 UNL     1      -4.965  49.490 -23.480  1.00  0.00    -0.029 C 
HETATM   23  C30 UNL     1      -5.584  50.908 -23.252  1.00  0.00     0.016 C 
ENDROOT
BRANCH   1  24
HETATM   24  C7  UNL     1      -7.296  48.531 -22.518  1.00  0.00     0.016 C 
BRANCH  24  25
HETATM   25  C6  UNL     1      -7.896  49.152 -23.813  1.00  0.00     0.041 C 
BRANCH  25  26
HETATM   26  C5  UNL     1      -8.410  48.084 -24.808  1.00  0.00     0.150 C 
BRANCH  26  27
HETATM   27  C4  UNL     1      -9.491  48.631 -25.788  1.00  0.00     0.180 C 
BRANCH  27  28
HETATM   28  C2  UNL     1      -9.327  48.132 -27.257  1.00  0.00     0.079 C 
HETATM   29  C1  UNL     1     -10.677  47.643 -27.807  1.00  0.00     0.048 C 
HETATM   30  C3  UNL     1      -8.283  47.030 -27.432  1.00  0.00     0.048 C 
BRANCH  28  31
HETATM   31  O1  UNL     1      -8.928  49.247 -28.069  1.00  0.00    -0.388 OA
HETATM   32  H7  UNL     1      -9.521  49.980 -27.804  1.00  0.00     0.210 HD
ENDBRANCH  28  31
ENDBRANCH  27  28
BRANCH  27  33
HETATM   33  O2  UNL     1      -9.449  50.071 -25.835  1.00  0.00    -0.390 OA
HETATM   34  H9  UNL     1      -9.898  50.403 -25.038  1.00  0.00     0.210 HD
ENDBRANCH  27  33
ENDBRANCH  26  27
BRANCH  26  35
HETATM   35  O3  UNL     1      -8.917  46.962 -24.078  1.00  0.00    -0.393 OA
HETATM   36  H11 UNL     1      -9.781  47.202 -23.700  1.00  0.00     0.210 HD
ENDBRANCH  26  35
ENDBRANCH  25  26
ENDBRANCH  24  25
BRANCH  24  37
HETATM   37  C8  UNL     1      -7.795  49.325 -21.294  1.00  0.00     0.169 C 
BRANCH  37  38
HETATM   38  O4  UNL     1      -8.603  48.498 -20.467  1.00  0.00    -0.400 OA
HETATM   39  H17 UNL     1      -9.369  48.231 -21.014  1.00  0.00     0.209 HD
ENDBRANCH  37  38
ENDBRANCH  24  37
ENDBRANCH   1  24
TORSDOF 10
ENDMDL
