MODEL 1
REMARK minimizedAffinity -10.4939241
REMARK  6 active torsions:
REMARK  status: ('A' for Active; 'I' for Inactive)
REMARK    1  A    between atoms: C4_4  and  C5_5 
REMARK    2  A    between atoms: C5_5  and  C6_6 
REMARK    3  A    between atoms: C6_6  and  C7_7 
REMARK    4  A    between atoms: C19_21  and  C20_22 
REMARK    5  A    between atoms: C26_28  and  C27_29 
REMARK    6  A    between atoms: C30_32  and  O2_33 
ROOT
HETATM    1  C7  UNL     1      -1.116  49.250 -16.546  1.00  0.00     0.082 C 
HETATM    2  C8  UNL     1      -2.335  49.763 -15.769  1.00  0.00     0.051 C 
HETATM    3  C9  UNL     1      -1.547  48.843 -17.940  1.00  0.00     0.012 C 
HETATM    4  C10 UNL     1      -1.208  49.506 -19.050  1.00  0.00     0.015 C 
HETATM    5  C11 UNL     1      -0.389  50.690 -18.893  1.00  0.00     0.025 A 
HETATM    6  C12 UNL     1       0.105  51.063 -17.639  1.00  0.00     0.088 A 
HETATM    7  O1  UNL     1      -0.149  50.334 -16.508  1.00  0.00    -0.335 OA
HETATM    8  C13 UNL     1       0.908  52.201 -17.485  1.00  0.00    -0.027 A 
HETATM    9  C14 UNL     1       1.446  52.584 -16.136  1.00  0.00     0.051 C 
HETATM   10  C15 UNL     1       1.215  52.990 -18.608  1.00  0.00     0.024 A 
HETATM   11  C16 UNL     1       0.720  52.637 -19.881  1.00  0.00     0.005 A 
HETATM   12  C17 UNL     1      -0.068  51.493 -20.001  1.00  0.00     0.057 A 
HETATM   13  N1  UNL     1      -0.398  51.385 -21.331  1.00  0.00    -0.354 N 
HETATM   14  C18 UNL     1       0.125  52.420 -22.078  1.00  0.00     0.053 A 
HETATM   15  C19 UNL     1       0.007  52.698 -23.465  1.00  0.00     0.011 A 
HETATM   16  C30 UNL     1       0.725  53.831 -23.904  1.00  0.00     0.074 A 
HETATM   17  C31 UNL     1       1.449  54.650 -23.037  1.00  0.00     0.038 A 
HETATM   18  C32 UNL     1       1.508  54.356 -21.675  1.00  0.00     0.017 A 
HETATM   19  C33 UNL     1       0.843  53.216 -21.185  1.00  0.00     0.004 A 
HETATM   20  H21 UNL     1      -0.964  50.643 -21.713  1.00  0.00     0.166 HD
ENDROOT
BRANCH  15  21
HETATM   21  C20 UNL     1      -0.774  51.790 -24.420  1.00  0.00     0.051 C 
HETATM   22  C21 UNL     1       0.083  51.537 -25.649  1.00  0.00    -0.014 C 
HETATM   23  C22 UNL     1      -0.343  51.659 -26.916  1.00  0.00    -0.087 C 
HETATM   24  C23 UNL     1       0.571  51.477 -28.093  1.00  0.00     0.043 C 
HETATM   25  C24 UNL     1      -1.768  52.008 -27.223  1.00  0.00     0.034 C 
HETATM   26  C25 UNL     1      -2.716  51.664 -26.075  1.00  0.00     0.010 C 
HETATM   27  C26 UNL     1      -2.254  52.237 -24.715  1.00  0.00     0.001 C 
BRANCH  27  28
HETATM   28  C27 UNL     1      -3.260  51.828 -23.578  1.00  0.00    -0.018 C 
HETATM   29  C28 UNL     1      -3.153  50.340 -23.209  1.00  0.00     0.010 C 
HETATM   30  C29 UNL     1      -4.723  52.117 -23.929  1.00  0.00     0.010 C 
ENDBRANCH  27  28
ENDBRANCH  15  21
BRANCH  16  31
HETATM   31  O2  UNL     1       0.733  54.135 -25.241  1.00  0.00    -0.360 OA
HETATM   32  H39 UNL     1       1.345  54.870 -25.396  1.00  0.00     0.217 HD
ENDBRANCH  16  31
BRANCH   1  33
HETATM   33  C6  UNL     1      -0.404  48.087 -15.804  1.00  0.00     0.046 C 
BRANCH  33  34
HETATM   34  C5  UNL     1       0.935  48.358 -15.104  1.00  0.00     0.030 C 
BRANCH  34  35
HETATM   35  C4  UNL     1       0.896  49.315 -13.948  1.00  0.00    -0.025 C 
HETATM   36  C2  UNL     1       1.947  49.895 -13.338  1.00  0.00    -0.091 C 
HETATM   37  C1  UNL     1       1.743  50.866 -12.205  1.00  0.00     0.042 C 
HETATM   38  C3  UNL     1       3.387  49.649 -13.693  1.00  0.00     0.042 C 
ENDBRANCH  34  35
ENDBRANCH  33  34
ENDBRANCH   1  33
TORSDOF 6
ENDMDL
MODEL 2
REMARK minimizedAffinity -10.3235741
REMARK  6 active torsions:
REMARK  status: ('A' for Active; 'I' for Inactive)
REMARK    1  A    between atoms: C4_4  and  C5_5 
REMARK    2  A    between atoms: C5_5  and  C6_6 
REMARK    3  A    between atoms: C6_6  and  C7_7 
REMARK    4  A    between atoms: C19_21  and  C20_22 
REMARK    5  A    between atoms: C26_28  and  C27_29 
REMARK    6  A    between atoms: C30_32  and  O2_33 
ROOT
HETATM    1  C7  UNL     1      -1.157  49.275 -16.511  1.00  0.00     0.082 C 
HETATM    2  C8  UNL     1      -2.352  49.815 -15.715  1.00  0.00     0.051 C 
HETATM    3  C9  UNL     1      -1.619  48.881 -17.900  1.00  0.00     0.012 C 
HETATM    4  C10 UNL     1      -1.281  49.538 -19.013  1.00  0.00     0.015 C 
HETATM    5  C11 UNL     1      -0.432  50.703 -18.866  1.00  0.00     0.025 A 
HETATM    6  C12 UNL     1       0.089  51.061 -17.619  1.00  0.00     0.088 A 
HETATM    7  O1  UNL     1      -0.164  50.335 -16.486  1.00  0.00    -0.335 OA
HETATM    8  C13 UNL     1       0.922  52.180 -17.476  1.00  0.00    -0.027 A 
HETATM    9  C14 UNL     1       1.488  52.547 -16.134  1.00  0.00     0.051 C 
HETATM   10  C15 UNL     1       1.230  52.963 -18.602  1.00  0.00     0.024 A 
HETATM   11  C16 UNL     1       0.707  52.624 -19.868  1.00  0.00     0.005 A 
HETATM   12  C17 UNL     1      -0.108  51.500 -19.978  1.00  0.00     0.057 A 
HETATM   13  N1  UNL     1      -0.461  51.403 -21.303  1.00  0.00    -0.354 N 
HETATM   14  C18 UNL     1       0.075  52.427 -22.056  1.00  0.00     0.053 A 
HETATM   15  C19 UNL     1      -0.058  52.709 -23.441  1.00  0.00     0.011 A 
HETATM   16  C30 UNL     1       0.680  53.826 -23.889  1.00  0.00     0.074 A 
HETATM   17  C31 UNL     1       1.436  54.626 -23.031  1.00  0.00     0.038 A 
HETATM   18  C32 UNL     1       1.509  54.328 -21.671  1.00  0.00     0.017 A 
HETATM   19  C33 UNL     1       0.825  53.204 -21.173  1.00  0.00     0.004 A 
HETATM   20  H21 UNL     1      -1.050  50.674 -21.677  1.00  0.00     0.166 HD
ENDROOT
BRANCH  15  21
HETATM   21  C20 UNL     1      -0.874  51.823 -24.385  1.00  0.00     0.051 C 
HETATM   22  C21 UNL     1      -0.033  51.532 -25.617  1.00  0.00    -0.014 C 
HETATM   23  C22 UNL     1      -0.461  51.660 -26.883  1.00  0.00    -0.087 C 
HETATM   24  C23 UNL     1       0.439  51.439 -28.063  1.00  0.00     0.043 C 
HETATM   25  C24 UNL     1      -1.875  52.055 -27.184  1.00  0.00     0.034 C 
HETATM   26  C25 UNL     1      -2.828  51.751 -26.029  1.00  0.00     0.010 C 
HETATM   27  C26 UNL     1      -2.340  52.318 -24.676  1.00  0.00     0.001 C 
BRANCH  27  28
HETATM   28  C27 UNL     1      -3.353  51.951 -23.531  1.00  0.00    -0.018 C 
HETATM   29  C28 UNL     1      -3.238  50.481 -23.096  1.00  0.00     0.010 C 
HETATM   30  C29 UNL     1      -4.815  52.212 -23.907  1.00  0.00     0.010 C 
ENDBRANCH  27  28
ENDBRANCH  15  21
BRANCH  16  31
HETATM   31  O2  UNL     1       0.674  54.133 -25.225  1.00  0.00    -0.360 OA
HETATM   32  H39 UNL     1       1.301  54.854 -25.388  1.00  0.00     0.217 HD
ENDBRANCH  16  31
BRANCH   1  33
HETATM   33  C6  UNL     1      -0.462  48.094 -15.782  1.00  0.00     0.046 C 
BRANCH  33  34
HETATM   34  C5  UNL     1       0.803  48.368 -14.955  1.00  0.00     0.030 C 
BRANCH  34  35
HETATM   35  C4  UNL     1       1.782  47.235 -14.848  1.00  0.00    -0.025 C 
HETATM   36  C2  UNL     1       1.772  46.235 -13.946  1.00  0.00    -0.091 C 
HETATM   37  C1  UNL     1       2.810  45.146 -13.989  1.00  0.00     0.042 C 
HETATM   38  C3  UNL     1       0.771  46.097 -12.832  1.00  0.00     0.042 C 
ENDBRANCH  34  35
ENDBRANCH  33  34
ENDBRANCH   1  33
TORSDOF 6
ENDMDL
MODEL 3
REMARK minimizedAffinity -10.2198229
REMARK  6 active torsions:
REMARK  status: ('A' for Active; 'I' for Inactive)
REMARK    1  A    between atoms: C4_4  and  C5_5 
REMARK    2  A    between atoms: C5_5  and  C6_6 
REMARK    3  A    between atoms: C6_6  and  C7_7 
REMARK    4  A    between atoms: C19_21  and  C20_22 
REMARK    5  A    between atoms: C26_28  and  C27_29 
REMARK    6  A    between atoms: C30_32  and  O2_33 
ROOT
HETATM    1  C7  UNL     1      -0.781  49.955 -17.175  1.00  0.00     0.082 C 
HETATM    2  C8  UNL     1      -1.763  50.664 -16.232  1.00  0.00     0.051 C 
HETATM    3  C9  UNL     1      -1.540  48.960 -18.030  1.00  0.00     0.012 C 
HETATM    4  C10 UNL     1      -1.743  49.106 -19.343  1.00  0.00     0.015 C 
HETATM    5  C11 UNL     1      -1.211  50.298 -19.969  1.00  0.00     0.025 A 
HETATM    6  C12 UNL     1      -0.433  51.206 -19.245  1.00  0.00     0.088 A 
HETATM    7  O1  UNL     1      -0.129  51.016 -17.923  1.00  0.00    -0.335 OA
HETATM    8  C13 UNL     1       0.094  52.355 -19.851  1.00  0.00    -0.027 A 
HETATM    9  C14 UNL     1       0.941  53.317 -19.067  1.00  0.00     0.051 C 
HETATM   10  C15 UNL     1      -0.171  52.605 -21.209  1.00  0.00     0.024 A 
HETATM   11  C16 UNL     1      -0.961  51.706 -21.957  1.00  0.00     0.005 A 
HETATM   12  C17 UNL     1      -1.461  50.569 -21.326  1.00  0.00     0.057 A 
HETATM   13  N1  UNL     1      -2.174  49.878 -22.277  1.00  0.00    -0.354 N 
HETATM   14  C18 UNL     1      -2.175  50.527 -23.494  1.00  0.00     0.053 A 
HETATM   15  C19 UNL     1      -2.801  50.174 -24.718  1.00  0.00     0.011 A 
HETATM   16  C30 UNL     1      -2.544  51.057 -25.789  1.00  0.00     0.074 A 
HETATM   17  C31 UNL     1      -1.783  52.218 -25.645  1.00  0.00     0.038 A 
HETATM   18  C32 UNL     1      -1.217  52.542 -24.413  1.00  0.00     0.017 A 
HETATM   19  C33 UNL     1      -1.407  51.678 -23.318  1.00  0.00     0.004 A 
HETATM   20  H21 UNL     1      -2.649  49.005 -22.101  1.00  0.00     0.166 HD
ENDROOT
BRANCH  15  21
HETATM   21  C20 UNL     1      -3.621  48.892 -24.880  1.00  0.00     0.051 C 
HETATM   22  C21 UNL     1      -3.625  48.507 -26.351  1.00  0.00    -0.014 C 
HETATM   23  C22 UNL     1      -4.721  48.181 -27.053  1.00  0.00    -0.087 C 
HETATM   24  C23 UNL     1      -4.676  47.890 -28.525  1.00  0.00     0.043 C 
HETATM   25  C24 UNL     1      -6.067  48.111 -26.398  1.00  0.00     0.034 C 
HETATM   26  C25 UNL     1      -5.973  47.894 -24.888  1.00  0.00     0.010 C 
HETATM   27  C26 UNL     1      -5.035  48.904 -24.187  1.00  0.00     0.001 C 
BRANCH  27  28
HETATM   28  C27 UNL     1      -4.969  48.611 -22.645  1.00  0.00    -0.018 C 
HETATM   29  C28 UNL     1      -5.531  47.226 -22.287  1.00  0.00     0.010 C 
HETATM   30  C29 UNL     1      -5.712  49.648 -21.796  1.00  0.00     0.010 C 
ENDBRANCH  27  28
ENDBRANCH  15  21
BRANCH  16  31
HETATM   31  O2  UNL     1      -3.043  50.758 -27.030  1.00  0.00    -0.360 OA
HETATM   32  H39 UNL     1      -2.700  51.398 -27.673  1.00  0.00     0.217 HD
ENDBRANCH  16  31
BRANCH   1  33
HETATM   33  C6  UNL     1       0.379  49.276 -16.399  1.00  0.00     0.046 C 
BRANCH  33  34
HETATM   34  C5  UNL     1       1.066  50.046 -15.261  1.00  0.00     0.030 C 
BRANCH  34  35
HETATM   35  C4  UNL     1       1.903  51.223 -15.670  1.00  0.00    -0.025 C 
HETATM   36  C2  UNL     1       3.152  51.514 -15.259  1.00  0.00    -0.091 C 
HETATM   37  C1  UNL     1       3.878  52.722 -15.788  1.00  0.00     0.042 C 
HETATM   38  C3  UNL     1       3.934  50.708 -14.260  1.00  0.00     0.042 C 
ENDBRANCH  34  35
ENDBRANCH  33  34
ENDBRANCH   1  33
TORSDOF 6
ENDMDL
MODEL 4
REMARK minimizedAffinity -10.1762114
REMARK  6 active torsions:
REMARK  status: ('A' for Active; 'I' for Inactive)
REMARK    1  A    between atoms: C4_4  and  C5_5 
REMARK    2  A    between atoms: C5_5  and  C6_6 
REMARK    3  A    between atoms: C6_6  and  C7_7 
REMARK    4  A    between atoms: C19_21  and  C20_22 
REMARK    5  A    between atoms: C26_28  and  C27_29 
REMARK    6  A    between atoms: C30_32  and  O2_33 
ROOT
HETATM    1  C7  UNL     1      -6.301  47.420 -29.624  1.00  0.00     0.082 C 
HETATM    2  C8  UNL     1      -7.141  48.491 -30.333  1.00  0.00     0.051 C 
HETATM    3  C9  UNL     1      -4.928  47.985 -29.318  1.00  0.00     0.012 C 
HETATM    4  C10 UNL     1      -4.495  48.266 -28.085  1.00  0.00     0.015 C 
HETATM    5  C11 UNL     1      -5.409  48.024 -26.988  1.00  0.00     0.025 A 
HETATM    6  C12 UNL     1      -6.654  47.428 -27.207  1.00  0.00     0.088 A 
HETATM    7  O1  UNL     1      -7.069  47.038 -28.452  1.00  0.00    -0.335 OA
HETATM    8  C13 UNL     1      -7.536  47.181 -26.145  1.00  0.00    -0.027 A 
HETATM    9  C14 UNL     1      -8.866  46.526 -26.389  1.00  0.00     0.051 C 
HETATM   10  C15 UNL     1      -7.168  47.548 -24.839  1.00  0.00     0.024 A 
HETATM   11  C16 UNL     1      -5.919  48.159 -24.597  1.00  0.00     0.005 A 
HETATM   12  C17 UNL     1      -5.062  48.381 -25.673  1.00  0.00     0.057 A 
HETATM   13  N1  UNL     1      -3.932  48.969 -25.155  1.00  0.00    -0.354 N 
HETATM   14  C18 UNL     1      -4.026  49.156 -23.792  1.00  0.00     0.053 A 
HETATM   15  C19 UNL     1      -3.106  49.741 -22.884  1.00  0.00     0.011 A 
HETATM   16  C30 UNL     1      -3.515  49.720 -21.533  1.00  0.00     0.074 A 
HETATM   17  C31 UNL     1      -4.751  49.218 -21.125  1.00  0.00     0.038 A 
HETATM   18  C32 UNL     1      -5.637  48.684 -22.059  1.00  0.00     0.017 A 
HETATM   19  C33 UNL     1      -5.268  48.642 -23.416  1.00  0.00     0.004 A 
HETATM   20  H21 UNL     1      -3.135  49.240 -25.710  1.00  0.00     0.166 HD
ENDROOT
BRANCH  15  21
HETATM   21  C20 UNL     1      -1.742  50.278 -23.329  1.00  0.00     0.051 C 
HETATM   22  C21 UNL     1      -0.888  50.501 -22.092  1.00  0.00    -0.014 C 
HETATM   23  C22 UNL     1      -0.194  51.620 -21.834  1.00  0.00    -0.087 C 
HETATM   24  C23 UNL     1       0.567  51.818 -20.556  1.00  0.00     0.043 C 
HETATM   25  C24 UNL     1      -0.162  52.753 -22.815  1.00  0.00     0.034 C 
HETATM   26  C25 UNL     1      -0.483  52.305 -24.240  1.00  0.00     0.010 C 
HETATM   27  C26 UNL     1      -1.790  51.486 -24.337  1.00  0.00     0.001 C 
BRANCH  27  28
HETATM   28  C27 UNL     1      -2.047  51.039 -25.823  1.00  0.00    -0.018 C 
HETATM   29  C28 UNL     1      -0.756  50.611 -26.537  1.00  0.00     0.010 C 
HETATM   30  C29 UNL     1      -2.714  52.123 -26.676  1.00  0.00     0.010 C 
ENDBRANCH  27  28
ENDBRANCH  15  21
BRANCH  16  31
HETATM   31  O2  UNL     1      -2.658  50.195 -20.573  1.00  0.00    -0.360 OA
HETATM   32  H39 UNL     1      -3.035  50.021 -19.697  1.00  0.00     0.217 HD
ENDBRANCH  16  31
BRANCH   1  33
HETATM   33  C6  UNL     1      -6.209  46.112 -30.455  1.00  0.00     0.046 C 
BRANCH  33  34
HETATM   34  C5  UNL     1      -6.023  46.207 -31.976  1.00  0.00     0.030 C 
BRANCH  34  35
HETATM   35  C4  UNL     1      -4.650  46.585 -32.452  1.00  0.00    -0.025 C 
HETATM   36  C2  UNL     1      -4.342  47.404 -33.475  1.00  0.00    -0.091 C 
HETATM   37  C1  UNL     1      -2.908  47.714 -33.812  1.00  0.00     0.042 C 
HETATM   38  C3  UNL     1      -5.349  48.072 -34.371  1.00  0.00     0.042 C 
ENDBRANCH  34  35
ENDBRANCH  33  34
ENDBRANCH   1  33
TORSDOF 6
ENDMDL
MODEL 5
REMARK minimizedAffinity -10.1197271
REMARK  6 active torsions:
REMARK  status: ('A' for Active; 'I' for Inactive)
REMARK    1  A    between atoms: C4_4  and  C5_5 
REMARK    2  A    between atoms: C5_5  and  C6_6 
REMARK    3  A    between atoms: C6_6  and  C7_7 
REMARK    4  A    between atoms: C19_21  and  C20_22 
REMARK    5  A    between atoms: C26_28  and  C27_29 
REMARK    6  A    between atoms: C30_32  and  O2_33 
ROOT
HETATM    1  C7  UNL     1      -1.372  49.720 -17.278  1.00  0.00     0.082 C 
HETATM    2  C8  UNL     1      -2.447  50.367 -16.394  1.00  0.00     0.051 C 
HETATM    3  C9  UNL     1      -1.971  49.385 -18.629  1.00  0.00     0.012 C 
HETATM    4  C10 UNL     1      -1.653  50.016 -19.763  1.00  0.00     0.015 C 
HETATM    5  C11 UNL     1      -0.686  51.091 -19.678  1.00  0.00     0.025 A 
HETATM    6  C12 UNL     1      -0.042  51.385 -18.472  1.00  0.00     0.088 A 
HETATM    7  O1  UNL     1      -0.281  50.678 -17.324  1.00  0.00    -0.335 OA
HETATM    8  C13 UNL     1       0.904  52.416 -18.388  1.00  0.00    -0.027 A 
HETATM    9  C14 UNL     1       1.602  52.714 -17.092  1.00  0.00     0.051 C 
HETATM   10  C15 UNL     1       1.205  53.175 -19.533  1.00  0.00     0.024 A 
HETATM   11  C16 UNL     1       0.559  52.901 -20.758  1.00  0.00     0.005 A 
HETATM   12  C17 UNL     1      -0.368  51.862 -20.809  1.00  0.00     0.057 A 
HETATM   13  N1  UNL     1      -0.825  51.812 -22.104  1.00  0.00    -0.354 N 
HETATM   14  C18 UNL     1      -0.248  52.785 -22.893  1.00  0.00     0.053 A 
HETATM   15  C19 UNL     1      -0.454  53.092 -24.264  1.00  0.00     0.011 A 
HETATM   16  C30 UNL     1       0.355  54.136 -24.763  1.00  0.00     0.074 A 
HETATM   17  C31 UNL     1       1.247  54.850 -23.963  1.00  0.00     0.038 A 
HETATM   18  C32 UNL     1       1.390  54.534 -22.612  1.00  0.00     0.017 A 
HETATM   19  C33 UNL     1       0.637  53.478 -22.067  1.00  0.00     0.004 A 
HETATM   20  H21 UNL     1      -1.509  51.148 -22.435  1.00  0.00     0.166 HD
ENDROOT
BRANCH  15  21
HETATM   21  C20 UNL     1      -1.420  52.298 -25.147  1.00  0.00     0.051 C 
HETATM   22  C21 UNL     1      -2.822  52.447 -24.578  1.00  0.00    -0.014 C 
HETATM   23  C22 UNL     1      -3.670  51.431 -24.357  1.00  0.00    -0.087 C 
HETATM   24  C23 UNL     1      -5.013  51.628 -23.717  1.00  0.00     0.043 C 
HETATM   25  C24 UNL     1      -3.304  50.025 -24.726  1.00  0.00     0.034 C 
HETATM   26  C25 UNL     1      -2.223  49.964 -25.804  1.00  0.00     0.010 C 
HETATM   27  C26 UNL     1      -0.981  50.820 -25.467  1.00  0.00     0.001 C 
BRANCH  27  28
HETATM   28  C27 UNL     1       0.078  50.729 -26.624  1.00  0.00    -0.018 C 
HETATM   29  C28 UNL     1       1.497  51.082 -26.150  1.00  0.00     0.010 C 
HETATM   30  C29 UNL     1      -0.250  51.628 -27.821  1.00  0.00     0.010 C 
ENDBRANCH  27  28
ENDBRANCH  15  21
BRANCH  16  31
HETATM   31  O2  UNL     1       0.281  54.453 -26.095  1.00  0.00    -0.360 OA
HETATM   32  H39 UNL     1       0.962  55.111 -26.303  1.00  0.00     0.217 HD
ENDBRANCH  16  31
BRANCH   1  33
HETATM   33  C6  UNL     1      -0.745  48.470 -16.604  1.00  0.00     0.046 C 
BRANCH  33  34
HETATM   34  C5  UNL     1      -0.231  48.579 -15.162  1.00  0.00     0.030 C 
BRANCH  34  35
HETATM   35  C4  UNL     1       1.148  49.149 -14.992  1.00  0.00    -0.025 C 
HETATM   36  C2  UNL     1       1.494  50.242 -14.285  1.00  0.00    -0.091 C 
HETATM   37  C1  UNL     1       2.934  50.671 -14.182  1.00  0.00     0.042 C 
HETATM   38  C3  UNL     1       0.527  51.131 -13.554  1.00  0.00     0.042 C 
ENDBRANCH  34  35
ENDBRANCH  33  34
ENDBRANCH   1  33
TORSDOF 6
ENDMDL
MODEL 6
REMARK minimizedAffinity -10.1083841
REMARK  6 active torsions:
REMARK  status: ('A' for Active; 'I' for Inactive)
REMARK    1  A    between atoms: C4_4  and  C5_5 
REMARK    2  A    between atoms: C5_5  and  C6_6 
REMARK    3  A    between atoms: C6_6  and  C7_7 
REMARK    4  A    between atoms: C19_21  and  C20_22 
REMARK    5  A    between atoms: C26_28  and  C27_29 
REMARK    6  A    between atoms: C30_32  and  O2_33 
ROOT
HETATM    1  C7  UNL     1      -8.150  46.513 -26.263  1.00  0.00     0.082 C 
HETATM    2  C8  UNL     1      -7.969  44.990 -26.298  1.00  0.00     0.051 C 
HETATM    3  C9  UNL     1      -7.703  47.039 -24.914  1.00  0.00     0.012 C 
HETATM    4  C10 UNL     1      -6.606  47.780 -24.728  1.00  0.00     0.015 C 
HETATM    5  C11 UNL     1      -5.800  48.079 -25.894  1.00  0.00     0.025 A 
HETATM    6  C12 UNL     1      -6.211  47.689 -27.172  1.00  0.00     0.088 A 
HETATM    7  O1  UNL     1      -7.386  47.020 -27.390  1.00  0.00    -0.335 OA
HETATM    8  C13 UNL     1      -5.440  47.989 -28.304  1.00  0.00    -0.027 A 
HETATM    9  C14 UNL     1      -5.898  47.579 -29.675  1.00  0.00     0.051 C 
HETATM   10  C15 UNL     1      -4.227  48.683 -28.153  1.00  0.00     0.024 A 
HETATM   11  C16 UNL     1      -3.789  49.078 -26.870  1.00  0.00     0.005 A 
HETATM   12  C17 UNL     1      -4.585  48.773 -25.768  1.00  0.00     0.057 A 
HETATM   13  N1  UNL     1      -3.932  49.277 -24.667  1.00  0.00    -0.354 N 
HETATM   14  C18 UNL     1      -2.738  49.878 -25.005  1.00  0.00     0.053 A 
HETATM   15  C19 UNL     1      -1.759  50.495 -24.182  1.00  0.00     0.011 A 
HETATM   16  C30 UNL     1      -0.670  51.058 -24.881  1.00  0.00     0.074 A 
HETATM   17  C31 UNL     1      -0.532  50.968 -26.266  1.00  0.00     0.038 A 
HETATM   18  C32 UNL     1      -1.503  50.321 -27.030  1.00  0.00     0.017 A 
HETATM   19  C33 UNL     1      -2.632  49.773 -26.392  1.00  0.00     0.004 A 
HETATM   20  H21 UNL     1      -4.282  49.205 -23.724  1.00  0.00     0.166 HD
ENDROOT
BRANCH  15  21
HETATM   21  C20 UNL     1      -1.918  50.609 -22.663  1.00  0.00     0.051 C 
HETATM   22  C21 UNL     1      -1.257  51.900 -22.208  1.00  0.00    -0.014 C 
HETATM   23  C22 UNL     1      -0.397  51.998 -21.183  1.00  0.00    -0.087 C 
HETATM   24  C23 UNL     1       0.289  53.284 -20.829  1.00  0.00     0.043 C 
HETATM   25  C24 UNL     1      -0.058  50.805 -20.341  1.00  0.00     0.034 C 
HETATM   26  C25 UNL     1      -1.133  49.720 -20.401  1.00  0.00     0.010 C 
HETATM   27  C26 UNL     1      -1.516  49.325 -21.846  1.00  0.00     0.001 C 
BRANCH  27  28
HETATM   28  C27 UNL     1      -2.638  48.225 -21.833  1.00  0.00    -0.018 C 
HETATM   29  C28 UNL     1      -3.925  48.708 -21.145  1.00  0.00     0.010 C 
HETATM   30  C29 UNL     1      -2.206  46.923 -21.151  1.00  0.00     0.010 C 
ENDBRANCH  27  28
ENDBRANCH  15  21
BRANCH  16  31
HETATM   31  O2  UNL     1       0.288  51.742 -24.177  1.00  0.00    -0.360 OA
HETATM   32  H39 UNL     1       0.907  52.152 -24.800  1.00  0.00     0.217 HD
ENDBRANCH  16  31
BRANCH   1  33
HETATM   33  C6  UNL     1      -9.611  46.930 -26.584  1.00  0.00     0.046 C 
BRANCH  33  34
HETATM   34  C5  UNL     1      -9.867  47.947 -27.705  1.00  0.00     0.030 C 
BRANCH  34  35
HETATM   35  C4  UNL     1     -10.344  47.384 -29.012  1.00  0.00    -0.025 C 
HETATM   36  C2  UNL     1     -10.037  47.826 -30.247  1.00  0.00    -0.091 C 
HETATM   37  C1  UNL     1     -10.571  47.131 -31.471  1.00  0.00     0.042 C 
HETATM   38  C3  UNL     1      -9.168  49.018 -30.539  1.00  0.00     0.042 C 
ENDBRANCH  34  35
ENDBRANCH  33  34
ENDBRANCH   1  33
TORSDOF 6
ENDMDL
MODEL 7
REMARK minimizedAffinity -10.0623207
REMARK  6 active torsions:
REMARK  status: ('A' for Active; 'I' for Inactive)
REMARK    1  A    between atoms: C4_4  and  C5_5 
REMARK    2  A    between atoms: C5_5  and  C6_6 
REMARK    3  A    between atoms: C6_6  and  C7_7 
REMARK    4  A    between atoms: C19_21  and  C20_22 
REMARK    5  A    between atoms: C26_28  and  C27_29 
REMARK    6  A    between atoms: C30_32  and  O2_33 
ROOT
HETATM    1  C7  UNL     1      -2.870  49.155 -26.301  1.00  0.00     0.082 C 
HETATM    2  C8  UNL     1      -2.050  48.012 -26.914  1.00  0.00     0.051 C 
HETATM    3  C9  UNL     1      -3.196  48.818 -24.860  1.00  0.00     0.012 C 
HETATM    4  C10 UNL     1      -2.668  49.452 -23.808  1.00  0.00     0.015 C 
HETATM    5  C11 UNL     1      -1.720  50.513 -24.078  1.00  0.00     0.025 A 
HETATM    6  C12 UNL     1      -1.447  50.918 -25.388  1.00  0.00     0.088 A 
HETATM    7  O1  UNL     1      -2.059  50.348 -26.472  1.00  0.00    -0.335 OA
HETATM    8  C13 UNL     1      -0.539  51.953 -25.653  1.00  0.00    -0.027 A 
HETATM    9  C14 UNL     1      -0.264  52.391 -27.063  1.00  0.00     0.051 C 
HETATM   10  C15 UNL     1       0.118  52.589 -24.584  1.00  0.00     0.024 A 
HETATM   11  C16 UNL     1      -0.137  52.189 -23.255  1.00  0.00     0.005 A 
HETATM   12  C17 UNL     1      -1.053  51.164 -23.027  1.00  0.00     0.057 A 
HETATM   13  N1  UNL     1      -1.112  50.992 -21.664  1.00  0.00    -0.354 N 
HETATM   14  C18 UNL     1      -0.260  51.848 -20.998  1.00  0.00     0.053 A 
HETATM   15  C19 UNL     1      -0.000  51.982 -19.609  1.00  0.00     0.011 A 
HETATM   16  C30 UNL     1       0.907  53.010 -19.274  1.00  0.00     0.074 A 
HETATM   17  C31 UNL     1       1.545  53.797 -20.233  1.00  0.00     0.038 A 
HETATM   18  C32 UNL     1       1.283  53.606 -21.589  1.00  0.00     0.017 A 
HETATM   19  C33 UNL     1       0.358  52.620 -21.981  1.00  0.00     0.004 A 
HETATM   20  H21 UNL     1      -1.701  50.313 -21.207  1.00  0.00     0.166 HD
ENDROOT
BRANCH  15  21
HETATM   21  C20 UNL     1      -0.712  51.129 -18.555  1.00  0.00     0.051 C 
HETATM   22  C21 UNL     1      -0.155  51.493 -17.188  1.00  0.00    -0.014 C 
HETATM   23  C22 UNL     1       0.257  50.606 -16.269  1.00  0.00    -0.087 C 
HETATM   24  C23 UNL     1       0.875  51.023 -14.967  1.00  0.00     0.043 C 
HETATM   25  C24 UNL     1       0.136  49.131 -16.510  1.00  0.00     0.034 C 
HETATM   26  C25 UNL     1      -0.933  48.792 -17.548  1.00  0.00     0.010 C 
HETATM   27  C26 UNL     1      -0.773  49.587 -18.865  1.00  0.00     0.001 C 
BRANCH  27  28
HETATM   28  C27 UNL     1      -1.915  49.206 -19.876  1.00  0.00    -0.018 C 
HETATM   29  C28 UNL     1      -3.317  49.472 -19.304  1.00  0.00     0.010 C 
HETATM   30  C29 UNL     1      -1.865  47.742 -20.325  1.00  0.00     0.010 C 
ENDBRANCH  27  28
ENDBRANCH  15  21
BRANCH  16  31
HETATM   31  O2  UNL     1       1.163  53.265 -17.951  1.00  0.00    -0.360 OA
HETATM   32  H39 UNL     1       1.719  54.056 -17.882  1.00  0.00     0.217 HD
ENDBRANCH  16  31
BRANCH   1  33
HETATM   33  C6  UNL     1      -4.152  49.452 -27.124  1.00  0.00     0.046 C 
BRANCH  33  34
HETATM   34  C5  UNL     1      -4.585  48.462 -28.214  1.00  0.00     0.030 C 
BRANCH  34  35
HETATM   35  C4  UNL     1      -5.837  47.680 -27.938  1.00  0.00    -0.025 C 
HETATM   36  C2  UNL     1      -6.518  46.905 -28.804  1.00  0.00    -0.091 C 
HETATM   37  C1  UNL     1      -7.746  46.152 -28.366  1.00  0.00     0.042 C 
HETATM   38  C3  UNL     1      -6.155  46.713 -30.251  1.00  0.00     0.042 C 
ENDBRANCH  34  35
ENDBRANCH  33  34
ENDBRANCH   1  33
TORSDOF 6
ENDMDL
MODEL 8
REMARK minimizedAffinity -10.048315
REMARK  6 active torsions:
REMARK  status: ('A' for Active; 'I' for Inactive)
REMARK    1  A    between atoms: C4_4  and  C5_5 
REMARK    2  A    between atoms: C5_5  and  C6_6 
REMARK    3  A    between atoms: C6_6  and  C7_7 
REMARK    4  A    between atoms: C19_21  and  C20_22 
REMARK    5  A    between atoms: C26_28  and  C27_29 
REMARK    6  A    between atoms: C30_32  and  O2_33 
ROOT
HETATM    1  C7  UNL     1      -2.506  50.151 -22.469  1.00  0.00     0.082 C 
HETATM    2  C8  UNL     1      -2.743  51.641 -22.185  1.00  0.00     0.051 C 
HETATM    3  C9  UNL     1      -3.812  49.398 -22.306  1.00  0.00     0.012 C 
HETATM    4  C10 UNL     1      -4.491  48.855 -23.321  1.00  0.00     0.015 C 
HETATM    5  C11 UNL     1      -3.940  49.015 -24.651  1.00  0.00     0.025 A 
HETATM    6  C12 UNL     1      -2.698  49.628 -24.847  1.00  0.00     0.088 A 
HETATM    7  O1  UNL     1      -1.943  50.096 -23.806  1.00  0.00    -0.335 OA
HETATM    8  C13 UNL     1      -2.156  49.773 -26.132  1.00  0.00    -0.027 A 
HETATM    9  C14 UNL     1      -0.815  50.419 -26.330  1.00  0.00     0.051 C 
HETATM   10  C15 UNL     1      -2.877  49.304 -27.245  1.00  0.00     0.024 A 
HETATM   11  C16 UNL     1      -4.135  48.690 -27.070  1.00  0.00     0.005 A 
HETATM   12  C17 UNL     1      -4.640  48.553 -25.778  1.00  0.00     0.057 A 
HETATM   13  N1  UNL     1      -5.856  47.922 -25.901  1.00  0.00    -0.354 N 
HETATM   14  C18 UNL     1      -6.171  47.661 -27.219  1.00  0.00     0.053 A 
HETATM   15  C19 UNL     1      -7.325  47.053 -27.779  1.00  0.00     0.011 A 
HETATM   16  C30 UNL     1      -7.288  46.899 -29.182  1.00  0.00     0.074 A 
HETATM   17  C31 UNL     1      -6.229  47.358 -29.966  1.00  0.00     0.038 A 
HETATM   18  C32 UNL     1      -5.131  47.981 -29.372  1.00  0.00     0.017 A 
HETATM   19  C33 UNL     1      -5.095  48.128 -27.973  1.00  0.00     0.004 A 
HETATM   20  H21 UNL     1      -6.450  47.688 -25.121  1.00  0.00     0.166 HD
ENDROOT
BRANCH  15  21
HETATM   21  C20 UNL     1      -8.480  46.535 -26.919  1.00  0.00     0.051 C 
HETATM   22  C21 UNL     1      -8.008  45.291 -26.182  1.00  0.00    -0.014 C 
HETATM   23  C22 UNL     1      -8.685  44.134 -26.125  1.00  0.00    -0.087 C 
HETATM   24  C23 UNL     1      -8.133  42.912 -25.452  1.00  0.00     0.043 C 
HETATM   25  C24 UNL     1     -10.037  43.997 -26.757  1.00  0.00     0.034 C 
HETATM   26  C25 UNL     1     -10.739  45.342 -26.939  1.00  0.00     0.010 C 
HETATM   27  C26 UNL     1      -9.861  46.391 -27.660  1.00  0.00     0.001 C 
BRANCH  27  28
HETATM   28  C27 UNL     1     -10.634  47.753 -27.794  1.00  0.00    -0.018 C 
HETATM   29  C28 UNL     1     -11.479  48.071 -26.549  1.00  0.00     0.010 C 
HETATM   30  C29 UNL     1     -11.560  47.810 -29.012  1.00  0.00     0.010 C 
ENDBRANCH  27  28
ENDBRANCH  15  21
BRANCH  16  31
HETATM   31  O2  UNL     1      -8.325  46.254 -29.806  1.00  0.00    -0.360 OA
HETATM   32  H39 UNL     1      -8.108  46.138 -30.744  1.00  0.00     0.217 HD
ENDBRANCH  16  31
BRANCH   1  33
HETATM   33  C6  UNL     1      -1.389  49.561 -21.566  1.00  0.00     0.046 C 
BRANCH  33  34
HETATM   34  C5  UNL     1      -0.672  50.482 -20.569  1.00  0.00     0.030 C 
BRANCH  34  35
HETATM   35  C4  UNL     1       0.213  51.540 -21.163  1.00  0.00    -0.025 C 
HETATM   36  C2  UNL     1       0.511  52.741 -20.633  1.00  0.00    -0.091 C 
HETATM   37  C1  UNL     1       1.447  53.686 -21.339  1.00  0.00     0.042 C 
HETATM   38  C3  UNL     1      -0.037  53.265 -19.334  1.00  0.00     0.042 C 
ENDBRANCH  34  35
ENDBRANCH  33  34
ENDBRANCH   1  33
TORSDOF 6
ENDMDL
MODEL 9
REMARK minimizedAffinity -10.0460157
REMARK  6 active torsions:
REMARK  status: ('A' for Active; 'I' for Inactive)
REMARK    1  A    between atoms: C4_4  and  C5_5 
REMARK    2  A    between atoms: C5_5  and  C6_6 
REMARK    3  A    between atoms: C6_6  and  C7_7 
REMARK    4  A    between atoms: C19_21  and  C20_22 
REMARK    5  A    between atoms: C26_28  and  C27_29 
REMARK    6  A    between atoms: C30_32  and  O2_33 
ROOT
HETATM    1  C7  UNL     1      -7.982  47.213 -24.578  1.00  0.00     0.082 C 
HETATM    2  C8  UNL     1      -7.901  45.705 -24.307  1.00  0.00     0.051 C 
HETATM    3  C9  UNL     1      -7.339  47.963 -23.428  1.00  0.00     0.012 C 
HETATM    4  C10 UNL     1      -6.184  48.628 -23.525  1.00  0.00     0.015 C 
HETATM    5  C11 UNL     1      -5.512  48.612 -24.808  1.00  0.00     0.025 A 
HETATM    6  C12 UNL     1      -6.102  48.007 -25.922  1.00  0.00     0.088 A 
HETATM    7  O1  UNL     1      -7.334  47.411 -25.863  1.00  0.00    -0.335 OA
HETATM    8  C13 UNL     1      -5.461  48.000 -27.168  1.00  0.00    -0.027 A 
HETATM    9  C14 UNL     1      -6.110  47.360 -28.362  1.00  0.00     0.051 C 
HETATM   10  C15 UNL     1      -4.197  48.604 -27.300  1.00  0.00     0.024 A 
HETATM   11  C16 UNL     1      -3.580  49.212 -26.187  1.00  0.00     0.005 A 
HETATM   12  C17 UNL     1      -4.250  49.210 -24.965  1.00  0.00     0.057 A 
HETATM   13  N1  UNL     1      -3.436  49.869 -24.074  1.00  0.00    -0.354 N 
HETATM   14  C18 UNL     1      -2.258  50.283 -24.660  1.00  0.00     0.053 A 
HETATM   15  C19 UNL     1      -1.149  50.968 -24.098  1.00  0.00     0.011 A 
HETATM   16  C30 UNL     1      -0.122  51.281 -25.015  1.00  0.00     0.074 A 
HETATM   17  C31 UNL     1      -0.163  50.897 -26.356  1.00  0.00     0.038 A 
HETATM   18  C32 UNL     1      -1.260  50.195 -26.855  1.00  0.00     0.017 A 
HETATM   19  C33 UNL     1      -2.332  49.889 -25.996  1.00  0.00     0.004 A 
HETATM   20  H21 UNL     1      -3.670  50.022 -23.105  1.00  0.00     0.166 HD
ENDROOT
BRANCH  15  21
HETATM   21  C20 UNL     1      -1.111  51.403 -22.631  1.00  0.00     0.051 C 
HETATM   22  C21 UNL     1      -0.418  52.754 -22.549  1.00  0.00    -0.014 C 
HETATM   23  C22 UNL     1       0.567  53.057 -21.689  1.00  0.00    -0.087 C 
HETATM   24  C23 UNL     1       1.272  54.381 -21.708  1.00  0.00     0.043 C 
HETATM   25  C24 UNL     1       1.032  52.066 -20.666  1.00  0.00     0.034 C 
HETATM   26  C25 UNL     1      -0.023  51.006 -20.354  1.00  0.00     0.010 C 
HETATM   27  C26 UNL     1      -0.584  50.317 -21.620  1.00  0.00     0.001 C 
BRANCH  27  28
HETATM   28  C27 UNL     1      -1.677  49.258 -21.228  1.00  0.00    -0.018 C 
HETATM   29  C28 UNL     1      -2.649  49.786 -20.160  1.00  0.00     0.010 C 
HETATM   30  C29 UNL     1      -1.089  47.940 -20.713  1.00  0.00     0.010 C 
ENDBRANCH  27  28
ENDBRANCH  15  21
BRANCH  16  31
HETATM   31  O2  UNL     1       0.956  52.008 -24.581  1.00  0.00    -0.360 OA
HETATM   32  H39 UNL     1       1.518  52.227 -25.340  1.00  0.00     0.217 HD
ENDBRANCH  16  31
BRANCH   1  33
HETATM   33  C6  UNL     1      -9.443  47.680 -24.820  1.00  0.00     0.046 C 
BRANCH  33  34
HETATM   34  C5  UNL     1     -10.216  47.117 -26.021  1.00  0.00     0.030 C 
BRANCH  34  35
HETATM   35  C4  UNL     1     -11.668  46.811 -25.789  1.00  0.00    -0.025 C 
HETATM   36  C2  UNL     1     -12.712  47.213 -26.539  1.00  0.00    -0.091 C 
HETATM   37  C1  UNL     1     -14.116  46.794 -26.194  1.00  0.00     0.042 C 
HETATM   38  C3  UNL     1     -12.608  48.097 -27.751  1.00  0.00     0.042 C 
ENDBRANCH  34  35
ENDBRANCH  33  34
ENDBRANCH   1  33
TORSDOF 6
ENDMDL
