MODEL 1
REMARK minimizedAffinity -7.47528505
REMARK  6 active torsions:
REMARK  status: ('A' for Active; 'I' for Inactive)
REMARK    1  A    between atoms: C4_5  and  N2_6 
REMARK       I    between atoms: N2_6  and  C5_7 
REMARK    2  A    between atoms: C5_7  and  C6_9 
REMARK    3  A    between atoms: C6_9  and  O3_11 
REMARK    4  A    between atoms: C8_14  and  N3_15 
REMARK       I    between atoms: N3_15  and  C9_16 
REMARK    5  A    between atoms: C9_16  and  C10_18 
REMARK    6  A    between atoms: C10_18  and  O6_20 
ROOT
HETATM    1  N1  UNL     1       1.726  54.251 -20.597  1.00  0.00    -0.191 NA
HETATM    2  C1  UNL     1       1.117  53.580 -21.322  1.00  0.00     0.099 C 
HETATM    3  C2  UNL     1       0.365  52.750 -22.220  1.00  0.00     0.049 A 
HETATM    4  C3  UNL     1      -0.276  51.603 -21.735  1.00  0.00     0.054 A 
HETATM    5  C4  UNL     1      -1.013  50.786 -22.597  1.00  0.00     0.060 A 
HETATM    6  C7  UNL     1      -1.095  51.140 -23.961  1.00  0.00     0.087 A 
HETATM    7 CL1  UNL     1      -2.009  50.133 -25.051  1.00  0.00    -0.079 Cl
HETATM    8  C8  UNL     1      -0.452  52.294 -24.461  1.00  0.00     0.060 A 
HETATM    9  C11 UNL     1       0.277  53.091 -23.575  1.00  0.00     0.054 A 
ENDROOT
BRANCH   5  10
HETATM   10  N2  UNL     1      -1.679  49.619 -22.162  1.00  0.00    -0.316 N 
HETATM   11  C5  UNL     1      -1.331  48.760 -21.135  1.00  0.00     0.319 C 
HETATM   12  O1  UNL     1      -0.367  48.838 -20.390  1.00  0.00    -0.261 OA
HETATM   13  H2  UNL     1      -2.531  49.362 -22.661  1.00  0.00     0.169 HD
BRANCH  11  14
HETATM   14  C6  UNL     1      -2.339  47.583 -20.980  1.00  0.00     0.237 C 
HETATM   15  O2  UNL     1      -3.240  47.513 -20.172  1.00  0.00    -0.643 OA
BRANCH  14  16
HETATM   16  O3  UNL     1      -2.107  46.600 -21.872  1.00  0.00    -0.769 OA
HETATM   17  H3  UNL     1      -2.803  45.939 -21.662  1.00  0.00     0.168 HD
ENDBRANCH  14  16
ENDBRANCH  11  14
ENDBRANCH   5  10
BRANCH   8  18
HETATM   18  N3  UNL     1      -0.574  52.594 -25.837  1.00  0.00    -0.316 N 
HETATM   19  C9  UNL     1      -0.255  53.770 -26.491  1.00  0.00     0.319 C 
HETATM   20  O4  UNL     1       0.197  54.796 -26.010  1.00  0.00    -0.261 OA
HETATM   21  H4  UNL     1      -0.942  51.851 -26.433  1.00  0.00     0.169 HD
BRANCH  19  22
HETATM   22  C10 UNL     1      -0.549  53.664 -28.012  1.00  0.00     0.237 C 
HETATM   23  O5  UNL     1       0.230  53.142 -28.790  1.00  0.00    -0.643 OA
BRANCH  22  24
HETATM   24  O6  UNL     1      -1.715  54.188 -28.389  1.00  0.00    -0.769 OA
HETATM   25  H5  UNL     1      -1.769  54.054 -29.356  1.00  0.00     0.168 HD
ENDBRANCH  22  24
ENDBRANCH  19  22
ENDBRANCH   8  18
TORSDOF 6
ENDMDL
MODEL 2
REMARK minimizedAffinity -7.45891619
REMARK  6 active torsions:
REMARK  status: ('A' for Active; 'I' for Inactive)
REMARK    1  A    between atoms: C4_5  and  N2_6 
REMARK       I    between atoms: N2_6  and  C5_7 
REMARK    2  A    between atoms: C5_7  and  C6_9 
REMARK    3  A    between atoms: C6_9  and  O3_11 
REMARK    4  A    between atoms: C8_14  and  N3_15 
REMARK       I    between atoms: N3_15  and  C9_16 
REMARK    5  A    between atoms: C9_16  and  C10_18 
REMARK    6  A    between atoms: C10_18  and  O6_20 
ROOT
HETATM    1  N1  UNL     1       1.885  52.891 -20.740  1.00  0.00    -0.191 NA
HETATM    2  C1  UNL     1       0.949  52.709 -21.401  1.00  0.00     0.099 C 
HETATM    3  C2  UNL     1      -0.208  52.484 -22.221  1.00  0.00     0.049 A 
HETATM    4  C3  UNL     1      -1.346  51.882 -21.669  1.00  0.00     0.054 A 
HETATM    5  C4  UNL     1      -2.479  51.657 -22.455  1.00  0.00     0.060 A 
HETATM    6  C7  UNL     1      -2.452  52.048 -23.811  1.00  0.00     0.087 A 
HETATM    7 CL1  UNL     1      -3.857  51.776 -24.807  1.00  0.00    -0.079 Cl
HETATM    8  C8  UNL     1      -1.311  52.657 -24.378  1.00  0.00     0.060 A 
HETATM    9  C11 UNL     1      -0.193  52.868 -23.568  1.00  0.00     0.054 A 
ENDROOT
BRANCH   5  10
HETATM   10  N2  UNL     1      -3.652  51.053 -21.950  1.00  0.00    -0.316 N 
HETATM   11  C5  UNL     1      -4.115  51.026 -20.647  1.00  0.00     0.319 C 
HETATM   12  O1  UNL     1      -3.598  51.523 -19.660  1.00  0.00    -0.261 OA
HETATM   13  H2  UNL     1      -4.248  50.570 -22.624  1.00  0.00     0.169 HD
BRANCH  11  14
HETATM   14  C6  UNL     1      -5.459  50.250 -20.512  1.00  0.00     0.237 C 
HETATM   15  O2  UNL     1      -5.698  49.363 -19.721  1.00  0.00    -0.643 OA
BRANCH  14  16
HETATM   16  O3  UNL     1      -6.378  50.677 -21.400  1.00  0.00    -0.769 OA
HETATM   17  H3  UNL     1      -7.158  50.112 -21.204  1.00  0.00     0.168 HD
ENDBRANCH  14  16
ENDBRANCH  11  14
ENDBRANCH   5  10
BRANCH   8  18
HETATM   18  N3  UNL     1      -1.348  53.026 -25.742  1.00  0.00    -0.316 N 
HETATM   19  C9  UNL     1      -0.292  53.353 -26.573  1.00  0.00     0.319 C 
HETATM   20  O4  UNL     1       0.895  53.391 -26.295  1.00  0.00    -0.261 OA
HETATM   21  H4  UNL     1      -2.270  53.056 -26.180  1.00  0.00     0.169 HD
BRANCH  19  22
HETATM   22  C10 UNL     1      -0.788  53.696 -28.003  1.00  0.00     0.237 C 
HETATM   23  O5  UNL     1      -1.731  54.440 -28.205  1.00  0.00    -0.643 OA
BRANCH  22  24
HETATM   24  O6  UNL     1      -0.099  53.111 -28.983  1.00  0.00    -0.769 OA
HETATM   25  H5  UNL     1      -0.513  53.410 -29.817  1.00  0.00     0.168 HD
ENDBRANCH  22  24
ENDBRANCH  19  22
ENDBRANCH   8  18
TORSDOF 6
ENDMDL
MODEL 3
REMARK minimizedAffinity -7.39683628
REMARK  6 active torsions:
REMARK  status: ('A' for Active; 'I' for Inactive)
REMARK    1  A    between atoms: C4_5  and  N2_6 
REMARK       I    between atoms: N2_6  and  C5_7 
REMARK    2  A    between atoms: C5_7  and  C6_9 
REMARK    3  A    between atoms: C6_9  and  O3_11 
REMARK    4  A    between atoms: C8_14  and  N3_15 
REMARK       I    between atoms: N3_15  and  C9_16 
REMARK    5  A    between atoms: C9_16  and  C10_18 
REMARK    6  A    between atoms: C10_18  and  O6_20 
ROOT
HETATM    1  N1  UNL     1       0.368  53.432 -19.757  1.00  0.00    -0.191 NA
HETATM    2  C1  UNL     1      -0.039  52.922 -20.716  1.00  0.00     0.099 C 
HETATM    3  C2  UNL     1      -0.545  52.292 -21.903  1.00  0.00     0.049 A 
HETATM    4  C3  UNL     1       0.263  52.206 -23.044  1.00  0.00     0.054 A 
HETATM    5  C4  UNL     1      -0.216  51.596 -24.206  1.00  0.00     0.060 A 
HETATM    6  C7  UNL     1      -1.526  51.069 -24.204  1.00  0.00     0.087 A 
HETATM    7 CL1  UNL     1      -2.140  50.303 -25.645  1.00  0.00    -0.079 Cl
HETATM    8  C8  UNL     1      -2.349  51.150 -23.059  1.00  0.00     0.060 A 
HETATM    9  C11 UNL     1      -1.843  51.766 -21.913  1.00  0.00     0.054 A 
ENDROOT
BRANCH   5  10
HETATM   10  N2  UNL     1       0.555  51.482 -25.384  1.00  0.00    -0.316 N 
HETATM   11  C5  UNL     1       0.922  52.475 -26.273  1.00  0.00     0.319 C 
HETATM   12  O1  UNL     1       0.650  53.664 -26.218  1.00  0.00    -0.261 OA
HETATM   13  H2  UNL     1       0.894  50.549 -25.624  1.00  0.00     0.169 HD
BRANCH  11  14
HETATM   14  C6  UNL     1       1.780  51.928 -27.452  1.00  0.00     0.237 C 
HETATM   15  O2  UNL     1       1.363  51.540 -28.522  1.00  0.00    -0.643 OA
BRANCH  14  16
HETATM   16  O3  UNL     1       3.095  51.926 -27.159  1.00  0.00    -0.769 OA
HETATM   17  H3  UNL     1       3.505  51.564 -27.975  1.00  0.00     0.168 HD
ENDBRANCH  14  16
ENDBRANCH  11  14
ENDBRANCH   5  10
BRANCH   8  18
HETATM   18  N3  UNL     1      -3.651  50.603 -23.122  1.00  0.00    -0.316 N 
HETATM   19  C9  UNL     1      -4.795  51.167 -23.658  1.00  0.00     0.319 C 
HETATM   20  O4  UNL     1      -4.914  52.260 -24.186  1.00  0.00    -0.261 OA
HETATM   21  H4  UNL     1      -3.772  49.670 -22.725  1.00  0.00     0.169 HD
BRANCH  19  22
HETATM   22  C10 UNL     1      -6.011  50.213 -23.515  1.00  0.00     0.237 C 
HETATM   23  O5  UNL     1      -6.008  49.081 -23.965  1.00  0.00    -0.643 OA
BRANCH  22  24
HETATM   24  O6  UNL     1      -7.051  50.736 -22.863  1.00  0.00    -0.769 OA
HETATM   25  H5  UNL     1      -7.735  50.037 -22.847  1.00  0.00     0.168 HD
ENDBRANCH  22  24
ENDBRANCH  19  22
ENDBRANCH   8  18
TORSDOF 6
ENDMDL
MODEL 4
REMARK minimizedAffinity -7.3815074
REMARK  6 active torsions:
REMARK  status: ('A' for Active; 'I' for Inactive)
REMARK    1  A    between atoms: C4_5  and  N2_6 
REMARK       I    between atoms: N2_6  and  C5_7 
REMARK    2  A    between atoms: C5_7  and  C6_9 
REMARK    3  A    between atoms: C6_9  and  O3_11 
REMARK    4  A    between atoms: C8_14  and  N3_15 
REMARK       I    between atoms: N3_15  and  C9_16 
REMARK    5  A    between atoms: C9_16  and  C10_18 
REMARK    6  A    between atoms: C10_18  and  O6_20 
ROOT
HETATM    1  N1  UNL     1      -2.995  48.278 -21.394  1.00  0.00    -0.191 NA
HETATM    2  C1  UNL     1      -2.276  49.188 -21.363  1.00  0.00     0.099 C 
HETATM    3  C2  UNL     1      -1.385  50.313 -21.323  1.00  0.00     0.049 A 
HETATM    4  C3  UNL     1      -1.035  50.965 -22.512  1.00  0.00     0.054 A 
HETATM    5  C4  UNL     1      -0.169  52.062 -22.489  1.00  0.00     0.060 A 
HETATM    6  C7  UNL     1       0.342  52.496 -21.246  1.00  0.00     0.087 A 
HETATM    7 CL1  UNL     1       1.423  53.862 -21.197  1.00  0.00    -0.079 Cl
HETATM    8  C8  UNL     1      -0.005  51.845 -20.041  1.00  0.00     0.060 A 
HETATM    9  C11 UNL     1      -0.872  50.752 -20.096  1.00  0.00     0.054 A 
ENDROOT
BRANCH   5  10
HETATM   10  N2  UNL     1       0.217  52.757 -23.656  1.00  0.00    -0.316 N 
HETATM   11  C5  UNL     1      -0.581  53.226 -24.684  1.00  0.00     0.319 C 
HETATM   12  O1  UNL     1      -1.793  53.134 -24.789  1.00  0.00    -0.261 OA
HETATM   13  H2  UNL     1       1.214  52.944 -23.772  1.00  0.00     0.169 HD
BRANCH  11  14
HETATM   14  C6  UNL     1       0.244  53.943 -25.794  1.00  0.00     0.237 C 
HETATM   15  O2  UNL     1       0.825  53.408 -26.713  1.00  0.00    -0.643 OA
BRANCH  14  16
HETATM   16  O3  UNL     1       0.251  55.280 -25.631  1.00  0.00    -0.769 OA
HETATM   17  H3  UNL     1       0.796  55.594 -26.386  1.00  0.00     0.168 HD
ENDBRANCH  14  16
ENDBRANCH  11  14
ENDBRANCH   5  10
BRANCH   8  18
HETATM   18  N3  UNL     1       0.541  52.329 -18.830  1.00  0.00    -0.316 N 
HETATM   19  C9  UNL     1       0.686  51.663 -17.627  1.00  0.00     0.319 C 
HETATM   20  O4  UNL     1       0.368  50.515 -17.363  1.00  0.00    -0.261 OA
HETATM   21  H4  UNL     1       0.875  53.294 -18.835  1.00  0.00     0.169 HD
BRANCH  19  22
HETATM   22  C10 UNL     1       1.338  52.577 -16.554  1.00  0.00     0.237 C 
HETATM   23  O5  UNL     1       0.930  52.628 -15.407  1.00  0.00    -0.643 OA
BRANCH  22  24
HETATM   24  O6  UNL     1       2.372  53.294 -16.993  1.00  0.00    -0.769 OA
HETATM   25  H5  UNL     1       2.681  53.816 -16.226  1.00  0.00     0.168 HD
ENDBRANCH  22  24
ENDBRANCH  19  22
ENDBRANCH   8  18
TORSDOF 6
ENDMDL
MODEL 5
REMARK minimizedAffinity -7.37711525
REMARK  6 active torsions:
REMARK  status: ('A' for Active; 'I' for Inactive)
REMARK    1  A    between atoms: C4_5  and  N2_6 
REMARK       I    between atoms: N2_6  and  C5_7 
REMARK    2  A    between atoms: C5_7  and  C6_9 
REMARK    3  A    between atoms: C6_9  and  O3_11 
REMARK    4  A    between atoms: C8_14  and  N3_15 
REMARK       I    between atoms: N3_15  and  C9_16 
REMARK    5  A    between atoms: C9_16  and  C10_18 
REMARK    6  A    between atoms: C10_18  and  O6_20 
ROOT
HETATM    1  N1  UNL     1       1.817  53.058 -20.649  1.00  0.00    -0.191 NA
HETATM    2  C1  UNL     1       0.908  52.828 -21.332  1.00  0.00     0.099 C 
HETATM    3  C2  UNL     1      -0.219  52.542 -22.175  1.00  0.00     0.049 A 
HETATM    4  C3  UNL     1      -0.208  52.955 -23.513  1.00  0.00     0.054 A 
HETATM    5  C4  UNL     1      -1.297  52.684 -24.346  1.00  0.00     0.060 A 
HETATM    6  C7  UNL     1      -2.403  51.988 -23.811  1.00  0.00     0.087 A 
HETATM    7 CL1  UNL     1      -3.771  51.641 -24.835  1.00  0.00    -0.079 Cl
HETATM    8  C8  UNL     1      -2.424  51.568 -22.462  1.00  0.00     0.060 A 
HETATM    9  C11 UNL     1      -1.321  51.853 -21.655  1.00  0.00     0.054 A 
ENDROOT
BRANCH   5  10
HETATM   10  N2  UNL     1      -1.340  53.077 -25.702  1.00  0.00    -0.316 N 
HETATM   11  C5  UNL     1      -0.287  53.263 -26.579  1.00  0.00     0.319 C 
HETATM   12  O1  UNL     1       0.905  53.123 -26.355  1.00  0.00    -0.261 OA
HETATM   13  H2  UNL     1      -2.263  53.251 -26.103  1.00  0.00     0.169 HD
BRANCH  11  14
HETATM   14  C6  UNL     1      -0.765  53.701 -27.995  1.00  0.00     0.237 C 
HETATM   15  O2  UNL     1      -1.708  54.422 -28.242  1.00  0.00    -0.643 OA
BRANCH  14  16
HETATM   16  O3  UNL     1       0.005  53.179 -28.970  1.00  0.00    -0.769 OA
HETATM   17  H3  UNL     1      -0.405  53.531 -29.791  1.00  0.00     0.168 HD
ENDBRANCH  14  16
ENDBRANCH  11  14
ENDBRANCH   5  10
BRANCH   8  18
HETATM   18  N3  UNL     1      -3.561  50.875 -21.988  1.00  0.00    -0.316 N 
HETATM   19  C9  UNL     1      -4.106  50.886 -20.717  1.00  0.00     0.319 C 
HETATM   20  O4  UNL     1      -3.712  51.500 -19.739  1.00  0.00    -0.261 OA
HETATM   21  H4  UNL     1      -4.052  50.288 -22.665  1.00  0.00     0.169 HD
BRANCH  19  22
HETATM   22  C10 UNL     1      -5.361  49.977 -20.636  1.00  0.00     0.237 C 
HETATM   23  O5  UNL     1      -5.289  48.761 -20.679  1.00  0.00    -0.643 OA
BRANCH  22  24
HETATM   24  O6  UNL     1      -6.515  50.635 -20.516  1.00  0.00    -0.769 OA
HETATM   25  H5  UNL     1      -7.211  49.949 -20.476  1.00  0.00     0.168 HD
ENDBRANCH  22  24
ENDBRANCH  19  22
ENDBRANCH   8  18
TORSDOF 6
ENDMDL
MODEL 6
REMARK minimizedAffinity -7.3656168
REMARK  6 active torsions:
REMARK  status: ('A' for Active; 'I' for Inactive)
REMARK    1  A    between atoms: C4_5  and  N2_6 
REMARK       I    between atoms: N2_6  and  C5_7 
REMARK    2  A    between atoms: C5_7  and  C6_9 
REMARK    3  A    between atoms: C6_9  and  O3_11 
REMARK    4  A    between atoms: C8_14  and  N3_15 
REMARK       I    between atoms: N3_15  and  C9_16 
REMARK    5  A    between atoms: C9_16  and  C10_18 
REMARK    6  A    between atoms: C10_18  and  O6_20 
ROOT
HETATM    1  N1  UNL     1       1.244  54.028 -19.963  1.00  0.00    -0.191 NA
HETATM    2  C1  UNL     1       0.734  53.431 -20.817  1.00  0.00     0.099 C 
HETATM    3  C2  UNL     1       0.105  52.691 -21.875  1.00  0.00     0.049 A 
HETATM    4  C3  UNL     1      -1.170  52.145 -21.680  1.00  0.00     0.054 A 
HETATM    5  C4  UNL     1      -1.794  51.423 -22.700  1.00  0.00     0.060 A 
HETATM    6  C7  UNL     1      -1.115  51.258 -23.927  1.00  0.00     0.087 A 
HETATM    7 CL1  UNL     1      -1.879  50.361 -25.212  1.00  0.00    -0.079 Cl
HETATM    8  C8  UNL     1       0.171  51.805 -24.135  1.00  0.00     0.060 A 
HETATM    9  C11 UNL     1       0.769  52.521 -23.096  1.00  0.00     0.054 A 
ENDROOT
BRANCH   5  10
HETATM   10  N2  UNL     1      -3.078  50.851 -22.558  1.00  0.00    -0.316 N 
HETATM   11  C5  UNL     1      -4.310  51.476 -22.602  1.00  0.00     0.319 C 
HETATM   12  O1  UNL     1      -4.540  52.662 -22.776  1.00  0.00    -0.261 OA
HETATM   13  H2  UNL     1      -3.117  49.843 -22.400  1.00  0.00     0.169 HD
BRANCH  11  14
HETATM   14  C6  UNL     1      -5.489  50.478 -22.398  1.00  0.00     0.237 C 
HETATM   15  O2  UNL     1      -5.422  49.388 -21.871  1.00  0.00    -0.643 OA
BRANCH  14  16
HETATM   16  O3  UNL     1      -6.648  50.962 -22.885  1.00  0.00    -0.769 OA
HETATM   17  H3  UNL     1      -7.289  50.243 -22.691  1.00  0.00     0.168 HD
ENDBRANCH  14  16
ENDBRANCH  11  14
ENDBRANCH   5  10
BRANCH   8  18
HETATM   18  N3  UNL     1       0.796  51.605 -25.386  1.00  0.00    -0.316 N 
HETATM   19  C9  UNL     1       1.001  52.522 -26.401  1.00  0.00     0.319 C 
HETATM   20  O4  UNL     1       0.679  53.698 -26.423  1.00  0.00    -0.261 OA
HETATM   21  H4  UNL     1       1.148  50.664 -25.574  1.00  0.00     0.169 HD
BRANCH  19  22
HETATM   22  C10 UNL     1       1.733  51.872 -27.607  1.00  0.00     0.237 C 
HETATM   23  O5  UNL     1       1.138  51.480 -28.595  1.00  0.00    -0.643 OA
BRANCH  22  24
HETATM   24  O6  UNL     1       3.056  51.781 -27.467  1.00  0.00    -0.769 OA
HETATM   25  H5  UNL     1       3.382  51.359 -28.287  1.00  0.00     0.168 HD
ENDBRANCH  22  24
ENDBRANCH  19  22
ENDBRANCH   8  18
TORSDOF 6
ENDMDL
MODEL 7
REMARK minimizedAffinity -7.23534393
REMARK  6 active torsions:
REMARK  status: ('A' for Active; 'I' for Inactive)
REMARK    1  A    between atoms: C4_5  and  N2_6 
REMARK       I    between atoms: N2_6  and  C5_7 
REMARK    2  A    between atoms: C5_7  and  C6_9 
REMARK    3  A    between atoms: C6_9  and  O3_11 
REMARK    4  A    between atoms: C8_14  and  N3_15 
REMARK       I    between atoms: N3_15  and  C9_16 
REMARK    5  A    between atoms: C9_16  and  C10_18 
REMARK    6  A    between atoms: C10_18  and  O6_20 
ROOT
HETATM    1  N1  UNL     1      -4.327  49.661 -21.018  1.00  0.00    -0.191 NA
HETATM    2  C1  UNL     1      -3.343  50.276 -21.031  1.00  0.00     0.099 C 
HETATM    3  C2  UNL     1      -2.127  51.039 -21.048  1.00  0.00     0.049 A 
HETATM    4  C3  UNL     1      -1.408  51.229 -19.862  1.00  0.00     0.054 A 
HETATM    5  C4  UNL     1      -0.222  51.969 -19.863  1.00  0.00     0.060 A 
HETATM    6  C7  UNL     1       0.232  52.518 -21.082  1.00  0.00     0.087 A 
HETATM    7 CL1  UNL     1       1.710  53.443 -21.104  1.00  0.00    -0.079 Cl
HETATM    8  C8  UNL     1      -0.485  52.332 -22.285  1.00  0.00     0.060 A 
HETATM    9  C11 UNL     1      -1.667  51.588 -22.251  1.00  0.00     0.054 A 
ENDROOT
BRANCH   5  10
HETATM   10  N2  UNL     1       0.542  52.192 -18.697  1.00  0.00    -0.316 N 
HETATM   11  C5  UNL     1       0.423  51.585 -17.459  1.00  0.00     0.319 C 
HETATM   12  O1  UNL     1      -0.374  50.725 -17.123  1.00  0.00    -0.261 OA
HETATM   13  H2  UNL     1       1.284  52.890 -18.759  1.00  0.00     0.169 HD
BRANCH  11  14
HETATM   14  C6  UNL     1       1.468  52.119 -16.435  1.00  0.00     0.237 C 
HETATM   15  O2  UNL     1       2.244  51.450 -15.788  1.00  0.00    -0.643 OA
BRANCH  14  16
HETATM   16  O3  UNL     1       1.427  53.462 -16.329  1.00  0.00    -0.769 OA
HETATM   17  H3  UNL     1       2.124  53.654 -15.663  1.00  0.00     0.168 HD
ENDBRANCH  14  16
ENDBRANCH  11  14
ENDBRANCH   5  10
BRANCH   8  18
HETATM   18  N3  UNL     1       0.024  52.907 -23.471  1.00  0.00    -0.316 N 
HETATM   19  C9  UNL     1      -0.657  53.229 -24.631  1.00  0.00     0.319 C 
HETATM   20  O4  UNL     1      -1.845  53.080 -24.868  1.00  0.00    -0.261 OA
HETATM   21  H4  UNL     1       1.024  53.117 -23.483  1.00  0.00     0.169 HD
BRANCH  19  22
HETATM   22  C10 UNL     1       0.296  53.845 -25.690  1.00  0.00     0.237 C 
HETATM   23  O5  UNL     1       0.255  55.023 -25.997  1.00  0.00    -0.643 OA
BRANCH  22  24
HETATM   24  O6  UNL     1       1.156  52.980 -26.230  1.00  0.00    -0.769 OA
HETATM   25  H5  UNL     1       1.686  53.495 -26.871  1.00  0.00     0.168 HD
ENDBRANCH  22  24
ENDBRANCH  19  22
ENDBRANCH   8  18
TORSDOF 6
ENDMDL
MODEL 8
REMARK minimizedAffinity -7.2101717
REMARK  6 active torsions:
REMARK  status: ('A' for Active; 'I' for Inactive)
REMARK    1  A    between atoms: C4_5  and  N2_6 
REMARK       I    between atoms: N2_6  and  C5_7 
REMARK    2  A    between atoms: C5_7  and  C6_9 
REMARK    3  A    between atoms: C6_9  and  O3_11 
REMARK    4  A    between atoms: C8_14  and  N3_15 
REMARK       I    between atoms: N3_15  and  C9_16 
REMARK    5  A    between atoms: C9_16  and  C10_18 
REMARK    6  A    between atoms: C10_18  and  O6_20 
ROOT
HETATM    1  N1  UNL     1       1.745  54.150 -20.552  1.00  0.00    -0.191 NA
HETATM    2  C1  UNL     1       1.126  53.491 -21.280  1.00  0.00     0.099 C 
HETATM    3  C2  UNL     1       0.359  52.676 -22.180  1.00  0.00     0.049 A 
HETATM    4  C3  UNL     1       0.293  53.012 -23.538  1.00  0.00     0.054 A 
HETATM    5  C4  UNL     1      -0.449  52.228 -24.425  1.00  0.00     0.060 A 
HETATM    6  C7  UNL     1      -1.128  51.095 -23.924  1.00  0.00     0.087 A 
HETATM    7 CL1  UNL     1      -2.058  50.105 -25.016  1.00  0.00    -0.079 Cl
HETATM    8  C8  UNL     1      -1.068  50.748 -22.556  1.00  0.00     0.060 A 
HETATM    9  C11 UNL     1      -0.318  51.551 -21.694  1.00  0.00     0.054 A 
ENDROOT
BRANCH   5  10
HETATM   10  N2  UNL     1      -0.551  52.520 -25.803  1.00  0.00    -0.316 N 
HETATM   11  C5  UNL     1      -0.245  53.699 -26.459  1.00  0.00     0.319 C 
HETATM   12  O1  UNL     1       0.178  54.735 -25.974  1.00  0.00    -0.261 OA
HETATM   13  H2  UNL     1      -0.893  51.773 -26.408  1.00  0.00     0.169 HD
BRANCH  11  14
HETATM   14  C6  UNL     1      -0.500  53.606 -27.993  1.00  0.00     0.237 C 
HETATM   15  O2  UNL     1       0.249  53.126 -28.816  1.00  0.00    -0.643 OA
BRANCH  14  16
HETATM   16  O3  UNL     1      -1.690  54.136 -28.338  1.00  0.00    -0.769 OA
HETATM   17  H3  UNL     1      -1.716  54.011 -29.313  1.00  0.00     0.168 HD
ENDBRANCH  14  16
ENDBRANCH  11  14
ENDBRANCH   5  10
BRANCH   8  18
HETATM   18  N3  UNL     1      -1.768  49.601 -22.119  1.00  0.00    -0.316 N 
HETATM   19  C9  UNL     1      -1.977  49.164 -20.823  1.00  0.00     0.319 C 
HETATM   20  O4  UNL     1      -1.593  49.682 -19.788  1.00  0.00    -0.261 OA
HETATM   21  H4  UNL     1      -2.179  49.014 -22.846  1.00  0.00     0.169 HD
BRANCH  19  22
HETATM   22  C10 UNL     1      -2.805  47.851 -20.800  1.00  0.00     0.237 C 
HETATM   23  O5  UNL     1      -3.619  47.579 -21.664  1.00  0.00    -0.643 OA
BRANCH  22  24
HETATM   24  O6  UNL     1      -2.551  47.055 -19.761  1.00  0.00    -0.769 OA
HETATM   25  H5  UNL     1      -3.134  46.277 -19.871  1.00  0.00     0.168 HD
ENDBRANCH  22  24
ENDBRANCH  19  22
ENDBRANCH   8  18
TORSDOF 6
ENDMDL
MODEL 9
REMARK minimizedAffinity -7.19395494
REMARK  6 active torsions:
REMARK  status: ('A' for Active; 'I' for Inactive)
REMARK    1  A    between atoms: C4_5  and  N2_6 
REMARK       I    between atoms: N2_6  and  C5_7 
REMARK    2  A    between atoms: C5_7  and  C6_9 
REMARK    3  A    between atoms: C6_9  and  O3_11 
REMARK    4  A    between atoms: C8_14  and  N3_15 
REMARK       I    between atoms: N3_15  and  C9_16 
REMARK    5  A    between atoms: C9_16  and  C10_18 
REMARK    6  A    between atoms: C10_18  and  O6_20 
ROOT
HETATM    1  N1  UNL     1       2.708  52.107 -27.842  1.00  0.00    -0.191 NA
HETATM    2  C1  UNL     1       1.859  51.861 -27.090  1.00  0.00     0.099 C 
HETATM    3  C2  UNL     1       0.808  51.553 -26.161  1.00  0.00     0.049 A 
HETATM    4  C3  UNL     1       0.896  52.002 -24.837  1.00  0.00     0.054 A 
HETATM    5  C4  UNL     1      -0.119  51.711 -23.922  1.00  0.00     0.060 A 
HETATM    6  C7  UNL     1      -1.231  50.958 -24.360  1.00  0.00     0.087 A 
HETATM    7 CL1  UNL     1      -2.507  50.586 -23.233  1.00  0.00    -0.079 Cl
HETATM    8  C8  UNL     1      -1.330  50.501 -25.693  1.00  0.00     0.060 A 
HETATM    9  C11 UNL     1      -0.299  50.808 -26.584  1.00  0.00     0.054 A 
ENDROOT
BRANCH   5  10
HETATM   10  N2  UNL     1      -0.081  52.137 -22.576  1.00  0.00    -0.316 N 
HETATM   11  C5  UNL     1       0.600  53.211 -22.031  1.00  0.00     0.319 C 
HETATM   12  O1  UNL     1       1.313  54.015 -22.610  1.00  0.00    -0.261 OA
HETATM   13  H2  UNL     1      -0.623  51.592 -21.905  1.00  0.00     0.169 HD
BRANCH  11  14
HETATM   14  C6  UNL     1       0.376  53.336 -20.495  1.00  0.00     0.237 C 
HETATM   15  O2  UNL     1      -0.377  52.663 -19.823  1.00  0.00    -0.643 OA
BRANCH  14  16
HETATM   16  O3  UNL     1       1.134  54.309 -19.954  1.00  0.00    -0.769 OA
HETATM   17  H3  UNL     1       0.894  54.275 -19.001  1.00  0.00     0.168 HD
ENDBRANCH  14  16
ENDBRANCH  11  14
ENDBRANCH   5  10
BRANCH   8  18
HETATM   18  N3  UNL     1      -2.469  49.753 -26.068  1.00  0.00    -0.316 N 
HETATM   19  C9  UNL     1      -3.172  49.797 -27.259  1.00  0.00     0.319 C 
HETATM   20  O4  UNL     1      -2.951  50.497 -28.233  1.00  0.00    -0.261 OA
HETATM   21  H4  UNL     1      -2.826  49.091 -25.378  1.00  0.00     0.169 HD
BRANCH  19  22
HETATM   22  C10 UNL     1      -4.362  48.801 -27.245  1.00  0.00     0.237 C 
HETATM   23  O5  UNL     1      -4.640  48.131 -26.266  1.00  0.00    -0.643 OA
BRANCH  22  24
HETATM   24  O6  UNL     1      -5.048  48.742 -28.387  1.00  0.00    -0.769 OA
HETATM   25  H5  UNL     1      -5.758  48.086 -28.240  1.00  0.00     0.168 HD
ENDBRANCH  22  24
ENDBRANCH  19  22
ENDBRANCH   8  18
TORSDOF 6
ENDMDL
