MODEL 1
REMARK minimizedAffinity -9.39756012
REMARK  6 active torsions:
REMARK  status: ('A' for Active; 'I' for Inactive)
REMARK    1  A    between atoms: C2_2  and  C30_32 
REMARK    2  A    between atoms: C3_3  and  C4_4 
REMARK    3  A    between atoms: C4_4  and  C5_6 
REMARK    4  A    between atoms: C5_6  and  C6_7 
REMARK    5  A    between atoms: C6_7  and  C8_9 
REMARK    6  A    between atoms: C30_32  and  O4_34 
ROOT
HETATM    1  C8  UNL     1       1.260   7.014  13.277  1.00  0.00    -0.001 C 
HETATM    2  C9  UNL     1       0.471   7.954  14.237  1.00  0.00     0.007 C 
HETATM    3  C10 UNL     1      -1.009   7.535  14.186  1.00  0.00     0.015 C 
HETATM    4  C11 UNL     1      -1.002   6.164  13.481  1.00  0.00    -0.013 C 
HETATM    5  C12 UNL     1      -0.671   5.112  14.585  1.00  0.00     0.021 C 
HETATM    6  C13 UNL     1      -2.286   5.687  12.819  1.00  0.00    -0.070 C 
HETATM    7  C14 UNL     1      -3.509   6.135  13.156  1.00  0.00    -0.022 C 
HETATM    8  C15 UNL     1      -4.751   5.560  12.545  1.00  0.00     0.034 C 
HETATM    9  C16 UNL     1      -4.563   4.043  12.391  1.00  0.00     0.013 C 
HETATM   10  C17 UNL     1      -5.872   3.243  12.105  1.00  0.00     0.018 C 
HETATM   11  C18 UNL     1      -6.650   3.024  13.420  1.00  0.00     0.023 C 
HETATM   12  C19 UNL     1      -6.820   3.948  11.118  1.00  0.00     0.023 C 
HETATM   13  C20 UNL     1      -5.515   1.847  11.577  1.00  0.00     0.135 C 
HETATM   14  O2  UNL     1      -6.320   1.168  10.936  1.00  0.00    -0.297 OA
HETATM   15  C21 UNL     1      -4.170   1.268  11.962  1.00  0.00     0.080 C 
HETATM   16  C22 UNL     1      -2.984   2.222  11.790  1.00  0.00     0.017 C 
HETATM   17  C23 UNL     1      -3.353   3.690  11.451  1.00  0.00    -0.031 C 
HETATM   18  C24 UNL     1      -3.708   3.759   9.941  1.00  0.00     0.016 C 
HETATM   19  C25 UNL     1      -2.139   4.710  11.649  1.00  0.00     0.024 C 
HETATM   20  C26 UNL     1      -0.731   4.078  11.535  1.00  0.00     0.010 C 
HETATM   21  C27 UNL     1       0.465   5.039  11.730  1.00  0.00     0.011 C 
HETATM   22  C28 UNL     1       0.122   6.385  12.406  1.00  0.00    -0.029 C 
HETATM   23  C29 UNL     1      -0.279   7.412  11.299  1.00  0.00     0.016 C 
ENDROOT
BRANCH   1  24
HETATM   24  C6  UNL     1       2.446   7.746  12.585  1.00  0.00    -0.007 C 
HETATM   25  C7  UNL     1       2.965   8.926  13.414  1.00  0.00     0.011 C 
BRANCH  24  26
HETATM   26  C5  UNL     1       2.032   8.271  11.189  1.00  0.00     0.087 C 
BRANCH  26  27
HETATM   27  C4  UNL     1       3.056   7.908  10.128  1.00  0.00     0.150 C 
HETATM   28  O1  UNL     1       4.178   7.500  10.418  1.00  0.00    -0.293 OA
BRANCH  27  29
HETATM   29  C3  UNL     1       2.620   8.011   8.706  1.00  0.00     0.063 C 
HETATM   30  C2  UNL     1       2.468   6.955   7.889  1.00  0.00     0.015 C 
HETATM   31  C1  UNL     1       1.926   7.073   6.500  1.00  0.00     0.055 C 
BRANCH  30  32
HETATM   32  C30 UNL     1       2.808   5.579   8.296  1.00  0.00     0.171 C 
HETATM   33  O3  UNL     1       3.519   4.812   7.675  1.00  0.00    -0.646 OA
BRANCH  32  34
HETATM   34  O4  UNL     1       2.344   5.290   9.524  1.00  0.00    -0.773 OA
HETATM   35  H44 UNL     1       2.585   4.349   9.645  1.00  0.00     0.167 HD
ENDBRANCH  32  34
ENDBRANCH  30  32
ENDBRANCH  27  29
ENDBRANCH  26  27
ENDBRANCH  24  26
ENDBRANCH   1  24
TORSDOF 6
ENDMDL
MODEL 2
REMARK minimizedAffinity -9.07524872
REMARK  6 active torsions:
REMARK  status: ('A' for Active; 'I' for Inactive)
REMARK    1  A    between atoms: C2_2  and  C30_32 
REMARK    2  A    between atoms: C3_3  and  C4_4 
REMARK    3  A    between atoms: C4_4  and  C5_6 
REMARK    4  A    between atoms: C5_6  and  C6_7 
REMARK    5  A    between atoms: C6_7  and  C8_9 
REMARK    6  A    between atoms: C30_32  and  O4_34 
ROOT
HETATM    1  C8  UNL     1      -0.871   6.210  11.766  1.00  0.00    -0.001 C 
HETATM    2  C9  UNL     1      -1.579   7.419  12.449  1.00  0.00     0.007 C 
HETATM    3  C10 UNL     1      -0.492   8.436  12.836  1.00  0.00     0.015 C 
HETATM    4  C11 UNL     1       0.766   7.973  12.074  1.00  0.00    -0.013 C 
HETATM    5  C12 UNL     1       0.637   8.555  10.632  1.00  0.00     0.021 C 
HETATM    6  C13 UNL     1       2.126   8.421  12.587  1.00  0.00    -0.070 C 
HETATM    7  C14 UNL     1       2.310   9.509  13.358  1.00  0.00    -0.022 C 
HETATM    8  C15 UNL     1       3.681   9.966  13.754  1.00  0.00     0.034 C 
HETATM    9  C16 UNL     1       4.626   9.770  12.558  1.00  0.00     0.013 C 
HETATM   10  C17 UNL     1       5.993  10.513  12.671  1.00  0.00     0.018 C 
HETATM   11  C18 UNL     1       5.815  12.001  12.300  1.00  0.00     0.023 C 
HETATM   12  C19 UNL     1       6.608  10.459  14.082  1.00  0.00     0.023 C 
HETATM   13  C20 UNL     1       6.980   9.929  11.651  1.00  0.00     0.135 C 
HETATM   14  O2  UNL     1       8.199  10.061  11.776  1.00  0.00    -0.297 OA
HETATM   15  C21 UNL     1       6.411   9.272  10.411  1.00  0.00     0.080 C 
HETATM   16  C22 UNL     1       5.267   8.286  10.671  1.00  0.00     0.017 C 
HETATM   17  C23 UNL     1       4.726   8.262  12.125  1.00  0.00    -0.031 C 
HETATM   18  C24 UNL     1       5.717   7.438  12.992  1.00  0.00     0.016 C 
HETATM   19  C25 UNL     1       3.319   7.517  12.264  1.00  0.00     0.024 C 
HETATM   20  C26 UNL     1       3.027   6.464  11.168  1.00  0.00     0.010 C 
HETATM   21  C27 UNL     1       1.669   5.732  11.272  1.00  0.00     0.011 C 
HETATM   22  C28 UNL     1       0.624   6.412  12.183  1.00  0.00    -0.029 C 
HETATM   23  C29 UNL     1       0.808   5.878  13.640  1.00  0.00     0.016 C 
ENDROOT
BRANCH   1  24
HETATM   24  C6  UNL     1      -1.583   4.862  12.077  1.00  0.00    -0.007 C 
HETATM   25  C7  UNL     1      -1.652   3.944  10.851  1.00  0.00     0.011 C 
BRANCH  24  26
HETATM   26  C5  UNL     1      -3.023   5.104  12.592  1.00  0.00     0.087 C 
BRANCH  26  27
HETATM   27  C4  UNL     1      -3.806   3.807  12.694  1.00  0.00     0.150 C 
HETATM   28  O1  UNL     1      -3.257   2.709  12.646  1.00  0.00    -0.293 OA
BRANCH  27  29
HETATM   29  C3  UNL     1      -5.276   3.922  12.916  1.00  0.00     0.063 C 
HETATM   30  C2  UNL     1      -6.191   3.158  12.295  1.00  0.00     0.015 C 
HETATM   31  C1  UNL     1      -7.651   3.218  12.614  1.00  0.00     0.055 C 
BRANCH  30  32
HETATM   32  C30 UNL     1      -5.834   2.179  11.252  1.00  0.00     0.171 C 
HETATM   33  O3  UNL     1      -6.050   0.982  11.299  1.00  0.00    -0.646 OA
BRANCH  32  34
HETATM   34  O4  UNL     1      -5.345   2.775  10.151  1.00  0.00    -0.773 OA
HETATM   35  H44 UNL     1      -5.102   2.024   9.573  1.00  0.00     0.167 HD
ENDBRANCH  32  34
ENDBRANCH  30  32
ENDBRANCH  27  29
ENDBRANCH  26  27
ENDBRANCH  24  26
ENDBRANCH   1  24
TORSDOF 6
ENDMDL
MODEL 3
REMARK minimizedAffinity -9.06346607
REMARK  6 active torsions:
REMARK  status: ('A' for Active; 'I' for Inactive)
REMARK    1  A    between atoms: C2_2  and  C30_32 
REMARK    2  A    between atoms: C3_3  and  C4_4 
REMARK    3  A    between atoms: C4_4  and  C5_6 
REMARK    4  A    between atoms: C5_6  and  C6_7 
REMARK    5  A    between atoms: C6_7  and  C8_9 
REMARK    6  A    between atoms: C30_32  and  O4_34 
ROOT
HETATM    1  C8  UNL     1      -6.074   7.298  14.431  1.00  0.00    -0.001 C 
HETATM    2  C9  UNL     1      -5.947   8.681  15.138  1.00  0.00     0.007 C 
HETATM    3  C10 UNL     1      -4.461   9.080  15.114  1.00  0.00     0.015 C 
HETATM    4  C11 UNL     1      -3.813   8.111  14.106  1.00  0.00    -0.013 C 
HETATM    5  C12 UNL     1      -4.071   8.720  12.693  1.00  0.00     0.021 C 
HETATM    6  C13 UNL     1      -2.312   7.876  14.195  1.00  0.00    -0.070 C 
HETATM    7  C14 UNL     1      -1.455   8.742  14.767  1.00  0.00    -0.022 C 
HETATM    8  C15 UNL     1       0.026   8.513  14.739  1.00  0.00     0.034 C 
HETATM    9  C16 UNL     1       0.405   7.934  13.367  1.00  0.00     0.013 C 
HETATM   10  C17 UNL     1       1.929   7.968  13.038  1.00  0.00     0.018 C 
HETATM   11  C18 UNL     1       2.334   9.380  12.564  1.00  0.00     0.023 C 
HETATM   12  C19 UNL     1       2.826   7.607  14.237  1.00  0.00     0.023 C 
HETATM   13  C20 UNL     1       2.222   7.020  11.866  1.00  0.00     0.135 C 
HETATM   14  O2  UNL     1       3.353   6.578  11.653  1.00  0.00    -0.297 OA
HETATM   15  C21 UNL     1       1.096   6.725  10.897  1.00  0.00     0.080 C 
HETATM   16  C22 UNL     1      -0.241   6.364  11.553  1.00  0.00     0.017 C 
HETATM   17  C23 UNL     1      -0.302   6.557  13.091  1.00  0.00    -0.031 C 
HETATM   18  C24 UNL     1       0.419   5.352  13.754  1.00  0.00     0.016 C 
HETATM   19  C25 UNL     1      -1.790   6.535  13.673  1.00  0.00     0.024 C 
HETATM   20  C26 UNL     1      -2.815   5.756  12.813  1.00  0.00     0.010 C 
HETATM   21  C27 UNL     1      -4.266   5.723  13.347  1.00  0.00     0.011 C 
HETATM   22  C28 UNL     1      -4.596   6.785  14.419  1.00  0.00    -0.029 C 
HETATM   23  C29 UNL     1      -4.265   6.193  15.827  1.00  0.00     0.016 C 
ENDROOT
BRANCH   1  24
HETATM   24  C6  UNL     1      -7.191   6.418  15.063  1.00  0.00    -0.007 C 
HETATM   25  C7  UNL     1      -7.107   6.382  16.594  1.00  0.00     0.011 C 
BRANCH  24  26
HETATM   26  C5  UNL     1      -7.116   4.966  14.533  1.00  0.00     0.087 C 
BRANCH  26  27
HETATM   27  C4  UNL     1      -7.650   4.859  13.116  1.00  0.00     0.150 C 
HETATM   28  O1  UNL     1      -8.825   5.092  12.844  1.00  0.00    -0.293 OA
BRANCH  27  29
HETATM   29  C3  UNL     1      -6.668   4.514  12.048  1.00  0.00     0.063 C 
HETATM   30  C2  UNL     1      -6.437   3.262  11.617  1.00  0.00     0.015 C 
HETATM   31  C1  UNL     1      -5.526   2.952  10.471  1.00  0.00     0.055 C 
BRANCH  30  32
HETATM   32  C30 UNL     1      -7.073   2.081  12.227  1.00  0.00     0.171 C 
HETATM   33  O3  UNL     1      -8.045   2.097  12.959  1.00  0.00    -0.646 OA
BRANCH  32  34
HETATM   34  O4  UNL     1      -6.536   0.934  11.777  1.00  0.00    -0.773 OA
HETATM   35  H44 UNL     1      -7.002   0.244  12.293  1.00  0.00     0.167 HD
ENDBRANCH  32  34
ENDBRANCH  30  32
ENDBRANCH  27  29
ENDBRANCH  26  27
ENDBRANCH  24  26
ENDBRANCH   1  24
TORSDOF 6
ENDMDL
MODEL 4
REMARK minimizedAffinity -9.01622581
REMARK  6 active torsions:
REMARK  status: ('A' for Active; 'I' for Inactive)
REMARK    1  A    between atoms: C2_2  and  C30_32 
REMARK    2  A    between atoms: C3_3  and  C4_4 
REMARK    3  A    between atoms: C4_4  and  C5_6 
REMARK    4  A    between atoms: C5_6  and  C6_7 
REMARK    5  A    between atoms: C6_7  and  C8_9 
REMARK    6  A    between atoms: C30_32  and  O4_34 
ROOT
HETATM    1  C8  UNL     1       1.565   7.244  13.587  1.00  0.00    -0.001 C 
HETATM    2  C9  UNL     1       1.752   7.464  15.119  1.00  0.00     0.007 C 
HETATM    3  C10 UNL     1       0.352   7.512  15.755  1.00  0.00     0.015 C 
HETATM    4  C11 UNL     1      -0.594   6.980  14.660  1.00  0.00    -0.013 C 
HETATM    5  C12 UNL     1      -0.530   5.424  14.752  1.00  0.00     0.021 C 
HETATM    6  C13 UNL     1      -2.069   7.345  14.742  1.00  0.00    -0.070 C 
HETATM    7  C14 UNL     1      -2.684   7.710  15.881  1.00  0.00    -0.022 C 
HETATM    8  C15 UNL     1      -4.161   7.961  15.929  1.00  0.00     0.034 C 
HETATM    9  C16 UNL     1      -4.862   6.924  15.039  1.00  0.00     0.013 C 
HETATM   10  C17 UNL     1      -6.404   6.813  15.248  1.00  0.00     0.018 C 
HETATM   11  C18 UNL     1      -6.705   5.959  16.498  1.00  0.00     0.023 C 
HETATM   12  C19 UNL     1      -7.099   8.174  15.440  1.00  0.00     0.023 C 
HETATM   13  C20 UNL     1      -7.031   6.073  14.058  1.00  0.00     0.135 C 
HETATM   14  O2  UNL     1      -8.229   6.175  13.786  1.00  0.00    -0.297 OA
HETATM   15  C21 UNL     1      -6.155   5.112  13.281  1.00  0.00     0.080 C 
HETATM   16  C22 UNL     1      -4.776   5.661  12.901  1.00  0.00     0.017 C 
HETATM   17  C23 UNL     1      -4.403   7.026  13.539  1.00  0.00    -0.031 C 
HETATM   18  C24 UNL     1      -5.136   8.142  12.746  1.00  0.00     0.016 C 
HETATM   19  C25 UNL     1      -2.848   7.373  13.424  1.00  0.00     0.024 C 
HETATM   20  C26 UNL     1      -2.111   6.689  12.247  1.00  0.00     0.010 C 
HETATM   21  C27 UNL     1      -0.603   7.000  12.114  1.00  0.00     0.011 C 
HETATM   22  C28 UNL     1       0.056   7.604  13.374  1.00  0.00    -0.029 C 
HETATM   23  C29 UNL     1      -0.077   9.160  13.309  1.00  0.00     0.016 C 
ENDROOT
BRANCH   1  24
HETATM   24  C6  UNL     1       2.657   7.973  12.753  1.00  0.00    -0.007 C 
HETATM   25  C7  UNL     1       3.112   9.283  13.408  1.00  0.00     0.011 C 
BRANCH  24  26
HETATM   26  C5  UNL     1       2.145   8.288  11.327  1.00  0.00     0.087 C 
BRANCH  26  27
HETATM   27  C4  UNL     1       3.212   8.029  10.279  1.00  0.00     0.150 C 
HETATM   28  O1  UNL     1       4.373   7.767  10.582  1.00  0.00    -0.293 OA
BRANCH  27  29
HETATM   29  C3  UNL     1       2.776   8.046   8.853  1.00  0.00     0.063 C 
HETATM   30  C2  UNL     1       2.558   6.939   8.122  1.00  0.00     0.015 C 
HETATM   31  C1  UNL     1       2.017   6.980   6.727  1.00  0.00     0.055 C 
BRANCH  30  32
HETATM   32  C30 UNL     1       2.819   5.582   8.635  1.00  0.00     0.171 C 
HETATM   33  O3  UNL     1       2.503   5.167   9.735  1.00  0.00    -0.646 OA
BRANCH  32  34
HETATM   34  O4  UNL     1       3.344   4.782   7.692  1.00  0.00    -0.773 OA
HETATM   35  H44 UNL     1       3.517   3.946   8.172  1.00  0.00     0.167 HD
ENDBRANCH  32  34
ENDBRANCH  30  32
ENDBRANCH  27  29
ENDBRANCH  26  27
ENDBRANCH  24  26
ENDBRANCH   1  24
TORSDOF 6
ENDMDL
MODEL 5
REMARK minimizedAffinity -9.01593781
REMARK  6 active torsions:
REMARK  status: ('A' for Active; 'I' for Inactive)
REMARK    1  A    between atoms: C2_2  and  C30_32 
REMARK    2  A    between atoms: C3_3  and  C4_4 
REMARK    3  A    between atoms: C4_4  and  C5_6 
REMARK    4  A    between atoms: C5_6  and  C6_7 
REMARK    5  A    between atoms: C6_7  and  C8_9 
REMARK    6  A    between atoms: C30_32  and  O4_34 
ROOT
HETATM    1  C8  UNL     1      -2.283   6.299  13.226  1.00  0.00    -0.001 C 
HETATM    2  C9  UNL     1      -2.190   5.307  12.028  1.00  0.00     0.007 C 
HETATM    3  C10 UNL     1      -0.757   5.385  11.471  1.00  0.00     0.015 C 
HETATM    4  C11 UNL     1       0.041   6.144  12.550  1.00  0.00    -0.013 C 
HETATM    5  C12 UNL     1       0.440   5.082  13.620  1.00  0.00     0.021 C 
HETATM    6  C13 UNL     1       1.333   6.833  12.139  1.00  0.00    -0.070 C 
HETATM    7  C14 UNL     1       2.052   6.485  11.056  1.00  0.00    -0.022 C 
HETATM    8  C15 UNL     1       3.371   7.127  10.751  1.00  0.00     0.034 C 
HETATM    9  C16 UNL     1       4.127   7.341  12.071  1.00  0.00     0.013 C 
HETATM   10  C17 UNL     1       5.645   7.666  11.914  1.00  0.00     0.018 C 
HETATM   11  C18 UNL     1       6.438   6.366  11.659  1.00  0.00     0.023 C 
HETATM   12  C19 UNL     1       5.951   8.630  10.752  1.00  0.00     0.023 C 
HETATM   13  C20 UNL     1       6.183   8.249  13.228  1.00  0.00     0.135 C 
HETATM   14  O2  UNL     1       7.215   8.922  13.268  1.00  0.00    -0.297 OA
HETATM   15  C21 UNL     1       5.468   7.880  14.511  1.00  0.00     0.080 C 
HETATM   16  C22 UNL     1       3.942   8.006  14.457  1.00  0.00     0.017 C 
HETATM   17  C23 UNL     1       3.346   8.287  13.053  1.00  0.00    -0.031 C 
HETATM   18  C24 UNL     1       3.544   9.795  12.742  1.00  0.00     0.016 C 
HETATM   19  C25 UNL     1       1.769   8.040  12.974  1.00  0.00     0.024 C 
HETATM   20  C26 UNL     1       1.020   8.171  14.323  1.00  0.00     0.010 C 
HETATM   21  C27 UNL     1      -0.507   7.930  14.280  1.00  0.00     0.011 C 
HETATM   22  C28 UNL     1      -1.022   7.202  13.018  1.00  0.00    -0.029 C 
HETATM   23  C29 UNL     1      -1.350   8.270  11.926  1.00  0.00     0.016 C 
ENDROOT
BRANCH   1  24
HETATM   24  C6  UNL     1      -3.691   6.954  13.335  1.00  0.00    -0.007 C 
HETATM   25  C7  UNL     1      -3.639   8.339  13.990  1.00  0.00     0.011 C 
BRANCH  24  26
HETATM   26  C5  UNL     1      -4.654   6.060  14.151  1.00  0.00     0.087 C 
BRANCH  26  27
HETATM   27  C4  UNL     1      -5.785   5.524  13.292  1.00  0.00     0.150 C 
HETATM   28  O1  UNL     1      -6.834   6.144  13.134  1.00  0.00    -0.293 OA
BRANCH  27  29
HETATM   29  C3  UNL     1      -5.545   4.230  12.591  1.00  0.00     0.063 C 
HETATM   30  C2  UNL     1      -6.445   3.233  12.526  1.00  0.00     0.015 C 
HETATM   31  C1  UNL     1      -6.222   1.988  11.727  1.00  0.00     0.055 C 
BRANCH  30  32
HETATM   32  C30 UNL     1      -7.740   3.285  13.228  1.00  0.00     0.171 C 
HETATM   33  O3  UNL     1      -8.829   3.080  12.723  1.00  0.00    -0.646 OA
BRANCH  32  34
HETATM   34  O4  UNL     1      -7.587   3.459  14.551  1.00  0.00    -0.773 OA
HETATM   35  H44 UNL     1      -8.507   3.530  14.881  1.00  0.00     0.167 HD
ENDBRANCH  32  34
ENDBRANCH  30  32
ENDBRANCH  27  29
ENDBRANCH  26  27
ENDBRANCH  24  26
ENDBRANCH   1  24
TORSDOF 6
ENDMDL
MODEL 6
REMARK minimizedAffinity -8.96712875
REMARK  6 active torsions:
REMARK  status: ('A' for Active; 'I' for Inactive)
REMARK    1  A    between atoms: C2_2  and  C30_32 
REMARK    2  A    between atoms: C3_3  and  C4_4 
REMARK    3  A    between atoms: C4_4  and  C5_6 
REMARK    4  A    between atoms: C5_6  and  C6_7 
REMARK    5  A    between atoms: C6_7  and  C8_9 
REMARK    6  A    between atoms: C30_32  and  O4_34 
ROOT
HETATM    1  C8  UNL     1      -1.823   5.882  12.228  1.00  0.00    -0.001 C 
HETATM    2  C9  UNL     1      -2.242   6.876  13.353  1.00  0.00     0.007 C 
HETATM    3  C10 UNL     1      -1.022   7.758  13.670  1.00  0.00     0.015 C 
HETATM    4  C11 UNL     1      -0.042   7.503  12.507  1.00  0.00    -0.013 C 
HETATM    5  C12 UNL     1      -0.500   8.435  11.343  1.00  0.00     0.021 C 
HETATM    6  C13 UNL     1       1.433   7.803  12.728  1.00  0.00    -0.070 C 
HETATM    7  C14 UNL     1       1.888   8.656  13.664  1.00  0.00    -0.022 C 
HETATM    8  C15 UNL     1       3.344   8.994  13.775  1.00  0.00     0.034 C 
HETATM    9  C16 UNL     1       3.928   9.109  12.359  1.00  0.00     0.013 C 
HETATM   10  C17 UNL     1       5.327   9.796  12.278  1.00  0.00     0.018 C 
HETATM   11  C18 UNL     1       5.164  11.329  12.346  1.00  0.00     0.023 C 
HETATM   12  C19 UNL     1       6.282   9.381  13.412  1.00  0.00     0.023 C 
HETATM   13  C20 UNL     1       5.970   9.490  10.918  1.00  0.00     0.135 C 
HETATM   14  O2  UNL     1       7.186   9.584  10.738  1.00  0.00    -0.297 OA
HETATM   15  C21 UNL     1       5.053   9.174   9.756  1.00  0.00     0.080 C 
HETATM   16  C22 UNL     1       3.949   8.157  10.064  1.00  0.00     0.017 C 
HETATM   17  C23 UNL     1       3.805   7.762  11.558  1.00  0.00    -0.031 C 
HETATM   18  C24 UNL     1       4.927   6.742  11.894  1.00  0.00     0.016 C 
HETATM   19  C25 UNL     1       2.434   7.009  11.883  1.00  0.00     0.024 C 
HETATM   20  C26 UNL     1       1.793   6.272  10.682  1.00  0.00     0.010 C 
HETATM   21  C27 UNL     1       0.460   5.541  10.965  1.00  0.00     0.011 C 
HETATM   22  C28 UNL     1      -0.261   5.967  12.263  1.00  0.00    -0.029 C 
HETATM   23  C29 UNL     1       0.258   5.077  13.438  1.00  0.00     0.016 C 
ENDROOT
BRANCH   1  24
HETATM   24  C6  UNL     1      -2.523   4.500  12.379  1.00  0.00    -0.007 C 
HETATM   25  C7  UNL     1      -2.902   3.889  11.024  1.00  0.00     0.011 C 
BRANCH  24  26
HETATM   26  C5  UNL     1      -3.805   4.620  13.238  1.00  0.00     0.087 C 
BRANCH  26  27
HETATM   27  C4  UNL     1      -4.992   3.951  12.570  1.00  0.00     0.150 C 
HETATM   28  O1  UNL     1      -5.038   2.737  12.388  1.00  0.00    -0.293 OA
BRANCH  27  29
HETATM   29  C3  UNL     1      -6.138   4.827  12.195  1.00  0.00     0.063 C 
HETATM   30  C2  UNL     1      -7.405   4.619  12.594  1.00  0.00     0.015 C 
HETATM   31  C1  UNL     1      -8.519   5.571  12.294  1.00  0.00     0.055 C 
BRANCH  30  32
HETATM   32  C30 UNL     1      -7.807   3.436  13.378  1.00  0.00     0.171 C 
HETATM   33  O3  UNL     1      -8.135   2.359  12.917  1.00  0.00    -0.646 OA
BRANCH  32  34
HETATM   34  O4  UNL     1      -7.649   3.632  14.698  1.00  0.00    -0.773 OA
HETATM   35  H44 UNL     1      -7.998   2.808  15.095  1.00  0.00     0.167 HD
ENDBRANCH  32  34
ENDBRANCH  30  32
ENDBRANCH  27  29
ENDBRANCH  26  27
ENDBRANCH  24  26
ENDBRANCH   1  24
TORSDOF 6
ENDMDL
MODEL 7
REMARK minimizedAffinity -8.83953476
REMARK  6 active torsions:
REMARK  status: ('A' for Active; 'I' for Inactive)
REMARK    1  A    between atoms: C2_2  and  C30_32 
REMARK    2  A    between atoms: C3_3  and  C4_4 
REMARK    3  A    between atoms: C4_4  and  C5_6 
REMARK    4  A    between atoms: C5_6  and  C6_7 
REMARK    5  A    between atoms: C6_7  and  C8_9 
REMARK    6  A    between atoms: C30_32  and  O4_34 
ROOT
HETATM    1  C8  UNL     1       0.186   8.355  13.443  1.00  0.00    -0.001 C 
HETATM    2  C9  UNL     1       0.274   7.544  12.115  1.00  0.00     0.007 C 
HETATM    3  C10 UNL     1      -1.068   6.816  11.925  1.00  0.00     0.015 C 
HETATM    4  C11 UNL     1      -2.019   7.478  12.941  1.00  0.00    -0.013 C 
HETATM    5  C12 UNL     1      -2.548   8.776  12.257  1.00  0.00     0.021 C 
HETATM    6  C13 UNL     1      -3.252   6.705  13.384  1.00  0.00    -0.070 C 
HETATM    7  C14 UNL     1      -3.807   5.712  12.665  1.00  0.00    -0.022 C 
HETATM    8  C15 UNL     1      -5.081   5.050  13.096  1.00  0.00     0.034 C 
HETATM    9  C16 UNL     1      -6.016   6.121  13.677  1.00  0.00     0.013 C 
HETATM   10  C17 UNL     1      -7.503   5.676  13.844  1.00  0.00     0.018 C 
HETATM   11  C18 UNL     1      -8.232   5.760  12.486  1.00  0.00     0.023 C 
HETATM   12  C19 UNL     1      -7.658   4.234  14.364  1.00  0.00     0.023 C 
HETATM   13  C20 UNL     1      -8.227   6.649  14.784  1.00  0.00     0.135 C 
HETATM   14  O2  UNL     1      -9.265   6.336  15.371  1.00  0.00    -0.297 OA
HETATM   15  C21 UNL     1      -7.692   8.062  14.889  1.00  0.00     0.080 C 
HETATM   16  C22 UNL     1      -6.175   8.164  15.081  1.00  0.00     0.017 C 
HETATM   17  C23 UNL     1      -5.393   6.832  14.933  1.00  0.00    -0.031 C 
HETATM   18  C24 UNL     1      -5.569   6.024  16.247  1.00  0.00     0.016 C 
HETATM   19  C25 UNL     1      -3.817   7.039  14.768  1.00  0.00     0.024 C 
HETATM   20  C26 UNL     1      -3.265   8.355  15.368  1.00  0.00     0.010 C 
HETATM   21  C27 UNL     1      -1.744   8.586  15.217  1.00  0.00     0.011 C 
HETATM   22  C28 UNL     1      -1.048   7.707  14.155  1.00  0.00    -0.029 C 
HETATM   23  C29 UNL     1      -0.586   6.377  14.833  1.00  0.00     0.016 C 
ENDROOT
BRANCH   1  24
HETATM   24  C6  UNL     1       1.554   8.422  14.180  1.00  0.00    -0.007 C 
HETATM   25  C7  UNL     1       1.506   9.329  15.416  1.00  0.00     0.011 C 
BRANCH  24  26
HETATM   26  C5  UNL     1       2.666   8.939  13.235  1.00  0.00     0.087 C 
BRANCH  26  27
HETATM   27  C4  UNL     1       3.640   7.836  12.861  1.00  0.00     0.150 C 
HETATM   28  O1  UNL     1       4.674   7.638  13.493  1.00  0.00    -0.293 OA
BRANCH  27  29
HETATM   29  C3  UNL     1       3.256   6.956  11.720  1.00  0.00     0.063 C 
HETATM   30  C2  UNL     1       4.141   6.332  10.923  1.00  0.00     0.015 C 
HETATM   31  C1  UNL     1       3.733   5.370   9.852  1.00  0.00     0.055 C 
BRANCH  30  32
HETATM   32  C30 UNL     1       5.597   6.530  11.042  1.00  0.00     0.171 C 
HETATM   33  O3  UNL     1       6.243   7.396  10.482  1.00  0.00    -0.646 OA
BRANCH  32  34
HETATM   34  O4  UNL     1       6.140   5.714  11.961  1.00  0.00    -0.773 OA
HETATM   35  H44 UNL     1       7.099   5.906  11.900  1.00  0.00     0.167 HD
ENDBRANCH  32  34
ENDBRANCH  30  32
ENDBRANCH  27  29
ENDBRANCH  26  27
ENDBRANCH  24  26
ENDBRANCH   1  24
TORSDOF 6
ENDMDL
MODEL 8
REMARK minimizedAffinity -8.68524647
REMARK  6 active torsions:
REMARK  status: ('A' for Active; 'I' for Inactive)
REMARK    1  A    between atoms: C2_2  and  C30_32 
REMARK    2  A    between atoms: C3_3  and  C4_4 
REMARK    3  A    between atoms: C4_4  and  C5_6 
REMARK    4  A    between atoms: C5_6  and  C6_7 
REMARK    5  A    between atoms: C6_7  and  C8_9 
REMARK    6  A    between atoms: C30_32  and  O4_34 
ROOT
HETATM    1  C8  UNL     1      -2.234   5.788  12.293  1.00  0.00    -0.001 C 
HETATM    2  C9  UNL     1      -2.897   4.912  13.398  1.00  0.00     0.007 C 
HETATM    3  C10 UNL     1      -2.998   5.770  14.671  1.00  0.00     0.015 C 
HETATM    4  C11 UNL     1      -2.720   7.210  14.196  1.00  0.00    -0.013 C 
HETATM    5  C12 UNL     1      -4.074   7.750  13.640  1.00  0.00     0.021 C 
HETATM    6  C13 UNL     1      -2.251   8.230  15.222  1.00  0.00    -0.070 C 
HETATM    7  C14 UNL     1      -2.470   8.112  16.544  1.00  0.00    -0.022 C 
HETATM    8  C15 UNL     1      -2.075   9.194  17.504  1.00  0.00     0.034 C 
HETATM    9  C16 UNL     1      -2.363  10.554  16.851  1.00  0.00     0.013 C 
HETATM   10  C17 UNL     1      -2.348  11.770  17.829  1.00  0.00     0.018 C 
HETATM   11  C18 UNL     1      -3.686  11.844  18.596  1.00  0.00     0.023 C 
HETATM   12  C19 UNL     1      -1.219  11.704  18.874  1.00  0.00     0.023 C 
HETATM   13  C20 UNL     1      -2.239  13.073  17.026  1.00  0.00     0.135 C 
HETATM   14  O2  UNL     1      -1.838  14.121  17.537  1.00  0.00    -0.297 OA
HETATM   15  C21 UNL     1      -2.747  13.070  15.599  1.00  0.00     0.080 C 
HETATM   16  C22 UNL     1      -2.282  11.881  14.752  1.00  0.00     0.017 C 
HETATM   17  C23 UNL     1      -1.541  10.760  15.527  1.00  0.00    -0.031 C 
HETATM   18  C24 UNL     1      -0.083  11.233  15.776  1.00  0.00     0.016 C 
HETATM   19  C25 UNL     1      -1.411   9.399  14.700  1.00  0.00     0.024 C 
HETATM   20  C26 UNL     1      -1.456   9.564  13.161  1.00  0.00     0.010 C 
HETATM   21  C27 UNL     1      -1.340   8.263  12.334  1.00  0.00     0.011 C 
HETATM   22  C28 UNL     1      -1.605   6.959  13.119  1.00  0.00    -0.029 C 
HETATM   23  C29 UNL     1      -0.256   6.464  13.733  1.00  0.00     0.016 C 
ENDROOT
BRANCH   1  24
HETATM   24  C6  UNL     1      -1.335   4.947  11.340  1.00  0.00    -0.007 C 
HETATM   25  C7  UNL     1      -1.929   3.563  11.051  1.00  0.00     0.011 C 
BRANCH  24  26
HETATM   26  C5  UNL     1       0.080   4.759  11.938  1.00  0.00     0.087 C 
BRANCH  26  27
HETATM   27  C4  UNL     1       1.163   5.147  10.947  1.00  0.00     0.150 C 
HETATM   28  O1  UNL     1       2.118   4.413  10.706  1.00  0.00    -0.293 OA
BRANCH  27  29
HETATM   29  C3  UNL     1       0.987   6.440  10.227  1.00  0.00     0.063 C 
HETATM   30  C2  UNL     1       1.740   6.827   9.183  1.00  0.00     0.015 C 
HETATM   31  C1  UNL     1       1.476   8.080   8.409  1.00  0.00     0.055 C 
BRANCH  30  32
HETATM   32  C30 UNL     1       2.889   6.041   8.697  1.00  0.00     0.171 C 
HETATM   33  O3  UNL     1       2.897   5.337   7.705  1.00  0.00    -0.646 OA
BRANCH  32  34
HETATM   34  O4  UNL     1       4.002   6.287   9.409  1.00  0.00    -0.773 OA
HETATM   35  H44 UNL     1       4.660   5.672   9.026  1.00  0.00     0.167 HD
ENDBRANCH  32  34
ENDBRANCH  30  32
ENDBRANCH  27  29
ENDBRANCH  26  27
ENDBRANCH  24  26
ENDBRANCH   1  24
TORSDOF 6
ENDMDL
MODEL 9
REMARK minimizedAffinity -8.66741276
REMARK  6 active torsions:
REMARK  status: ('A' for Active; 'I' for Inactive)
REMARK    1  A    between atoms: C2_2  and  C30_32 
REMARK    2  A    between atoms: C3_3  and  C4_4 
REMARK    3  A    between atoms: C4_4  and  C5_6 
REMARK    4  A    between atoms: C5_6  and  C6_7 
REMARK    5  A    between atoms: C6_7  and  C8_9 
REMARK    6  A    between atoms: C30_32  and  O4_34 
ROOT
HETATM    1  C8  UNL     1       2.822   7.118  10.904  1.00  0.00    -0.001 C 
HETATM    2  C9  UNL     1       2.783   5.573  10.705  1.00  0.00     0.007 C 
HETATM    3  C10 UNL     1       1.467   5.059  11.314  1.00  0.00     0.015 C 
HETATM    4  C11 UNL     1       0.619   6.327  11.538  1.00  0.00    -0.013 C 
HETATM    5  C12 UNL     1      -0.057   6.643  10.168  1.00  0.00     0.021 C 
HETATM    6  C13 UNL     1      -0.508   6.269  12.559  1.00  0.00    -0.070 C 
HETATM    7  C14 UNL     1      -1.098   5.126  12.953  1.00  0.00    -0.022 C 
HETATM    8  C15 UNL     1      -2.272   5.131  13.885  1.00  0.00     0.034 C 
HETATM    9  C16 UNL     1      -3.180   6.316  13.521  1.00  0.00     0.013 C 
HETATM   10  C17 UNL     1      -4.609   6.266  14.146  1.00  0.00     0.018 C 
HETATM   11  C18 UNL     1      -5.507   5.313  13.330  1.00  0.00     0.023 C 
HETATM   12  C19 UNL     1      -4.624   5.779  15.607  1.00  0.00     0.023 C 
HETATM   13  C20 UNL     1      -5.257   7.655  14.054  1.00  0.00     0.135 C 
HETATM   14  O2  UNL     1      -6.195   7.984  14.783  1.00  0.00    -0.297 OA
HETATM   15  C21 UNL     1      -4.785   8.585  12.957  1.00  0.00     0.080 C 
HETATM   16  C22 UNL     1      -3.264   8.697  12.816  1.00  0.00     0.017 C 
HETATM   17  C23 UNL     1      -2.441   7.695  13.668  1.00  0.00    -0.031 C 
HETATM   18  C24 UNL     1      -2.408   8.222  15.129  1.00  0.00     0.016 C 
HETATM   19  C25 UNL     1      -0.910   7.591  13.219  1.00  0.00     0.024 C 
HETATM   20  C26 UNL     1      -0.355   8.844  12.501  1.00  0.00     0.010 C 
HETATM   21  C27 UNL     1       1.122   8.770  12.047  1.00  0.00     0.011 C 
HETATM   22  C28 UNL     1       1.722   7.348  11.994  1.00  0.00    -0.029 C 
HETATM   23  C29 UNL     1       2.332   7.011  13.393  1.00  0.00     0.016 C 
ENDROOT
BRANCH   1  24
HETATM   24  C6  UNL     1       4.267   7.641  11.145  1.00  0.00    -0.007 C 
HETATM   25  C7  UNL     1       4.715   8.633  10.065  1.00  0.00     0.011 C 
BRANCH  24  26
HETATM   26  C5  UNL     1       5.279   6.471  11.187  1.00  0.00     0.087 C 
BRANCH  26  27
HETATM   27  C4  UNL     1       6.551   6.856  11.920  1.00  0.00     0.150 C 
HETATM   28  O1  UNL     1       7.635   6.934  11.347  1.00  0.00    -0.293 OA
BRANCH  27  29
HETATM   29  C3  UNL     1       6.420   7.199  13.365  1.00  0.00     0.063 C 
HETATM   30  C2  UNL     1       7.335   7.901  14.056  1.00  0.00     0.015 C 
HETATM   31  C1  UNL     1       7.132   8.325  15.476  1.00  0.00     0.055 C 
BRANCH  30  32
HETATM   32  C30 UNL     1       8.618   8.330  13.469  1.00  0.00     0.171 C 
HETATM   33  O3  UNL     1       9.667   7.716  13.531  1.00  0.00    -0.646 OA
BRANCH  32  34
HETATM   34  O4  UNL     1       8.482   9.441  12.725  1.00  0.00    -0.773 OA
HETATM   35  H44 UNL     1       9.399   9.644  12.447  1.00  0.00     0.167 HD
ENDBRANCH  32  34
ENDBRANCH  30  32
ENDBRANCH  27  29
ENDBRANCH  26  27
ENDBRANCH  24  26
ENDBRANCH   1  24
TORSDOF 6
ENDMDL
