MODEL 1
REMARK minimizedAffinity -6.99987698
REMARK CNNscore 0.80417347
REMARK CNNaffinity 7.07207346
REMARK  13 active torsions:
REMARK  status: ('A' for Active; 'I' for Inactive)
REMARK    1  A    between atoms: C4_4  and  C5_5 
REMARK    2  A    between atoms: C5_5  and  C6_6 
REMARK    3  A    between atoms: C6_6  and  C7_7 
REMARK    4  A    between atoms: C9_9  and  C10_10 
REMARK    5  A    between atoms: C11_11  and  C12_12 
REMARK    6  A    between atoms: C14_14  and  C15_15 
REMARK    7  A    between atoms: C18_18  and  O1_19 
REMARK    8  A    between atoms: C19_21  and  C20_22 
REMARK    9  A    between atoms: C20_22  and  C21_23 
REMARK   10  A    between atoms: C21_23  and  C22_24 
REMARK   11  A    between atoms: C22_24  and  O3_25 
REMARK   12  A    between atoms: C24_27  and  C26_29 
REMARK   13  A    between atoms: C29_33  and  O5_35 
ROOT
HETATM    1  C15 UNL     1       2.094  50.907 -12.985  1.00  0.00     0.149 C 
HETATM    2  C16 UNL     1       2.246  52.267 -12.287  1.00  0.00     0.054 C 
HETATM    3  C17 UNL     1       1.562  52.121 -10.897  1.00  0.00     0.050 C 
HETATM    4  C18 UNL     1       1.543  50.590 -10.781  1.00  0.00     0.270 C 
HETATM    5  O2  UNL     1       1.310  50.105 -12.100  1.00  0.00    -0.351 OA
HETATM    6  C19 UNL     1       2.449  52.839  -9.800  1.00  0.00     0.032 C 
HETATM    7  C23 UNL     1       2.417  54.361 -10.049  1.00  0.00    -0.066 C 
HETATM    8  C24 UNL     1       3.499  55.149 -10.278  1.00  0.00    -0.021 C 
HETATM    9  C25 UNL     1       3.403  56.618 -10.599  1.00  0.00     0.052 C 
HETATM   10  C27 UNL     1       1.007  54.921 -10.004  1.00  0.00     0.038 C 
HETATM   11  C28 UNL     1       0.103  54.252 -11.032  1.00  0.00     0.042 C 
HETATM   12  C29 UNL     1       0.091  52.710 -10.928  1.00  0.00     0.067 C 
HETATM   13  C30 UNL     1      -0.832  52.175 -12.036  1.00  0.00     0.047 C 
ENDROOT
BRANCH   4  14
HETATM   14  O1  UNL     1       2.801  50.057 -10.398  1.00  0.00    -0.370 OA
HETATM   15  H26 UNL     1       2.643  49.099 -10.338  1.00  0.00     0.212 HD
ENDBRANCH   4  14
BRANCH   6  16
HETATM   16  C20 UNL     1       2.140  52.598  -8.295  1.00  0.00     0.012 C 
BRANCH  16  17
HETATM   17  C21 UNL     1       2.746  53.565  -7.270  1.00  0.00     0.027 C 
BRANCH  17  18
HETATM   18  C22 UNL     1       1.756  54.151  -6.267  1.00  0.00     0.164 C 
BRANCH  18  19
HETATM   19  O3  UNL     1       2.433  54.540  -5.080  1.00  0.00    -0.401 OA
HETATM   20  H34 UNL     1       1.773  54.966  -4.504  1.00  0.00     0.209 HD
ENDBRANCH  18  19
ENDBRANCH  17  18
ENDBRANCH  16  17
ENDBRANCH   6  16
BRANCH  12  21
HETATM   21  O5  UNL     1      -0.559  52.358  -9.696  1.00  0.00    -0.389 OA
HETATM   22  H46 UNL     1      -1.460  52.729  -9.705  1.00  0.00     0.210 HD
ENDBRANCH  12  21
BRANCH   1  23
HETATM   23  C14 UNL     1       1.507  51.005 -14.370  1.00  0.00     0.011 C 
HETATM   24  C12 UNL     1       2.029  51.507 -15.511  1.00  0.00    -0.063 C 
HETATM   25  C13 UNL     1       3.363  52.204 -15.589  1.00  0.00     0.048 C 
BRANCH  24  26
HETATM   26  C11 UNL     1       1.234  51.411 -16.740  1.00  0.00     0.006 C 
HETATM   27  C10 UNL     1       1.022  52.393 -17.633  1.00  0.00     0.001 C 
BRANCH  27  28
HETATM   28  C9  UNL     1       0.213  52.206 -18.820  1.00  0.00     0.002 C 
HETATM   29  C7  UNL     1       0.372  52.811 -20.016  1.00  0.00    -0.084 C 
HETATM   30  C8  UNL     1       1.423  53.839 -20.345  1.00  0.00     0.043 C 
BRANCH  29  31
HETATM   31  C6  UNL     1      -0.588  52.497 -21.154  1.00  0.00     0.037 C 
BRANCH  31  32
HETATM   32  C5  UNL     1      -0.662  51.001 -21.478  1.00  0.00     0.031 C 
BRANCH  32  33
HETATM   33  C4  UNL     1      -1.174  50.768 -22.875  1.00  0.00    -0.024 C 
HETATM   34  C2  UNL     1      -0.686  51.275 -24.024  1.00  0.00    -0.091 C 
HETATM   35  C1  UNL     1       0.470  52.234 -24.124  1.00  0.00     0.042 C 
HETATM   36  C3  UNL     1      -1.307  50.915 -25.348  1.00  0.00     0.042 C 
ENDBRANCH  32  33
ENDBRANCH  31  32
ENDBRANCH  29  31
ENDBRANCH  27  28
ENDBRANCH  24  26
ENDBRANCH   1  23
BRANCH   8  37
HETATM   37  C26 UNL     1       4.896  54.617 -10.213  1.00  0.00     0.265 C 
HETATM   38  O4  UNL     1       5.182  53.553  -9.673  1.00  0.00    -0.302 OA
ENDBRANCH   8  37
TORSDOF 13
ENDMDL
MODEL 2
REMARK minimizedAffinity -7.76304913
REMARK CNNscore 0.724520147
REMARK CNNaffinity 6.75746298
REMARK  13 active torsions:
REMARK  status: ('A' for Active; 'I' for Inactive)
REMARK    1  A    between atoms: C4_4  and  C5_5 
REMARK    2  A    between atoms: C5_5  and  C6_6 
REMARK    3  A    between atoms: C6_6  and  C7_7 
REMARK    4  A    between atoms: C9_9  and  C10_10 
REMARK    5  A    between atoms: C11_11  and  C12_12 
REMARK    6  A    between atoms: C14_14  and  C15_15 
REMARK    7  A    between atoms: C18_18  and  O1_19 
REMARK    8  A    between atoms: C19_21  and  C20_22 
REMARK    9  A    between atoms: C20_22  and  C21_23 
REMARK   10  A    between atoms: C21_23  and  C22_24 
REMARK   11  A    between atoms: C22_24  and  O3_25 
REMARK   12  A    between atoms: C24_27  and  C26_29 
REMARK   13  A    between atoms: C29_33  and  O5_35 
ROOT
HETATM    1  C15 UNL     1       0.684  50.884 -14.452  1.00  0.00     0.149 C 
HETATM    2  C16 UNL     1      -0.229  51.682 -13.508  1.00  0.00     0.054 C 
HETATM    3  C17 UNL     1      -1.342  50.699 -13.046  1.00  0.00     0.050 C 
HETATM    4  C18 UNL     1      -0.660  49.364 -13.383  1.00  0.00     0.270 C 
HETATM    5  O2  UNL     1       0.076  49.598 -14.580  1.00  0.00    -0.351 OA
HETATM    6  C19 UNL     1      -1.615  50.909 -11.501  1.00  0.00     0.032 C 
HETATM    7  C23 UNL     1      -2.262  52.293 -11.291  1.00  0.00    -0.066 C 
HETATM    8  C24 UNL     1      -1.766  53.290 -10.514  1.00  0.00    -0.021 C 
HETATM    9  C25 UNL     1      -2.394  54.655 -10.411  1.00  0.00     0.052 C 
HETATM   10  C27 UNL     1      -3.562  52.443 -12.060  1.00  0.00     0.038 C 
HETATM   11  C28 UNL     1      -3.359  52.234 -13.555  1.00  0.00     0.042 C 
HETATM   12  C29 UNL     1      -2.661  50.899 -13.900  1.00  0.00     0.067 C 
HETATM   13  C30 UNL     1      -2.497  50.839 -15.428  1.00  0.00     0.047 C 
ENDROOT
BRANCH   4  14
HETATM   14  O1  UNL     1       0.303  48.984 -12.413  1.00  0.00    -0.370 OA
HETATM   15  H26 UNL     1       0.632  48.126 -12.732  1.00  0.00     0.212 HD
ENDBRANCH   4  14
BRANCH   6  16
HETATM   16  C20 UNL     1      -2.474  49.864 -10.731  1.00  0.00     0.012 C 
BRANCH  16  17
HETATM   17  C21 UNL     1      -3.708  50.364  -9.970  1.00  0.00     0.027 C 
BRANCH  17  18
HETATM   18  C22 UNL     1      -4.988  49.571 -10.219  1.00  0.00     0.164 C 
BRANCH  18  19
HETATM   19  O3  UNL     1      -5.885  49.733  -9.129  1.00  0.00    -0.401 OA
HETATM   20  H34 UNL     1      -6.706  49.265  -9.366  1.00  0.00     0.209 HD
ENDBRANCH  18  19
ENDBRANCH  17  18
ENDBRANCH  16  17
ENDBRANCH   6  16
BRANCH  12  21
HETATM   21  O5  UNL     1      -3.570  49.833 -13.578  1.00  0.00    -0.389 OA
HETATM   22  H46 UNL     1      -4.388  49.959 -14.092  1.00  0.00     0.210 HD
ENDBRANCH  12  21
BRANCH   1  23
HETATM   23  C14 UNL     1       0.914  51.563 -15.779  1.00  0.00     0.011 C 
HETATM   24  C12 UNL     1       2.032  52.117 -16.299  1.00  0.00    -0.063 C 
HETATM   25  C13 UNL     1       3.331  52.254 -15.546  1.00  0.00     0.048 C 
BRANCH  24  26
HETATM   26  C11 UNL     1       1.970  52.660 -17.660  1.00  0.00     0.006 C 
HETATM   27  C10 UNL     1       0.909  52.631 -18.485  1.00  0.00     0.001 C 
BRANCH  27  28
HETATM   28  C9  UNL     1       0.943  53.189 -19.820  1.00  0.00     0.002 C 
HETATM   29  C7  UNL     1       0.536  52.595 -20.961  1.00  0.00    -0.084 C 
HETATM   30  C8  UNL     1      -0.015  51.196 -21.072  1.00  0.00     0.043 C 
BRANCH  29  31
HETATM   31  C6  UNL     1       0.659  53.336 -22.284  1.00  0.00     0.037 C 
BRANCH  31  32
HETATM   32  C5  UNL     1       0.626  52.403 -23.498  1.00  0.00     0.031 C 
BRANCH  32  33
HETATM   33  C4  UNL     1       0.421  53.173 -24.776  1.00  0.00    -0.024 C 
HETATM   34  C2  UNL     1       0.267  52.675 -26.019  1.00  0.00    -0.091 C 
HETATM   35  C1  UNL     1       0.315  51.215 -26.378  1.00  0.00     0.042 C 
HETATM   36  C3  UNL     1       0.044  53.593 -27.192  1.00  0.00     0.042 C 
ENDBRANCH  32  33
ENDBRANCH  31  32
ENDBRANCH  29  31
ENDBRANCH  27  28
ENDBRANCH  24  26
ENDBRANCH   1  23
BRANCH   8  37
HETATM   37  C26 UNL     1      -0.544  53.104  -9.670  1.00  0.00     0.265 C 
HETATM   38  O4  UNL     1       0.527  53.651  -9.915  1.00  0.00    -0.302 OA
ENDBRANCH   8  37
TORSDOF 13
ENDMDL
MODEL 3
REMARK minimizedAffinity -6.78050137
REMARK CNNscore 0.639374375
REMARK CNNaffinity 6.5990715
REMARK  13 active torsions:
REMARK  status: ('A' for Active; 'I' for Inactive)
REMARK    1  A    between atoms: C4_4  and  C5_5 
REMARK    2  A    between atoms: C5_5  and  C6_6 
REMARK    3  A    between atoms: C6_6  and  C7_7 
REMARK    4  A    between atoms: C9_9  and  C10_10 
REMARK    5  A    between atoms: C11_11  and  C12_12 
REMARK    6  A    between atoms: C14_14  and  C15_15 
REMARK    7  A    between atoms: C18_18  and  O1_19 
REMARK    8  A    between atoms: C19_21  and  C20_22 
REMARK    9  A    between atoms: C20_22  and  C21_23 
REMARK   10  A    between atoms: C21_23  and  C22_24 
REMARK   11  A    between atoms: C22_24  and  O3_25 
REMARK   12  A    between atoms: C24_27  and  C26_29 
REMARK   13  A    between atoms: C29_33  and  O5_35 
ROOT
HETATM    1  C15 UNL     1      -1.004  52.591 -12.182  1.00  0.00     0.149 C 
HETATM    2  C16 UNL     1       0.227  52.445 -13.090  1.00  0.00     0.054 C 
HETATM    3  C17 UNL     1       0.390  50.921 -13.359  1.00  0.00     0.050 C 
HETATM    4  C18 UNL     1      -1.022  50.443 -12.987  1.00  0.00     0.270 C 
HETATM    5  O2  UNL     1      -1.430  51.258 -11.892  1.00  0.00    -0.351 OA
HETATM    6  C19 UNL     1       0.765  50.697 -14.880  1.00  0.00     0.032 C 
HETATM    7  C23 UNL     1       2.182  51.251 -15.132  1.00  0.00    -0.066 C 
HETATM    8  C24 UNL     1       2.508  52.214 -16.032  1.00  0.00    -0.021 C 
HETATM    9  C25 UNL     1       3.897  52.780 -16.178  1.00  0.00     0.052 C 
HETATM   10  C27 UNL     1       3.224  50.587 -14.250  1.00  0.00     0.038 C 
HETATM   11  C28 UNL     1       2.903  50.759 -12.771  1.00  0.00     0.042 C 
HETATM   12  C29 UNL     1       1.479  50.292 -12.395  1.00  0.00     0.067 C 
HETATM   13  C30 UNL     1       1.285  50.551 -10.891  1.00  0.00     0.047 C 
ENDROOT
BRANCH   4  14
HETATM   14  O1  UNL     1      -1.968  50.688 -14.016  1.00  0.00    -0.370 OA
HETATM   15  H26 UNL     1      -2.798  50.320 -13.665  1.00  0.00     0.212 HD
ENDBRANCH   4  14
BRANCH   6  16
HETATM   16  C20 UNL     1       0.706  49.260 -15.474  1.00  0.00     0.012 C 
BRANCH  16  17
HETATM   17  C21 UNL     1      -0.500  48.890 -16.346  1.00  0.00     0.027 C 
BRANCH  17  18
HETATM   18  C22 UNL     1      -0.963  49.981 -17.307  1.00  0.00     0.164 C 
BRANCH  18  19
HETATM   19  O3  UNL     1      -0.073  50.073 -18.411  1.00  0.00    -0.401 OA
HETATM   20  H34 UNL     1      -0.447  50.732 -19.023  1.00  0.00     0.209 HD
ENDBRANCH  18  19
ENDBRANCH  17  18
ENDBRANCH  16  17
ENDBRANCH   6  16
BRANCH  12  21
HETATM   21  O5  UNL     1       1.433  48.863 -12.538  1.00  0.00    -0.389 OA
HETATM   22  H46 UNL     1       2.110  48.472 -11.956  1.00  0.00     0.210 HD
ENDBRANCH  12  21
BRANCH   1  23
HETATM   23  C14 UNL     1      -0.742  53.409 -10.943  1.00  0.00     0.011 C 
HETATM   24  C12 UNL     1      -1.602  53.989 -10.077  1.00  0.00    -0.063 C 
HETATM   25  C13 UNL     1      -3.098  54.007 -10.261  1.00  0.00     0.048 C 
BRANCH  24  26
HETATM   26  C11 UNL     1      -1.049  54.684  -8.909  1.00  0.00     0.006 C 
HETATM   27  C10 UNL     1      -0.522  55.921  -8.890  1.00  0.00     0.001 C 
BRANCH  27  28
HETATM   28  C9  UNL     1       0.009  56.525  -7.686  1.00  0.00     0.002 C 
HETATM   29  C7  UNL     1       1.308  56.688  -7.363  1.00  0.00    -0.084 C 
HETATM   30  C8  UNL     1       2.481  56.236  -8.193  1.00  0.00     0.043 C 
BRANCH  29  31
HETATM   31  C6  UNL     1       1.680  57.340  -6.039  1.00  0.00     0.037 C 
BRANCH  31  32
HETATM   32  C5  UNL     1       2.819  58.357  -6.173  1.00  0.00     0.031 C 
BRANCH  32  33
HETATM   33  C4  UNL     1       3.923  58.076  -5.188  1.00  0.00    -0.024 C 
HETATM   34  C2  UNL     1       5.166  57.629  -5.454  1.00  0.00    -0.091 C 
HETATM   35  C1  UNL     1       5.684  57.275  -6.821  1.00  0.00     0.042 C 
HETATM   36  C3  UNL     1       6.163  57.427  -4.343  1.00  0.00     0.042 C 
ENDBRANCH  32  33
ENDBRANCH  31  32
ENDBRANCH  29  31
ENDBRANCH  27  28
ENDBRANCH  24  26
ENDBRANCH   1  23
BRANCH   8  37
HETATM   37  C26 UNL     1       1.500  52.790 -16.976  1.00  0.00     0.265 C 
HETATM   38  O4  UNL     1       1.517  52.575 -18.184  1.00  0.00    -0.302 OA
ENDBRANCH   8  37
TORSDOF 13
ENDMDL
MODEL 4
REMARK minimizedAffinity -6.6152916
REMARK CNNscore 0.39956364
REMARK CNNaffinity 6.10234118
REMARK  13 active torsions:
REMARK  status: ('A' for Active; 'I' for Inactive)
REMARK    1  A    between atoms: C4_4  and  C5_5 
REMARK    2  A    between atoms: C5_5  and  C6_6 
REMARK    3  A    between atoms: C6_6  and  C7_7 
REMARK    4  A    between atoms: C9_9  and  C10_10 
REMARK    5  A    between atoms: C11_11  and  C12_12 
REMARK    6  A    between atoms: C14_14  and  C15_15 
REMARK    7  A    between atoms: C18_18  and  O1_19 
REMARK    8  A    between atoms: C19_21  and  C20_22 
REMARK    9  A    between atoms: C20_22  and  C21_23 
REMARK   10  A    between atoms: C21_23  and  C22_24 
REMARK   11  A    between atoms: C22_24  and  O3_25 
REMARK   12  A    between atoms: C24_27  and  C26_29 
REMARK   13  A    between atoms: C29_33  and  O5_35 
ROOT
HETATM    1  C15 UNL     1      -3.434  50.011 -16.738  1.00  0.00     0.149 C 
HETATM    2  C16 UNL     1      -3.144  50.414 -18.192  1.00  0.00     0.054 C 
HETATM    3  C17 UNL     1      -2.677  49.118 -18.916  1.00  0.00     0.050 C 
HETATM    4  C18 UNL     1      -3.219  48.067 -17.936  1.00  0.00     0.270 C 
HETATM    5  O2  UNL     1      -3.067  48.634 -16.638  1.00  0.00    -0.351 OA
HETATM    6  C19 UNL     1      -3.335  49.058 -20.354  1.00  0.00     0.032 C 
HETATM    7  C23 UNL     1      -2.738  50.182 -21.225  1.00  0.00    -0.066 C 
HETATM    8  C24 UNL     1      -3.441  51.173 -21.831  1.00  0.00    -0.021 C 
HETATM    9  C25 UNL     1      -2.797  52.296 -22.602  1.00  0.00     0.052 C 
HETATM   10  C27 UNL     1      -1.229  50.069 -21.354  1.00  0.00     0.038 C 
HETATM   11  C28 UNL     1      -0.544  50.106 -19.994  1.00  0.00     0.042 C 
HETATM   12  C29 UNL     1      -1.096  49.059 -19.000  1.00  0.00     0.067 C 
HETATM   13  C30 UNL     1      -0.338  49.231 -17.673  1.00  0.00     0.047 C 
ENDROOT
BRANCH   4  14
HETATM   14  O1  UNL     1      -4.612  47.845 -18.092  1.00  0.00    -0.370 OA
HETATM   15  H26 UNL     1      -4.814  47.152 -17.440  1.00  0.00     0.212 HD
ENDBRANCH   4  14
BRANCH   6  16
HETATM   16  C20 UNL     1      -3.259  47.735 -21.170  1.00  0.00     0.012 C 
BRANCH  16  17
HETATM   17  C21 UNL     1      -4.077  47.639 -22.464  1.00  0.00     0.027 C 
BRANCH  17  18
HETATM   18  C22 UNL     1      -5.583  47.482 -22.268  1.00  0.00     0.164 C 
BRANCH  18  19
HETATM   19  O3  UNL     1      -5.885  46.168 -21.820  1.00  0.00    -0.401 OA
HETATM   20  H34 UNL     1      -6.843  46.140 -21.647  1.00  0.00     0.209 HD
ENDBRANCH  18  19
ENDBRANCH  17  18
ENDBRANCH  16  17
ENDBRANCH   6  16
BRANCH  12  21
HETATM   21  O5  UNL     1      -0.720  47.758 -19.480  1.00  0.00    -0.389 OA
HETATM   22  H46 UNL     1       0.252  47.721 -19.545  1.00  0.00     0.210 HD
ENDBRANCH  12  21
BRANCH   1  23
HETATM   23  C14 UNL     1      -2.737  50.882 -15.724  1.00  0.00     0.011 C 
HETATM   24  C12 UNL     1      -2.395  50.634 -14.440  1.00  0.00    -0.063 C 
HETATM   25  C13 UNL     1      -2.764  49.373 -13.701  1.00  0.00     0.048 C 
BRANCH  24  26
HETATM   26  C11 UNL     1      -1.659  51.668 -13.704  1.00  0.00     0.006 C 
HETATM   27  C10 UNL     1      -1.832  52.007 -12.415  1.00  0.00     0.001 C 
BRANCH  27  28
HETATM   28  C9  UNL     1      -1.060  53.051 -11.773  1.00  0.00     0.002 C 
HETATM   29  C7  UNL     1      -1.495  53.932 -10.848  1.00  0.00    -0.084 C 
HETATM   30  C8  UNL     1      -2.902  54.022 -10.317  1.00  0.00     0.043 C 
BRANCH  29  31
HETATM   31  C6  UNL     1      -0.536  54.972 -10.288  1.00  0.00     0.037 C 
BRANCH  31  32
HETATM   32  C5  UNL     1       0.916  54.740 -10.716  1.00  0.00     0.031 C 
BRANCH  32  33
HETATM   33  C4  UNL     1       1.881  55.228  -9.669  1.00  0.00    -0.024 C 
HETATM   34  C2  UNL     1       2.968  56.004  -9.851  1.00  0.00    -0.091 C 
HETATM   35  C1  UNL     1       3.459  56.505 -11.182  1.00  0.00     0.042 C 
HETATM   36  C3  UNL     1       3.816  56.426  -8.680  1.00  0.00     0.042 C 
ENDBRANCH  32  33
ENDBRANCH  31  32
ENDBRANCH  29  31
ENDBRANCH  27  28
ENDBRANCH  24  26
ENDBRANCH   1  23
BRANCH   8  37
HETATM   37  C26 UNL     1      -4.936  51.221 -21.795  1.00  0.00     0.265 C 
HETATM   38  O4  UNL     1      -5.593  50.873 -20.819  1.00  0.00    -0.302 OA
ENDBRANCH   8  37
TORSDOF 13
ENDMDL
MODEL 5
REMARK minimizedAffinity -7.08603191
REMARK CNNscore 0.352211446
REMARK CNNaffinity 5.79693985
REMARK  13 active torsions:
REMARK  status: ('A' for Active; 'I' for Inactive)
REMARK    1  A    between atoms: C4_4  and  C5_5 
REMARK    2  A    between atoms: C5_5  and  C6_6 
REMARK    3  A    between atoms: C6_6  and  C7_7 
REMARK    4  A    between atoms: C9_9  and  C10_10 
REMARK    5  A    between atoms: C11_11  and  C12_12 
REMARK    6  A    between atoms: C14_14  and  C15_15 
REMARK    7  A    between atoms: C18_18  and  O1_19 
REMARK    8  A    between atoms: C19_21  and  C20_22 
REMARK    9  A    between atoms: C20_22  and  C21_23 
REMARK   10  A    between atoms: C21_23  and  C22_24 
REMARK   11  A    between atoms: C22_24  and  O3_25 
REMARK   12  A    between atoms: C24_27  and  C26_29 
REMARK   13  A    between atoms: C29_33  and  O5_35 
ROOT
HETATM    1  C15 UNL     1      -6.869  47.237 -27.146  1.00  0.00     0.149 C 
HETATM    2  C16 UNL     1      -7.982  46.418 -26.473  1.00  0.00     0.054 C 
HETATM    3  C17 UNL     1      -9.319  46.905 -27.101  1.00  0.00     0.050 C 
HETATM    4  C18 UNL     1      -8.776  47.569 -28.375  1.00  0.00     0.270 C 
HETATM    5  O2  UNL     1      -7.537  48.165 -28.002  1.00  0.00    -0.351 OA
HETATM    6  C19 UNL     1     -10.252  45.656 -27.375  1.00  0.00     0.032 C 
HETATM    7  C23 UNL     1     -10.696  45.057 -26.024  1.00  0.00    -0.066 C 
HETATM    8  C24 UNL     1     -10.476  43.782 -25.612  1.00  0.00    -0.021 C 
HETATM    9  C25 UNL     1     -10.857  43.274 -24.246  1.00  0.00     0.052 C 
HETATM   10  C27 UNL     1     -11.439  46.065 -25.166  1.00  0.00     0.038 C 
HETATM   11  C28 UNL     1     -10.590  47.298 -24.884  1.00  0.00     0.042 C 
HETATM   12  C29 UNL     1     -10.031  47.963 -26.161  1.00  0.00     0.067 C 
HETATM   13  C30 UNL     1      -9.177  49.167 -25.726  1.00  0.00     0.047 C 
ENDROOT
BRANCH   4  14
HETATM   14  O1  UNL     1      -8.456  46.628 -29.387  1.00  0.00    -0.370 OA
HETATM   15  H26 UNL     1      -8.155  47.177 -30.131  1.00  0.00     0.212 HD
ENDBRANCH   4  14
BRANCH   6  16
HETATM   16  C20 UNL     1     -11.523  45.833 -28.254  1.00  0.00     0.012 C 
BRANCH  16  17
HETATM   17  C21 UNL     1     -11.393  45.601 -29.765  1.00  0.00     0.027 C 
BRANCH  17  18
HETATM   18  C22 UNL     1     -11.632  46.833 -30.633  1.00  0.00     0.164 C 
BRANCH  18  19
HETATM   19  O3  UNL     1     -11.930  47.958 -29.816  1.00  0.00    -0.401 OA
HETATM   20  H34 UNL     1     -12.007  48.726 -30.409  1.00  0.00     0.209 HD
ENDBRANCH  18  19
ENDBRANCH  17  18
ENDBRANCH  16  17
ENDBRANCH   6  16
BRANCH  12  21
HETATM   21  O5  UNL     1     -11.137  48.530 -26.882  1.00  0.00    -0.389 OA
HETATM   22  H46 UNL     1     -11.586  49.174 -26.303  1.00  0.00     0.210 HD
ENDBRANCH  12  21
BRANCH   1  23
HETATM   23  C14 UNL     1      -5.938  47.903 -26.165  1.00  0.00     0.011 C 
HETATM   24  C12 UNL     1      -4.695  48.405 -26.337  1.00  0.00    -0.063 C 
HETATM   25  C13 UNL     1      -3.913  48.293 -27.620  1.00  0.00     0.048 C 
BRANCH  24  26
HETATM   26  C11 UNL     1      -4.045  49.059 -25.196  1.00  0.00     0.006 C 
HETATM   27  C10 UNL     1      -3.330  48.457 -24.230  1.00  0.00     0.001 C 
BRANCH  27  28
HETATM   28  C9  UNL     1      -2.729  49.187 -23.134  1.00  0.00     0.002 C 
HETATM   29  C7  UNL     1      -2.115  48.668 -22.050  1.00  0.00    -0.084 C 
HETATM   30  C8  UNL     1      -1.960  47.199 -21.751  1.00  0.00     0.043 C 
BRANCH  29  31
HETATM   31  C6  UNL     1      -1.547  49.596 -20.987  1.00  0.00     0.037 C 
BRANCH  31  32
HETATM   32  C5  UNL     1      -0.403  50.473 -21.507  1.00  0.00     0.031 C 
BRANCH  32  33
HETATM   33  C4  UNL     1      -0.182  51.669 -20.619  1.00  0.00    -0.024 C 
HETATM   34  C2  UNL     1       0.355  52.856 -20.959  1.00  0.00    -0.091 C 
HETATM   35  C1  UNL     1       0.890  53.205 -22.322  1.00  0.00     0.042 C 
HETATM   36  C3  UNL     1       0.480  53.963 -19.944  1.00  0.00     0.042 C 
ENDBRANCH  32  33
ENDBRANCH  31  32
ENDBRANCH  29  31
ENDBRANCH  27  28
ENDBRANCH  24  26
ENDBRANCH   1  23
BRANCH   8  37
HETATM   37  C26 UNL     1      -9.842  42.759 -26.501  1.00  0.00     0.265 C 
HETATM   38  O4  UNL     1      -9.866  41.557 -26.259  1.00  0.00    -0.302 OA
ENDBRANCH   8  37
TORSDOF 13
ENDMDL
MODEL 6
REMARK minimizedAffinity -7.01840162
REMARK CNNscore 0.329332262
REMARK CNNaffinity 5.92238379
REMARK  13 active torsions:
REMARK  status: ('A' for Active; 'I' for Inactive)
REMARK    1  A    between atoms: C4_4  and  C5_5 
REMARK    2  A    between atoms: C5_5  and  C6_6 
REMARK    3  A    between atoms: C6_6  and  C7_7 
REMARK    4  A    between atoms: C9_9  and  C10_10 
REMARK    5  A    between atoms: C11_11  and  C12_12 
REMARK    6  A    between atoms: C14_14  and  C15_15 
REMARK    7  A    between atoms: C18_18  and  O1_19 
REMARK    8  A    between atoms: C19_21  and  C20_22 
REMARK    9  A    between atoms: C20_22  and  C21_23 
REMARK   10  A    between atoms: C21_23  and  C22_24 
REMARK   11  A    between atoms: C22_24  and  O3_25 
REMARK   12  A    between atoms: C24_27  and  C26_29 
REMARK   13  A    between atoms: C29_33  and  O5_35 
ROOT
HETATM    1  C15 UNL     1      -9.906  47.162 -29.677  1.00  0.00     0.149 C 
HETATM    2  C16 UNL     1     -10.539  46.099 -28.766  1.00  0.00     0.054 C 
HETATM    3  C17 UNL     1     -11.956  46.629 -28.401  1.00  0.00     0.050 C 
HETATM    4  C18 UNL     1     -12.138  47.665 -29.520  1.00  0.00     0.270 C 
HETATM    5  O2  UNL     1     -10.849  48.234 -29.734  1.00  0.00    -0.351 OA
HETATM    6  C19 UNL     1     -12.991  45.433 -28.457  1.00  0.00     0.032 C 
HETATM    7  C23 UNL     1     -12.679  44.448 -27.313  1.00  0.00    -0.066 C 
HETATM    8  C24 UNL     1     -12.382  43.131 -27.460  1.00  0.00    -0.021 C 
HETATM    9  C25 UNL     1     -12.001  42.232 -26.312  1.00  0.00     0.052 C 
HETATM   10  C27 UNL     1     -12.746  45.111 -25.949  1.00  0.00     0.038 C 
HETATM   11  C28 UNL     1     -11.778  46.282 -25.845  1.00  0.00     0.042 C 
HETATM   12  C29 UNL     1     -11.948  47.321 -26.976  1.00  0.00     0.067 C 
HETATM   13  C30 UNL     1     -10.895  48.421 -26.761  1.00  0.00     0.047 C 
ENDROOT
BRANCH   4  14
HETATM   14  O1  UNL     1     -12.502  47.073 -30.757  1.00  0.00    -0.370 OA
HETATM   15  H26 UNL     1     -12.607  47.831 -31.358  1.00  0.00     0.212 HD
ENDBRANCH   4  14
BRANCH   6  16
HETATM   16  C20 UNL     1     -14.515  45.744 -28.413  1.00  0.00     0.012 C 
BRANCH  16  17
HETATM   17  C21 UNL     1     -15.494  44.573 -28.561  1.00  0.00     0.027 C 
BRANCH  17  18
HETATM   18  C22 UNL     1     -16.430  44.357 -27.375  1.00  0.00     0.164 C 
BRANCH  18  19
HETATM   19  O3  UNL     1     -17.584  45.178 -27.505  1.00  0.00    -0.401 OA
HETATM   20  H34 UNL     1     -18.175  44.955 -26.764  1.00  0.00     0.209 HD
ENDBRANCH  18  19
ENDBRANCH  17  18
ENDBRANCH  16  17
ENDBRANCH   6  16
BRANCH  12  21
HETATM   21  O5  UNL     1     -13.215  47.973 -26.787  1.00  0.00    -0.389 OA
HETATM   22  H46 UNL     1     -13.219  48.390 -25.906  1.00  0.00     0.210 HD
ENDBRANCH  12  21
BRANCH   1  23
HETATM   23  C14 UNL     1      -8.538  47.603 -29.222  1.00  0.00     0.011 C 
HETATM   24  C12 UNL     1      -7.417  47.859 -29.932  1.00  0.00    -0.063 C 
HETATM   25  C13 UNL     1      -7.294  47.637 -31.418  1.00  0.00     0.048 C 
BRANCH  24  26
HETATM   26  C11 UNL     1      -6.232  48.337 -29.212  1.00  0.00     0.006 C 
HETATM   27  C10 UNL     1      -5.402  47.597 -28.456  1.00  0.00     0.001 C 
BRANCH  27  28
HETATM   28  C9  UNL     1      -4.256  48.161 -27.774  1.00  0.00     0.002 C 
HETATM   29  C7  UNL     1      -4.151  48.447 -26.460  1.00  0.00    -0.084 C 
HETATM   30  C8  UNL     1      -5.238  48.262 -25.433  1.00  0.00     0.043 C 
BRANCH  29  31
HETATM   31  C6  UNL     1      -2.863  49.049 -25.919  1.00  0.00     0.037 C 
BRANCH  31  32
HETATM   32  C5  UNL     1      -3.094  49.993 -24.735  1.00  0.00     0.031 C 
BRANCH  32  33
HETATM   33  C4  UNL     1      -2.252  49.604 -23.550  1.00  0.00    -0.024 C 
HETATM   34  C2  UNL     1      -1.801  50.403 -22.563  1.00  0.00    -0.091 C 
HETATM   35  C1  UNL     1      -2.028  51.889 -22.483  1.00  0.00     0.042 C 
HETATM   36  C3  UNL     1      -0.986  49.840 -21.429  1.00  0.00     0.042 C 
ENDBRANCH  32  33
ENDBRANCH  31  32
ENDBRANCH  29  31
ENDBRANCH  27  28
ENDBRANCH  24  26
ENDBRANCH   1  23
BRANCH   8  37
HETATM   37  C26 UNL     1     -12.423  42.452 -28.793  1.00  0.00     0.265 C 
HETATM   38  O4  UNL     1     -11.513  42.531 -29.612  1.00  0.00    -0.302 OA
ENDBRANCH   8  37
TORSDOF 13
ENDMDL
MODEL 7
REMARK minimizedAffinity -6.60138845
REMARK CNNscore 0.329074144
REMARK CNNaffinity 6.30859756
REMARK  13 active torsions:
REMARK  status: ('A' for Active; 'I' for Inactive)
REMARK    1  A    between atoms: C4_4  and  C5_5 
REMARK    2  A    between atoms: C5_5  and  C6_6 
REMARK    3  A    between atoms: C6_6  and  C7_7 
REMARK    4  A    between atoms: C9_9  and  C10_10 
REMARK    5  A    between atoms: C11_11  and  C12_12 
REMARK    6  A    between atoms: C14_14  and  C15_15 
REMARK    7  A    between atoms: C18_18  and  O1_19 
REMARK    8  A    between atoms: C19_21  and  C20_22 
REMARK    9  A    between atoms: C20_22  and  C21_23 
REMARK   10  A    between atoms: C21_23  and  C22_24 
REMARK   11  A    between atoms: C22_24  and  O3_25 
REMARK   12  A    between atoms: C24_27  and  C26_29 
REMARK   13  A    between atoms: C29_33  and  O5_35 
ROOT
HETATM    1  C15 UNL     1      -2.231  51.872 -12.475  1.00  0.00     0.149 C 
HETATM    2  C16 UNL     1      -1.628  51.571 -13.857  1.00  0.00     0.054 C 
HETATM    3  C17 UNL     1      -1.353  50.040 -13.885  1.00  0.00     0.050 C 
HETATM    4  C18 UNL     1      -2.267  49.594 -12.735  1.00  0.00     0.270 C 
HETATM    5  O2  UNL     1      -2.202  50.634 -11.763  1.00  0.00    -0.351 OA
HETATM    6  C19 UNL     1      -1.768  49.461 -15.299  1.00  0.00     0.032 C 
HETATM    7  C23 UNL     1      -0.803  50.012 -16.368  1.00  0.00    -0.066 C 
HETATM    8  C24 UNL     1      -1.159  50.735 -17.461  1.00  0.00    -0.021 C 
HETATM    9  C25 UNL     1      -0.166  51.321 -18.430  1.00  0.00     0.052 C 
HETATM   10  C27 UNL     1       0.643  49.650 -16.078  1.00  0.00     0.038 C 
HETATM   11  C28 UNL     1       1.092  50.171 -14.719  1.00  0.00     0.042 C 
HETATM   12  C29 UNL     1       0.168  49.735 -13.559  1.00  0.00     0.067 C 
HETATM   13  C30 UNL     1       0.722  50.353 -12.264  1.00  0.00     0.047 C 
ENDROOT
BRANCH   4  14
HETATM   14  O1  UNL     1      -3.630  49.519 -13.120  1.00  0.00    -0.370 OA
HETATM   15  H26 UNL     1      -4.084  49.206 -12.318  1.00  0.00     0.212 HD
ENDBRANCH   4  14
BRANCH   6  16
HETATM   16  C20 UNL     1      -1.860  47.920 -15.492  1.00  0.00     0.012 C 
BRANCH  16  17
HETATM   17  C21 UNL     1      -2.812  47.385 -16.569  1.00  0.00     0.027 C 
BRANCH  17  18
HETATM   18  C22 UNL     1      -4.097  46.753 -16.042  1.00  0.00     0.164 C 
BRANCH  18  19
HETATM   19  O3  UNL     1      -4.392  47.252 -14.744  1.00  0.00    -0.401 OA
HETATM   20  H34 UNL     1      -5.249  46.871 -14.483  1.00  0.00     0.209 HD
ENDBRANCH  18  19
ENDBRANCH  17  18
ENDBRANCH  16  17
ENDBRANCH   6  16
BRANCH  12  21
HETATM   21  O5  UNL     1       0.315  48.316 -13.390  1.00  0.00    -0.389 OA
HETATM   22  H46 UNL     1       1.251  48.122 -13.201  1.00  0.00     0.210 HD
ENDBRANCH  12  21
BRANCH   1  23
HETATM   23  C14 UNL     1      -1.529  52.989 -11.746  1.00  0.00     0.011 C 
HETATM   24  C12 UNL     1      -1.972  53.819 -10.775  1.00  0.00    -0.063 C 
HETATM   25  C13 UNL     1      -3.394  53.843 -10.274  1.00  0.00     0.048 C 
BRANCH  24  26
HETATM   26  C11 UNL     1      -1.029  54.786 -10.203  1.00  0.00     0.006 C 
HETATM   27  C10 UNL     1      -0.797  55.000  -8.897  1.00  0.00     0.001 C 
BRANCH  27  28
HETATM   28  C9  UNL     1       0.152  55.987  -8.424  1.00  0.00     0.002 C 
HETATM   29  C7  UNL     1       1.008  55.861  -7.389  1.00  0.00    -0.084 C 
HETATM   30  C8  UNL     1       1.123  54.659  -6.488  1.00  0.00     0.043 C 
BRANCH  29  31
HETATM   31  C6  UNL     1       1.932  57.015  -7.029  1.00  0.00     0.037 C 
BRANCH  31  32
HETATM   32  C5  UNL     1       3.391  56.758  -7.418  1.00  0.00     0.031 C 
BRANCH  32  33
HETATM   33  C4  UNL     1       3.597  56.904  -8.902  1.00  0.00    -0.024 C 
HETATM   34  C2  UNL     1       3.679  55.922  -9.821  1.00  0.00    -0.091 C 
HETATM   35  C1  UNL     1       3.621  54.449  -9.519  1.00  0.00     0.042 C 
HETATM   36  C3  UNL     1       3.861  56.248 -11.280  1.00  0.00     0.042 C 
ENDBRANCH  32  33
ENDBRANCH  31  32
ENDBRANCH  29  31
ENDBRANCH  27  28
ENDBRANCH  24  26
ENDBRANCH   1  23
BRANCH   8  37
HETATM   37  C26 UNL     1      -2.592  50.997 -17.805  1.00  0.00     0.265 C 
HETATM   38  O4  UNL     1      -2.935  51.759 -18.704  1.00  0.00    -0.302 OA
ENDBRANCH   8  37
TORSDOF 13
ENDMDL
MODEL 8
REMARK minimizedAffinity -7.40826797
REMARK CNNscore 0.238737166
REMARK CNNaffinity 5.94220495
REMARK  13 active torsions:
REMARK  status: ('A' for Active; 'I' for Inactive)
REMARK    1  A    between atoms: C4_4  and  C5_5 
REMARK    2  A    between atoms: C5_5  and  C6_6 
REMARK    3  A    between atoms: C6_6  and  C7_7 
REMARK    4  A    between atoms: C9_9  and  C10_10 
REMARK    5  A    between atoms: C11_11  and  C12_12 
REMARK    6  A    between atoms: C14_14  and  C15_15 
REMARK    7  A    between atoms: C18_18  and  O1_19 
REMARK    8  A    between atoms: C19_21  and  C20_22 
REMARK    9  A    between atoms: C20_22  and  C21_23 
REMARK   10  A    between atoms: C21_23  and  C22_24 
REMARK   11  A    between atoms: C22_24  and  O3_25 
REMARK   12  A    between atoms: C24_27  and  C26_29 
REMARK   13  A    between atoms: C29_33  and  O5_35 
ROOT
HETATM    1  C15 UNL     1      -5.859  47.552 -29.297  1.00  0.00     0.149 C 
HETATM    2  C16 UNL     1      -6.966  46.503 -29.485  1.00  0.00     0.054 C 
HETATM    3  C17 UNL     1      -8.132  47.229 -30.215  1.00  0.00     0.050 C 
HETATM    4  C18 UNL     1      -7.369  48.437 -30.779  1.00  0.00     0.270 C 
HETATM    5  O2  UNL     1      -6.402  48.778 -29.791  1.00  0.00    -0.351 OA
HETATM    6  C19 UNL     1      -8.731  46.271 -31.324  1.00  0.00     0.032 C 
HETATM    7  C23 UNL     1      -9.433  45.084 -30.634  1.00  0.00    -0.066 C 
HETATM    8  C24 UNL     1      -9.132  43.772 -30.813  1.00  0.00    -0.021 C 
HETATM    9  C25 UNL     1      -9.794  42.656 -30.048  1.00  0.00     0.052 C 
HETATM   10  C27 UNL     1     -10.544  45.536 -29.703  1.00  0.00     0.038 C 
HETATM   11  C28 UNL     1     -10.025  46.475 -28.622  1.00  0.00     0.042 C 
HETATM   12  C29 UNL     1      -9.245  47.686 -29.184  1.00  0.00     0.067 C 
HETATM   13  C30 UNL     1      -8.760  48.523 -27.989  1.00  0.00     0.047 C 
ENDROOT
BRANCH   4  14
HETATM   14  O1  UNL     1      -6.626  48.116 -31.944  1.00  0.00    -0.370 OA
HETATM   15  H26 UNL     1      -6.221  48.961 -32.205  1.00  0.00     0.212 HD
ENDBRANCH   4  14
BRANCH   6  16
HETATM   16  C20 UNL     1      -9.712  46.852 -32.382  1.00  0.00     0.012 C 
BRANCH  16  17
HETATM   17  C21 UNL     1     -11.014  46.088 -32.655  1.00  0.00     0.027 C 
BRANCH  17  18
HETATM   18  C22 UNL     1     -11.099  45.421 -34.025  1.00  0.00     0.164 C 
BRANCH  18  19
HETATM   19  O3  UNL     1     -12.412  44.924 -34.248  1.00  0.00    -0.401 OA
HETATM   20  H34 UNL     1     -12.430  44.571 -35.155  1.00  0.00     0.209 HD
ENDBRANCH  18  19
ENDBRANCH  17  18
ENDBRANCH  16  17
ENDBRANCH   6  16
BRANCH  12  21
HETATM   21  O5  UNL     1     -10.181  48.528 -29.877  1.00  0.00    -0.389 OA
HETATM   22  H46 UNL     1     -10.874  48.802 -29.249  1.00  0.00     0.210 HD
ENDBRANCH  12  21
BRANCH   1  23
HETATM   23  C14 UNL     1      -5.367  47.655 -27.876  1.00  0.00     0.011 C 
HETATM   24  C12 UNL     1      -4.476  48.504 -27.315  1.00  0.00    -0.063 C 
HETATM   25  C13 UNL     1      -3.678  49.519 -28.092  1.00  0.00     0.048 C 
BRANCH  24  26
HETATM   26  C11 UNL     1      -4.235  48.403 -25.871  1.00  0.00     0.006 C 
HETATM   27  C10 UNL     1      -3.104  48.732 -25.225  1.00  0.00     0.001 C 
BRANCH  27  28
HETATM   28  C9  UNL     1      -2.955  48.592 -23.791  1.00  0.00     0.002 C 
HETATM   29  C7  UNL     1      -3.150  49.545 -22.856  1.00  0.00    -0.084 C 
HETATM   30  C8  UNL     1      -3.537  50.976 -23.131  1.00  0.00     0.043 C 
BRANCH  29  31
HETATM   31  C6  UNL     1      -2.934  49.216 -21.387  1.00  0.00     0.037 C 
BRANCH  31  32
HETATM   32  C5  UNL     1      -1.480  48.862 -21.060  1.00  0.00     0.031 C 
BRANCH  32  33
HETATM   33  C4  UNL     1      -0.560  50.024 -21.326  1.00  0.00    -0.024 C 
HETATM   34  C2  UNL     1      -0.388  51.125 -20.570  1.00  0.00    -0.091 C 
HETATM   35  C1  UNL     1      -1.138  51.429 -19.301  1.00  0.00     0.042 C 
HETATM   36  C3  UNL     1       0.602  52.187 -20.972  1.00  0.00     0.042 C 
ENDBRANCH  32  33
ENDBRANCH  31  32
ENDBRANCH  29  31
ENDBRANCH  27  28
ENDBRANCH  24  26
ENDBRANCH   1  23
BRANCH   8  37
HETATM   37  C26 UNL     1      -8.113  43.321 -31.811  1.00  0.00     0.265 C 
HETATM   38  O4  UNL     1      -8.409  42.882 -32.918  1.00  0.00    -0.302 OA
ENDBRANCH   8  37
TORSDOF 13
ENDMDL
MODEL 9
REMARK minimizedAffinity -7.25082827
REMARK CNNscore 0.23854664
REMARK CNNaffinity 5.4426713
REMARK  13 active torsions:
REMARK  status: ('A' for Active; 'I' for Inactive)
REMARK    1  A    between atoms: C4_4  and  C5_5 
REMARK    2  A    between atoms: C5_5  and  C6_6 
REMARK    3  A    between atoms: C6_6  and  C7_7 
REMARK    4  A    between atoms: C9_9  and  C10_10 
REMARK    5  A    between atoms: C11_11  and  C12_12 
REMARK    6  A    between atoms: C14_14  and  C15_15 
REMARK    7  A    between atoms: C18_18  and  O1_19 
REMARK    8  A    between atoms: C19_21  and  C20_22 
REMARK    9  A    between atoms: C20_22  and  C21_23 
REMARK   10  A    between atoms: C21_23  and  C22_24 
REMARK   11  A    between atoms: C22_24  and  O3_25 
REMARK   12  A    between atoms: C24_27  and  C26_29 
REMARK   13  A    between atoms: C29_33  and  O5_35 
ROOT
HETATM    1  C15 UNL     1      -8.073  46.608 -27.962  1.00  0.00     0.149 C 
HETATM    2  C16 UNL     1      -8.010  46.034 -29.386  1.00  0.00     0.054 C 
HETATM    3  C17 UNL     1      -7.486  47.182 -30.294  1.00  0.00     0.050 C 
HETATM    4  C18 UNL     1      -6.861  48.090 -29.225  1.00  0.00     0.270 C 
HETATM    5  O2  UNL     1      -7.708  47.984 -28.084  1.00  0.00    -0.351 OA
HETATM    6  C19 UNL     1      -6.442  46.594 -31.329  1.00  0.00     0.032 C 
HETATM    7  C23 UNL     1      -7.184  45.674 -32.320  1.00  0.00    -0.066 C 
HETATM    8  C24 UNL     1      -6.916  44.360 -32.534  1.00  0.00    -0.021 C 
HETATM    9  C25 UNL     1      -7.729  43.485 -33.453  1.00  0.00     0.052 C 
HETATM   10  C27 UNL     1      -8.284  46.405 -33.070  1.00  0.00     0.038 C 
HETATM   11  C28 UNL     1      -9.310  47.006 -32.119  1.00  0.00     0.042 C 
HETATM   12  C29 UNL     1      -8.685  47.909 -31.032  1.00  0.00     0.067 C 
HETATM   13  C30 UNL     1      -9.826  48.418 -30.134  1.00  0.00     0.047 C 
ENDROOT
BRANCH   4  14
HETATM   14  O1  UNL     1      -5.589  47.630 -28.796  1.00  0.00    -0.370 OA
HETATM   15  H26 UNL     1      -5.302  48.299 -28.150  1.00  0.00     0.212 HD
ENDBRANCH   4  14
BRANCH   6  16
HETATM   16  C20 UNL     1      -5.561  47.571 -32.159  1.00  0.00     0.012 C 
BRANCH  16  17
HETATM   17  C21 UNL     1      -4.358  46.993 -32.915  1.00  0.00     0.027 C 
BRANCH  17  18
HETATM   18  C22 UNL     1      -3.802  47.881 -34.024  1.00  0.00     0.164 C 
BRANCH  18  19
HETATM   19  O3  UNL     1      -2.455  48.234 -33.741  1.00  0.00    -0.401 OA
HETATM   20  H34 UNL     1      -2.128  48.741 -34.506  1.00  0.00     0.209 HD
ENDBRANCH  18  19
ENDBRANCH  17  18
ENDBRANCH  16  17
ENDBRANCH   6  16
BRANCH  12  21
HETATM   21  O5  UNL     1      -8.168  49.082 -31.681  1.00  0.00    -0.389 OA
HETATM   22  H46 UNL     1      -8.899  49.527 -32.146  1.00  0.00     0.210 HD
ENDBRANCH  12  21
BRANCH   1  23
HETATM   23  C14 UNL     1      -9.409  46.409 -27.293  1.00  0.00     0.011 C 
HETATM   24  C12 UNL     1      -9.991  47.083 -26.276  1.00  0.00    -0.063 C 
HETATM   25  C13 UNL     1      -9.313  48.182 -25.499  1.00  0.00     0.048 C 
BRANCH  24  26
HETATM   26  C11 UNL     1     -11.346  46.694 -25.870  1.00  0.00     0.006 C 
HETATM   27  C10 UNL     1     -12.497  47.230 -26.310  1.00  0.00     0.001 C 
BRANCH  27  28
HETATM   28  C9  UNL     1     -13.794  46.784 -25.845  1.00  0.00     0.002 C 
HETATM   29  C7  UNL     1     -14.740  46.144 -26.563  1.00  0.00    -0.084 C 
HETATM   30  C8  UNL     1     -14.640  45.789 -28.025  1.00  0.00     0.043 C 
BRANCH  29  31
HETATM   31  C6  UNL     1     -16.056  45.759 -25.905  1.00  0.00     0.037 C 
BRANCH  31  32
HETATM   32  C5  UNL     1     -16.441  46.687 -24.748  1.00  0.00     0.031 C 
BRANCH  32  33
HETATM   33  C4  UNL     1     -17.930  46.698 -24.526  1.00  0.00    -0.024 C 
HETATM   34  C2  UNL     1     -18.865  45.990 -25.189  1.00  0.00    -0.091 C 
HETATM   35  C1  UNL     1     -18.590  45.061 -26.341  1.00  0.00     0.042 C 
HETATM   36  C3  UNL     1     -20.320  46.100 -24.817  1.00  0.00     0.042 C 
ENDBRANCH  32  33
ENDBRANCH  31  32
ENDBRANCH  29  31
ENDBRANCH  27  28
ENDBRANCH  24  26
ENDBRANCH   1  23
BRANCH   8  37
HETATM   37  C26 UNL     1      -5.763  43.669 -31.877  1.00  0.00     0.265 C 
HETATM   38  O4  UNL     1      -5.278  42.625 -32.303  1.00  0.00    -0.302 OA
ENDBRANCH   8  37
TORSDOF 13
ENDMDL
