MODEL 1
REMARK minimizedAffinity -8.21092224
REMARK  8 active torsions:
REMARK  status: ('A' for Active; 'I' for Inactive)
REMARK    1  A    between atoms: C4_4  and  C5_5 
REMARK    2  A    between atoms: C5_5  and  C6_6 
REMARK    3  A    between atoms: C6_6  and  C7_7 
REMARK    4  A    between atoms: C7_7  and  C9_9 
REMARK    5  A    between atoms: C21_21  and  C22_22 
REMARK    6  A    between atoms: C22_22  and  C23_23 
REMARK    7  A    between atoms: C23_23  and  C24_24 
REMARK    8  A    between atoms: C24_24  and  O1_25 
ROOT
HETATM    1  C9  UNL     1      -5.776   6.981  14.578  1.00  0.00    -0.002 C 
HETATM    2  C10 UNL     1      -6.120   8.059  13.508  1.00  0.00     0.006 C 
HETATM    3  C11 UNL     1      -4.766   8.604  12.975  1.00  0.00     0.011 C 
HETATM    4  C12 UNL     1      -3.709   8.050  13.956  1.00  0.00    -0.032 C 
HETATM    5  C13 UNL     1      -3.747   9.021  15.182  1.00  0.00     0.016 C 
HETATM    6  C14 UNL     1      -2.270   7.887  13.393  1.00  0.00     0.003 C 
HETATM    7  C15 UNL     1      -1.617   9.179  12.853  1.00  0.00     0.010 C 
HETATM    8  C16 UNL     1      -0.142   8.984  12.483  1.00  0.00     0.035 C 
HETATM    9  C17 UNL     1       0.156   7.539  12.156  1.00  0.00    -0.073 C 
HETATM   10  C18 UNL     1       0.520   7.106  10.919  1.00  0.00    -0.085 C 
HETATM   11  C19 UNL     1       0.859   5.669  10.585  1.00  0.00     0.043 C 
HETATM   12  C20 UNL     1       0.637   7.995   9.702  1.00  0.00     0.043 C 
HETATM   13  C21 UNL     1      -0.069   6.588  13.362  1.00  0.00     0.023 C 
HETATM   14  C25 UNL     1      -1.278   7.060  14.317  1.00  0.00    -0.032 C 
HETATM   15  C26 UNL     1      -0.755   7.898  15.513  1.00  0.00     0.016 C 
HETATM   16  C27 UNL     1      -1.988   5.795  14.934  1.00  0.00     0.011 C 
HETATM   17  C28 UNL     1      -3.473   5.947  15.339  1.00  0.00     0.011 C 
HETATM   18  C29 UNL     1      -4.303   6.615  14.232  1.00  0.00    -0.032 C 
HETATM   19  C30 UNL     1      -4.284   5.653  13.002  1.00  0.00     0.016 C 
ENDROOT
BRANCH   1  20
HETATM   20  C7  UNL     1      -6.814   5.832  14.775  1.00  0.00    -0.014 C 
HETATM   21  C8  UNL     1      -7.050   5.418  16.232  1.00  0.00     0.010 C 
BRANCH  20  22
HETATM   22  C6  UNL     1      -6.372   4.602  13.929  1.00  0.00     0.008 C 
BRANCH  22  23
HETATM   23  C5  UNL     1      -7.487   3.870  13.166  1.00  0.00     0.028 C 
BRANCH  23  24
HETATM   24  C4  UNL     1      -7.116   2.519  12.622  1.00  0.00    -0.025 C 
HETATM   25  C2  UNL     1      -6.258   2.252  11.618  1.00  0.00    -0.091 C 
HETATM   26  C1  UNL     1      -6.005   0.835  11.179  1.00  0.00     0.042 C 
HETATM   27  C3  UNL     1      -5.477   3.288  10.858  1.00  0.00     0.042 C 
ENDBRANCH  23  24
ENDBRANCH  22  23
ENDBRANCH  20  22
ENDBRANCH   1  20
BRANCH  13  28
HETATM   28  C22 UNL     1       1.301   6.305  14.031  1.00  0.00     0.012 C 
BRANCH  28  29
HETATM   29  C23 UNL     1       2.325   7.436  13.877  1.00  0.00     0.027 C 
BRANCH  29  30
HETATM   30  C24 UNL     1       3.046   7.740  15.186  1.00  0.00     0.164 C 
BRANCH  30  31
HETATM   31  O1  UNL     1       3.364   6.530  15.856  1.00  0.00    -0.401 OA
HETATM   32  H42 UNL     1       3.824   6.770  16.678  1.00  0.00     0.209 HD
ENDBRANCH  30  31
ENDBRANCH  29  30
ENDBRANCH  28  29
ENDBRANCH  13  28
TORSDOF 8
ENDMDL
MODEL 2
REMARK minimizedAffinity -7.91285276
REMARK  8 active torsions:
REMARK  status: ('A' for Active; 'I' for Inactive)
REMARK    1  A    between atoms: C4_4  and  C5_5 
REMARK    2  A    between atoms: C5_5  and  C6_6 
REMARK    3  A    between atoms: C6_6  and  C7_7 
REMARK    4  A    between atoms: C7_7  and  C9_9 
REMARK    5  A    between atoms: C21_21  and  C22_22 
REMARK    6  A    between atoms: C22_22  and  C23_23 
REMARK    7  A    between atoms: C23_23  and  C24_24 
REMARK    8  A    between atoms: C24_24  and  O1_25 
ROOT
HETATM    1  C9  UNL     1      -5.737   6.458  14.453  1.00  0.00    -0.002 C 
HETATM    2  C10 UNL     1      -6.173   7.552  13.435  1.00  0.00     0.006 C 
HETATM    3  C11 UNL     1      -4.872   8.240  12.936  1.00  0.00     0.011 C 
HETATM    4  C12 UNL     1      -3.771   7.733  13.893  1.00  0.00    -0.032 C 
HETATM    5  C13 UNL     1      -3.896   8.635  15.165  1.00  0.00     0.016 C 
HETATM    6  C14 UNL     1      -2.323   7.724  13.330  1.00  0.00     0.003 C 
HETATM    7  C15 UNL     1      -1.786   9.093  12.857  1.00  0.00     0.010 C 
HETATM    8  C16 UNL     1      -0.299   9.047  12.485  1.00  0.00     0.035 C 
HETATM    9  C17 UNL     1       0.126   7.651  12.090  1.00  0.00    -0.073 C 
HETATM   10  C18 UNL     1       0.527   7.313  10.835  1.00  0.00    -0.085 C 
HETATM   11  C19 UNL     1       0.991   5.930  10.434  1.00  0.00     0.043 C 
HETATM   12  C20 UNL     1       0.566   8.267   9.664  1.00  0.00     0.043 C 
HETATM   13  C21 UNL     1      -0.016   6.627  13.247  1.00  0.00     0.023 C 
HETATM   14  C25 UNL     1      -1.263   6.944  14.218  1.00  0.00    -0.032 C 
HETATM   15  C26 UNL     1      -0.816   7.765  15.456  1.00  0.00     0.016 C 
HETATM   16  C27 UNL     1      -1.859   5.593  14.769  1.00  0.00     0.011 C 
HETATM   17  C28 UNL     1      -3.352   5.594  15.174  1.00  0.00     0.011 C 
HETATM   18  C29 UNL     1      -4.236   6.239  14.097  1.00  0.00    -0.032 C 
HETATM   19  C30 UNL     1      -4.132   5.345  12.821  1.00  0.00     0.016 C 
ENDROOT
BRANCH   1  20
HETATM   20  C7  UNL     1      -6.670   5.214  14.588  1.00  0.00    -0.014 C 
HETATM   21  C8  UNL     1      -7.533   4.918  13.356  1.00  0.00     0.010 C 
BRANCH  20  22
HETATM   22  C6  UNL     1      -7.568   5.391  15.848  1.00  0.00     0.008 C 
BRANCH  22  23
HETATM   23  C5  UNL     1      -8.004   6.828  16.170  1.00  0.00     0.028 C 
BRANCH  23  24
HETATM   24  C4  UNL     1      -9.134   7.361  15.334  1.00  0.00    -0.025 C 
HETATM   25  C2  UNL     1     -10.096   8.224  15.718  1.00  0.00    -0.091 C 
HETATM   26  C1  UNL     1     -11.173   8.652  14.758  1.00  0.00     0.042 C 
HETATM   27  C3  UNL     1     -10.196   8.844  17.083  1.00  0.00     0.042 C 
ENDBRANCH  23  24
ENDBRANCH  22  23
ENDBRANCH  20  22
ENDBRANCH   1  20
BRANCH  13  28
HETATM   28  C22 UNL     1       1.373   6.433  13.908  1.00  0.00     0.012 C 
BRANCH  28  29
HETATM   29  C23 UNL     1       2.283   7.665  13.838  1.00  0.00     0.027 C 
BRANCH  29  30
HETATM   30  C24 UNL     1       3.201   7.771  15.052  1.00  0.00     0.164 C 
BRANCH  30  31
HETATM   31  O1  UNL     1       3.084   6.603  15.850  1.00  0.00    -0.401 OA
HETATM   32  H42 UNL     1       3.686   6.711  16.605  1.00  0.00     0.209 HD
ENDBRANCH  30  31
ENDBRANCH  29  30
ENDBRANCH  28  29
ENDBRANCH  13  28
TORSDOF 8
ENDMDL
MODEL 3
REMARK minimizedAffinity -7.59420013
REMARK  8 active torsions:
REMARK  status: ('A' for Active; 'I' for Inactive)
REMARK    1  A    between atoms: C4_4  and  C5_5 
REMARK    2  A    between atoms: C5_5  and  C6_6 
REMARK    3  A    between atoms: C6_6  and  C7_7 
REMARK    4  A    between atoms: C7_7  and  C9_9 
REMARK    5  A    between atoms: C21_21  and  C22_22 
REMARK    6  A    between atoms: C22_22  and  C23_23 
REMARK    7  A    between atoms: C23_23  and  C24_24 
REMARK    8  A    between atoms: C24_24  and  O1_25 
ROOT
HETATM    1  C9  UNL     1      -1.565   7.361  14.145  1.00  0.00    -0.002 C 
HETATM    2  C10 UNL     1      -0.884   6.180  14.897  1.00  0.00     0.006 C 
HETATM    3  C11 UNL     1       0.241   5.649  13.967  1.00  0.00     0.011 C 
HETATM    4  C12 UNL     1      -0.021   6.333  12.607  1.00  0.00    -0.032 C 
HETATM    5  C13 UNL     1      -1.141   5.473  11.932  1.00  0.00     0.016 C 
HETATM    6  C14 UNL     1       1.211   6.509  11.678  1.00  0.00     0.003 C 
HETATM    7  C15 UNL     1       1.942   5.205  11.289  1.00  0.00     0.010 C 
HETATM    8  C16 UNL     1       3.031   5.431  10.232  1.00  0.00     0.035 C 
HETATM    9  C17 UNL     1       3.540   6.854  10.265  1.00  0.00    -0.073 C 
HETATM   10  C18 UNL     1       4.808   7.192  10.622  1.00  0.00    -0.085 C 
HETATM   11  C19 UNL     1       5.344   8.607  10.622  1.00  0.00     0.043 C 
HETATM   12  C20 UNL     1       5.862   6.205  11.071  1.00  0.00     0.043 C 
HETATM   13  C21 UNL     1       2.443   7.896   9.919  1.00  0.00     0.023 C 
HETATM   14  C25 UNL     1       0.978   7.456  10.426  1.00  0.00    -0.032 C 
HETATM   15  C26 UNL     1       0.182   6.751   9.296  1.00  0.00     0.016 C 
HETATM   16  C27 UNL     1       0.150   8.739  10.822  1.00  0.00     0.011 C 
HETATM   17  C28 UNL     1      -0.971   8.558  11.872  1.00  0.00     0.011 C 
HETATM   18  C29 UNL     1      -0.489   7.760  13.092  1.00  0.00    -0.032 C 
HETATM   19  C30 UNL     1       0.623   8.609  13.785  1.00  0.00     0.016 C 
ENDROOT
BRANCH   1  20
HETATM   20  C7  UNL     1      -2.208   8.476  15.027  1.00  0.00    -0.014 C 
HETATM   21  C8  UNL     1      -1.770   8.470  16.496  1.00  0.00     0.010 C 
BRANCH  20  22
HETATM   22  C6  UNL     1      -3.758   8.370  14.925  1.00  0.00     0.008 C 
BRANCH  22  23
HETATM   23  C5  UNL     1      -4.328   8.137  13.517  1.00  0.00     0.028 C 
BRANCH  23  24
HETATM   24  C4  UNL     1      -4.776   6.732  13.227  1.00  0.00    -0.025 C 
HETATM   25  C2  UNL     1      -5.958   6.171  13.551  1.00  0.00    -0.091 C 
HETATM   26  C1  UNL     1      -6.250   4.737  13.199  1.00  0.00     0.042 C 
HETATM   27  C3  UNL     1      -7.080   6.879  14.258  1.00  0.00     0.042 C 
ENDBRANCH  23  24
ENDBRANCH  22  23
ENDBRANCH  20  22
ENDBRANCH   1  20
BRANCH  13  28
HETATM   28  C22 UNL     1       2.594   8.296   8.428  1.00  0.00     0.012 C 
BRANCH  28  29
HETATM   29  C23 UNL     1       1.389   7.934   7.552  1.00  0.00     0.027 C 
BRANCH  29  30
HETATM   30  C24 UNL     1       1.800   7.175   6.295  1.00  0.00     0.164 C 
BRANCH  30  31
HETATM   31  O1  UNL     1       2.404   5.940   6.651  1.00  0.00    -0.401 OA
HETATM   32  H42 UNL     1       2.645   5.491   5.824  1.00  0.00     0.209 HD
ENDBRANCH  30  31
ENDBRANCH  29  30
ENDBRANCH  28  29
ENDBRANCH  13  28
TORSDOF 8
ENDMDL
MODEL 4
REMARK minimizedAffinity -7.59328508
REMARK  8 active torsions:
REMARK  status: ('A' for Active; 'I' for Inactive)
REMARK    1  A    between atoms: C4_4  and  C5_5 
REMARK    2  A    between atoms: C5_5  and  C6_6 
REMARK    3  A    between atoms: C6_6  and  C7_7 
REMARK    4  A    between atoms: C7_7  and  C9_9 
REMARK    5  A    between atoms: C21_21  and  C22_22 
REMARK    6  A    between atoms: C22_22  and  C23_23 
REMARK    7  A    between atoms: C23_23  and  C24_24 
REMARK    8  A    between atoms: C24_24  and  O1_25 
ROOT
HETATM    1  C9  UNL     1       0.804   7.292  10.804  1.00  0.00    -0.002 C 
HETATM    2  C10 UNL     1       0.015   6.025  10.362  1.00  0.00     0.006 C 
HETATM    3  C11 UNL     1      -0.926   5.653  11.541  1.00  0.00     0.011 C 
HETATM    4  C12 UNL     1      -0.437   6.522  12.720  1.00  0.00    -0.032 C 
HETATM    5  C13 UNL     1       0.792   5.752  13.307  1.00  0.00     0.016 C 
HETATM    6  C14 UNL     1      -1.490   6.850  13.814  1.00  0.00     0.003 C 
HETATM    7  C15 UNL     1      -2.129   5.627  14.510  1.00  0.00     0.010 C 
HETATM    8  C16 UNL     1      -3.018   6.021  15.695  1.00  0.00     0.035 C 
HETATM    9  C17 UNL     1      -3.540   7.432  15.546  1.00  0.00    -0.073 C 
HETATM   10  C18 UNL     1      -4.854   7.734  15.369  1.00  0.00    -0.085 C 
HETATM   11  C19 UNL     1      -5.396   9.143  15.257  1.00  0.00     0.043 C 
HETATM   12  C20 UNL     1      -5.960   6.709  15.259  1.00  0.00     0.043 C 
HETATM   13  C21 UNL     1      -2.410   8.496  15.540  1.00  0.00     0.023 C 
HETATM   14  C25 UNL     1      -1.051   7.965  14.855  1.00  0.00    -0.032 C 
HETATM   15  C26 UNL     1      -0.063   7.418  15.919  1.00  0.00     0.016 C 
HETATM   16  C27 UNL     1      -0.318   9.163  14.139  1.00  0.00     0.011 C 
HETATM   17  C28 UNL     1       0.604   8.815  12.947  1.00  0.00     0.011 C 
HETATM   18  C29 UNL     1      -0.076   7.856  11.959  1.00  0.00    -0.032 C 
HETATM   19  C30 UNL     1      -1.300   8.613  11.354  1.00  0.00     0.016 C 
ENDROOT
BRANCH   1  20
HETATM   20  C7  UNL     1       1.272   8.258   9.671  1.00  0.00    -0.014 C 
HETATM   21  C8  UNL     1       0.294   8.400   8.499  1.00  0.00     0.010 C 
BRANCH  20  22
HETATM   22  C6  UNL     1       2.667   7.794   9.157  1.00  0.00     0.008 C 
BRANCH  22  23
HETATM   23  C5  UNL     1       2.677   6.548   8.260  1.00  0.00     0.028 C 
BRANCH  23  24
HETATM   24  C4  UNL     1       3.424   5.365   8.808  1.00  0.00    -0.025 C 
HETATM   25  C2  UNL     1       3.829   4.271   8.131  1.00  0.00    -0.091 C 
HETATM   26  C1  UNL     1       4.560   3.159   8.835  1.00  0.00     0.042 C 
HETATM   27  C3  UNL     1       3.620   4.046   6.660  1.00  0.00     0.042 C 
ENDBRANCH  23  24
ENDBRANCH  22  23
ENDBRANCH  20  22
ENDBRANCH   1  20
BRANCH  13  28
HETATM   28  C22 UNL     1      -2.302   9.110  16.960  1.00  0.00     0.012 C 
BRANCH  28  29
HETATM   29  C23 UNL     1      -2.484  10.632  17.005  1.00  0.00     0.027 C 
BRANCH  29  30
HETATM   30  C24 UNL     1      -3.474  11.059  18.084  1.00  0.00     0.164 C 
BRANCH  30  31
HETATM   31  O1  UNL     1      -3.629  10.021  19.039  1.00  0.00    -0.401 OA
HETATM   32  H42 UNL     1      -4.261  10.337  19.705  1.00  0.00     0.209 HD
ENDBRANCH  30  31
ENDBRANCH  29  30
ENDBRANCH  28  29
ENDBRANCH  13  28
TORSDOF 8
ENDMDL
MODEL 5
REMARK minimizedAffinity -7.48604965
REMARK  8 active torsions:
REMARK  status: ('A' for Active; 'I' for Inactive)
REMARK    1  A    between atoms: C4_4  and  C5_5 
REMARK    2  A    between atoms: C5_5  and  C6_6 
REMARK    3  A    between atoms: C6_6  and  C7_7 
REMARK    4  A    between atoms: C7_7  and  C9_9 
REMARK    5  A    between atoms: C21_21  and  C22_22 
REMARK    6  A    between atoms: C22_22  and  C23_23 
REMARK    7  A    between atoms: C23_23  and  C24_24 
REMARK    8  A    between atoms: C24_24  and  O1_25 
ROOT
HETATM    1  C9  UNL     1      -2.188   8.275  13.913  1.00  0.00    -0.002 C 
HETATM    2  C10 UNL     1      -1.290   9.221  14.764  1.00  0.00     0.006 C 
HETATM    3  C11 UNL     1       0.178   8.939  14.344  1.00  0.00     0.011 C 
HETATM    4  C12 UNL     1       0.102   7.648  13.498  1.00  0.00    -0.032 C 
HETATM    5  C13 UNL     1       0.057   6.484  14.543  1.00  0.00     0.016 C 
HETATM    6  C14 UNL     1       1.232   7.443  12.453  1.00  0.00     0.003 C 
HETATM    7  C15 UNL     1       2.668   7.414  13.024  1.00  0.00     0.010 C 
HETATM    8  C16 UNL     1       3.714   7.030  11.971  1.00  0.00     0.035 C 
HETATM    9  C17 UNL     1       3.234   7.355  10.575  1.00  0.00    -0.073 C 
HETATM   10  C18 UNL     1       3.810   8.297   9.781  1.00  0.00    -0.085 C 
HETATM   11  C19 UNL     1       3.365   8.607   8.368  1.00  0.00     0.043 C 
HETATM   12  C20 UNL     1       4.975   9.167  10.194  1.00  0.00     0.043 C 
HETATM   13  C21 UNL     1       1.966   6.556  10.171  1.00  0.00     0.023 C 
HETATM   14  C25 UNL     1       0.982   6.270  11.415  1.00  0.00    -0.032 C 
HETATM   15  C26 UNL     1       1.250   4.871  12.032  1.00  0.00     0.016 C 
HETATM   16  C27 UNL     1      -0.513   6.257  10.912  1.00  0.00     0.011 C 
HETATM   17  C28 UNL     1      -1.607   6.621  11.943  1.00  0.00     0.011 C 
HETATM   18  C29 UNL     1      -1.253   7.893  12.727  1.00  0.00    -0.032 C 
HETATM   19  C30 UNL     1      -1.214   9.069  11.700  1.00  0.00     0.016 C 
ENDROOT
BRANCH   1  20
HETATM   20  C7  UNL     1      -3.635   8.770  13.605  1.00  0.00    -0.014 C 
HETATM   21  C8  UNL     1      -4.322   9.513  14.757  1.00  0.00     0.010 C 
BRANCH  20  22
HETATM   22  C6  UNL     1      -4.499   7.555  13.154  1.00  0.00     0.008 C 
BRANCH  22  23
HETATM   23  C5  UNL     1      -4.621   6.402  14.162  1.00  0.00     0.028 C 
BRANCH  23  24
HETATM   24  C4  UNL     1      -5.817   5.510  13.979  1.00  0.00    -0.025 C 
HETATM   25  C2  UNL     1      -5.907   4.418  13.195  1.00  0.00    -0.091 C 
HETATM   26  C1  UNL     1      -7.190   3.635  13.110  1.00  0.00     0.042 C 
HETATM   27  C3  UNL     1      -4.786   3.867  12.359  1.00  0.00     0.042 C 
ENDBRANCH  23  24
ENDBRANCH  22  23
ENDBRANCH  20  22
ENDBRANCH   1  20
BRANCH  13  28
HETATM   28  C22 UNL     1       2.401   5.342   9.309  1.00  0.00     0.012 C 
BRANCH  28  29
HETATM   29  C23 UNL     1       3.785   4.783   9.660  1.00  0.00     0.027 C 
BRANCH  29  30
HETATM   30  C24 UNL     1       4.223   3.688   8.693  1.00  0.00     0.164 C 
BRANCH  30  31
HETATM   31  O1  UNL     1       3.442   3.746   7.510  1.00  0.00    -0.401 OA
HETATM   32  H42 UNL     1       3.756   3.037   6.924  1.00  0.00     0.209 HD
ENDBRANCH  30  31
ENDBRANCH  29  30
ENDBRANCH  28  29
ENDBRANCH  13  28
TORSDOF 8
ENDMDL
MODEL 6
REMARK minimizedAffinity -7.46818066
REMARK  8 active torsions:
REMARK  status: ('A' for Active; 'I' for Inactive)
REMARK    1  A    between atoms: C4_4  and  C5_5 
REMARK    2  A    between atoms: C5_5  and  C6_6 
REMARK    3  A    between atoms: C6_6  and  C7_7 
REMARK    4  A    between atoms: C7_7  and  C9_9 
REMARK    5  A    between atoms: C21_21  and  C22_22 
REMARK    6  A    between atoms: C22_22  and  C23_23 
REMARK    7  A    between atoms: C23_23  and  C24_24 
REMARK    8  A    between atoms: C24_24  and  O1_25 
ROOT
HETATM    1  C9  UNL     1      -2.958   7.900  14.452  1.00  0.00    -0.002 C 
HETATM    2  C10 UNL     1      -2.568   7.973  15.957  1.00  0.00     0.006 C 
HETATM    3  C11 UNL     1      -1.019   7.885  16.021  1.00  0.00     0.011 C 
HETATM    4  C12 UNL     1      -0.593   7.466  14.597  1.00  0.00    -0.032 C 
HETATM    5  C13 UNL     1      -0.792   5.915  14.556  1.00  0.00     0.016 C 
HETATM    6  C14 UNL     1       0.841   7.876  14.160  1.00  0.00     0.003 C 
HETATM    7  C15 UNL     1       1.985   7.340  15.050  1.00  0.00     0.010 C 
HETATM    8  C16 UNL     1       3.373   7.628  14.464  1.00  0.00     0.035 C 
HETATM    9  C17 UNL     1       3.342   8.826  13.543  1.00  0.00    -0.073 C 
HETATM   10  C18 UNL     1       3.988   9.994  13.805  1.00  0.00    -0.085 C 
HETATM   11  C19 UNL     1       3.998  11.188  12.876  1.00  0.00     0.043 C 
HETATM   12  C20 UNL     1       4.785  10.267  15.060  1.00  0.00     0.043 C 
HETATM   13  C21 UNL     1       2.435   8.611  12.302  1.00  0.00     0.023 C 
HETATM   14  C25 UNL     1       1.151   7.688  12.615  1.00  0.00    -0.032 C 
HETATM   15  C26 UNL     1       1.424   6.205  12.247  1.00  0.00     0.016 C 
HETATM   16  C27 UNL     1      -0.064   8.154  11.725  1.00  0.00     0.011 C 
HETATM   17  C28 UNL     1      -1.484   7.870  12.265  1.00  0.00     0.011 C 
HETATM   18  C29 UNL     1      -1.630   8.287  13.737  1.00  0.00    -0.032 C 
HETATM   19  C30 UNL     1      -1.444   9.836  13.795  1.00  0.00     0.016 C 
ENDROOT
BRANCH   1  20
HETATM   20  C7  UNL     1      -4.279   8.618  14.033  1.00  0.00    -0.014 C 
HETATM   21  C8  UNL     1      -5.060   9.256  15.188  1.00  0.00     0.010 C 
BRANCH  20  22
HETATM   22  C6  UNL     1      -5.180   7.609  13.262  1.00  0.00     0.008 C 
BRANCH  22  23
HETATM   23  C5  UNL     1      -4.821   6.124  13.421  1.00  0.00     0.028 C 
BRANCH  23  24
HETATM   24  C4  UNL     1      -5.988   5.195  13.606  1.00  0.00    -0.025 C 
HETATM   25  C2  UNL     1      -6.205   4.024  12.974  1.00  0.00    -0.091 C 
HETATM   26  C1  UNL     1      -7.440   3.213  13.263  1.00  0.00     0.042 C 
HETATM   27  C3  UNL     1      -5.279   3.411  11.962  1.00  0.00     0.042 C 
ENDBRANCH  23  24
ENDBRANCH  22  23
ENDBRANCH  20  22
ENDBRANCH   1  20
BRANCH  13  28
HETATM   28  C22 UNL     1       3.328   8.210  11.100  1.00  0.00     0.012 C 
BRANCH  28  29
HETATM   29  C23 UNL     1       3.791   6.748  11.118  1.00  0.00     0.027 C 
BRANCH  29  30
HETATM   30  C24 UNL     1       5.299   6.626  11.312  1.00  0.00     0.164 C 
BRANCH  30  31
HETATM   31  O1  UNL     1       5.782   5.474  10.638  1.00  0.00    -0.401 OA
HETATM   32  H42 UNL     1       6.742   5.438  10.784  1.00  0.00     0.209 HD
ENDBRANCH  30  31
ENDBRANCH  29  30
ENDBRANCH  28  29
ENDBRANCH  13  28
TORSDOF 8
ENDMDL
MODEL 7
REMARK minimizedAffinity -7.35584784
REMARK  8 active torsions:
REMARK  status: ('A' for Active; 'I' for Inactive)
REMARK    1  A    between atoms: C4_4  and  C5_5 
REMARK    2  A    between atoms: C5_5  and  C6_6 
REMARK    3  A    between atoms: C6_6  and  C7_7 
REMARK    4  A    between atoms: C7_7  and  C9_9 
REMARK    5  A    between atoms: C21_21  and  C22_22 
REMARK    6  A    between atoms: C22_22  and  C23_23 
REMARK    7  A    between atoms: C23_23  and  C24_24 
REMARK    8  A    between atoms: C24_24  and  O1_25 
ROOT
HETATM    1  C9  UNL     1      -0.170   7.561  13.295  1.00  0.00    -0.002 C 
HETATM    2  C10 UNL     1       0.129   6.171  13.931  1.00  0.00     0.006 C 
HETATM    3  C11 UNL     1      -1.178   5.712  14.634  1.00  0.00     0.011 C 
HETATM    4  C12 UNL     1      -2.080   6.967  14.639  1.00  0.00    -0.032 C 
HETATM    5  C13 UNL     1      -1.586   7.814  15.859  1.00  0.00     0.016 C 
HETATM    6  C14 UNL     1      -3.611   6.712  14.695  1.00  0.00     0.003 C 
HETATM    7  C15 UNL     1      -4.107   5.908  15.917  1.00  0.00     0.010 C 
HETATM    8  C16 UNL     1      -5.637   5.849  16.004  1.00  0.00     0.035 C 
HETATM    9  C17 UNL     1      -6.271   6.034  14.644  1.00  0.00    -0.073 C 
HETATM   10  C18 UNL     1      -6.975   5.062  14.003  1.00  0.00    -0.085 C 
HETATM   11  C19 UNL     1      -7.648   5.244  12.660  1.00  0.00     0.043 C 
HETATM   12  C20 UNL     1      -7.185   3.664  14.538  1.00  0.00     0.043 C 
HETATM   13  C21 UNL     1      -5.972   7.424  14.022  1.00  0.00     0.023 C 
HETATM   14  C25 UNL     1      -4.514   7.987  14.415  1.00  0.00    -0.032 C 
HETATM   15  C26 UNL     1      -4.591   8.933  15.643  1.00  0.00     0.016 C 
HETATM   16  C27 UNL     1      -3.942   8.846  13.224  1.00  0.00     0.011 C 
HETATM   17  C28 UNL     1      -2.403   8.950  13.104  1.00  0.00     0.011 C 
HETATM   18  C29 UNL     1      -1.726   7.577  13.228  1.00  0.00    -0.032 C 
HETATM   19  C30 UNL     1      -2.200   6.721  12.011  1.00  0.00     0.016 C 
ENDROOT
BRANCH   1  20
HETATM   20  C7  UNL     1       0.645   7.939  12.019  1.00  0.00    -0.014 C 
HETATM   21  C8  UNL     1       1.862   8.836  12.274  1.00  0.00     0.010 C 
BRANCH  20  22
HETATM   22  C6  UNL     1      -0.311   8.606  10.988  1.00  0.00     0.008 C 
BRANCH  22  23
HETATM   23  C5  UNL     1       0.107   8.503   9.513  1.00  0.00     0.028 C 
BRANCH  23  24
HETATM   24  C4  UNL     1       0.909   7.284   9.154  1.00  0.00    -0.025 C 
HETATM   25  C2  UNL     1       2.112   7.250   8.546  1.00  0.00    -0.091 C 
HETATM   26  C1  UNL     1       2.782   5.936   8.241  1.00  0.00     0.042 C 
HETATM   27  C3  UNL     1       2.898   8.461   8.130  1.00  0.00     0.042 C 
ENDBRANCH  23  24
ENDBRANCH  22  23
ENDBRANCH  20  22
ENDBRANCH   1  20
BRANCH  13  28
HETATM   28  C22 UNL     1      -7.189   8.351  14.275  1.00  0.00     0.012 C 
BRANCH  28  29
HETATM   29  C23 UNL     1      -8.203   7.800  15.284  1.00  0.00     0.027 C 
BRANCH  29  30
HETATM   30  C24 UNL     1      -9.595   7.655  14.678  1.00  0.00     0.164 C 
BRANCH  30  31
HETATM   31  O1  UNL     1     -10.340   6.686  15.401  1.00  0.00    -0.401 OA
HETATM   32  H42 UNL     1     -11.217   6.630  14.985  1.00  0.00     0.209 HD
ENDBRANCH  30  31
ENDBRANCH  29  30
ENDBRANCH  28  29
ENDBRANCH  13  28
TORSDOF 8
ENDMDL
MODEL 8
REMARK minimizedAffinity -7.23514271
REMARK  8 active torsions:
REMARK  status: ('A' for Active; 'I' for Inactive)
REMARK    1  A    between atoms: C4_4  and  C5_5 
REMARK    2  A    between atoms: C5_5  and  C6_6 
REMARK    3  A    between atoms: C6_6  and  C7_7 
REMARK    4  A    between atoms: C7_7  and  C9_9 
REMARK    5  A    between atoms: C21_21  and  C22_22 
REMARK    6  A    between atoms: C22_22  and  C23_23 
REMARK    7  A    between atoms: C23_23  and  C24_24 
REMARK    8  A    between atoms: C24_24  and  O1_25 
ROOT
HETATM    1  C9  UNL     1       1.101   7.243  10.904  1.00  0.00    -0.002 C 
HETATM    2  C10 UNL     1       0.236   6.051  10.399  1.00  0.00     0.006 C 
HETATM    3  C11 UNL     1      -0.781   5.729  11.528  1.00  0.00     0.011 C 
HETATM    4  C12 UNL     1      -0.278   6.533  12.748  1.00  0.00    -0.032 C 
HETATM    5  C13 UNL     1       0.861   5.657  13.367  1.00  0.00     0.016 C 
HETATM    6  C14 UNL     1      -1.349   6.920  13.804  1.00  0.00     0.003 C 
HETATM    7  C15 UNL     1      -2.110   5.736  14.443  1.00  0.00     0.010 C 
HETATM    8  C16 UNL     1      -3.017   6.173  15.599  1.00  0.00     0.035 C 
HETATM    9  C17 UNL     1      -3.421   7.623  15.462  1.00  0.00    -0.073 C 
HETATM   10  C18 UNL     1      -4.699   8.031  15.238  1.00  0.00    -0.085 C 
HETATM   11  C19 UNL     1      -5.125   9.480  15.138  1.00  0.00     0.043 C 
HETATM   12  C20 UNL     1      -5.875   7.098  15.057  1.00  0.00     0.043 C 
HETATM   13  C21 UNL     1      -2.213   8.596  15.529  1.00  0.00     0.023 C 
HETATM   14  C25 UNL     1      -0.871   7.974  14.889  1.00  0.00    -0.032 C 
HETATM   15  C26 UNL     1       0.025   7.330  15.980  1.00  0.00     0.016 C 
HETATM   16  C27 UNL     1      -0.017   9.127  14.233  1.00  0.00     0.011 C 
HETATM   17  C28 UNL     1       0.926   8.732  13.073  1.00  0.00     0.011 C 
HETATM   18  C29 UNL     1       0.218   7.850  12.034  1.00  0.00    -0.032 C 
HETATM   19  C30 UNL     1      -0.917   8.713  11.397  1.00  0.00     0.016 C 
ENDROOT
BRANCH   1  20
HETATM   20  C7  UNL     1       1.691   8.193   9.815  1.00  0.00    -0.014 C 
HETATM   21  C8  UNL     1       1.074   8.037   8.420  1.00  0.00     0.010 C 
BRANCH  20  22
HETATM   22  C6  UNL     1       3.234   7.988   9.749  1.00  0.00     0.008 C 
BRANCH  22  23
HETATM   23  C5  UNL     1       3.788   6.778  10.515  1.00  0.00     0.028 C 
BRANCH  23  24
HETATM   24  C4  UNL     1       4.581   7.104  11.749  1.00  0.00    -0.025 C 
HETATM   25  C2  UNL     1       5.865   6.780  12.002  1.00  0.00    -0.091 C 
HETATM   26  C1  UNL     1       6.514   7.171  13.303  1.00  0.00     0.042 C 
HETATM   27  C3  UNL     1       6.765   6.037  11.056  1.00  0.00     0.042 C 
ENDBRANCH  23  24
ENDBRANCH  22  23
ENDBRANCH  20  22
ENDBRANCH   1  20
BRANCH  13  28
HETATM   28  C22 UNL     1      -2.120   9.170  16.967  1.00  0.00     0.012 C 
BRANCH  28  29
HETATM   29  C23 UNL     1      -2.292  10.691  17.051  1.00  0.00     0.027 C 
BRANCH  29  30
HETATM   30  C24 UNL     1      -3.215  11.103  18.194  1.00  0.00     0.164 C 
BRANCH  30  31
HETATM   31  O1  UNL     1      -3.622   9.956  18.924  1.00  0.00    -0.401 OA
HETATM   32  H42 UNL     1      -4.202  10.263  19.641  1.00  0.00     0.209 HD
ENDBRANCH  30  31
ENDBRANCH  29  30
ENDBRANCH  28  29
ENDBRANCH  13  28
TORSDOF 8
ENDMDL
MODEL 9
REMARK minimizedAffinity -7.23231649
REMARK  8 active torsions:
REMARK  status: ('A' for Active; 'I' for Inactive)
REMARK    1  A    between atoms: C4_4  and  C5_5 
REMARK    2  A    between atoms: C5_5  and  C6_6 
REMARK    3  A    between atoms: C6_6  and  C7_7 
REMARK    4  A    between atoms: C7_7  and  C9_9 
REMARK    5  A    between atoms: C21_21  and  C22_22 
REMARK    6  A    between atoms: C22_22  and  C23_23 
REMARK    7  A    between atoms: C23_23  and  C24_24 
REMARK    8  A    between atoms: C24_24  and  O1_25 
ROOT
HETATM    1  C9  UNL     1      -1.684   6.239  12.701  1.00  0.00    -0.002 C 
HETATM    2  C10 UNL     1      -0.846   7.134  11.742  1.00  0.00     0.006 C 
HETATM    3  C11 UNL     1      -0.777   8.542  12.394  1.00  0.00     0.011 C 
HETATM    4  C12 UNL     1      -1.814   8.494  13.538  1.00  0.00    -0.032 C 
HETATM    5  C13 UNL     1      -3.192   8.758  12.845  1.00  0.00     0.016 C 
HETATM    6  C14 UNL     1      -1.571   9.464  14.727  1.00  0.00     0.003 C 
HETATM    7  C15 UNL     1      -1.510  10.963  14.360  1.00  0.00     0.010 C 
HETATM    8  C16 UNL     1      -1.449  11.871  15.595  1.00  0.00     0.035 C 
HETATM    9  C17 UNL     1      -0.870  11.141  16.785  1.00  0.00    -0.073 C 
HETATM   10  C18 UNL     1       0.318  11.465  17.363  1.00  0.00    -0.085 C 
HETATM   11  C19 UNL     1       0.892  10.769  18.578  1.00  0.00     0.043 C 
HETATM   12  C20 UNL     1       1.234  12.563  16.874  1.00  0.00     0.043 C 
HETATM   13  C21 UNL     1      -1.738   9.934  17.234  1.00  0.00     0.023 C 
HETATM   14  C25 UNL     1      -2.476   9.200  16.004  1.00  0.00    -0.032 C 
HETATM   15  C26 UNL     1      -3.922   9.732  15.819  1.00  0.00     0.016 C 
HETATM   16  C27 UNL     1      -2.603   7.658  16.310  1.00  0.00     0.011 C 
HETATM   17  C28 UNL     1      -2.684   6.703  15.096  1.00  0.00     0.011 C 
HETATM   18  C29 UNL     1      -1.606   7.016  14.049  1.00  0.00    -0.032 C 
HETATM   19  C30 UNL     1      -0.222   6.747  14.721  1.00  0.00     0.016 C 
ENDROOT
BRANCH   1  20
HETATM   20  C7  UNL     1      -1.366   4.711  12.691  1.00  0.00    -0.014 C 
HETATM   21  C8  UNL     1      -0.152   4.310  11.845  1.00  0.00     0.010 C 
BRANCH  20  22
HETATM   22  C6  UNL     1      -2.632   3.935  12.221  1.00  0.00     0.008 C 
BRANCH  22  23
HETATM   23  C5  UNL     1      -3.973   4.665  12.388  1.00  0.00     0.028 C 
BRANCH  23  24
HETATM   24  C4  UNL     1      -5.151   3.786  12.699  1.00  0.00    -0.025 C 
HETATM   25  C2  UNL     1      -6.386   4.180  13.070  1.00  0.00    -0.091 C 
HETATM   26  C1  UNL     1      -7.460   3.166  13.362  1.00  0.00     0.042 C 
HETATM   27  C3  UNL     1      -6.822   5.610  13.219  1.00  0.00     0.042 C 
ENDBRANCH  23  24
ENDBRANCH  22  23
ENDBRANCH  20  22
ENDBRANCH   1  20
BRANCH  13  28
HETATM   28  C22 UNL     1      -2.615  10.376  18.434  1.00  0.00     0.012 C 
BRANCH  28  29
HETATM   29  C23 UNL     1      -2.657  11.891  18.662  1.00  0.00     0.027 C 
BRANCH  29  30
HETATM   30  C24 UNL     1      -4.047  12.470  18.418  1.00  0.00     0.164 C 
BRANCH  30  31
HETATM   31  O1  UNL     1      -4.719  12.655  19.655  1.00  0.00    -0.401 OA
HETATM   32  H42 UNL     1      -5.593  13.027  19.453  1.00  0.00     0.209 HD
ENDBRANCH  30  31
ENDBRANCH  29  30
ENDBRANCH  28  29
ENDBRANCH  13  28
TORSDOF 8
ENDMDL
