MODEL 1
REMARK minimizedAffinity -8.76243401
REMARK  6 active torsions:
REMARK  status: ('A' for Active; 'I' for Inactive)
REMARK    1  A    between atoms: C2_2  and  C4_4 
REMARK    2  A    between atoms: C11_11  and  C12_12 
REMARK    3  A    between atoms: C12_12  and  O2_14 
REMARK    4  A    between atoms: C21_23  and  O3_24 
REMARK    5  A    between atoms: C22_25  and  C24_27 
REMARK    6  A    between atoms: C24_27  and  O4_28 
ROOT
HETATM    1  C4  UNL     1      -5.329   4.490  13.142  1.00  0.00     0.018 C 
HETATM    2  C5  UNL     1      -6.873   4.557  12.975  1.00  0.00     0.010 C 
HETATM    3  C6  UNL     1      -7.311   5.962  13.420  1.00  0.00     0.010 C 
HETATM    4  C7  UNL     1      -6.152   6.463  14.290  1.00  0.00    -0.039 C 
HETATM    5  C8  UNL     1      -6.303   5.838  15.702  1.00  0.00     0.015 C 
HETATM    6  C9  UNL     1      -6.057   7.989  14.409  1.00  0.00     0.011 C 
HETATM    7  C10 UNL     1      -4.717   8.424  15.040  1.00  0.00     0.022 C 
HETATM    8  C11 UNL     1      -3.440   7.856  14.313  1.00  0.00     0.057 C 
HETATM    9  C13 UNL     1      -3.613   6.285  14.175  1.00  0.00     0.011 C 
HETATM   10  C14 UNL     1      -2.385   5.589  13.578  1.00  0.00     0.007 C 
HETATM   11  C15 UNL     1      -1.086   5.955  14.294  1.00  0.00     0.006 C 
HETATM   12  C16 UNL     1      -0.860   7.480  14.372  1.00  0.00     0.003 C 
HETATM   13  C17 UNL     1       0.610   7.910  14.826  1.00  0.00    -0.035 C 
HETATM   14  C18 UNL     1       0.983   7.329  16.211  1.00  0.00     0.016 C 
HETATM   15  C19 UNL     1       1.638   7.350  13.793  1.00  0.00     0.012 C 
HETATM   16  C20 UNL     1       3.046   7.922  13.931  1.00  0.00     0.033 C 
HETATM   17  C21 UNL     1       3.070   9.443  13.880  1.00  0.00     0.128 C 
HETATM   18  C22 UNL     1       2.112  10.128  14.902  1.00  0.00     0.007 C 
HETATM   19  C23 UNL     1       2.683  10.049  16.335  1.00  0.00     0.020 C 
HETATM   20  C25 UNL     1       0.681   9.483  14.758  1.00  0.00     0.007 C 
HETATM   21  C26 UNL     1      -0.412  10.124  15.636  1.00  0.00     0.007 C 
HETATM   22  C27 UNL     1      -1.806   9.726  15.146  1.00  0.00     0.011 C 
HETATM   23  C28 UNL     1      -2.068   8.194  15.107  1.00  0.00    -0.022 C 
HETATM   24  C29 UNL     1      -2.197   7.728  16.586  1.00  0.00     0.017 C 
HETATM   25  C30 UNL     1      -4.946   5.955  13.460  1.00  0.00     0.007 C 
ENDROOT
BRANCH   8  26
HETATM   26  C12 UNL     1      -3.387   8.497  12.895  1.00  0.00     0.149 C 
HETATM   27  O1  UNL     1      -2.401   8.693  12.205  1.00  0.00    -0.649 OA
BRANCH  26  28
HETATM   28  O2  UNL     1      -4.582   8.898  12.417  1.00  0.00    -0.776 OA
HETATM   29  H18 UNL     1      -4.363   9.270  11.537  1.00  0.00     0.167 HD
ENDBRANCH  26  28
ENDBRANCH   8  26
BRANCH   1  30
HETATM   30  C2  UNL     1      -4.703   3.782  11.950  1.00  0.00    -0.089 C 
HETATM   31  C1  UNL     1      -3.452   3.980  11.503  1.00  0.00     0.014 C 
HETATM   32  C3  UNL     1      -5.611   2.805  11.247  1.00  0.00     0.043 C 
ENDBRANCH   1  30
BRANCH  18  33
HETATM   33  C24 UNL     1       2.029  11.647  14.537  1.00  0.00     0.176 C 
BRANCH  33  34
HETATM   34  O4  UNL     1       0.677  12.075  14.369  1.00  0.00    -0.400 OA
HETATM   35  H39 UNL     1       0.710  13.004  14.079  1.00  0.00     0.209 HD
ENDBRANCH  33  34
ENDBRANCH  18  33
BRANCH  17  36
HETATM   36  O3  UNL     1       4.425   9.854  14.063  1.00  0.00    -0.395 OA
HETATM   37  H33 UNL     1       4.397  10.830  14.160  1.00  0.00     0.210 HD
ENDBRANCH  17  36
TORSDOF 6
ENDMDL
MODEL 2
REMARK minimizedAffinity -8.54948139
REMARK  6 active torsions:
REMARK  status: ('A' for Active; 'I' for Inactive)
REMARK    1  A    between atoms: C2_2  and  C4_4 
REMARK    2  A    between atoms: C11_11  and  C12_12 
REMARK    3  A    between atoms: C12_12  and  O2_14 
REMARK    4  A    between atoms: C21_23  and  O3_24 
REMARK    5  A    between atoms: C22_25  and  C24_27 
REMARK    6  A    between atoms: C24_27  and  O4_28 
ROOT
HETATM    1  C4  UNL     1      -7.889   5.545  14.232  1.00  0.00     0.018 C 
HETATM    2  C5  UNL     1      -9.192   6.244  14.712  1.00  0.00     0.010 C 
HETATM    3  C6  UNL     1      -8.793   7.647  15.200  1.00  0.00     0.010 C 
HETATM    4  C7  UNL     1      -7.290   7.537  15.480  1.00  0.00    -0.039 C 
HETATM    5  C8  UNL     1      -7.103   6.870  16.868  1.00  0.00     0.015 C 
HETATM    6  C9  UNL     1      -6.536   8.873  15.445  1.00  0.00     0.011 C 
HETATM    7  C10 UNL     1      -5.007   8.659  15.437  1.00  0.00     0.022 C 
HETATM    8  C11 UNL     1      -4.488   7.713  14.289  1.00  0.00     0.057 C 
HETATM    9  C13 UNL     1      -5.332   6.370  14.342  1.00  0.00     0.011 C 
HETATM   10  C14 UNL     1      -4.853   5.313  13.341  1.00  0.00     0.007 C 
HETATM   11  C15 UNL     1      -3.352   5.042  13.432  1.00  0.00     0.006 C 
HETATM   12  C16 UNL     1      -2.508   6.329  13.306  1.00  0.00     0.003 C 
HETATM   13  C17 UNL     1      -0.947   6.078  13.084  1.00  0.00    -0.035 C 
HETATM   14  C18 UNL     1      -0.325   5.243  14.228  1.00  0.00     0.016 C 
HETATM   15  C19 UNL     1      -0.751   5.274  11.759  1.00  0.00     0.012 C 
HETATM   16  C20 UNL     1       0.692   5.213  11.267  1.00  0.00     0.033 C 
HETATM   17  C21 UNL     1       1.317   6.592  11.107  1.00  0.00     0.128 C 
HETATM   18  C22 UNL     1       1.226   7.483  12.384  1.00  0.00     0.007 C 
HETATM   19  C23 UNL     1       2.236   7.018  13.456  1.00  0.00     0.020 C 
HETATM   20  C25 UNL     1      -0.268   7.486  12.886  1.00  0.00     0.007 C 
HETATM   21  C26 UNL     1      -0.546   8.408  14.089  1.00  0.00     0.007 C 
HETATM   22  C27 UNL     1      -2.047   8.662  14.246  1.00  0.00     0.011 C 
HETATM   23  C28 UNL     1      -2.908   7.379  14.423  1.00  0.00    -0.022 C 
HETATM   24  C29 UNL     1      -2.611   6.839  15.852  1.00  0.00     0.017 C 
HETATM   25  C30 UNL     1      -6.845   6.686  14.263  1.00  0.00     0.007 C 
ENDROOT
BRANCH   8  26
HETATM   26  C12 UNL     1      -4.750   8.435  12.935  1.00  0.00     0.149 C 
HETATM   27  O1  UNL     1      -5.788   8.459  12.294  1.00  0.00    -0.649 OA
BRANCH  26  28
HETATM   28  O2  UNL     1      -3.678   9.072  12.424  1.00  0.00    -0.776 OA
HETATM   29  H18 UNL     1      -4.018   9.459  11.589  1.00  0.00     0.167 HD
ENDBRANCH  26  28
ENDBRANCH   8  26
BRANCH   1  30
HETATM   30  C2  UNL     1      -8.147   4.786  12.940  1.00  0.00    -0.089 C 
HETATM   31  C1  UNL     1      -8.552   5.340  11.785  1.00  0.00     0.014 C 
HETATM   32  C3  UNL     1      -7.928   3.296  13.027  1.00  0.00     0.043 C 
ENDBRANCH   1  30
BRANCH  18  33
HETATM   33  C24 UNL     1       1.636   8.937  11.982  1.00  0.00     0.176 C 
BRANCH  33  34
HETATM   34  O4  UNL     1       2.234   9.636  13.075  1.00  0.00    -0.400 OA
HETATM   35  H39 UNL     1       2.398  10.547  12.770  1.00  0.00     0.209 HD
ENDBRANCH  33  34
ENDBRANCH  18  33
BRANCH  17  36
HETATM   36  O3  UNL     1       2.668   6.400  10.687  1.00  0.00    -0.395 OA
HETATM   37  H33 UNL     1       3.086   7.288  10.721  1.00  0.00     0.210 HD
ENDBRANCH  17  36
TORSDOF 6
ENDMDL
MODEL 3
REMARK minimizedAffinity -8.32960606
REMARK  6 active torsions:
REMARK  status: ('A' for Active; 'I' for Inactive)
REMARK    1  A    between atoms: C2_2  and  C4_4 
REMARK    2  A    between atoms: C11_11  and  C12_12 
REMARK    3  A    between atoms: C12_12  and  O2_14 
REMARK    4  A    between atoms: C21_23  and  O3_24 
REMARK    5  A    between atoms: C22_25  and  C24_27 
REMARK    6  A    between atoms: C24_27  and  O4_28 
ROOT
HETATM    1  C4  UNL     1      -5.347   4.146  12.286  1.00  0.00     0.018 C 
HETATM    2  C5  UNL     1      -5.261   2.685  11.760  1.00  0.00     0.010 C 
HETATM    3  C6  UNL     1      -3.771   2.308  11.729  1.00  0.00     0.010 C 
HETATM    4  C7  UNL     1      -3.039   3.655  11.723  1.00  0.00    -0.039 C 
HETATM    5  C8  UNL     1      -3.053   4.206  10.273  1.00  0.00     0.015 C 
HETATM    6  C9  UNL     1      -1.596   3.599  12.238  1.00  0.00     0.011 C 
HETATM    7  C10 UNL     1      -1.027   5.014  12.483  1.00  0.00     0.022 C 
HETATM    8  C11 UNL     1      -1.908   5.914  13.430  1.00  0.00     0.057 C 
HETATM    9  C13 UNL     1      -3.395   5.898  12.879  1.00  0.00     0.011 C 
HETATM   10  C14 UNL     1      -4.339   6.826  13.650  1.00  0.00     0.007 C 
HETATM   11  C15 UNL     1      -3.799   8.250  13.781  1.00  0.00     0.006 C 
HETATM   12  C16 UNL     1      -2.380   8.293  14.388  1.00  0.00     0.003 C 
HETATM   13  C17 UNL     1      -1.895   9.749  14.833  1.00  0.00    -0.035 C 
HETATM   14  C18 UNL     1      -1.910  10.750  13.654  1.00  0.00     0.016 C 
HETATM   15  C19 UNL     1      -2.872  10.294  15.921  1.00  0.00     0.012 C 
HETATM   16  C20 UNL     1      -2.375  11.540  16.648  1.00  0.00     0.033 C 
HETATM   17  C21 UNL     1      -0.998  11.348  17.269  1.00  0.00     0.128 C 
HETATM   18  C22 UNL     1       0.086  10.845  16.267  1.00  0.00     0.007 C 
HETATM   19  C23 UNL     1       0.539  11.982  15.324  1.00  0.00     0.020 C 
HETATM   20  C25 UNL     1      -0.480   9.585  15.507  1.00  0.00     0.007 C 
HETATM   21  C26 UNL     1       0.516   8.905  14.547  1.00  0.00     0.007 C 
HETATM   22  C27 UNL     1       0.040   7.497  14.177  1.00  0.00     0.011 C 
HETATM   23  C28 UNL     1      -1.368   7.439  13.520  1.00  0.00    -0.022 C 
HETATM   24  C29 UNL     1      -1.211   8.019  12.084  1.00  0.00     0.017 C 
HETATM   25  C30 UNL     1      -3.899   4.441  12.745  1.00  0.00     0.007 C 
ENDROOT
BRANCH   8  26
HETATM   26  C12 UNL     1      -1.875   5.271  14.847  1.00  0.00     0.149 C 
HETATM   27  O1  UNL     1      -2.812   5.107  15.611  1.00  0.00    -0.649 OA
BRANCH  26  28
HETATM   28  O2  UNL     1      -0.650   4.891  15.262  1.00  0.00    -0.776 OA
HETATM   29  H18 UNL     1      -0.815   4.518  16.154  1.00  0.00     0.167 HD
ENDBRANCH  26  28
ENDBRANCH   8  26
BRANCH   1  30
HETATM   30  C2  UNL     1      -6.499   4.281  13.269  1.00  0.00    -0.089 C 
HETATM   31  C1  UNL     1      -6.609   5.239  14.204  1.00  0.00     0.014 C 
HETATM   32  C3  UNL     1      -7.564   3.221  13.147  1.00  0.00     0.043 C 
ENDBRANCH   1  30
BRANCH  18  33
HETATM   33  C24 UNL     1       1.343  10.422  17.095  1.00  0.00     0.176 C 
BRANCH  33  34
HETATM   34  O4  UNL     1       1.474   9.002  17.167  1.00  0.00    -0.400 OA
HETATM   35  H39 UNL     1       2.232   8.818  17.750  1.00  0.00     0.209 HD
ENDBRANCH  33  34
ENDBRANCH  18  33
BRANCH  17  36
HETATM   36  O3  UNL     1      -0.629  12.586  17.876  1.00  0.00    -0.395 OA
HETATM   37  H33 UNL     1       0.308  12.480  18.149  1.00  0.00     0.210 HD
ENDBRANCH  17  36
TORSDOF 6
ENDMDL
MODEL 4
REMARK minimizedAffinity -8.28240013
REMARK  6 active torsions:
REMARK  status: ('A' for Active; 'I' for Inactive)
REMARK    1  A    between atoms: C2_2  and  C4_4 
REMARK    2  A    between atoms: C11_11  and  C12_12 
REMARK    3  A    between atoms: C12_12  and  O2_14 
REMARK    4  A    between atoms: C21_23  and  O3_24 
REMARK    5  A    between atoms: C22_25  and  C24_27 
REMARK    6  A    between atoms: C24_27  and  O4_28 
ROOT
HETATM    1  C4  UNL     1      -3.396   4.411  12.919  1.00  0.00     0.018 C 
HETATM    2  C5  UNL     1      -4.945   4.464  12.797  1.00  0.00     0.010 C 
HETATM    3  C6  UNL     1      -5.372   5.902  13.136  1.00  0.00     0.010 C 
HETATM    4  C7  UNL     1      -4.187   6.472  13.925  1.00  0.00    -0.039 C 
HETATM    5  C8  UNL     1      -4.292   5.968  15.388  1.00  0.00     0.015 C 
HETATM    6  C9  UNL     1      -4.091   8.003  13.914  1.00  0.00     0.011 C 
HETATM    7  C10 UNL     1      -2.733   8.489  14.463  1.00  0.00     0.022 C 
HETATM    8  C11 UNL     1      -1.478   7.861  13.746  1.00  0.00     0.057 C 
HETATM    9  C13 UNL     1      -1.652   6.284  13.744  1.00  0.00     0.011 C 
HETATM   10  C14 UNL     1      -0.443   5.540  13.169  1.00  0.00     0.007 C 
HETATM   11  C15 UNL     1       0.878   5.963  13.811  1.00  0.00     0.006 C 
HETATM   12  C16 UNL     1       1.103   7.490  13.754  1.00  0.00     0.003 C 
HETATM   13  C17 UNL     1       2.586   7.954  14.124  1.00  0.00    -0.035 C 
HETATM   14  C18 UNL     1       3.003   7.490  15.540  1.00  0.00     0.016 C 
HETATM   15  C19 UNL     1       3.582   7.309  13.109  1.00  0.00     0.012 C 
HETATM   16  C20 UNL     1       4.993   7.890  13.154  1.00  0.00     0.033 C 
HETATM   17  C21 UNL     1       5.012   9.402  12.976  1.00  0.00     0.128 C 
HETATM   18  C22 UNL     1       4.085  10.170  13.968  1.00  0.00     0.007 C 
HETATM   19  C23 UNL     1       4.702  10.210  15.384  1.00  0.00     0.020 C 
HETATM   20  C25 UNL     1       2.652   9.516  13.923  1.00  0.00     0.007 C 
HETATM   21  C26 UNL     1       1.586  10.229  14.778  1.00  0.00     0.007 C 
HETATM   22  C27 UNL     1       0.177   9.793  14.368  1.00  0.00     0.011 C 
HETATM   23  C28 UNL     1      -0.083   8.262  14.465  1.00  0.00    -0.022 C 
HETATM   24  C29 UNL     1      -0.164   7.922  15.981  1.00  0.00     0.017 C 
HETATM   25  C30 UNL     1      -3.006   5.897  13.102  1.00  0.00     0.007 C 
ENDROOT
BRANCH   8  26
HETATM   26  C12 UNL     1      -1.471   8.381  12.279  1.00  0.00     0.149 C 
HETATM   27  O1  UNL     1      -2.146   9.280  11.805  1.00  0.00    -0.649 OA
BRANCH  26  28
HETATM   28  O2  UNL     1      -0.634   7.721  11.454  1.00  0.00    -0.776 OA
HETATM   29  H18 UNL     1      -0.759   8.170  10.592  1.00  0.00     0.167 HD
ENDBRANCH  26  28
ENDBRANCH   8  26
BRANCH   1  30
HETATM   30  C2  UNL     1      -2.807   3.606  11.772  1.00  0.00    -0.089 C 
HETATM   31  C1  UNL     1      -2.134   4.122  10.731  1.00  0.00     0.014 C 
HETATM   32  C3  UNL     1      -3.043   2.118  11.856  1.00  0.00     0.043 C 
ENDBRANCH   1  30
BRANCH  18  33
HETATM   33  C24 UNL     1       3.988  11.653  13.480  1.00  0.00     0.176 C 
BRANCH  33  34
HETATM   34  O4  UNL     1       2.631  12.088  13.385  1.00  0.00    -0.400 OA
HETATM   35  H39 UNL     1       2.649  12.989  13.014  1.00  0.00     0.209 HD
ENDBRANCH  33  34
ENDBRANCH  18  33
BRANCH  17  36
HETATM   36  O3  UNL     1       6.372   9.825  13.081  1.00  0.00    -0.395 OA
HETATM   37  H33 UNL     1       6.344  10.807  13.098  1.00  0.00     0.210 HD
ENDBRANCH  17  36
TORSDOF 6
ENDMDL
MODEL 5
REMARK minimizedAffinity -7.63149595
REMARK  6 active torsions:
REMARK  status: ('A' for Active; 'I' for Inactive)
REMARK    1  A    between atoms: C2_2  and  C4_4 
REMARK    2  A    between atoms: C11_11  and  C12_12 
REMARK    3  A    between atoms: C12_12  and  O2_14 
REMARK    4  A    between atoms: C21_23  and  O3_24 
REMARK    5  A    between atoms: C22_25  and  C24_27 
REMARK    6  A    between atoms: C24_27  and  O4_28 
ROOT
HETATM    1  C4  UNL     1       4.541   8.675  13.662  1.00  0.00     0.018 C 
HETATM    2  C5  UNL     1       4.480   7.537  12.605  1.00  0.00     0.010 C 
HETATM    3  C6  UNL     1       5.926   7.076  12.359  1.00  0.00     0.010 C 
HETATM    4  C7  UNL     1       6.785   8.251  12.844  1.00  0.00    -0.039 C 
HETATM    5  C8  UNL     1       6.810   9.326  11.726  1.00  0.00     0.015 C 
HETATM    6  C9  UNL     1       8.221   7.874  13.227  1.00  0.00     0.011 C 
HETATM    7  C10 UNL     1       8.927   9.025  13.977  1.00  0.00     0.022 C 
HETATM    8  C11 UNL     1       8.147   9.553  15.241  1.00  0.00     0.057 C 
HETATM    9  C13 UNL     1       6.660   9.881  14.798  1.00  0.00     0.011 C 
HETATM   10  C14 UNL     1       5.818  10.509  15.914  1.00  0.00     0.007 C 
HETATM   11  C15 UNL     1       6.495  11.715  16.564  1.00  0.00     0.006 C 
HETATM   12  C16 UNL     1       7.917  11.395  17.072  1.00  0.00     0.003 C 
HETATM   13  C17 UNL     1       8.546  12.512  18.025  1.00  0.00    -0.035 C 
HETATM   14  C18 UNL     1       8.616  13.894  17.332  1.00  0.00     0.016 C 
HETATM   15  C19 UNL     1       7.637  12.667  19.285  1.00  0.00     0.012 C 
HETATM   16  C20 UNL     1       8.261  13.480  20.416  1.00  0.00     0.033 C 
HETATM   17  C21 UNL     1       9.619  12.943  20.847  1.00  0.00     0.128 C 
HETATM   18  C22 UNL     1      10.639  12.784  19.677  1.00  0.00     0.007 C 
HETATM   19  C23 UNL     1      11.190  14.157  19.233  1.00  0.00     0.020 C 
HETATM   20  C25 UNL     1       9.946  11.977  18.515  1.00  0.00     0.007 C 
HETATM   21  C26 UNL     1      10.861  11.646  17.319  1.00  0.00     0.007 C 
HETATM   22  C27 UNL     1      10.247  10.543  16.453  1.00  0.00     0.011 C 
HETATM   23  C28 UNL     1       8.833  10.868  15.892  1.00  0.00    -0.022 C 
HETATM   24  C29 UNL     1       9.031  11.950  14.790  1.00  0.00     0.017 C 
HETATM   25  C30 UNL     1       6.015   8.642  14.131  1.00  0.00     0.007 C 
ENDROOT
BRANCH   8  26
HETATM   26  C12 UNL     1       8.132   8.405  16.292  1.00  0.00     0.149 C 
HETATM   27  O1  UNL     1       9.091   7.875  16.829  1.00  0.00    -0.649 OA
BRANCH  26  28
HETATM   28  O2  UNL     1       6.903   7.944  16.600  1.00  0.00    -0.776 OA
HETATM   29  H18 UNL     1       7.081   7.240  17.259  1.00  0.00     0.167 HD
ENDBRANCH  26  28
ENDBRANCH   8  26
BRANCH   1  30
HETATM   30  C2  UNL     1       3.418   8.511  14.674  1.00  0.00    -0.089 C 
HETATM   31  C1  UNL     1       3.340   7.533  15.591  1.00  0.00     0.014 C 
HETATM   32  C3  UNL     1       2.328   9.550  14.583  1.00  0.00     0.043 C 
ENDBRANCH   1  30
BRANCH  18  33
HETATM   33  C24 UNL     1      11.858  11.965  20.215  1.00  0.00     0.176 C 
BRANCH  33  34
HETATM   34  O4  UNL     1      11.699  10.566  19.975  1.00  0.00    -0.400 OA
HETATM   35  H39 UNL     1      12.457  10.120  20.394  1.00  0.00     0.209 HD
ENDBRANCH  33  34
ENDBRANCH  18  33
BRANCH  17  36
HETATM   36  O3  UNL     1      10.113  13.808  21.870  1.00  0.00    -0.395 OA
HETATM   37  H33 UNL     1      11.038  13.523  22.035  1.00  0.00     0.210 HD
ENDBRANCH  17  36
TORSDOF 6
ENDMDL
MODEL 6
REMARK minimizedAffinity -7.62577915
REMARK  6 active torsions:
REMARK  status: ('A' for Active; 'I' for Inactive)
REMARK    1  A    between atoms: C2_2  and  C4_4 
REMARK    2  A    between atoms: C11_11  and  C12_12 
REMARK    3  A    between atoms: C12_12  and  O2_14 
REMARK    4  A    between atoms: C21_23  and  O3_24 
REMARK    5  A    between atoms: C22_25  and  C24_27 
REMARK    6  A    between atoms: C24_27  and  O4_28 
ROOT
HETATM    1  C4  UNL     1     -16.543  -0.606  14.390  1.00  0.00     0.018 C 
HETATM    2  C5  UNL     1     -16.453  -0.327  15.917  1.00  0.00     0.010 C 
HETATM    3  C6  UNL     1     -15.849  -1.583  16.566  1.00  0.00     0.010 C 
HETATM    4  C7  UNL     1     -16.092  -2.695  15.538  1.00  0.00    -0.039 C 
HETATM    5  C8  UNL     1     -17.559  -3.177  15.684  1.00  0.00     0.015 C 
HETATM    6  C9  UNL     1     -15.141  -3.892  15.657  1.00  0.00     0.011 C 
HETATM    7  C10 UNL     1     -15.243  -4.820  14.427  1.00  0.00     0.022 C 
HETATM    8  C11 UNL     1     -15.031  -4.094  13.045  1.00  0.00     0.057 C 
HETATM    9  C13 UNL     1     -16.002  -2.840  12.996  1.00  0.00     0.011 C 
HETATM   10  C14 UNL     1     -15.974  -2.104  11.652  1.00  0.00     0.007 C 
HETATM   11  C15 UNL     1     -16.188  -3.032  10.458  1.00  0.00     0.006 C 
HETATM   12  C16 UNL     1     -15.201  -4.220  10.446  1.00  0.00     0.003 C 
HETATM   13  C17 UNL     1     -15.170  -5.041   9.076  1.00  0.00    -0.035 C 
HETATM   14  C18 UNL     1     -16.562  -5.609   8.709  1.00  0.00     0.016 C 
HETATM   15  C19 UNL     1     -14.740  -4.080   7.923  1.00  0.00     0.012 C 
HETATM   16  C20 UNL     1     -14.385  -4.782   6.616  1.00  0.00     0.033 C 
HETATM   17  C21 UNL     1     -13.316  -5.851   6.795  1.00  0.00     0.128 C 
HETATM   18  C22 UNL     1     -13.650  -6.906   7.895  1.00  0.00     0.007 C 
HETATM   19  C23 UNL     1     -14.728  -7.897   7.403  1.00  0.00     0.020 C 
HETATM   20  C25 UNL     1     -14.052  -6.143   9.214  1.00  0.00     0.007 C 
HETATM   21  C26 UNL     1     -14.316  -7.049  10.433  1.00  0.00     0.007 C 
HETATM   22  C27 UNL     1     -14.295  -6.237  11.731  1.00  0.00     0.011 C 
HETATM   23  C28 UNL     1     -15.317  -5.065  11.780  1.00  0.00    -0.022 C 
HETATM   24  C29 UNL     1     -16.725  -5.711  11.930  1.00  0.00     0.017 C 
HETATM   25  C30 UNL     1     -15.766  -1.934  14.228  1.00  0.00     0.007 C 
ENDROOT
BRANCH   8  26
HETATM   26  C12 UNL     1     -13.554  -3.606  12.997  1.00  0.00     0.149 C 
HETATM   27  O1  UNL     1     -12.603  -4.048  13.621  1.00  0.00    -0.649 OA
BRANCH  26  28
HETATM   28  O2  UNL     1     -13.339  -2.551  12.186  1.00  0.00    -0.776 OA
HETATM   29  H18 UNL     1     -12.378  -2.382  12.279  1.00  0.00     0.167 HD
ENDBRANCH  26  28
ENDBRANCH   8  26
BRANCH   1  30
HETATM   30  C2  UNL     1     -16.117   0.626  13.606  1.00  0.00    -0.089 C 
HETATM   31  C1  UNL     1     -16.585   0.972  12.396  1.00  0.00     0.014 C 
HETATM   32  C3  UNL     1     -15.074   1.478  14.285  1.00  0.00     0.043 C 
ENDBRANCH   1  30
BRANCH  18  33
HETATM   33  C24 UNL     1     -12.357  -7.745   8.161  1.00  0.00     0.176 C 
BRANCH  33  34
HETATM   34  O4  UNL     1     -11.193  -7.095   7.650  1.00  0.00    -0.400 OA
HETATM   35  H39 UNL     1     -10.446  -7.704   7.791  1.00  0.00     0.209 HD
ENDBRANCH  33  34
ENDBRANCH  18  33
BRANCH  17  36
HETATM   36  O3  UNL     1     -13.104  -6.460   5.521  1.00  0.00    -0.395 OA
HETATM   37  H33 UNL     1     -12.516  -7.228   5.687  1.00  0.00     0.210 HD
ENDBRANCH  17  36
TORSDOF 6
ENDMDL
MODEL 7
REMARK minimizedAffinity -7.61707544
REMARK  6 active torsions:
REMARK  status: ('A' for Active; 'I' for Inactive)
REMARK    1  A    between atoms: C2_2  and  C4_4 
REMARK    2  A    between atoms: C11_11  and  C12_12 
REMARK    3  A    between atoms: C12_12  and  O2_14 
REMARK    4  A    between atoms: C21_23  and  O3_24 
REMARK    5  A    between atoms: C22_25  and  C24_27 
REMARK    6  A    between atoms: C24_27  and  O4_28 
ROOT
HETATM    1  C4  UNL     1       6.827  12.759  20.780  1.00  0.00     0.018 C 
HETATM    2  C5  UNL     1       7.504  12.823  22.178  1.00  0.00     0.010 C 
HETATM    3  C6  UNL     1       6.402  12.579  23.222  1.00  0.00     0.010 C 
HETATM    4  C7  UNL     1       5.099  12.898  22.478  1.00  0.00    -0.039 C 
HETATM    5  C8  UNL     1       4.914  14.438  22.466  1.00  0.00     0.015 C 
HETATM    6  C9  UNL     1       3.850  12.233  23.069  1.00  0.00     0.011 C 
HETATM    7  C10 UNL     1       2.642  12.351  22.114  1.00  0.00     0.022 C 
HETATM    8  C11 UNL     1       2.908  11.810  20.658  1.00  0.00     0.057 C 
HETATM    9  C13 UNL     1       4.234  12.492  20.116  1.00  0.00     0.011 C 
HETATM   10  C14 UNL     1       4.551  12.133  18.661  1.00  0.00     0.007 C 
HETATM   11  C15 UNL     1       3.370  12.364  17.719  1.00  0.00     0.006 C 
HETATM   12  C16 UNL     1       2.087  11.644  18.189  1.00  0.00     0.003 C 
HETATM   13  C17 UNL     1       0.920  11.592  17.099  1.00  0.00    -0.035 C 
HETATM   14  C18 UNL     1       0.498  13.007  16.634  1.00  0.00     0.016 C 
HETATM   15  C19 UNL     1       1.440  10.824  15.843  1.00  0.00     0.012 C 
HETATM   16  C20 UNL     1       0.352  10.442  14.843  1.00  0.00     0.033 C 
HETATM   17  C21 UNL     1      -0.778   9.645  15.480  1.00  0.00     0.128 C 
HETATM   18  C22 UNL     1      -1.415  10.332  16.727  1.00  0.00     0.007 C 
HETATM   19  C23 UNL     1      -2.323  11.509  16.307  1.00  0.00     0.020 C 
HETATM   20  C25 UNL     1      -0.260  10.748  17.714  1.00  0.00     0.007 C 
HETATM   21  C26 UNL     1      -0.735  11.353  19.050  1.00  0.00     0.007 C 
HETATM   22  C27 UNL     1       0.395  11.347  20.083  1.00  0.00     0.011 C 
HETATM   23  C28 UNL     1       1.679  12.109  19.647  1.00  0.00    -0.022 C 
HETATM   24  C29 UNL     1       1.330  13.626  19.689  1.00  0.00     0.017 C 
HETATM   25  C30 UNL     1       5.402  12.250  21.103  1.00  0.00     0.007 C 
ENDROOT
BRANCH   8  26
HETATM   26  C12 UNL     1       3.126  10.272  20.765  1.00  0.00     0.149 C 
HETATM   27  O1  UNL     1       2.274   9.407  20.889  1.00  0.00    -0.649 OA
BRANCH  26  28
HETATM   28  O2  UNL     1       4.417   9.886  20.744  1.00  0.00    -0.776 OA
HETATM   29  H18 UNL     1       4.366   8.910  20.821  1.00  0.00     0.167 HD
ENDBRANCH  26  28
ENDBRANCH   8  26
BRANCH   1  30
HETATM   30  C2  UNL     1       7.706  11.990  19.806  1.00  0.00    -0.089 C 
HETATM   31  C1  UNL     1       7.319  11.550  18.598  1.00  0.00     0.014 C 
HETATM   32  C3  UNL     1       9.106  11.718  20.297  1.00  0.00     0.043 C 
ENDBRANCH   1  30
BRANCH  18  33
HETATM   33  C24 UNL     1      -2.338   9.283  17.431  1.00  0.00     0.176 C 
BRANCH  33  34
HETATM   34  O4  UNL     1      -3.652   9.800  17.646  1.00  0.00    -0.400 OA
HETATM   35  H39 UNL     1      -4.143   9.121  18.144  1.00  0.00     0.209 HD
ENDBRANCH  33  34
ENDBRANCH  18  33
BRANCH  17  36
HETATM   36  O3  UNL     1      -1.745   9.388  14.461  1.00  0.00    -0.395 OA
HETATM   37  H33 UNL     1      -2.518   8.995  14.921  1.00  0.00     0.210 HD
ENDBRANCH  17  36
TORSDOF 6
ENDMDL
MODEL 8
REMARK minimizedAffinity -7.59473896
REMARK  6 active torsions:
REMARK  status: ('A' for Active; 'I' for Inactive)
REMARK    1  A    between atoms: C2_2  and  C4_4 
REMARK    2  A    between atoms: C11_11  and  C12_12 
REMARK    3  A    between atoms: C12_12  and  O2_14 
REMARK    4  A    between atoms: C21_23  and  O3_24 
REMARK    5  A    between atoms: C22_25  and  C24_27 
REMARK    6  A    between atoms: C24_27  and  O4_28 
ROOT
HETATM    1  C4  UNL     1       5.602   9.322  13.228  1.00  0.00     0.018 C 
HETATM    2  C5  UNL     1       6.741  10.005  14.035  1.00  0.00     0.010 C 
HETATM    3  C6  UNL     1       6.123  10.492  15.357  1.00  0.00     0.010 C 
HETATM    4  C7  UNL     1       4.618  10.556  15.070  1.00  0.00    -0.039 C 
HETATM    5  C8  UNL     1       4.328  11.877  14.309  1.00  0.00     0.015 C 
HETATM    6  C9  UNL     1       3.728  10.474  16.316  1.00  0.00     0.011 C 
HETATM    7  C10 UNL     1       2.248  10.246  15.939  1.00  0.00     0.022 C 
HETATM    8  C11 UNL     1       1.997   9.000  15.009  1.00  0.00     0.057 C 
HETATM    9  C13 UNL     1       2.975   9.112  13.764  1.00  0.00     0.011 C 
HETATM   10  C14 UNL     1       2.757   8.013  12.719  1.00  0.00     0.007 C 
HETATM   11  C15 UNL     1       1.299   7.885  12.284  1.00  0.00     0.006 C 
HETATM   12  C16 UNL     1       0.337   7.697  13.477  1.00  0.00     0.003 C 
HETATM   13  C17 UNL     1      -1.142   7.251  13.071  1.00  0.00    -0.035 C 
HETATM   14  C18 UNL     1      -1.810   8.264  12.111  1.00  0.00     0.016 C 
HETATM   15  C19 UNL     1      -1.068   5.881  12.327  1.00  0.00     0.012 C 
HETATM   16  C20 UNL     1      -2.416   5.192  12.138  1.00  0.00     0.033 C 
HETATM   17  C21 UNL     1      -3.169   5.004  13.448  1.00  0.00     0.128 C 
HETATM   18  C22 UNL     1      -3.350   6.317  14.271  1.00  0.00     0.007 C 
HETATM   19  C23 UNL     1      -4.433   7.220  13.640  1.00  0.00     0.020 C 
HETATM   20  C25 UNL     1      -1.946   7.020  14.407  1.00  0.00     0.007 C 
HETATM   21  C26 UNL     1      -1.937   8.287  15.285  1.00  0.00     0.007 C 
HETATM   22  C27 UNL     1      -0.509   8.660  15.690  1.00  0.00     0.011 C 
HETATM   23  C28 UNL     1       0.463   8.900  14.499  1.00  0.00    -0.022 C 
HETATM   24  C29 UNL     1       0.043  10.251  13.851  1.00  0.00     0.017 C 
HETATM   25  C30 UNL     1       4.439   9.256  14.246  1.00  0.00     0.007 C 
ENDROOT
BRANCH   8  26
HETATM   26  C12 UNL     1       2.352   7.726  15.830  1.00  0.00     0.149 C 
HETATM   27  O1  UNL     1       2.345   7.597  17.043  1.00  0.00    -0.649 OA
BRANCH  26  28
HETATM   28  O2  UNL     1       2.736   6.669  15.086  1.00  0.00    -0.776 OA
HETATM   29  H18 UNL     1       2.918   5.974  15.753  1.00  0.00     0.167 HD
ENDBRANCH  26  28
ENDBRANCH   8  26
BRANCH   1  30
HETATM   30  C2  UNL     1       6.114   8.048  12.575  1.00  0.00    -0.089 C 
HETATM   31  C1  UNL     1       6.180   7.830  11.251  1.00  0.00     0.014 C 
HETATM   32  C3  UNL     1       6.553   6.975  13.540  1.00  0.00     0.043 C 
ENDBRANCH   1  30
BRANCH  18  33
HETATM   33  C24 UNL     1      -3.867   5.923  15.693  1.00  0.00     0.176 C 
BRANCH  33  34
HETATM   34  O4  UNL     1      -3.155   6.612  16.721  1.00  0.00    -0.400 OA
HETATM   35  H39 UNL     1      -3.484   6.266  17.571  1.00  0.00     0.209 HD
ENDBRANCH  33  34
ENDBRANCH  18  33
BRANCH  17  36
HETATM   36  O3  UNL     1      -4.421   4.394  13.136  1.00  0.00    -0.395 OA
HETATM   37  H33 UNL     1      -4.939   4.407  13.970  1.00  0.00     0.210 HD
ENDBRANCH  17  36
TORSDOF 6
ENDMDL
MODEL 9
REMARK minimizedAffinity -7.58187151
REMARK  6 active torsions:
REMARK  status: ('A' for Active; 'I' for Inactive)
REMARK    1  A    between atoms: C2_2  and  C4_4 
REMARK    2  A    between atoms: C11_11  and  C12_12 
REMARK    3  A    between atoms: C12_12  and  O2_14 
REMARK    4  A    between atoms: C21_23  and  O3_24 
REMARK    5  A    between atoms: C22_25  and  C24_27 
REMARK    6  A    between atoms: C24_27  and  O4_28 
ROOT
HETATM    1  C4  UNL     1      -3.505  12.412  16.863  1.00  0.00     0.018 C 
HETATM    2  C5  UNL     1      -3.474  13.162  18.225  1.00  0.00     0.010 C 
HETATM    3  C6  UNL     1      -2.169  12.757  18.929  1.00  0.00     0.010 C 
HETATM    4  C7  UNL     1      -1.760  11.447  18.245  1.00  0.00    -0.039 C 
HETATM    5  C8  UNL     1      -2.594  10.296  18.866  1.00  0.00     0.015 C 
HETATM    6  C9  UNL     1      -0.266  11.114  18.347  1.00  0.00     0.011 C 
HETATM    7  C10 UNL     1       0.121   9.959  17.398  1.00  0.00     0.022 C 
HETATM    8  C11 UNL     1      -0.283  10.190  15.893  1.00  0.00     0.057 C 
HETATM    9  C13 UNL     1      -1.821  10.577  15.851  1.00  0.00     0.011 C 
HETATM   10  C14 UNL     1      -2.372  10.723  14.429  1.00  0.00     0.007 C 
HETATM   11  C15 UNL     1      -2.068   9.516  13.544  1.00  0.00     0.006 C 
HETATM   12  C16 UNL     1      -0.563   9.168  13.510  1.00  0.00     0.003 C 
HETATM   13  C17 UNL     1      -0.151   8.125  12.373  1.00  0.00    -0.035 C 
HETATM   14  C18 UNL     1      -0.917   6.788  12.507  1.00  0.00     0.016 C 
HETATM   15  C19 UNL     1      -0.510   8.732  10.980  1.00  0.00     0.012 C 
HETATM   16  C20 UNL     1       0.089   7.982   9.792  1.00  0.00     0.033 C 
HETATM   17  C21 UNL     1       1.601   7.833   9.894  1.00  0.00     0.128 C 
HETATM   18  C22 UNL     1       2.088   7.193  11.231  1.00  0.00     0.007 C 
HETATM   19  C23 UNL     1       1.816   5.673  11.248  1.00  0.00     0.020 C 
HETATM   20  C25 UNL     1       1.416   7.966  12.429  1.00  0.00     0.007 C 
HETATM   21  C26 UNL     1       1.877   7.517  13.830  1.00  0.00     0.007 C 
HETATM   22  C27 UNL     1       1.503   8.560  14.886  1.00  0.00     0.011 C 
HETATM   23  C28 UNL     1      -0.015   8.886  14.968  1.00  0.00    -0.022 C 
HETATM   24  C29 UNL     1      -0.702   7.645  15.610  1.00  0.00     0.017 C 
HETATM   25  C30 UNL     1      -2.091  11.792  16.771  1.00  0.00     0.007 C 
ENDROOT
BRANCH   8  26
HETATM   26  C12 UNL     1       0.564  11.382  15.360  1.00  0.00     0.149 C 
HETATM   27  O1  UNL     1       1.676  11.726  15.725  1.00  0.00    -0.649 OA
BRANCH  26  28
HETATM   28  O2  UNL     1      -0.042  12.119  14.408  1.00  0.00    -0.776 OA
HETATM   29  H18 UNL     1       0.620  12.811  14.197  1.00  0.00     0.167 HD
ENDBRANCH  26  28
ENDBRANCH   8  26
BRANCH   1  30
HETATM   30  C2  UNL     1      -4.003  13.339  15.765  1.00  0.00    -0.089 C 
HETATM   31  C1  UNL     1      -3.236  13.881  14.805  1.00  0.00     0.014 C 
HETATM   32  C3  UNL     1      -5.477  13.650  15.819  1.00  0.00     0.043 C 
ENDBRANCH   1  30
BRANCH  18  33
HETATM   33  C24 UNL     1       3.639   7.373  11.309  1.00  0.00     0.176 C 
BRANCH  33  34
HETATM   34  O4  UNL     1       4.307   6.120  11.462  1.00  0.00    -0.400 OA
HETATM   35  H39 UNL     1       5.255   6.317  11.571  1.00  0.00     0.209 HD
ENDBRANCH  33  34
ENDBRANCH  18  33
BRANCH  17  36
HETATM   36  O3  UNL     1       2.031   7.083   8.757  1.00  0.00    -0.395 OA
HETATM   37  H33 UNL     1       2.980   6.886   8.912  1.00  0.00     0.210 HD
ENDBRANCH  17  36
TORSDOF 6
ENDMDL
