MODEL 1
REMARK minimizedAffinity -9.5600338
REMARK  6 active torsions:
REMARK  status: ('A' for Active; 'I' for Inactive)
REMARK    1  A    between atoms: C2_2  and  C30_31 
REMARK    2  A    between atoms: C3_3  and  C4_4 
REMARK    3  A    between atoms: C4_4  and  C5_5 
REMARK    4  A    between atoms: C5_5  and  C6_6 
REMARK    5  A    between atoms: C6_6  and  C8_8 
REMARK    6  A    between atoms: C30_31  and  O2_32 
ROOT
HETATM    1  C8  UNL     1      -0.568  49.626 -18.074  1.00  0.00    -0.002 C 
HETATM    2  C9  UNL     1      -1.865  48.782 -17.835  1.00  0.00     0.007 C 
HETATM    3  C10 UNL     1      -2.700  48.832 -19.134  1.00  0.00     0.015 C 
HETATM    4  C11 UNL     1      -1.725  49.378 -20.187  1.00  0.00    -0.013 C 
HETATM    5  C12 UNL     1      -0.831  48.162 -20.632  1.00  0.00     0.021 C 
HETATM    6  C13 UNL     1      -2.284  49.969 -21.489  1.00  0.00    -0.070 C 
HETATM    7  C14 UNL     1      -3.158  49.263 -22.240  1.00  0.00    -0.022 C 
HETATM    8  C15 UNL     1      -3.389  49.505 -23.708  1.00  0.00     0.034 C 
HETATM    9  C16 UNL     1      -2.227  50.334 -24.296  1.00  0.00     0.013 C 
HETATM   10  C17 UNL     1      -2.207  50.487 -25.850  1.00  0.00     0.018 C 
HETATM   11  C18 UNL     1      -3.398  51.250 -26.439  1.00  0.00     0.023 C 
HETATM   12  C19 UNL     1      -2.145  49.096 -26.516  1.00  0.00     0.023 C 
HETATM   13  C20 UNL     1      -0.921  51.241 -26.245  1.00  0.00     0.135 C 
HETATM   14  O1  UNL     1      -0.526  51.285 -27.413  1.00  0.00    -0.297 OA
HETATM   15  C21 UNL     1      -0.134  51.925 -25.146  1.00  0.00     0.080 C 
HETATM   16  C22 UNL     1      -1.092  52.630 -24.199  1.00  0.00     0.017 C 
HETATM   17  C23 UNL     1      -2.058  51.656 -23.475  1.00  0.00    -0.031 C 
HETATM   18  C24 UNL     1      -3.400  52.435 -23.293  1.00  0.00     0.016 C 
HETATM   19  C25 UNL     1      -1.599  51.255 -22.009  1.00  0.00     0.024 C 
HETATM   20  C26 UNL     1      -0.089  51.165 -21.718  1.00  0.00     0.010 C 
HETATM   21  C27 UNL     1       0.230  50.986 -20.205  1.00  0.00     0.011 C 
HETATM   22  C28 UNL     1      -0.949  50.457 -19.345  1.00  0.00    -0.029 C 
HETATM   23  C29 UNL     1      -1.853  51.643 -18.867  1.00  0.00     0.016 C 
ENDROOT
BRANCH   1  24
HETATM   24  C6  UNL     1      -0.082  50.345 -16.776  1.00  0.00    -0.014 C 
HETATM   25  C7  UNL     1      -1.247  50.705 -15.850  1.00  0.00     0.010 C 
BRANCH  24  26
HETATM   26  C5  UNL     1       0.721  51.621 -17.155  1.00  0.00     0.008 C 
BRANCH  26  27
HETATM   27  C4  UNL     1       1.352  52.402 -15.995  1.00  0.00     0.028 C 
BRANCH  27  28
HETATM   28  C3  UNL     1       1.964  51.521 -14.941  1.00  0.00    -0.022 C 
HETATM   29  C2  UNL     1       3.277  51.325 -14.697  1.00  0.00    -0.064 C 
HETATM   30  C1  UNL     1       4.395  51.954 -15.485  1.00  0.00     0.045 C 
BRANCH  29  31
HETATM   31  C30 UNL     1       3.726  50.431 -13.570  1.00  0.00     0.197 C 
BRANCH  31  32
HETATM   32  O2  UNL     1       4.851  49.682 -14.001  1.00  0.00    -0.397 OA
HETATM   33  H48 UNL     1       5.092  49.095 -13.265  1.00  0.00     0.209 HD
ENDBRANCH  31  32
ENDBRANCH  29  31
ENDBRANCH  27  28
ENDBRANCH  26  27
ENDBRANCH  24  26
ENDBRANCH   1  24
TORSDOF 6
ENDMDL
MODEL 2
REMARK minimizedAffinity -9.27379608
REMARK  6 active torsions:
REMARK  status: ('A' for Active; 'I' for Inactive)
REMARK    1  A    between atoms: C2_2  and  C30_31 
REMARK    2  A    between atoms: C3_3  and  C4_4 
REMARK    3  A    between atoms: C4_4  and  C5_5 
REMARK    4  A    between atoms: C5_5  and  C6_6 
REMARK    5  A    between atoms: C6_6  and  C8_8 
REMARK    6  A    between atoms: C30_31  and  O2_32 
ROOT
HETATM    1  C8  UNL     1      -1.044  50.270 -22.226  1.00  0.00    -0.002 C 
HETATM    2  C9  UNL     1      -0.948  49.928 -20.702  1.00  0.00     0.007 C 
HETATM    3  C10 UNL     1      -2.250  49.197 -20.304  1.00  0.00     0.015 C 
HETATM    4  C11 UNL     1      -2.891  48.814 -21.646  1.00  0.00    -0.013 C 
HETATM    5  C12 UNL     1      -2.140  47.523 -22.140  1.00  0.00     0.021 C 
HETATM    6  C13 UNL     1      -4.383  48.456 -21.687  1.00  0.00    -0.070 C 
HETATM    7  C14 UNL     1      -4.886  47.524 -20.848  1.00  0.00    -0.022 C 
HETATM    8  C15 UNL     1      -6.159  46.765 -21.105  1.00  0.00     0.034 C 
HETATM    9  C16 UNL     1      -6.552  46.879 -22.593  1.00  0.00     0.013 C 
HETATM   10  C17 UNL     1      -7.730  45.971 -23.068  1.00  0.00     0.018 C 
HETATM   11  C18 UNL     1      -9.083  46.274 -22.416  1.00  0.00     0.023 C 
HETATM   12  C19 UNL     1      -7.389  44.488 -22.809  1.00  0.00     0.023 C 
HETATM   13  C20 UNL     1      -7.891  46.143 -24.592  1.00  0.00     0.135 C 
HETATM   14  O1  UNL     1      -8.575  45.369 -25.266  1.00  0.00    -0.297 OA
HETATM   15  C21 UNL     1      -7.166  47.297 -25.255  1.00  0.00     0.080 C 
HETATM   16  C22 UNL     1      -7.301  48.543 -24.394  1.00  0.00     0.017 C 
HETATM   17  C23 UNL     1      -6.646  48.389 -22.996  1.00  0.00    -0.031 C 
HETATM   18  C24 UNL     1      -7.527  49.226 -22.014  1.00  0.00     0.016 C 
HETATM   19  C25 UNL     1      -5.188  49.006 -22.888  1.00  0.00     0.024 C 
HETATM   20  C26 UNL     1      -4.291  48.977 -24.141  1.00  0.00     0.010 C 
HETATM   21  C27 UNL     1      -2.983  49.805 -23.973  1.00  0.00     0.011 C 
HETATM   22  C28 UNL     1      -2.575  50.095 -22.504  1.00  0.00    -0.029 C 
HETATM   23  C29 UNL     1      -3.290  51.387 -21.982  1.00  0.00     0.016 C 
ENDROOT
BRANCH   1  24
HETATM   24  C6  UNL     1      -0.326  51.611 -22.579  1.00  0.00    -0.014 C 
HETATM   25  C7  UNL     1       0.022  52.421 -21.327  1.00  0.00     0.010 C 
BRANCH  24  26
HETATM   26  C5  UNL     1      -1.223  52.449 -23.533  1.00  0.00     0.008 C 
BRANCH  26  27
HETATM   27  C4  UNL     1      -0.620  52.813 -24.896  1.00  0.00     0.028 C 
BRANCH  27  28
HETATM   28  C3  UNL     1       0.749  52.232 -25.121  1.00  0.00    -0.022 C 
HETATM   29  C2  UNL     1       1.209  51.625 -26.234  1.00  0.00    -0.064 C 
HETATM   30  C1  UNL     1       0.393  51.388 -27.477  1.00  0.00     0.045 C 
BRANCH  29  31
HETATM   31  C30 UNL     1       2.629  51.127 -26.310  1.00  0.00     0.197 C 
BRANCH  31  32
HETATM   32  O2  UNL     1       3.225  51.620 -27.499  1.00  0.00    -0.397 OA
HETATM   33  H48 UNL     1       4.124  51.253 -27.533  1.00  0.00     0.209 HD
ENDBRANCH  31  32
ENDBRANCH  29  31
ENDBRANCH  27  28
ENDBRANCH  26  27
ENDBRANCH  24  26
ENDBRANCH   1  24
TORSDOF 6
ENDMDL
MODEL 3
REMARK minimizedAffinity -9.15559483
REMARK  6 active torsions:
REMARK  status: ('A' for Active; 'I' for Inactive)
REMARK    1  A    between atoms: C2_2  and  C30_31 
REMARK    2  A    between atoms: C3_3  and  C4_4 
REMARK    3  A    between atoms: C4_4  and  C5_5 
REMARK    4  A    between atoms: C5_5  and  C6_6 
REMARK    5  A    between atoms: C6_6  and  C8_8 
REMARK    6  A    between atoms: C30_31  and  O2_32 
ROOT
HETATM    1  C8  UNL     1      -1.125  49.514 -18.076  1.00  0.00    -0.002 C 
HETATM    2  C9  UNL     1      -2.476  48.736 -17.930  1.00  0.00     0.007 C 
HETATM    3  C10 UNL     1      -3.210  48.816 -19.289  1.00  0.00     0.015 C 
HETATM    4  C11 UNL     1      -2.133  49.306 -20.268  1.00  0.00    -0.013 C 
HETATM    5  C12 UNL     1      -1.269  48.044 -20.640  1.00  0.00     0.021 C 
HETATM    6  C13 UNL     1      -2.565  49.911 -21.612  1.00  0.00    -0.070 C 
HETATM    7  C14 UNL     1      -3.414  49.243 -22.422  1.00  0.00    -0.022 C 
HETATM    8  C15 UNL     1      -3.524  49.484 -23.904  1.00  0.00     0.034 C 
HETATM    9  C16 UNL     1      -2.282  50.250 -24.407  1.00  0.00     0.013 C 
HETATM   10  C17 UNL     1      -2.139  50.389 -25.956  1.00  0.00     0.018 C 
HETATM   11  C18 UNL     1      -3.244  51.204 -26.637  1.00  0.00     0.023 C 
HETATM   12  C19 UNL     1      -2.097  48.991 -26.609  1.00  0.00     0.023 C 
HETATM   13  C20 UNL     1      -0.792  51.075 -26.259  1.00  0.00     0.135 C 
HETATM   14  O1  UNL     1      -0.309  51.091 -27.394  1.00  0.00    -0.297 OA
HETATM   15  C21 UNL     1      -0.056  51.730 -25.107  1.00  0.00     0.080 C 
HETATM   16  C22 UNL     1      -1.045  52.489 -24.238  1.00  0.00     0.017 C 
HETATM   17  C23 UNL     1      -2.109  51.568 -23.582  1.00  0.00    -0.031 C 
HETATM   18  C24 UNL     1      -3.421  52.414 -23.506  1.00  0.00     0.016 C 
HETATM   19  C25 UNL     1      -1.781  51.158 -22.085  1.00  0.00     0.024 C 
HETATM   20  C26 UNL     1      -0.302  50.997 -21.682  1.00  0.00     0.010 C 
HETATM   21  C27 UNL     1      -0.105  50.815 -20.148  1.00  0.00     0.011 C 
HETATM   22  C28 UNL     1      -1.370  50.352 -19.376  1.00  0.00    -0.029 C 
HETATM   23  C29 UNL     1      -2.247  51.585 -18.972  1.00  0.00     0.016 C 
ENDROOT
BRANCH   1  24
HETATM   24  C6  UNL     1      -0.702  50.219 -16.749  1.00  0.00    -0.014 C 
HETATM   25  C7  UNL     1       0.337  49.405 -15.973  1.00  0.00     0.010 C 
BRANCH  24  26
HETATM   26  C5  UNL     1      -1.958  50.472 -15.868  1.00  0.00     0.008 C 
BRANCH  26  27
HETATM   27  C4  UNL     1      -1.710  50.681 -14.368  1.00  0.00     0.028 C 
BRANCH  27  28
HETATM   28  C3  UNL     1      -2.525  51.797 -13.776  1.00  0.00    -0.022 C 
HETATM   29  C2  UNL     1      -3.092  51.839 -12.552  1.00  0.00    -0.064 C 
HETATM   30  C1  UNL     1      -3.030  50.722 -11.544  1.00  0.00     0.045 C 
BRANCH  29  31
HETATM   31  C30 UNL     1      -3.851  53.057 -12.095  1.00  0.00     0.197 C 
BRANCH  31  32
HETATM   32  O2  UNL     1      -4.283  53.782 -13.235  1.00  0.00    -0.397 OA
HETATM   33  H48 UNL     1      -4.737  54.576 -12.905  1.00  0.00     0.209 HD
ENDBRANCH  31  32
ENDBRANCH  29  31
ENDBRANCH  27  28
ENDBRANCH  26  27
ENDBRANCH  24  26
ENDBRANCH   1  24
TORSDOF 6
ENDMDL
MODEL 4
REMARK minimizedAffinity -9.12790489
REMARK  6 active torsions:
REMARK  status: ('A' for Active; 'I' for Inactive)
REMARK    1  A    between atoms: C2_2  and  C30_31 
REMARK    2  A    between atoms: C3_3  and  C4_4 
REMARK    3  A    between atoms: C4_4  and  C5_5 
REMARK    4  A    between atoms: C5_5  and  C6_6 
REMARK    5  A    between atoms: C6_6  and  C8_8 
REMARK    6  A    between atoms: C30_31  and  O2_32 
ROOT
HETATM    1  C8  UNL     1      -1.517  48.549 -18.302  1.00  0.00    -0.002 C 
HETATM    2  C9  UNL     1      -2.730  47.647 -18.708  1.00  0.00     0.007 C 
HETATM    3  C10 UNL     1      -3.134  48.031 -20.150  1.00  0.00     0.015 C 
HETATM    4  C11 UNL     1      -1.949  48.860 -20.664  1.00  0.00    -0.013 C 
HETATM    5  C12 UNL     1      -0.841  47.827 -21.091  1.00  0.00     0.021 C 
HETATM    6  C13 UNL     1      -2.146  49.769 -21.885  1.00  0.00    -0.070 C 
HETATM    7  C14 UNL     1      -2.674  49.276 -23.027  1.00  0.00    -0.022 C 
HETATM    8  C15 UNL     1      -2.475  49.902 -24.382  1.00  0.00     0.034 C 
HETATM    9  C16 UNL     1      -1.282  50.881 -24.341  1.00  0.00     0.013 C 
HETATM   10  C17 UNL     1      -0.809  51.449 -25.717  1.00  0.00     0.018 C 
HETATM   11  C18 UNL     1      -1.839  52.320 -26.444  1.00  0.00     0.023 C 
HETATM   12  C19 UNL     1      -0.406  50.291 -26.654  1.00  0.00     0.023 C 
HETATM   13  C20 UNL     1       0.451  52.305 -25.480  1.00  0.00     0.135 C 
HETATM   14  O1  UNL     1       1.174  52.671 -26.410  1.00  0.00    -0.297 OA
HETATM   15  C21 UNL     1       0.793  52.682 -24.052  1.00  0.00     0.080 C 
HETATM   16  C22 UNL     1      -0.473  53.087 -23.316  1.00  0.00     0.017 C 
HETATM   17  C23 UNL     1      -1.506  51.934 -23.205  1.00  0.00    -0.031 C 
HETATM   18  C24 UNL     1      -2.914  52.610 -23.273  1.00  0.00     0.016 C 
HETATM   19  C25 UNL     1      -1.473  51.161 -21.820  1.00  0.00     0.024 C 
HETATM   20  C26 UNL     1      -0.121  51.025 -21.095  1.00  0.00     0.010 C 
HETATM   21  C27 UNL     1      -0.257  50.449 -19.655  1.00  0.00     0.011 C 
HETATM   22  C28 UNL     1      -1.580  49.685 -19.377  1.00  0.00    -0.029 C 
HETATM   23  C29 UNL     1      -2.703  50.681 -18.931  1.00  0.00     0.016 C 
ENDROOT
BRANCH   1  24
HETATM   24  C6  UNL     1      -1.523  48.899 -16.780  1.00  0.00    -0.014 C 
HETATM   25  C7  UNL     1      -2.427  50.096 -16.472  1.00  0.00     0.010 C 
BRANCH  24  26
HETATM   26  C5  UNL     1      -0.071  49.183 -16.303  1.00  0.00     0.008 C 
BRANCH  26  27
HETATM   27  C4  UNL     1       0.137  50.445 -15.455  1.00  0.00     0.028 C 
BRANCH  27  28
HETATM   28  C3  UNL     1       1.175  51.379 -16.014  1.00  0.00    -0.022 C 
HETATM   29  C2  UNL     1       2.335  51.756 -15.436  1.00  0.00    -0.064 C 
HETATM   30  C1  UNL     1       2.792  51.315 -14.072  1.00  0.00     0.045 C 
BRANCH  29  31
HETATM   31  C30 UNL     1       3.288  52.678 -16.152  1.00  0.00     0.197 C 
BRANCH  31  32
HETATM   32  O2  UNL     1       2.595  53.323 -17.208  1.00  0.00    -0.397 OA
HETATM   33  H48 UNL     1       3.245  53.882 -17.667  1.00  0.00     0.209 HD
ENDBRANCH  31  32
ENDBRANCH  29  31
ENDBRANCH  27  28
ENDBRANCH  26  27
ENDBRANCH  24  26
ENDBRANCH   1  24
TORSDOF 6
ENDMDL
MODEL 5
REMARK minimizedAffinity -8.87608433
REMARK  6 active torsions:
REMARK  status: ('A' for Active; 'I' for Inactive)
REMARK    1  A    between atoms: C2_2  and  C30_31 
REMARK    2  A    between atoms: C3_3  and  C4_4 
REMARK    3  A    between atoms: C4_4  and  C5_5 
REMARK    4  A    between atoms: C5_5  and  C6_6 
REMARK    5  A    between atoms: C6_6  and  C8_8 
REMARK    6  A    between atoms: C30_31  and  O2_32 
ROOT
HETATM    1  C8  UNL     1      -1.607  51.377 -21.944  1.00  0.00    -0.002 C 
HETATM    2  C9  UNL     1      -2.740  50.303 -22.065  1.00  0.00     0.007 C 
HETATM    3  C10 UNL     1      -2.925  49.661 -20.671  1.00  0.00     0.015 C 
HETATM    4  C11 UNL     1      -2.177  50.607 -19.720  1.00  0.00    -0.013 C 
HETATM    5  C12 UNL     1      -3.143  51.820 -19.455  1.00  0.00     0.021 C 
HETATM    6  C13 UNL     1      -1.771  50.100 -18.329  1.00  0.00    -0.070 C 
HETATM    7  C14 UNL     1      -2.686  49.531 -17.514  1.00  0.00    -0.022 C 
HETATM    8  C15 UNL     1      -2.539  49.447 -16.018  1.00  0.00     0.034 C 
HETATM    9  C16 UNL     1      -1.462  50.441 -15.536  1.00  0.00     0.013 C 
HETATM   10  C17 UNL     1      -1.341  50.631 -13.990  1.00  0.00     0.018 C 
HETATM   11  C18 UNL     1      -0.908  49.380 -13.218  1.00  0.00     0.023 C 
HETATM   12  C19 UNL     1      -2.687  51.115 -13.412  1.00  0.00     0.023 C 
HETATM   13  C20 UNL     1      -0.302  51.736 -13.718  1.00  0.00     0.135 C 
HETATM   14  O1  UNL     1      -0.186  52.262 -12.608  1.00  0.00    -0.297 OA
HETATM   15  C21 UNL     1       0.579  52.181 -14.869  1.00  0.00     0.080 C 
HETATM   16  C22 UNL     1       1.045  50.963 -15.650  1.00  0.00     0.017 C 
HETATM   17  C23 UNL     1      -0.122  50.175 -16.300  1.00  0.00    -0.031 C 
HETATM   18  C24 UNL     1       0.305  48.671 -16.271  1.00  0.00     0.016 C 
HETATM   19  C25 UNL     1      -0.366  50.516 -17.830  1.00  0.00     0.024 C 
HETATM   20  C26 UNL     1      -0.074  51.951 -18.311  1.00  0.00     0.010 C 
HETATM   21  C27 UNL     1      -0.137  52.099 -19.860  1.00  0.00     0.011 C 
HETATM   22  C28 UNL     1      -0.923  50.979 -20.593  1.00  0.00    -0.029 C 
HETATM   23  C29 UNL     1       0.014  49.760 -20.892  1.00  0.00     0.016 C 
ENDROOT
BRANCH   1  24
HETATM   24  C6  UNL     1      -0.763  51.497 -23.252  1.00  0.00    -0.014 C 
HETATM   25  C7  UNL     1       0.114  52.752 -23.255  1.00  0.00     0.010 C 
BRANCH  24  26
HETATM   26  C5  UNL     1      -1.708  51.495 -24.487  1.00  0.00     0.008 C 
BRANCH  26  27
HETATM   27  C4  UNL     1      -1.164  50.843 -25.764  1.00  0.00     0.028 C 
BRANCH  27  28
HETATM   28  C3  UNL     1       0.338  50.778 -25.812  1.00  0.00    -0.022 C 
HETATM   29  C2  UNL     1       1.155  51.346 -26.723  1.00  0.00    -0.064 C 
HETATM   30  C1  UNL     1       0.686  52.147 -27.909  1.00  0.00     0.045 C 
BRANCH  29  31
HETATM   31  C30 UNL     1       2.651  51.214 -26.605  1.00  0.00     0.197 C 
BRANCH  31  32
HETATM   32  O2  UNL     1       3.264  52.144 -27.483  1.00  0.00    -0.397 OA
HETATM   33  H48 UNL     1       4.223  52.008 -27.407  1.00  0.00     0.209 HD
ENDBRANCH  31  32
ENDBRANCH  29  31
ENDBRANCH  27  28
ENDBRANCH  26  27
ENDBRANCH  24  26
ENDBRANCH   1  24
TORSDOF 6
ENDMDL
MODEL 6
REMARK minimizedAffinity -8.82719421
REMARK  6 active torsions:
REMARK  status: ('A' for Active; 'I' for Inactive)
REMARK    1  A    between atoms: C2_2  and  C30_31 
REMARK    2  A    between atoms: C3_3  and  C4_4 
REMARK    3  A    between atoms: C4_4  and  C5_5 
REMARK    4  A    between atoms: C5_5  and  C6_6 
REMARK    5  A    between atoms: C6_6  and  C8_8 
REMARK    6  A    between atoms: C30_31  and  O2_32 
ROOT
HETATM    1  C8  UNL     1      -2.066  50.683 -21.923  1.00  0.00    -0.002 C 
HETATM    2  C9  UNL     1      -3.287  49.715 -21.774  1.00  0.00     0.007 C 
HETATM    3  C10 UNL     1      -3.369  49.293 -20.289  1.00  0.00     0.015 C 
HETATM    4  C11 UNL     1      -2.447  50.285 -19.565  1.00  0.00    -0.013 C 
HETATM    5  C12 UNL     1      -3.279  51.610 -19.388  1.00  0.00     0.021 C 
HETATM    6  C13 UNL     1      -1.933  49.939 -18.160  1.00  0.00    -0.070 C 
HETATM    7  C14 UNL     1      -2.796  49.578 -17.186  1.00  0.00    -0.022 C 
HETATM    8  C15 UNL     1      -2.493  49.687 -15.715  1.00  0.00     0.034 C 
HETATM    9  C16 UNL     1      -1.293  50.631 -15.491  1.00  0.00     0.013 C 
HETATM   10  C17 UNL     1      -0.988  51.020 -14.010  1.00  0.00     0.018 C 
HETATM   11  C18 UNL     1      -0.575  49.852 -13.107  1.00  0.00     0.023 C 
HETATM   12  C19 UNL     1      -2.220  51.706 -13.381  1.00  0.00     0.023 C 
HETATM   13  C20 UNL     1       0.160  52.049 -14.005  1.00  0.00     0.135 C 
HETATM   14  O1  UNL     1       0.439  52.709 -13.001  1.00  0.00    -0.297 OA
HETATM   15  C21 UNL     1       0.942  52.244 -15.289  1.00  0.00     0.080 C 
HETATM   16  C22 UNL     1       1.220  50.891 -15.924  1.00  0.00     0.017 C 
HETATM   17  C23 UNL     1      -0.071  50.135 -16.335  1.00  0.00    -0.031 C 
HETATM   18  C24 UNL     1       0.235  48.617 -16.126  1.00  0.00     0.016 C 
HETATM   19  C25 UNL     1      -0.454  50.284 -17.867  1.00  0.00     0.024 C 
HETATM   20  C26 UNL     1      -0.102  51.604 -18.580  1.00  0.00     0.010 C 
HETATM   21  C27 UNL     1      -0.322  51.542 -20.120  1.00  0.00     0.011 C 
HETATM   22  C28 UNL     1      -1.271  50.412 -20.601  1.00  0.00    -0.029 C 
HETATM   23  C29 UNL     1      -0.474  49.079 -20.807  1.00  0.00     0.016 C 
ENDROOT
BRANCH   1  24
HETATM   24  C6  UNL     1      -1.363  50.540 -23.310  1.00  0.00    -0.014 C 
HETATM   25  C7  UNL     1      -0.554  51.788 -23.674  1.00  0.00     0.010 C 
BRANCH  24  26
HETATM   26  C5  UNL     1      -2.426  50.247 -24.407  1.00  0.00     0.008 C 
BRANCH  26  27
HETATM   27  C4  UNL     1      -2.622  48.776 -24.795  1.00  0.00     0.028 C 
BRANCH  27  28
HETATM   28  C3  UNL     1      -3.066  48.585 -26.219  1.00  0.00    -0.022 C 
HETATM   29  C2  UNL     1      -4.318  48.349 -26.663  1.00  0.00    -0.064 C 
HETATM   30  C1  UNL     1      -5.525  48.201 -25.775  1.00  0.00     0.045 C 
BRANCH  29  31
HETATM   31  C30 UNL     1      -4.601  48.218 -28.137  1.00  0.00     0.197 C 
BRANCH  31  32
HETATM   32  O2  UNL     1      -5.980  48.459 -28.362  1.00  0.00    -0.397 OA
HETATM   33  H48 UNL     1      -6.133  48.333 -29.314  1.00  0.00     0.209 HD
ENDBRANCH  31  32
ENDBRANCH  29  31
ENDBRANCH  27  28
ENDBRANCH  26  27
ENDBRANCH  24  26
ENDBRANCH   1  24
TORSDOF 6
ENDMDL
MODEL 7
REMARK minimizedAffinity -8.73842335
REMARK  6 active torsions:
REMARK  status: ('A' for Active; 'I' for Inactive)
REMARK    1  A    between atoms: C2_2  and  C30_31 
REMARK    2  A    between atoms: C3_3  and  C4_4 
REMARK    3  A    between atoms: C4_4  and  C5_5 
REMARK    4  A    between atoms: C5_5  and  C6_6 
REMARK    5  A    between atoms: C6_6  and  C8_8 
REMARK    6  A    between atoms: C30_31  and  O2_32 
ROOT
HETATM    1  C8  UNL     1      -1.429  51.411 -22.671  1.00  0.00    -0.002 C 
HETATM    2  C9  UNL     1      -1.479  50.762 -24.095  1.00  0.00     0.007 C 
HETATM    3  C10 UNL     1      -2.525  49.625 -24.053  1.00  0.00     0.015 C 
HETATM    4  C11 UNL     1      -3.300  49.875 -22.751  1.00  0.00    -0.013 C 
HETATM    5  C12 UNL     1      -4.335  51.018 -23.067  1.00  0.00     0.021 C 
HETATM    6  C13 UNL     1      -4.129  48.734 -22.143  1.00  0.00    -0.070 C 
HETATM    7  C14 UNL     1      -5.031  48.069 -22.896  1.00  0.00    -0.022 C 
HETATM    8  C15 UNL     1      -6.197  47.304 -22.327  1.00  0.00     0.034 C 
HETATM    9  C16 UNL     1      -6.449  47.735 -20.867  1.00  0.00     0.013 C 
HETATM   10  C17 UNL     1      -7.755  47.194 -20.204  1.00  0.00     0.018 C 
HETATM   11  C18 UNL     1      -7.814  45.671 -20.042  1.00  0.00     0.023 C 
HETATM   12  C19 UNL     1      -8.986  47.641 -21.021  1.00  0.00     0.023 C 
HETATM   13  C20 UNL     1      -7.883  47.822 -18.802  1.00  0.00     0.135 C 
HETATM   14  O1  UNL     1      -8.933  47.767 -18.157  1.00  0.00    -0.297 OA
HETATM   15  C21 UNL     1      -6.674  48.535 -18.231  1.00  0.00     0.080 C 
HETATM   16  C22 UNL     1      -5.423  47.720 -18.518  1.00  0.00     0.017 C 
HETATM   17  C23 UNL     1      -5.135  47.561 -20.034  1.00  0.00    -0.031 C 
HETATM   18  C24 UNL     1      -4.490  46.147 -20.204  1.00  0.00     0.016 C 
HETATM   19  C25 UNL     1      -4.066  48.586 -20.605  1.00  0.00     0.024 C 
HETATM   20  C26 UNL     1      -3.994  49.989 -19.973  1.00  0.00     0.010 C 
HETATM   21  C27 UNL     1      -2.768  50.815 -20.462  1.00  0.00     0.011 C 
HETATM   22  C28 UNL     1      -2.137  50.325 -21.793  1.00  0.00    -0.029 C 
HETATM   23  C29 UNL     1      -1.085  49.197 -21.516  1.00  0.00     0.016 C 
ENDROOT
BRANCH   1  24
HETATM   24  C6  UNL     1       0.001  51.917 -22.301  1.00  0.00    -0.014 C 
HETATM   25  C7  UNL     1       0.060  52.477 -20.877  1.00  0.00     0.010 C 
BRANCH  24  26
HETATM   26  C5  UNL     1       0.455  52.995 -23.325  1.00  0.00     0.008 C 
BRANCH  26  27
HETATM   27  C4  UNL     1      -0.001  52.796 -24.776  1.00  0.00     0.028 C 
BRANCH  27  28
HETATM   28  C3  UNL     1       1.098  52.332 -25.692  1.00  0.00    -0.022 C 
HETATM   29  C2  UNL     1       0.996  52.014 -27.000  1.00  0.00    -0.064 C 
HETATM   30  C1  UNL     1      -0.287  52.041 -27.787  1.00  0.00     0.045 C 
BRANCH  29  31
HETATM   31  C30 UNL     1       2.210  51.598 -27.789  1.00  0.00     0.197 C 
BRANCH  31  32
HETATM   32  O2  UNL     1       3.370  52.090 -27.137  1.00  0.00    -0.397 OA
HETATM   33  H48 UNL     1       4.128  51.834 -27.688  1.00  0.00     0.209 HD
ENDBRANCH  31  32
ENDBRANCH  29  31
ENDBRANCH  27  28
ENDBRANCH  26  27
ENDBRANCH  24  26
ENDBRANCH   1  24
TORSDOF 6
ENDMDL
MODEL 8
REMARK minimizedAffinity -8.73656559
REMARK  6 active torsions:
REMARK  status: ('A' for Active; 'I' for Inactive)
REMARK    1  A    between atoms: C2_2  and  C30_31 
REMARK    2  A    between atoms: C3_3  and  C4_4 
REMARK    3  A    between atoms: C4_4  and  C5_5 
REMARK    4  A    between atoms: C5_5  and  C6_6 
REMARK    5  A    between atoms: C6_6  and  C8_8 
REMARK    6  A    between atoms: C30_31  and  O2_32 
ROOT
HETATM    1  C8  UNL     1      -0.718  52.691 -21.478  1.00  0.00    -0.002 C 
HETATM    2  C9  UNL     1      -0.306  52.381 -22.957  1.00  0.00     0.007 C 
HETATM    3  C10 UNL     1      -1.081  51.120 -23.402  1.00  0.00     0.015 C 
HETATM    4  C11 UNL     1      -2.169  50.950 -22.331  1.00  0.00    -0.013 C 
HETATM    5  C12 UNL     1      -3.313  51.965 -22.701  1.00  0.00     0.021 C 
HETATM    6  C13 UNL     1      -2.866  49.590 -22.184  1.00  0.00    -0.070 C 
HETATM    7  C14 UNL     1      -3.417  48.983 -23.258  1.00  0.00    -0.022 C 
HETATM    8  C15 UNL     1      -4.502  47.943 -23.169  1.00  0.00     0.034 C 
HETATM    9  C16 UNL     1      -5.166  47.990 -21.777  1.00  0.00     0.013 C 
HETATM   10  C17 UNL     1      -6.452  47.123 -21.596  1.00  0.00     0.018 C 
HETATM   11  C18 UNL     1      -6.236  45.612 -21.733  1.00  0.00     0.023 C 
HETATM   12  C19 UNL     1      -7.525  47.553 -22.617  1.00  0.00     0.023 C 
HETATM   13  C20 UNL     1      -7.024  47.392 -20.190  1.00  0.00     0.135 C 
HETATM   14  O1  UNL     1      -8.160  47.034 -19.870  1.00  0.00    -0.297 OA
HETATM   15  C21 UNL     1      -6.148  48.130 -19.198  1.00  0.00     0.080 C 
HETATM   16  C22 UNL     1      -4.727  47.599 -19.281  1.00  0.00     0.017 C 
HETATM   17  C23 UNL     1      -4.072  47.832 -20.668  1.00  0.00    -0.031 C 
HETATM   18  C24 UNL     1      -3.132  46.607 -20.912  1.00  0.00     0.016 C 
HETATM   19  C25 UNL     1      -3.131  49.108 -20.738  1.00  0.00     0.024 C 
HETATM   20  C26 UNL     1      -3.492  50.327 -19.867  1.00  0.00     0.010 C 
HETATM   21  C27 UNL     1      -2.380  51.417 -19.853  1.00  0.00     0.011 C 
HETATM   22  C28 UNL     1      -1.373  51.341 -21.032  1.00  0.00    -0.029 C 
HETATM   23  C29 UNL     1      -0.208  50.351 -20.693  1.00  0.00     0.016 C 
ENDROOT
BRANCH   1  24
HETATM   24  C6  UNL     1       0.455  53.309 -20.654  1.00  0.00    -0.014 C 
HETATM   25  C7  UNL     1       1.818  52.779 -21.110  1.00  0.00     0.010 C 
BRANCH  24  26
HETATM   26  C5  UNL     1       0.242  53.020 -19.142  1.00  0.00     0.008 C 
BRANCH  26  27
HETATM   27  C4  UNL     1       1.487  52.626 -18.338  1.00  0.00     0.028 C 
BRANCH  27  28
HETATM   28  C3  UNL     1       1.188  52.257 -16.911  1.00  0.00    -0.022 C 
HETATM   29  C2  UNL     1       2.055  52.207 -15.878  1.00  0.00    -0.064 C 
HETATM   30  C1  UNL     1       3.529  52.493 -15.985  1.00  0.00     0.045 C 
BRANCH  29  31
HETATM   31  C30 UNL     1       1.583  51.852 -14.492  1.00  0.00     0.197 C 
BRANCH  31  32
HETATM   32  O2  UNL     1       0.576  52.772 -14.101  1.00  0.00    -0.397 OA
HETATM   33  H48 UNL     1       0.320  52.535 -13.194  1.00  0.00     0.209 HD
ENDBRANCH  31  32
ENDBRANCH  29  31
ENDBRANCH  27  28
ENDBRANCH  26  27
ENDBRANCH  24  26
ENDBRANCH   1  24
TORSDOF 6
ENDMDL
MODEL 9
REMARK minimizedAffinity -8.59062767
REMARK  6 active torsions:
REMARK  status: ('A' for Active; 'I' for Inactive)
REMARK    1  A    between atoms: C2_2  and  C30_31 
REMARK    2  A    between atoms: C3_3  and  C4_4 
REMARK    3  A    between atoms: C4_4  and  C5_5 
REMARK    4  A    between atoms: C5_5  and  C6_6 
REMARK    5  A    between atoms: C6_6  and  C8_8 
REMARK    6  A    between atoms: C30_31  and  O2_32 
ROOT
HETATM    1  C8  UNL     1      -1.609  52.000 -23.869  1.00  0.00    -0.002 C 
HETATM    2  C9  UNL     1      -1.396  51.129 -25.152  1.00  0.00     0.007 C 
HETATM    3  C10 UNL     1      -2.332  49.904 -25.045  1.00  0.00     0.015 C 
HETATM    4  C11 UNL     1      -3.305  50.272 -23.915  1.00  0.00    -0.013 C 
HETATM    5  C12 UNL     1      -4.381  51.226 -24.555  1.00  0.00     0.021 C 
HETATM    6  C13 UNL     1      -4.107  49.159 -23.227  1.00  0.00    -0.070 C 
HETATM    7  C14 UNL     1      -4.830  48.284 -23.960  1.00  0.00    -0.022 C 
HETATM    8  C15 UNL     1      -5.992  47.495 -23.418  1.00  0.00     0.034 C 
HETATM    9  C16 UNL     1      -6.489  48.125 -22.100  1.00  0.00     0.013 C 
HETATM   10  C17 UNL     1      -7.823  47.555 -21.523  1.00  0.00     0.018 C 
HETATM   11  C18 UNL     1      -7.769  46.081 -21.105  1.00  0.00     0.023 C 
HETATM   12  C19 UNL     1      -8.958  47.724 -22.554  1.00  0.00     0.023 C 
HETATM   13  C20 UNL     1      -8.207  48.383 -20.280  1.00  0.00     0.135 C 
HETATM   14  O1  UNL     1      -9.330  48.315 -19.774  1.00  0.00    -0.297 OA
HETATM   15  C21 UNL     1      -7.160  49.309 -19.695  1.00  0.00     0.080 C 
HETATM   16  C22 UNL     1      -5.814  48.604 -19.673  1.00  0.00     0.017 C 
HETATM   17  C23 UNL     1      -5.298  48.236 -21.090  1.00  0.00    -0.031 C 
HETATM   18  C24 UNL     1      -4.513  46.895 -20.926  1.00  0.00     0.016 C 
HETATM   19  C25 UNL     1      -4.254  49.268 -21.691  1.00  0.00     0.024 C 
HETATM   20  C26 UNL     1      -4.398  50.754 -21.311  1.00  0.00     0.010 C 
HETATM   21  C27 UNL     1      -3.193  51.623 -21.778  1.00  0.00     0.011 C 
HETATM   22  C28 UNL     1      -2.336  50.998 -22.911  1.00  0.00    -0.029 C 
HETATM   23  C29 UNL     1      -1.239  50.055 -22.311  1.00  0.00     0.016 C 
ENDROOT
BRANCH   1  24
HETATM   24  C6  UNL     1      -0.298  52.717 -23.416  1.00  0.00    -0.014 C 
HETATM   25  C7  UNL     1       0.885  52.379 -24.329  1.00  0.00     0.010 C 
BRANCH  24  26
HETATM   26  C5  UNL     1       0.028  52.330 -21.946  1.00  0.00     0.008 C 
BRANCH  26  27
HETATM   27  C4  UNL     1       0.401  53.480 -21.002  1.00  0.00     0.028 C 
BRANCH  27  28
HETATM   28  C3  UNL     1       0.891  53.018 -19.657  1.00  0.00    -0.022 C 
HETATM   29  C2  UNL     1       0.179  52.397 -18.694  1.00  0.00    -0.064 C 
HETATM   30  C1  UNL     1      -1.288  52.075 -18.790  1.00  0.00     0.045 C 
BRANCH  29  31
HETATM   31  C30 UNL     1       0.835  51.964 -17.409  1.00  0.00     0.197 C 
BRANCH  31  32
HETATM   32  O2  UNL     1       1.296  53.115 -16.719  1.00  0.00    -0.397 OA
HETATM   33  H48 UNL     1       1.742  52.798 -15.916  1.00  0.00     0.209 HD
ENDBRANCH  31  32
ENDBRANCH  29  31
ENDBRANCH  27  28
ENDBRANCH  26  27
ENDBRANCH  24  26
ENDBRANCH   1  24
TORSDOF 6
ENDMDL
