MODEL 1
REMARK minimizedAffinity -6.83405018
REMARK  16 active torsions:
REMARK  status: ('A' for Active; 'I' for Inactive)
REMARK    1  A    between atoms: C2_2  and  C3_3 
REMARK    2  A    between atoms: C3_3  and  C4_4 
REMARK    3  A    between atoms: C4_4  and  C5_5 
REMARK    4  A    between atoms: C5_5  and  C6_6 
REMARK    5  A    between atoms: C6_6  and  C7_7 
REMARK    6  A    between atoms: C7_7  and  C8_8 
REMARK    7  A    between atoms: C8_8  and  N1_9 
REMARK    8  A    between atoms: N1_9  and  C9_10 
REMARK    9  A    between atoms: N1_9  and  C11_12 
REMARK   10  A    between atoms: N1_9  and  C13_14 
REMARK   11  A    between atoms: C13_14  and  C14_15 
REMARK   12  A    between atoms: C14_15  and  O1_16 
REMARK   13  A    between atoms: O1_16  and  C15_17 
REMARK   14  A    between atoms: C15_17  and  C16_19 
REMARK   15  A    between atoms: C16_19  and  C17_20 
REMARK   16  A    between atoms: C16_19  and  C22_25 
ROOT
HETATM    1  C14 UNL     1      -3.512  52.171 -25.260  1.00  0.00     0.206 C 
ENDROOT
BRANCH   1   2
HETATM    2  C13 UNL     1      -4.426  51.962 -24.039  1.00  0.00     0.264 C 
BRANCH   2   3
HETATM    3  N1  UNL     1      -4.733  50.467 -23.623  1.00  0.00    -0.066 N 
BRANCH   3   4
HETATM    4  C8  UNL     1      -4.527  49.554 -24.859  1.00  0.00     0.237 C 
BRANCH   4   5
HETATM    5  C7  UNL     1      -3.146  48.915 -24.974  1.00  0.00     0.028 C 
BRANCH   5   6
HETATM    6  C6  UNL     1      -2.901  48.419 -26.405  1.00  0.00     0.002 C 
BRANCH   6   7
HETATM    7  C5  UNL     1      -3.856  49.030 -27.436  1.00  0.00     0.000 C 
BRANCH   7   8
HETATM    8  C4  UNL     1      -4.929  48.054 -27.926  1.00  0.00     0.000 C 
BRANCH   8   9
HETATM    9  C3  UNL     1      -5.235  48.190 -29.422  1.00  0.00    -0.000 C 
BRANCH   9  10
HETATM   10  C2  UNL     1      -6.505  47.457 -29.856  1.00  0.00    -0.005 C 
HETATM   11  C1  UNL     1      -6.798  46.271 -28.951  1.00  0.00     0.005 C 
ENDBRANCH   9  10
ENDBRANCH   8   9
ENDBRANCH   7   8
ENDBRANCH   6   7
ENDBRANCH   5   6
ENDBRANCH   4   5
ENDBRANCH   3   4
BRANCH   3  12
HETATM   12  C9  UNL     1      -3.646  50.154 -22.526  1.00  0.00     0.233 C 
HETATM   13  C10 UNL     1      -3.005  51.367 -21.865  1.00  0.00     0.035 C 
ENDBRANCH   3  12
BRANCH   3  14
HETATM   14  C11 UNL     1      -6.141  50.362 -22.995  1.00  0.00     0.233 C 
HETATM   15  C12 UNL     1      -6.207  49.627 -21.671  1.00  0.00     0.035 C 
ENDBRANCH   3  14
ENDBRANCH   2   3
ENDBRANCH   1   2
BRANCH   1  16
HETATM   16  O1  UNL     1      -2.352  52.952 -24.914  1.00  0.00    -0.319 OA
BRANCH  16  17
HETATM   17  C15 UNL     1      -1.424  53.085 -25.902  1.00  0.00     0.263 C 
HETATM   18  O2  UNL     1      -1.720  53.325 -27.066  1.00  0.00    -0.265 OA
BRANCH  17  19
HETATM   19  C16 UNL     1       0.002  52.903 -25.400  1.00  0.00     0.093 C 
BRANCH  19  20
HETATM   20  C17 UNL     1       0.536  51.478 -25.723  1.00  0.00    -0.001 C 
HETATM   21  C18 UNL     1       2.045  51.410 -25.986  1.00  0.00     0.005 C 
HETATM   22  C19 UNL     1       2.212  51.866 -27.431  1.00  0.00     0.000 C 
HETATM   23  C20 UNL     1       0.901  51.514 -28.131  1.00  0.00     0.000 C 
HETATM   24  C21 UNL     1      -0.009  50.930 -27.053  1.00  0.00     0.005 C 
ENDBRANCH  19  20
BRANCH  19  25
HETATM   25  C22 UNL     1       0.140  53.301 -23.914  1.00  0.00    -0.001 C 
HETATM   26  C23 UNL     1       0.448  52.151 -22.950  1.00  0.00     0.005 C 
HETATM   27  C24 UNL     1       0.776  52.869 -21.648  1.00  0.00     0.000 C 
HETATM   28  C25 UNL     1       1.415  54.196 -22.059  1.00  0.00     0.000 C 
HETATM   29  C26 UNL     1       1.235  54.311 -23.573  1.00  0.00     0.005 C 
ENDBRANCH  19  25
ENDBRANCH  17  19
ENDBRANCH  16  17
ENDBRANCH   1  16
TORSDOF 16
ENDMDL
MODEL 2
REMARK minimizedAffinity -6.79151201
REMARK  16 active torsions:
REMARK  status: ('A' for Active; 'I' for Inactive)
REMARK    1  A    between atoms: C2_2  and  C3_3 
REMARK    2  A    between atoms: C3_3  and  C4_4 
REMARK    3  A    between atoms: C4_4  and  C5_5 
REMARK    4  A    between atoms: C5_5  and  C6_6 
REMARK    5  A    between atoms: C6_6  and  C7_7 
REMARK    6  A    between atoms: C7_7  and  C8_8 
REMARK    7  A    between atoms: C8_8  and  N1_9 
REMARK    8  A    between atoms: N1_9  and  C9_10 
REMARK    9  A    between atoms: N1_9  and  C11_12 
REMARK   10  A    between atoms: N1_9  and  C13_14 
REMARK   11  A    between atoms: C13_14  and  C14_15 
REMARK   12  A    between atoms: C14_15  and  O1_16 
REMARK   13  A    between atoms: O1_16  and  C15_17 
REMARK   14  A    between atoms: C15_17  and  C16_19 
REMARK   15  A    between atoms: C16_19  and  C17_20 
REMARK   16  A    between atoms: C16_19  and  C22_25 
ROOT
HETATM    1  C14 UNL     1      -3.942  52.188 -23.298  1.00  0.00     0.206 C 
ENDROOT
BRANCH   1   2
HETATM    2  C13 UNL     1      -3.586  51.482 -21.977  1.00  0.00     0.264 C 
BRANCH   2   3
HETATM    3  N1  UNL     1      -4.292  50.094 -21.695  1.00  0.00    -0.066 N 
BRANCH   3   4
HETATM    4  C8  UNL     1      -3.205  48.995 -21.582  1.00  0.00     0.237 C 
BRANCH   4   5
HETATM    5  C7  UNL     1      -1.822  49.391 -22.091  1.00  0.00     0.028 C 
BRANCH   5   6
HETATM    6  C6  UNL     1      -0.772  49.210 -20.988  1.00  0.00     0.002 C 
BRANCH   6   7
HETATM    7  C5  UNL     1      -1.022  50.085 -19.755  1.00  0.00     0.000 C 
BRANCH   7   8
HETATM    8  C4  UNL     1      -0.015  51.229 -19.606  1.00  0.00     0.000 C 
BRANCH   8   9
HETATM    9  C3  UNL     1      -0.205  52.342 -20.643  1.00  0.00    -0.000 C 
BRANCH   9  10
HETATM   10  C2  UNL     1       0.468  53.660 -20.256  1.00  0.00    -0.005 C 
HETATM   11  C1  UNL     1       1.524  54.063 -21.274  1.00  0.00     0.005 C 
ENDBRANCH   9  10
ENDBRANCH   8   9
ENDBRANCH   7   8
ENDBRANCH   6   7
ENDBRANCH   5   6
ENDBRANCH   4   5
ENDBRANCH   3   4
BRANCH   3  12
HETATM   12  C9  UNL     1      -4.998  50.310 -20.304  1.00  0.00     0.233 C 
HETATM   13  C10 UNL     1      -4.687  49.271 -19.235  1.00  0.00     0.035 C 
ENDBRANCH   3  12
BRANCH   3  14
HETATM   14  C11 UNL     1      -5.361  49.808 -22.774  1.00  0.00     0.233 C 
HETATM   15  C12 UNL     1      -6.800  49.939 -22.312  1.00  0.00     0.035 C 
ENDBRANCH   3  14
ENDBRANCH   2   3
ENDBRANCH   1   2
BRANCH   1  16
HETATM   16  O1  UNL     1      -2.779  52.794 -23.894  1.00  0.00    -0.319 OA
BRANCH  16  17
HETATM   17  C15 UNL     1      -2.506  52.398 -25.168  1.00  0.00     0.263 C 
HETATM   18  O2  UNL     1      -2.918  52.995 -26.155  1.00  0.00    -0.265 OA
BRANCH  17  19
HETATM   19  C16 UNL     1      -1.641  51.145 -25.223  1.00  0.00     0.093 C 
BRANCH  19  20
HETATM   20  C17 UNL     1      -0.131  51.508 -25.307  1.00  0.00    -0.001 C 
HETATM   21  C18 UNL     1       0.152  52.956 -25.725  1.00  0.00     0.005 C 
HETATM   22  C19 UNL     1       0.004  52.961 -27.242  1.00  0.00     0.000 C 
HETATM   23  C20 UNL     1       0.340  51.542 -27.696  1.00  0.00     0.000 C 
HETATM   24  C21 UNL     1       0.601  50.743 -26.422  1.00  0.00     0.005 C 
ENDBRANCH  19  20
BRANCH  19  25
HETATM   25  C22 UNL     1      -2.114  50.171 -26.324  1.00  0.00    -0.001 C 
HETATM   26  C23 UNL     1      -2.795  48.894 -25.826  1.00  0.00     0.005 C 
HETATM   27  C24 UNL     1      -3.365  48.285 -27.101  1.00  0.00     0.000 C 
HETATM   28  C25 UNL     1      -3.715  49.470 -28.001  1.00  0.00     0.000 C 
HETATM   29  C26 UNL     1      -3.134  50.713 -27.326  1.00  0.00     0.005 C 
ENDBRANCH  19  25
ENDBRANCH  17  19
ENDBRANCH  16  17
ENDBRANCH   1  16
TORSDOF 16
ENDMDL
MODEL 3
REMARK minimizedAffinity -6.76201296
REMARK  16 active torsions:
REMARK  status: ('A' for Active; 'I' for Inactive)
REMARK    1  A    between atoms: C2_2  and  C3_3 
REMARK    2  A    between atoms: C3_3  and  C4_4 
REMARK    3  A    between atoms: C4_4  and  C5_5 
REMARK    4  A    between atoms: C5_5  and  C6_6 
REMARK    5  A    between atoms: C6_6  and  C7_7 
REMARK    6  A    between atoms: C7_7  and  C8_8 
REMARK    7  A    between atoms: C8_8  and  N1_9 
REMARK    8  A    between atoms: N1_9  and  C9_10 
REMARK    9  A    between atoms: N1_9  and  C11_12 
REMARK   10  A    between atoms: N1_9  and  C13_14 
REMARK   11  A    between atoms: C13_14  and  C14_15 
REMARK   12  A    between atoms: C14_15  and  O1_16 
REMARK   13  A    between atoms: O1_16  and  C15_17 
REMARK   14  A    between atoms: C15_17  and  C16_19 
REMARK   15  A    between atoms: C16_19  and  C17_20 
REMARK   16  A    between atoms: C16_19  and  C22_25 
ROOT
HETATM    1  C14 UNL     1      -2.043  51.360 -22.604  1.00  0.00     0.206 C 
ENDROOT
BRANCH   1   2
HETATM    2  C13 UNL     1      -3.280  50.994 -21.762  1.00  0.00     0.264 C 
BRANCH   2   3
HETATM    3  N1  UNL     1      -3.306  49.546 -21.126  1.00  0.00    -0.066 N 
BRANCH   3   4
HETATM    4  C8  UNL     1      -3.181  49.676 -19.587  1.00  0.00     0.237 C 
BRANCH   4   5
HETATM    5  C7  UNL     1      -2.930  51.090 -19.070  1.00  0.00     0.028 C 
BRANCH   5   6
HETATM    6  C6  UNL     1      -1.636  51.140 -18.248  1.00  0.00     0.002 C 
BRANCH   6   7
HETATM    7  C5  UNL     1      -0.367  51.174 -19.107  1.00  0.00     0.000 C 
BRANCH   7   8
HETATM    8  C4  UNL     1       0.526  52.385 -18.825  1.00  0.00     0.000 C 
BRANCH   8   9
HETATM    9  C3  UNL     1       0.118  53.635 -19.612  1.00  0.00    -0.000 C 
BRANCH   9  10
HETATM   10  C2  UNL     1       1.119  54.027 -20.700  1.00  0.00    -0.005 C 
HETATM   11  C1  UNL     1       0.952  53.168 -21.944  1.00  0.00     0.005 C 
ENDBRANCH   9  10
ENDBRANCH   8   9
ENDBRANCH   7   8
ENDBRANCH   6   7
ENDBRANCH   5   6
ENDBRANCH   4   5
ENDBRANCH   3   4
BRANCH   3  12
HETATM   12  C9  UNL     1      -4.730  48.994 -21.513  1.00  0.00     0.233 C 
HETATM   13  C10 UNL     1      -4.745  47.828 -22.492  1.00  0.00     0.035 C 
ENDBRANCH   3  12
BRANCH   3  14
HETATM   14  C11 UNL     1      -2.219  48.656 -21.770  1.00  0.00     0.233 C 
HETATM   15  C12 UNL     1      -1.224  48.046 -20.802  1.00  0.00     0.035 C 
ENDBRANCH   3  14
ENDBRANCH   2   3
ENDBRANCH   1   2
BRANCH   1  16
HETATM   16  O1  UNL     1      -2.311  52.491 -23.456  1.00  0.00    -0.319 OA
BRANCH  16  17
HETATM   17  C15 UNL     1      -2.239  52.241 -24.793  1.00  0.00     0.263 C 
HETATM   18  O2  UNL     1      -2.850  52.897 -25.628  1.00  0.00    -0.265 OA
BRANCH  17  19
HETATM   19  C16 UNL     1      -1.324  51.069 -25.125  1.00  0.00     0.093 C 
BRANCH  19  20
HETATM   20  C17 UNL     1       0.128  51.551 -25.402  1.00  0.00    -0.001 C 
HETATM   21  C18 UNL     1       0.241  53.024 -25.811  1.00  0.00     0.005 C 
HETATM   22  C19 UNL     1      -0.113  53.049 -27.293  1.00  0.00     0.000 C 
HETATM   23  C20 UNL     1       0.262  51.669 -27.831  1.00  0.00     0.000 C 
HETATM   24  C21 UNL     1       0.755  50.868 -26.629  1.00  0.00     0.005 C 
ENDBRANCH  19  20
BRANCH  19  25
HETATM   25  C22 UNL     1      -1.914  50.181 -26.243  1.00  0.00    -0.001 C 
HETATM   26  C23 UNL     1      -2.592  48.892 -25.772  1.00  0.00     0.005 C 
HETATM   27  C24 UNL     1      -3.281  48.383 -27.031  1.00  0.00     0.000 C 
HETATM   28  C25 UNL     1      -3.666  49.632 -27.823  1.00  0.00     0.000 C 
HETATM   29  C26 UNL     1      -2.995  50.813 -27.121  1.00  0.00     0.005 C 
ENDBRANCH  19  25
ENDBRANCH  17  19
ENDBRANCH  16  17
ENDBRANCH   1  16
TORSDOF 16
ENDMDL
MODEL 4
REMARK minimizedAffinity -6.74663019
REMARK  16 active torsions:
REMARK  status: ('A' for Active; 'I' for Inactive)
REMARK    1  A    between atoms: C2_2  and  C3_3 
REMARK    2  A    between atoms: C3_3  and  C4_4 
REMARK    3  A    between atoms: C4_4  and  C5_5 
REMARK    4  A    between atoms: C5_5  and  C6_6 
REMARK    5  A    between atoms: C6_6  and  C7_7 
REMARK    6  A    between atoms: C7_7  and  C8_8 
REMARK    7  A    between atoms: C8_8  and  N1_9 
REMARK    8  A    between atoms: N1_9  and  C9_10 
REMARK    9  A    between atoms: N1_9  and  C11_12 
REMARK   10  A    between atoms: N1_9  and  C13_14 
REMARK   11  A    between atoms: C13_14  and  C14_15 
REMARK   12  A    between atoms: C14_15  and  O1_16 
REMARK   13  A    between atoms: O1_16  and  C15_17 
REMARK   14  A    between atoms: C15_17  and  C16_19 
REMARK   15  A    between atoms: C16_19  and  C17_20 
REMARK   16  A    between atoms: C16_19  and  C22_25 
ROOT
HETATM    1  C14 UNL     1      -3.514  52.194 -25.166  1.00  0.00     0.206 C 
ENDROOT
BRANCH   1   2
HETATM    2  C13 UNL     1      -4.020  51.220 -24.086  1.00  0.00     0.264 C 
BRANCH   2   3
HETATM    3  N1  UNL     1      -4.175  49.703 -24.509  1.00  0.00    -0.066 N 
BRANCH   3   4
HETATM    4  C8  UNL     1      -3.216  48.845 -23.647  1.00  0.00     0.237 C 
BRANCH   4   5
HETATM    5  C7  UNL     1      -2.151  49.626 -22.881  1.00  0.00     0.028 C 
BRANCH   5   6
HETATM    6  C6  UNL     1      -1.562  48.768 -21.755  1.00  0.00     0.002 C 
BRANCH   6   7
HETATM    7  C5  UNL     1      -0.579  49.529 -20.857  1.00  0.00     0.000 C 
BRANCH   7   8
HETATM    8  C4  UNL     1      -0.988  49.541 -19.381  1.00  0.00     0.000 C 
BRANCH   8   9
HETATM    9  C3  UNL     1      -0.162  50.514 -18.532  1.00  0.00    -0.000 C 
BRANCH   9  10
HETATM   10  C2  UNL     1       0.029  50.053 -17.086  1.00  0.00    -0.005 C 
HETATM   11  C1  UNL     1       0.795  51.085 -16.272  1.00  0.00     0.005 C 
ENDBRANCH   9  10
ENDBRANCH   8   9
ENDBRANCH   7   8
ENDBRANCH   6   7
ENDBRANCH   5   6
ENDBRANCH   4   5
ENDBRANCH   3   4
BRANCH   3  12
HETATM   12  C9  UNL     1      -5.673  49.369 -24.157  1.00  0.00     0.233 C 
HETATM   13  C10 UNL     1      -5.965  47.914 -23.815  1.00  0.00     0.035 C 
ENDBRANCH   3  12
BRANCH   3  14
HETATM   14  C11 UNL     1      -3.959  49.546 -26.031  1.00  0.00     0.233 C 
HETATM   15  C12 UNL     1      -2.916  48.522 -26.436  1.00  0.00     0.035 C 
ENDBRANCH   3  14
ENDBRANCH   2   3
ENDBRANCH   1   2
BRANCH   1  16
HETATM   16  O1  UNL     1      -2.306  52.857 -24.743  1.00  0.00    -0.319 OA
BRANCH  16  17
HETATM   17  C15 UNL     1      -1.393  53.086 -25.728  1.00  0.00     0.263 C 
HETATM   18  O2  UNL     1      -1.709  53.377 -26.875  1.00  0.00    -0.265 OA
BRANCH  17  19
HETATM   19  C16 UNL     1       0.044  52.940 -25.244  1.00  0.00     0.093 C 
BRANCH  19  20
HETATM   20  C17 UNL     1       0.600  51.521 -25.554  1.00  0.00    -0.001 C 
HETATM   21  C18 UNL     1       2.074  51.495 -25.977  1.00  0.00     0.005 C 
HETATM   22  C19 UNL     1       2.064  51.878 -27.452  1.00  0.00     0.000 C 
HETATM   23  C20 UNL     1       0.702  51.440 -27.986  1.00  0.00     0.000 C 
HETATM   24  C21 UNL     1      -0.060  50.882 -26.786  1.00  0.00     0.005 C 
ENDBRANCH  19  20
BRANCH  19  25
HETATM   25  C22 UNL     1       0.195  53.364 -23.767  1.00  0.00    -0.001 C 
HETATM   26  C23 UNL     1       0.565  52.241 -22.795  1.00  0.00     0.005 C 
HETATM   27  C24 UNL     1       0.892  52.989 -21.509  1.00  0.00     0.000 C 
HETATM   28  C25 UNL     1       1.473  54.332 -21.951  1.00  0.00     0.000 C 
HETATM   29  C26 UNL     1       1.260  54.419 -23.463  1.00  0.00     0.005 C 
ENDBRANCH  19  25
ENDBRANCH  17  19
ENDBRANCH  16  17
ENDBRANCH   1  16
TORSDOF 16
ENDMDL
MODEL 5
REMARK minimizedAffinity -6.71047163
REMARK  16 active torsions:
REMARK  status: ('A' for Active; 'I' for Inactive)
REMARK    1  A    between atoms: C2_2  and  C3_3 
REMARK    2  A    between atoms: C3_3  and  C4_4 
REMARK    3  A    between atoms: C4_4  and  C5_5 
REMARK    4  A    between atoms: C5_5  and  C6_6 
REMARK    5  A    between atoms: C6_6  and  C7_7 
REMARK    6  A    between atoms: C7_7  and  C8_8 
REMARK    7  A    between atoms: C8_8  and  N1_9 
REMARK    8  A    between atoms: N1_9  and  C9_10 
REMARK    9  A    between atoms: N1_9  and  C11_12 
REMARK   10  A    between atoms: N1_9  and  C13_14 
REMARK   11  A    between atoms: C13_14  and  C14_15 
REMARK   12  A    between atoms: C14_15  and  O1_16 
REMARK   13  A    between atoms: O1_16  and  C15_17 
REMARK   14  A    between atoms: C15_17  and  C16_19 
REMARK   15  A    between atoms: C16_19  and  C17_20 
REMARK   16  A    between atoms: C16_19  and  C22_25 
ROOT
HETATM    1  C14 UNL     1      -2.228  51.290 -23.061  1.00  0.00     0.206 C 
ENDROOT
BRANCH   1   2
HETATM    2  C13 UNL     1      -2.402  51.635 -21.570  1.00  0.00     0.264 C 
BRANCH   2   3
HETATM    3  N1  UNL     1      -1.315  51.064 -20.573  1.00  0.00    -0.066 N 
BRANCH   3   4
HETATM    4  C8  UNL     1      -1.361  51.887 -19.261  1.00  0.00     0.237 C 
BRANCH   4   5
HETATM    5  C7  UNL     1      -1.234  51.074 -17.976  1.00  0.00     0.028 C 
BRANCH   5   6
HETATM    6  C6  UNL     1       0.229  51.016 -17.519  1.00  0.00     0.002 C 
BRANCH   6   7
HETATM    7  C5  UNL     1       0.481  49.998 -16.401  1.00  0.00     0.000 C 
BRANCH   7   8
HETATM    8  C4  UNL     1       1.227  50.586 -15.200  1.00  0.00     0.000 C 
BRANCH   8   9
HETATM    9  C3  UNL     1       1.935  51.909 -15.515  1.00  0.00    -0.000 C 
BRANCH   9  10
HETATM   10  C2  UNL     1       3.401  51.936 -15.082  1.00  0.00    -0.005 C 
HETATM   11  C1  UNL     1       4.311  52.347 -16.230  1.00  0.00     0.005 C 
ENDBRANCH   9  10
ENDBRANCH   8   9
ENDBRANCH   7   8
ENDBRANCH   6   7
ENDBRANCH   5   6
ENDBRANCH   4   5
ENDBRANCH   3   4
BRANCH   3  12
HETATM   12  C9  UNL     1      -1.791  49.586 -20.308  1.00  0.00     0.233 C 
HETATM   13  C10 UNL     1      -0.830  48.492 -20.752  1.00  0.00     0.035 C 
ENDBRANCH   3  12
BRANCH   3  14
HETATM   14  C11 UNL     1       0.075  51.042 -21.249  1.00  0.00     0.233 C 
HETATM   15  C12 UNL     1       0.775  52.384 -21.335  1.00  0.00     0.035 C 
ENDBRANCH   3  14
ENDBRANCH   2   3
ENDBRANCH   1   2
BRANCH   1  16
HETATM   16  O1  UNL     1      -2.379  52.461 -23.887  1.00  0.00    -0.319 OA
BRANCH  16  17
HETATM   17  C15 UNL     1      -2.626  52.214 -25.204  1.00  0.00     0.263 C 
HETATM   18  O2  UNL     1      -3.578  52.696 -25.804  1.00  0.00    -0.265 OA
BRANCH  17  19
HETATM   19  C16 UNL     1      -1.595  51.286 -25.832  1.00  0.00     0.093 C 
BRANCH  19  20
HETATM   20  C17 UNL     1      -0.623  52.070 -26.759  1.00  0.00    -0.001 C 
HETATM   21  C18 UNL     1       0.495  51.219 -27.372  1.00  0.00     0.005 C 
HETATM   22  C19 UNL     1       1.544  51.098 -26.273  1.00  0.00     0.000 C 
HETATM   23  C20 UNL     1       1.387  52.349 -25.411  1.00  0.00     0.000 C 
HETATM   24  C21 UNL     1       0.205  53.118 -25.997  1.00  0.00     0.005 C 
ENDBRANCH  19  20
BRANCH  19  25
HETATM   25  C22 UNL     1      -2.261  50.068 -26.511  1.00  0.00    -0.001 C 
HETATM   26  C23 UNL     1      -3.227  49.271 -25.631  1.00  0.00     0.005 C 
HETATM   27  C24 UNL     1      -3.900  48.329 -26.620  1.00  0.00     0.000 C 
HETATM   28  C25 UNL     1      -3.952  49.091 -27.944  1.00  0.00     0.000 C 
HETATM   29  C26 UNL     1      -3.112  50.354 -27.748  1.00  0.00     0.005 C 
ENDBRANCH  19  25
ENDBRANCH  17  19
ENDBRANCH  16  17
ENDBRANCH   1  16
TORSDOF 16
ENDMDL
MODEL 6
REMARK minimizedAffinity -6.63123417
REMARK  16 active torsions:
REMARK  status: ('A' for Active; 'I' for Inactive)
REMARK    1  A    between atoms: C2_2  and  C3_3 
REMARK    2  A    between atoms: C3_3  and  C4_4 
REMARK    3  A    between atoms: C4_4  and  C5_5 
REMARK    4  A    between atoms: C5_5  and  C6_6 
REMARK    5  A    between atoms: C6_6  and  C7_7 
REMARK    6  A    between atoms: C7_7  and  C8_8 
REMARK    7  A    between atoms: C8_8  and  N1_9 
REMARK    8  A    between atoms: N1_9  and  C9_10 
REMARK    9  A    between atoms: N1_9  and  C11_12 
REMARK   10  A    between atoms: N1_9  and  C13_14 
REMARK   11  A    between atoms: C13_14  and  C14_15 
REMARK   12  A    between atoms: C14_15  and  O1_16 
REMARK   13  A    between atoms: O1_16  and  C15_17 
REMARK   14  A    between atoms: C15_17  and  C16_19 
REMARK   15  A    between atoms: C16_19  and  C17_20 
REMARK   16  A    between atoms: C16_19  and  C22_25 
ROOT
HETATM    1  C14 UNL     1      -0.513  51.583 -22.625  1.00  0.00     0.206 C 
ENDROOT
BRANCH   1   2
HETATM    2  C13 UNL     1      -0.748  51.454 -21.108  1.00  0.00     0.264 C 
BRANCH   2   3
HETATM    3  N1  UNL     1      -1.635  50.237 -20.624  1.00  0.00    -0.066 N 
BRANCH   3   4
HETATM    4  C8  UNL     1      -0.994  49.628 -19.352  1.00  0.00     0.237 C 
BRANCH   4   5
HETATM    5  C7  UNL     1      -0.450  50.640 -18.347  1.00  0.00     0.028 C 
BRANCH   5   6
HETATM    6  C6  UNL     1       0.174  49.922 -17.144  1.00  0.00     0.002 C 
BRANCH   6   7
HETATM    7  C5  UNL     1       0.771  50.876 -16.104  1.00  0.00     0.000 C 
BRANCH   7   8
HETATM    8  C4  UNL     1       1.030  52.284 -16.648  1.00  0.00     0.000 C 
BRANCH   8   9
HETATM    9  C3  UNL     1       2.418  52.444 -17.279  1.00  0.00    -0.000 C 
BRANCH   9  10
HETATM   10  C2  UNL     1       3.467  53.001 -16.316  1.00  0.00    -0.005 C 
HETATM   11  C1  UNL     1       4.073  51.901 -15.458  1.00  0.00     0.005 C 
ENDBRANCH   9  10
ENDBRANCH   8   9
ENDBRANCH   7   8
ENDBRANCH   6   7
ENDBRANCH   5   6
ENDBRANCH   4   5
ENDBRANCH   3   4
BRANCH   3  12
HETATM   12  C9  UNL     1      -3.020  50.901 -20.273  1.00  0.00     0.233 C 
HETATM   13  C10 UNL     1      -3.995  50.028 -19.494  1.00  0.00     0.035 C 
ENDBRANCH   3  12
BRANCH   3  14
HETATM   14  C11 UNL     1      -1.829  49.223 -21.774  1.00  0.00     0.233 C 
HETATM   15  C12 UNL     1      -1.556  47.776 -21.415  1.00  0.00     0.035 C 
ENDBRANCH   3  14
ENDBRANCH   2   3
ENDBRANCH   1   2
BRANCH   1  16
HETATM   16  O1  UNL     1      -1.488  52.454 -23.230  1.00  0.00    -0.319 OA
BRANCH  16  17
HETATM   17  C15 UNL     1      -1.749  52.210 -24.545  1.00  0.00     0.263 C 
HETATM   18  O2  UNL     1      -2.599  52.820 -25.180  1.00  0.00    -0.265 OA
BRANCH  17  19
HETATM   19  C16 UNL     1      -0.871  51.108 -25.124  1.00  0.00     0.093 C 
BRANCH  19  20
HETATM   20  C17 UNL     1       0.487  51.676 -25.627  1.00  0.00    -0.001 C 
HETATM   21  C18 UNL     1       0.474  53.180 -25.926  1.00  0.00     0.005 C 
HETATM   22  C19 UNL     1      -0.157  53.300 -27.308  1.00  0.00     0.000 C 
HETATM   23  C20 UNL     1       0.152  51.984 -28.020  1.00  0.00     0.000 C 
HETATM   24  C21 UNL     1       0.890  51.118 -27.001  1.00  0.00     0.005 C 
ENDBRANCH  19  20
BRANCH  19  25
HETATM   25  C22 UNL     1      -1.627  50.269 -26.177  1.00  0.00    -0.001 C 
HETATM   26  C23 UNL     1      -2.282  48.988 -25.653  1.00  0.00     0.005 C 
HETATM   27  C24 UNL     1      -3.143  48.534 -26.824  1.00  0.00     0.000 C 
HETATM   28  C25 UNL     1      -3.584  49.815 -27.532  1.00  0.00     0.000 C 
HETATM   29  C26 UNL     1      -2.790  50.956 -26.895  1.00  0.00     0.005 C 
ENDBRANCH  19  25
ENDBRANCH  17  19
ENDBRANCH  16  17
ENDBRANCH   1  16
TORSDOF 16
ENDMDL
MODEL 7
REMARK minimizedAffinity -6.58399343
REMARK  16 active torsions:
REMARK  status: ('A' for Active; 'I' for Inactive)
REMARK    1  A    between atoms: C2_2  and  C3_3 
REMARK    2  A    between atoms: C3_3  and  C4_4 
REMARK    3  A    between atoms: C4_4  and  C5_5 
REMARK    4  A    between atoms: C5_5  and  C6_6 
REMARK    5  A    between atoms: C6_6  and  C7_7 
REMARK    6  A    between atoms: C7_7  and  C8_8 
REMARK    7  A    between atoms: C8_8  and  N1_9 
REMARK    8  A    between atoms: N1_9  and  C9_10 
REMARK    9  A    between atoms: N1_9  and  C11_12 
REMARK   10  A    between atoms: N1_9  and  C13_14 
REMARK   11  A    between atoms: C13_14  and  C14_15 
REMARK   12  A    between atoms: C14_15  and  O1_16 
REMARK   13  A    between atoms: O1_16  and  C15_17 
REMARK   14  A    between atoms: C15_17  and  C16_19 
REMARK   15  A    between atoms: C16_19  and  C17_20 
REMARK   16  A    between atoms: C16_19  and  C22_25 
ROOT
HETATM    1  C14 UNL     1      -3.643  51.239 -23.478  1.00  0.00     0.206 C 
ENDROOT
BRANCH   1   2
HETATM    2  C13 UNL     1      -3.565  50.070 -22.479  1.00  0.00     0.264 C 
BRANCH   2   3
HETATM    3  N1  UNL     1      -4.504  48.828 -22.759  1.00  0.00    -0.066 N 
BRANCH   3   4
HETATM    4  C8  UNL     1      -4.541  48.565 -24.285  1.00  0.00     0.237 C 
BRANCH   4   5
HETATM    5  C7  UNL     1      -3.182  48.552 -24.978  1.00  0.00     0.028 C 
BRANCH   5   6
HETATM    6  C6  UNL     1      -3.355  48.494 -26.501  1.00  0.00     0.002 C 
BRANCH   6   7
HETATM    7  C5  UNL     1      -4.814  48.343 -26.946  1.00  0.00     0.000 C 
BRANCH   7   8
HETATM    8  C4  UNL     1      -4.965  47.999 -28.430  1.00  0.00     0.000 C 
BRANCH   8   9
HETATM    9  C3  UNL     1      -6.365  47.492 -28.795  1.00  0.00    -0.000 C 
BRANCH   9  10
HETATM   10  C2  UNL     1      -6.392  46.623 -30.053  1.00  0.00    -0.005 C 
HETATM   11  C1  UNL     1      -5.293  47.020 -31.026  1.00  0.00     0.005 C 
ENDBRANCH   9  10
ENDBRANCH   8   9
ENDBRANCH   7   8
ENDBRANCH   6   7
ENDBRANCH   5   6
ENDBRANCH   4   5
ENDBRANCH   3   4
BRANCH   3  12
HETATM   12  C9  UNL     1      -3.783  47.640 -22.017  1.00  0.00     0.233 C 
HETATM   13  C10 UNL     1      -2.288  47.813 -21.789  1.00  0.00     0.035 C 
ENDBRANCH   3  12
BRANCH   3  14
HETATM   14  C11 UNL     1      -5.897  49.056 -22.129  1.00  0.00     0.233 C 
HETATM   15  C12 UNL     1      -6.845  49.914 -22.944  1.00  0.00     0.035 C 
ENDBRANCH   3  14
ENDBRANCH   2   3
ENDBRANCH   1   2
BRANCH   1  16
HETATM   16  O1  UNL     1      -2.447  52.042 -23.433  1.00  0.00    -0.319 OA
BRANCH  16  17
HETATM   17  C15 UNL     1      -2.047  52.556 -24.630  1.00  0.00     0.263 C 
HETATM   18  O2  UNL     1      -2.827  52.814 -25.538  1.00  0.00    -0.265 OA
BRANCH  17  19
HETATM   19  C16 UNL     1      -0.541  52.771 -24.704  1.00  0.00     0.093 C 
BRANCH  19  20
HETATM   20  C17 UNL     1       0.186  51.486 -25.193  1.00  0.00    -0.001 C 
HETATM   21  C18 UNL     1       1.521  51.743 -25.903  1.00  0.00     0.005 C 
HETATM   22  C19 UNL     1       1.140  52.140 -27.324  1.00  0.00     0.000 C 
HETATM   23  C20 UNL     1      -0.202  51.462 -27.598  1.00  0.00     0.000 C 
HETATM   24  C21 UNL     1      -0.587  50.753 -26.301  1.00  0.00     0.005 C 
ENDBRANCH  19  20
BRANCH  19  25
HETATM   25  C22 UNL     1       0.021  53.345 -23.385  1.00  0.00    -0.001 C 
HETATM   26  C23 UNL     1       0.671  52.325 -22.447  1.00  0.00     0.005 C 
HETATM   27  C24 UNL     1       1.341  53.199 -21.395  1.00  0.00     0.000 C 
HETATM   28  C25 UNL     1       1.750  54.479 -22.123  1.00  0.00     0.000 C 
HETATM   29  C26 UNL     1       1.110  54.410 -23.511  1.00  0.00     0.005 C 
ENDBRANCH  19  25
ENDBRANCH  17  19
ENDBRANCH  16  17
ENDBRANCH   1  16
TORSDOF 16
ENDMDL
MODEL 8
REMARK minimizedAffinity -6.46682215
REMARK  16 active torsions:
REMARK  status: ('A' for Active; 'I' for Inactive)
REMARK    1  A    between atoms: C2_2  and  C3_3 
REMARK    2  A    between atoms: C3_3  and  C4_4 
REMARK    3  A    between atoms: C4_4  and  C5_5 
REMARK    4  A    between atoms: C5_5  and  C6_6 
REMARK    5  A    between atoms: C6_6  and  C7_7 
REMARK    6  A    between atoms: C7_7  and  C8_8 
REMARK    7  A    between atoms: C8_8  and  N1_9 
REMARK    8  A    between atoms: N1_9  and  C9_10 
REMARK    9  A    between atoms: N1_9  and  C11_12 
REMARK   10  A    between atoms: N1_9  and  C13_14 
REMARK   11  A    between atoms: C13_14  and  C14_15 
REMARK   12  A    between atoms: C14_15  and  O1_16 
REMARK   13  A    between atoms: O1_16  and  C15_17 
REMARK   14  A    between atoms: C15_17  and  C16_19 
REMARK   15  A    between atoms: C16_19  and  C17_20 
REMARK   16  A    between atoms: C16_19  and  C22_25 
ROOT
HETATM    1  C14 UNL     1      -2.492  50.640 -22.591  1.00  0.00     0.206 C 
ENDROOT
BRANCH   1   2
HETATM    2  C13 UNL     1      -2.468  51.330 -21.214  1.00  0.00     0.264 C 
BRANCH   2   3
HETATM    3  N1  UNL     1      -1.058  51.471 -20.510  1.00  0.00    -0.066 N 
BRANCH   3   4
HETATM    4  C8  UNL     1      -1.279  51.725 -18.998  1.00  0.00     0.237 C 
BRANCH   4   5
HETATM    5  C7  UNL     1      -0.007  51.884 -18.171  1.00  0.00     0.028 C 
BRANCH   5   6
HETATM    6  C6  UNL     1      -0.116  51.096 -16.860  1.00  0.00     0.002 C 
BRANCH   6   7
HETATM    7  C5  UNL     1       1.177  51.099 -16.035  1.00  0.00     0.000 C 
BRANCH   7   8
HETATM    8  C4  UNL     1       2.188  52.153 -16.493  1.00  0.00     0.000 C 
BRANCH   8   9
HETATM    9  C3  UNL     1       3.477  52.158 -15.664  1.00  0.00    -0.000 C 
BRANCH   9  10
HETATM   10  C2  UNL     1       3.330  51.481 -14.301  1.00  0.00    -0.005 C 
HETATM   11  C1  UNL     1       4.323  50.340 -14.138  1.00  0.00     0.005 C 
ENDBRANCH   9  10
ENDBRANCH   8   9
ENDBRANCH   7   8
ENDBRANCH   6   7
ENDBRANCH   5   6
ENDBRANCH   4   5
ENDBRANCH   3   4
BRANCH   3  12
HETATM   12  C9  UNL     1      -0.386  50.064 -20.736  1.00  0.00     0.233 C 
HETATM   13  C10 UNL     1      -0.967  48.915 -19.923  1.00  0.00     0.035 C 
ENDBRANCH   3  12
BRANCH   3  14
HETATM   14  C11 UNL     1      -0.216  52.560 -21.211  1.00  0.00     0.233 C 
HETATM   15  C12 UNL     1       1.174  52.131 -21.639  1.00  0.00     0.035 C 
ENDBRANCH   3  14
ENDBRANCH   2   3
ENDBRANCH   1   2
BRANCH   1  16
HETATM   16  O1  UNL     1      -2.675  51.600 -23.650  1.00  0.00    -0.319 OA
BRANCH  16  17
HETATM   17  C15 UNL     1      -3.621  51.272 -24.573  1.00  0.00     0.263 C 
HETATM   18  O2  UNL     1      -4.819  51.455 -24.394  1.00  0.00    -0.265 OA
BRANCH  17  19
HETATM   19  C16 UNL     1      -3.026  50.664 -25.836  1.00  0.00     0.093 C 
BRANCH  19  20
HETATM   20  C17 UNL     1      -2.929  49.116 -25.723  1.00  0.00    -0.001 C 
HETATM   21  C18 UNL     1      -3.008  48.375 -27.063  1.00  0.00     0.005 C 
HETATM   22  C19 UNL     1      -4.495  48.317 -27.392  1.00  0.00     0.000 C 
HETATM   23  C20 UNL     1      -5.219  48.352 -26.047  1.00  0.00     0.000 C 
HETATM   24  C21 UNL     1      -4.130  48.499 -24.987  1.00  0.00     0.005 C 
ENDBRANCH  19  20
BRANCH  19  25
HETATM   25  C22 UNL     1      -1.698  51.348 -26.229  1.00  0.00    -0.001 C 
HETATM   26  C23 UNL     1      -0.427  50.580 -25.857  1.00  0.00     0.005 C 
HETATM   27  C24 UNL     1       0.668  51.350 -26.583  1.00  0.00     0.000 C 
HETATM   28  C25 UNL     1       0.015  51.897 -27.852  1.00  0.00     0.000 C 
HETATM   29  C26 UNL     1      -1.484  51.626 -27.718  1.00  0.00     0.005 C 
ENDBRANCH  19  25
ENDBRANCH  17  19
ENDBRANCH  16  17
ENDBRANCH   1  16
TORSDOF 16
ENDMDL
MODEL 9
REMARK minimizedAffinity -6.45355129
REMARK  16 active torsions:
REMARK  status: ('A' for Active; 'I' for Inactive)
REMARK    1  A    between atoms: C2_2  and  C3_3 
REMARK    2  A    between atoms: C3_3  and  C4_4 
REMARK    3  A    between atoms: C4_4  and  C5_5 
REMARK    4  A    between atoms: C5_5  and  C6_6 
REMARK    5  A    between atoms: C6_6  and  C7_7 
REMARK    6  A    between atoms: C7_7  and  C8_8 
REMARK    7  A    between atoms: C8_8  and  N1_9 
REMARK    8  A    between atoms: N1_9  and  C9_10 
REMARK    9  A    between atoms: N1_9  and  C11_12 
REMARK   10  A    between atoms: N1_9  and  C13_14 
REMARK   11  A    between atoms: C13_14  and  C14_15 
REMARK   12  A    between atoms: C14_15  and  O1_16 
REMARK   13  A    between atoms: O1_16  and  C15_17 
REMARK   14  A    between atoms: C15_17  and  C16_19 
REMARK   15  A    between atoms: C16_19  and  C17_20 
REMARK   16  A    between atoms: C16_19  and  C22_25 
ROOT
HETATM    1  C14 UNL     1      -3.159  51.991 -23.374  1.00  0.00     0.206 C 
ENDROOT
BRANCH   1   2
HETATM    2  C13 UNL     1      -3.385  50.492 -23.106  1.00  0.00     0.264 C 
BRANCH   2   3
HETATM    3  N1  UNL     1      -4.014  50.103 -21.707  1.00  0.00    -0.066 N 
BRANCH   3   4
HETATM    4  C8  UNL     1      -3.783  51.271 -20.715  1.00  0.00     0.237 C 
BRANCH   4   5
HETATM    5  C7  UNL     1      -3.145  50.880 -19.385  1.00  0.00     0.028 C 
BRANCH   5   6
HETATM    6  C6  UNL     1      -1.710  51.415 -19.299  1.00  0.00     0.002 C 
BRANCH   6   7
HETATM    7  C5  UNL     1      -0.644  50.314 -19.344  1.00  0.00     0.000 C 
BRANCH   7   8
HETATM    8  C4  UNL     1      -0.247  49.795 -17.959  1.00  0.00     0.000 C 
BRANCH   8   9
HETATM    9  C3  UNL     1      -0.296  50.873 -16.871  1.00  0.00    -0.000 C 
BRANCH   9  10
HETATM   10  C2  UNL     1       1.082  51.278 -16.347  1.00  0.00    -0.005 C 
HETATM   11  C1  UNL     1       1.625  52.489 -17.091  1.00  0.00     0.005 C 
ENDBRANCH   9  10
ENDBRANCH   8   9
ENDBRANCH   7   8
ENDBRANCH   6   7
ENDBRANCH   5   6
ENDBRANCH   4   5
ENDBRANCH   3   4
BRANCH   3  12
HETATM   12  C9  UNL     1      -5.550  49.947 -22.019  1.00  0.00     0.233 C 
HETATM   13  C10 UNL     1      -6.483  50.041 -20.819  1.00  0.00     0.035 C 
ENDBRANCH   3  12
BRANCH   3  14
HETATM   14  C11 UNL     1      -3.449  48.749 -21.222  1.00  0.00     0.233 C 
HETATM   15  C12 UNL     1      -2.260  48.225 -22.004  1.00  0.00     0.035 C 
ENDBRANCH   3  14
ENDBRANCH   2   3
ENDBRANCH   1   2
BRANCH   1  16
HETATM   16  O1  UNL     1      -1.761  52.280 -23.569  1.00  0.00    -0.319 OA
BRANCH  16  17
HETATM   17  C15 UNL     1      -1.421  52.683 -24.826  1.00  0.00     0.263 C 
HETATM   18  O2  UNL     1      -2.244  53.064 -25.649  1.00  0.00    -0.265 OA
BRANCH  17  19
HETATM   19  C16 UNL     1       0.078  52.607 -25.083  1.00  0.00     0.093 C 
BRANCH  19  20
HETATM   20  C17 UNL     1       0.472  51.241 -25.716  1.00  0.00    -0.001 C 
HETATM   21  C18 UNL     1       1.957  51.111 -26.072  1.00  0.00     0.005 C 
HETATM   22  C19 UNL     1       2.107  51.839 -27.402  1.00  0.00     0.000 C 
HETATM   23  C20 UNL     1       0.744  51.741 -28.084  1.00  0.00     0.000 C 
HETATM   24  C21 UNL     1      -0.170  51.021 -27.096  1.00  0.00     0.005 C 
ENDBRANCH  19  20
BRANCH  19  25
HETATM   25  C22 UNL     1       0.894  52.970 -23.823  1.00  0.00    -0.001 C 
HETATM   26  C23 UNL     1       0.948  54.462 -23.482  1.00  0.00     0.005 C 
HETATM   27  C24 UNL     1       1.576  54.478 -22.094  1.00  0.00     0.000 C 
HETATM   28  C25 UNL     1       1.116  53.186 -21.420  1.00  0.00     0.000 C 
HETATM   29  C26 UNL     1       0.427  52.354 -22.503  1.00  0.00     0.005 C 
ENDBRANCH  19  25
ENDBRANCH  17  19
ENDBRANCH  16  17
ENDBRANCH   1  16
TORSDOF 16
ENDMDL
