MODEL 1
REMARK minimizedAffinity -7.15029907
REMARK CNNscore 0.662960589
REMARK CNNaffinity 6.53213167
REMARK  12 active torsions:
REMARK  status: ('A' for Active; 'I' for Inactive)
REMARK    1  A    between atoms: O1_2  and  C2_3 
REMARK    2  A    between atoms: C2_3  and  C3_4 
REMARK    3  A    between atoms: C3_4  and  C4_5 
REMARK    4  A    between atoms: C4_5  and  N1_6 
REMARK    5  A    between atoms: N1_6  and  C5_7 
REMARK    6  A    between atoms: C5_7  and  C6_8 
REMARK    7  A    between atoms: C10_12  and  O2_13 
REMARK    8  A    between atoms: C16_19  and  O3_20 
REMARK    9  A    between atoms: C25_29  and  C26_30 
REMARK   10  A    between atoms: C33_37  and  O4_38 
REMARK   11  A    between atoms: C36_41  and  C37_42 
REMARK   12  A    between atoms: C38_44  and  O6_45 
ROOT
HETATM    1  C6  UNL     1      10.332  63.120  -5.144  1.00  0.00    -0.022 C 
HETATM    2  C7  UNL     1       9.810  62.077  -5.837  1.00  0.00    -0.014 C 
HETATM    3  C8  UNL     1       9.601  60.734  -5.184  1.00  0.00     0.021 C 
HETATM    4  C9  UNL     1       8.406  59.884  -5.621  1.00  0.00     0.051 C 
HETATM    5  C10 UNL     1       8.468  58.732  -4.592  1.00  0.00     0.098 C 
HETATM    6  C11 UNL     1       8.762  59.471  -3.221  1.00  0.00    -0.002 C 
HETATM    7  C12 UNL     1       9.699  58.658  -2.313  1.00  0.00     0.019 C 
HETATM    8  C13 UNL     1       7.454  59.774  -2.434  1.00  0.00     0.013 C 
HETATM    9  C14 UNL     1       6.458  58.627  -2.394  1.00  0.00     0.010 C 
HETATM   10  C15 UNL     1       6.037  58.238  -3.827  1.00  0.00     0.041 C 
HETATM   11  C16 UNL     1       7.267  57.722  -4.593  1.00  0.00     0.095 C 
HETATM   12  C17 UNL     1       6.872  57.304  -6.018  1.00  0.00     0.049 C 
HETATM   13  C18 UNL     1       5.766  56.234  -6.047  1.00  0.00     0.025 C 
HETATM   14  C19 UNL     1       5.633  55.695  -7.505  1.00  0.00     0.013 C 
HETATM   15  C20 UNL     1       4.242  55.211  -7.954  1.00  0.00    -0.002 C 
HETATM   16  C21 UNL     1       3.323  56.404  -8.354  1.00  0.00     0.013 C 
HETATM   17  C22 UNL     1       3.407  56.736  -9.838  1.00  0.00    -0.026 C 
HETATM   18  C23 UNL     1       4.098  56.025 -10.738  1.00  0.00    -0.030 C 
HETATM   19  C24 UNL     1       4.806  54.750 -10.406  1.00  0.00     0.032 C 
HETATM   20  C25 UNL     1       4.285  54.141  -9.093  1.00  0.00    -0.002 C 
HETATM   21  C31 UNL     1       3.594  57.719  -7.596  1.00  0.00     0.019 C 
HETATM   22  C32 UNL     1       3.633  57.758  -6.056  1.00  0.00     0.051 C 
HETATM   23  C33 UNL     1       2.214  57.847  -5.436  1.00  0.00     0.125 C 
HETATM   24  C34 UNL     1       2.220  57.706  -3.907  1.00  0.00     0.033 C 
HETATM   25  C35 UNL     1       3.559  58.102  -3.302  1.00  0.00     0.023 C 
HETATM   26  C36 UNL     1       4.786  57.273  -3.844  1.00  0.00     0.051 C 
HETATM   27  C38 UNL     1       4.482  56.694  -5.300  1.00  0.00     0.082 C 
HETATM   28  C39 UNL     1       9.350  60.866  -3.666  1.00  0.00     0.036 C 
HETATM   29  C40 UNL     1      10.527  61.613  -3.132  1.00  0.00    -0.035 C 
HETATM   30  C41 UNL     1      11.580  61.287  -2.390  1.00  0.00     0.088 C 
HETATM   31  C42 UNL     1      12.506  62.419  -2.486  1.00  0.00     0.284 C 
HETATM   32  O7  UNL     1      13.587  62.469  -1.927  1.00  0.00    -0.260 OA
HETATM   33  O8  UNL     1      11.998  63.361  -3.323  1.00  0.00    -0.304 OA
HETATM   34  C43 UNL     1      10.661  63.013  -3.653  1.00  0.00     0.192 C 
ENDROOT
BRANCH   1  35
HETATM   35  C5  UNL     1      10.482  64.481  -5.779  1.00  0.00     0.306 C 
BRANCH  35  36
HETATM   36  N1  UNL     1       9.826  64.543  -7.075  1.00  0.00     0.087 N 
HETATM   37  H10 UNL     1       9.330  65.428  -7.165  1.00  0.00     0.316 HD
BRANCH  36  38
HETATM   38  C4  UNL     1      10.774  64.384  -8.175  1.00  0.00     0.272 C 
BRANCH  38  39
HETATM   39  C3  UNL     1      10.607  65.502  -9.203  1.00  0.00     0.056 C 
BRANCH  39  40
HETATM   40  C2  UNL     1      10.668  64.990 -10.642  1.00  0.00     0.168 C 
BRANCH  40  41
HETATM   41  O1  UNL     1      11.992  64.549 -10.960  1.00  0.00    -0.396 OA
HETATM   42  C1  UNL     1      12.040  63.792 -12.162  1.00  0.00     0.201 C 
ENDBRANCH  40  41
ENDBRANCH  39  40
ENDBRANCH  38  39
ENDBRANCH  36  38
ENDBRANCH  35  36
ENDBRANCH   1  35
BRANCH   5  43
HETATM   43  O2  UNL     1       9.633  57.928  -4.931  1.00  0.00    -0.386 OA
HETATM   44  H17 UNL     1       9.659  57.796  -5.896  1.00  0.00     0.210 HD
ENDBRANCH   5  43
BRANCH  11  45
HETATM   45  O3  UNL     1       7.721  56.523  -3.938  1.00  0.00    -0.386 OA
HETATM   46  H26 UNL     1       8.696  56.507  -4.054  1.00  0.00     0.210 HD
ENDBRANCH  11  45
BRANCH  26  47
HETATM   47  C37 UNL     1       5.046  56.095  -2.886  1.00  0.00     0.244 C 
HETATM   48  O5  UNL     1       4.180  55.504  -2.245  1.00  0.00    -0.306 OA
ENDBRANCH  26  47
BRANCH  27  49
HETATM   49  O6  UNL     1       3.628  55.541  -5.132  1.00  0.00    -0.388 OA
HETATM   50  H58 UNL     1       4.166  54.752  -4.942  1.00  0.00     0.210 HD
ENDBRANCH  27  49
BRANCH  23  51
HETATM   51  O4  UNL     1       1.356  56.841  -5.966  1.00  0.00    -0.395 OA
HETATM   52  H52 UNL     1       1.798  55.991  -5.755  1.00  0.00     0.210 HD
ENDBRANCH  23  51
BRANCH  20  53
HETATM   53  C26 UNL     1       5.055  52.848  -8.734  1.00  0.00    -0.010 C 
HETATM   54  C27 UNL     1       6.518  52.857  -9.203  1.00  0.00     0.005 C 
HETATM   55  C28 UNL     1       6.902  51.393  -9.431  1.00  0.00     0.000 C 
HETATM   56  C29 UNL     1       5.631  50.580  -9.215  1.00  0.00     0.000 C 
HETATM   57  C30 UNL     1       4.499  51.581  -9.386  1.00  0.00     0.005 C 
ENDBRANCH  20  53
TORSDOF 12
ENDMDL
MODEL 2
REMARK minimizedAffinity -7.84768486
REMARK CNNscore 0.564894438
REMARK CNNaffinity 7.02408743
REMARK  12 active torsions:
REMARK  status: ('A' for Active; 'I' for Inactive)
REMARK    1  A    between atoms: O1_2  and  C2_3 
REMARK    2  A    between atoms: C2_3  and  C3_4 
REMARK    3  A    between atoms: C3_4  and  C4_5 
REMARK    4  A    between atoms: C4_5  and  N1_6 
REMARK    5  A    between atoms: N1_6  and  C5_7 
REMARK    6  A    between atoms: C5_7  and  C6_8 
REMARK    7  A    between atoms: C10_12  and  O2_13 
REMARK    8  A    between atoms: C16_19  and  O3_20 
REMARK    9  A    between atoms: C25_29  and  C26_30 
REMARK   10  A    between atoms: C33_37  and  O4_38 
REMARK   11  A    between atoms: C36_41  and  C37_42 
REMARK   12  A    between atoms: C38_44  and  O6_45 
ROOT
HETATM    1  C6  UNL     1      -7.521  42.659 -31.662  1.00  0.00    -0.022 C 
HETATM    2  C7  UNL     1      -6.964  43.380 -30.657  1.00  0.00    -0.014 C 
HETATM    3  C8  UNL     1      -7.425  44.785 -30.356  1.00  0.00     0.021 C 
HETATM    4  C9  UNL     1      -7.414  45.265 -28.904  1.00  0.00     0.051 C 
HETATM    5  C10 UNL     1      -8.123  46.632 -29.038  1.00  0.00     0.098 C 
HETATM    6  C11 UNL     1      -9.334  46.331 -30.016  1.00  0.00    -0.002 C 
HETATM    7  C12 UNL     1      -9.614  47.503 -30.970  1.00  0.00     0.019 C 
HETATM    8  C13 UNL     1     -10.641  46.006 -29.236  1.00  0.00     0.013 C 
HETATM    9  C14 UNL     1     -10.924  46.927 -28.060  1.00  0.00     0.010 C 
HETATM   10  C15 UNL     1      -9.767  46.857 -27.041  1.00  0.00     0.041 C 
HETATM   11  C16 UNL     1      -8.478  47.375 -27.702  1.00  0.00     0.095 C 
HETATM   12  C17 UNL     1      -7.313  47.339 -26.700  1.00  0.00     0.049 C 
HETATM   13  C18 UNL     1      -7.593  48.149 -25.421  1.00  0.00     0.025 C 
HETATM   14  C19 UNL     1      -6.267  48.268 -24.607  1.00  0.00     0.013 C 
HETATM   15  C20 UNL     1      -6.387  48.361 -23.075  1.00  0.00    -0.002 C 
HETATM   16  C21 UNL     1      -6.610  46.961 -22.431  1.00  0.00     0.013 C 
HETATM   17  C22 UNL     1      -5.305  46.284 -22.034  1.00  0.00    -0.026 C 
HETATM   18  C23 UNL     1      -4.097  46.856 -22.114  1.00  0.00    -0.030 C 
HETATM   19  C24 UNL     1      -3.890  48.280 -22.523  1.00  0.00     0.032 C 
HETATM   20  C25 UNL     1      -5.187  49.098 -22.395  1.00  0.00    -0.002 C 
HETATM   21  C31 UNL     1      -7.375  45.952 -23.312  1.00  0.00     0.019 C 
HETATM   22  C32 UNL     1      -8.735  46.313 -23.939  1.00  0.00     0.051 C 
HETATM   23  C33 UNL     1      -9.908  46.129 -22.941  1.00  0.00     0.125 C 
HETATM   24  C34 UNL     1     -11.245  46.652 -23.486  1.00  0.00     0.033 C 
HETATM   25  C35 UNL     1     -11.272  46.671 -25.008  1.00  0.00     0.023 C 
HETATM   26  C36 UNL     1     -10.136  47.544 -25.666  1.00  0.00     0.051 C 
HETATM   27  C38 UNL     1      -8.879  47.669 -24.691  1.00  0.00     0.082 C 
HETATM   28  C39 UNL     1      -8.904  44.998 -30.744  1.00  0.00     0.036 C 
HETATM   29  C40 UNL     1      -8.993  44.637 -32.189  1.00  0.00    -0.035 C 
HETATM   30  C41 UNL     1      -9.153  45.325 -33.315  1.00  0.00     0.088 C 
HETATM   31  C42 UNL     1      -8.848  44.393 -34.403  1.00  0.00     0.284 C 
HETATM   32  O7  UNL     1      -8.891  44.682 -35.586  1.00  0.00    -0.260 OA
HETATM   33  O8  UNL     1      -8.467  43.193 -33.891  1.00  0.00    -0.304 OA
HETATM   34  C43 UNL     1      -8.691  43.198 -32.488  1.00  0.00     0.192 C 
ENDROOT
BRANCH   1  35
HETATM   35  C5  UNL     1      -7.104  41.232 -31.922  1.00  0.00     0.306 C 
BRANCH  35  36
HETATM   36  N1  UNL     1      -5.680  41.132 -32.200  1.00  0.00     0.087 N 
HETATM   37  H10 UNL     1      -5.185  40.857 -31.354  1.00  0.00     0.316 HD
BRANCH  36  38
HETATM   38  C4  UNL     1      -5.400  40.186 -33.277  1.00  0.00     0.272 C 
BRANCH  38  39
HETATM   39  C3  UNL     1      -3.925  40.235 -33.674  1.00  0.00     0.056 C 
BRANCH  39  40
HETATM   40  C2  UNL     1      -3.587  39.254 -34.798  1.00  0.00     0.168 C 
BRANCH  40  41
HETATM   41  O1  UNL     1      -3.738  39.886 -36.073  1.00  0.00    -0.396 OA
HETATM   42  C1  UNL     1      -4.668  39.208 -36.909  1.00  0.00     0.201 C 
ENDBRANCH  40  41
ENDBRANCH  39  40
ENDBRANCH  38  39
ENDBRANCH  36  38
ENDBRANCH  35  36
ENDBRANCH   1  35
BRANCH   5  43
HETATM   43  O2  UNL     1      -7.198  47.521 -29.725  1.00  0.00    -0.386 OA
HETATM   44  H17 UNL     1      -6.307  47.407 -29.347  1.00  0.00     0.210 HD
ENDBRANCH   5  43
BRANCH  11  45
HETATM   45  O3  UNL     1      -8.680  48.762 -28.028  1.00  0.00    -0.386 OA
HETATM   46  H26 UNL     1      -8.157  48.924 -28.844  1.00  0.00     0.210 HD
ENDBRANCH  11  45
BRANCH  26  47
HETATM   47  C37 UNL     1     -10.693  48.953 -25.942  1.00  0.00     0.244 C 
HETATM   48  O5  UNL     1     -10.037  49.991 -25.893  1.00  0.00    -0.306 OA
ENDBRANCH  26  47
BRANCH  27  49
HETATM   49  O6  UNL     1      -9.214  48.654 -23.688  1.00  0.00    -0.388 OA
HETATM   50  H58 UNL     1      -9.029  49.549 -24.023  1.00  0.00     0.210 HD
ENDBRANCH  27  49
BRANCH  23  51
HETATM   51  O4  UNL     1      -9.645  46.796 -21.709  1.00  0.00    -0.395 OA
HETATM   52  H52 UNL     1      -9.512  47.736 -21.952  1.00  0.00     0.210 HD
ENDBRANCH  23  51
BRANCH  20  53
HETATM   53  C26 UNL     1      -4.976  50.557 -22.864  1.00  0.00    -0.010 C 
HETATM   54  C27 UNL     1      -4.289  50.665 -24.234  1.00  0.00     0.005 C 
HETATM   55  C28 UNL     1      -3.543  52.001 -24.233  1.00  0.00     0.000 C 
HETATM   56  C29 UNL     1      -3.703  52.579 -22.832  1.00  0.00     0.000 C 
HETATM   57  C30 UNL     1      -4.059  51.384 -21.961  1.00  0.00     0.005 C 
ENDBRANCH  20  53
TORSDOF 12
ENDMDL
MODEL 3
REMARK minimizedAffinity -7.97577858
REMARK CNNscore 0.530998945
REMARK CNNaffinity 6.76814651
REMARK  12 active torsions:
REMARK  status: ('A' for Active; 'I' for Inactive)
REMARK    1  A    between atoms: O1_2  and  C2_3 
REMARK    2  A    between atoms: C2_3  and  C3_4 
REMARK    3  A    between atoms: C3_4  and  C4_5 
REMARK    4  A    between atoms: C4_5  and  N1_6 
REMARK    5  A    between atoms: N1_6  and  C5_7 
REMARK    6  A    between atoms: C5_7  and  C6_8 
REMARK    7  A    between atoms: C10_12  and  O2_13 
REMARK    8  A    between atoms: C16_19  and  O3_20 
REMARK    9  A    between atoms: C25_29  and  C26_30 
REMARK   10  A    between atoms: C33_37  and  O4_38 
REMARK   11  A    between atoms: C36_41  and  C37_42 
REMARK   12  A    between atoms: C38_44  and  O6_45 
ROOT
HETATM    1  C6  UNL     1      -5.748  43.974 -32.002  1.00  0.00    -0.022 C 
HETATM    2  C7  UNL     1      -6.286  43.856 -30.762  1.00  0.00    -0.014 C 
HETATM    3  C8  UNL     1      -6.867  45.050 -30.047  1.00  0.00     0.021 C 
HETATM    4  C9  UNL     1      -8.072  44.841 -29.128  1.00  0.00     0.051 C 
HETATM    5  C10 UNL     1      -8.437  46.302 -28.780  1.00  0.00     0.098 C 
HETATM    6  C11 UNL     1      -8.317  47.058 -30.168  1.00  0.00    -0.002 C 
HETATM    7  C12 UNL     1      -7.757  48.480 -30.007  1.00  0.00     0.019 C 
HETATM    8  C13 UNL     1      -9.688  47.149 -30.899  1.00  0.00     0.013 C 
HETATM    9  C14 UNL     1     -10.858  47.534 -30.008  1.00  0.00     0.010 C 
HETATM   10  C15 UNL     1     -11.025  46.502 -28.873  1.00  0.00     0.041 C 
HETATM   11  C16 UNL     1      -9.771  46.523 -27.982  1.00  0.00     0.095 C 
HETATM   12  C17 UNL     1      -9.919  45.519 -26.828  1.00  0.00     0.049 C 
HETATM   13  C18 UNL     1     -11.166  45.777 -25.962  1.00  0.00     0.025 C 
HETATM   14  C19 UNL     1     -11.077  44.888 -24.684  1.00  0.00     0.013 C 
HETATM   15  C20 UNL     1     -12.403  44.413 -24.061  1.00  0.00    -0.002 C 
HETATM   16  C21 UNL     1     -12.988  43.187 -24.825  1.00  0.00     0.013 C 
HETATM   17  C22 UNL     1     -12.530  41.859 -24.238  1.00  0.00    -0.026 C 
HETATM   18  C23 UNL     1     -11.800  41.731 -23.123  1.00  0.00    -0.030 C 
HETATM   19  C24 UNL     1     -11.418  42.890 -22.257  1.00  0.00     0.032 C 
HETATM   20  C25 UNL     1     -12.308  44.115 -22.530  1.00  0.00    -0.002 C 
HETATM   21  C31 UNL     1     -12.655  43.138 -26.330  1.00  0.00     0.019 C 
HETATM   22  C32 UNL     1     -12.941  44.341 -27.249  1.00  0.00     0.051 C 
HETATM   23  C33 UNL     1     -14.421  44.387 -27.712  1.00  0.00     0.125 C 
HETATM   24  C34 UNL     1     -14.768  45.670 -28.479  1.00  0.00     0.033 C 
HETATM   25  C35 UNL     1     -13.541  46.302 -29.121  1.00  0.00     0.023 C 
HETATM   26  C36 UNL     1     -12.394  46.671 -28.104  1.00  0.00     0.051 C 
HETATM   27  C38 UNL     1     -12.477  45.757 -26.798  1.00  0.00     0.082 C 
HETATM   28  C39 UNL     1      -7.409  46.105 -31.037  1.00  0.00     0.036 C 
HETATM   29  C40 UNL     1      -6.260  46.442 -31.928  1.00  0.00    -0.035 C 
HETATM   30  C41 UNL     1      -5.466  47.498 -32.067  1.00  0.00     0.088 C 
HETATM   31  C42 UNL     1      -4.354  47.058 -32.913  1.00  0.00     0.284 C 
HETATM   32  O7  UNL     1      -3.426  47.771 -33.253  1.00  0.00    -0.260 OA
HETATM   33  O8  UNL     1      -4.495  45.740 -33.212  1.00  0.00    -0.304 OA
HETATM   34  C43 UNL     1      -5.771  45.299 -32.767  1.00  0.00     0.192 C 
ENDROOT
BRANCH   1  35
HETATM   35  C5  UNL     1      -5.225  42.768 -32.744  1.00  0.00     0.306 C 
BRANCH  35  36
HETATM   36  N1  UNL     1      -3.781  42.650 -32.623  1.00  0.00     0.087 N 
HETATM   37  H10 UNL     1      -3.548  42.191 -31.744  1.00  0.00     0.316 HD
BRANCH  36  38
HETATM   38  C4  UNL     1      -3.197  41.918 -33.744  1.00  0.00     0.272 C 
BRANCH  38  39
HETATM   39  C3  UNL     1      -2.779  40.512 -33.317  1.00  0.00     0.056 C 
BRANCH  39  40
HETATM   40  C2  UNL     1      -2.900  39.493 -34.451  1.00  0.00     0.168 C 
BRANCH  40  41
HETATM   41  O1  UNL     1      -1.768  38.617 -34.458  1.00  0.00    -0.396 OA
HETATM   42  C1  UNL     1      -0.928  38.804 -33.326  1.00  0.00     0.201 C 
ENDBRANCH  40  41
ENDBRANCH  39  40
ENDBRANCH  38  39
ENDBRANCH  36  38
ENDBRANCH  35  36
ENDBRANCH   1  35
BRANCH   5  43
HETATM   43  O2  UNL     1      -7.389  46.801 -27.902  1.00  0.00    -0.386 OA
HETATM   44  H17 UNL     1      -7.181  46.120 -27.236  1.00  0.00     0.210 HD
ENDBRANCH   5  43
BRANCH  11  45
HETATM   45  O3  UNL     1      -9.689  47.823 -27.371  1.00  0.00    -0.386 OA
HETATM   46  H26 UNL     1      -8.730  48.012 -27.269  1.00  0.00     0.210 HD
ENDBRANCH  11  45
BRANCH  26  47
HETATM   47  C37 UNL     1     -12.559  48.145 -27.689  1.00  0.00     0.244 C 
HETATM   48  O5  UNL     1     -12.169  48.625 -26.626  1.00  0.00    -0.306 OA
ENDBRANCH  26  47
BRANCH  27  49
HETATM   49  O6  UNL     1     -13.538  46.286 -25.973  1.00  0.00    -0.388 OA
HETATM   50  H58 UNL     1     -13.203  47.018 -25.426  1.00  0.00     0.210 HD
ENDBRANCH  27  49
BRANCH  23  51
HETATM   51  O4  UNL     1     -15.310  44.283 -26.604  1.00  0.00    -0.395 OA
HETATM   52  H52 UNL     1     -15.082  45.039 -26.022  1.00  0.00     0.210 HD
ENDBRANCH  23  51
BRANCH  20  53
HETATM   53  C26 UNL     1     -11.876  45.322 -21.663  1.00  0.00    -0.010 C 
HETATM   54  C27 UNL     1     -11.635  44.961 -20.189  1.00  0.00     0.005 C 
HETATM   55  C28 UNL     1     -11.920  46.233 -19.386  1.00  0.00     0.000 C 
HETATM   56  C29 UNL     1     -12.439  47.261 -20.385  1.00  0.00     0.000 C 
HETATM   57  C30 UNL     1     -12.918  46.438 -21.571  1.00  0.00     0.005 C 
ENDBRANCH  20  53
TORSDOF 12
ENDMDL
MODEL 4
REMARK minimizedAffinity -7.24343491
REMARK CNNscore 0.5073511
REMARK CNNaffinity 6.81949377
REMARK  12 active torsions:
REMARK  status: ('A' for Active; 'I' for Inactive)
REMARK    1  A    between atoms: O1_2  and  C2_3 
REMARK    2  A    between atoms: C2_3  and  C3_4 
REMARK    3  A    between atoms: C3_4  and  C4_5 
REMARK    4  A    between atoms: C4_5  and  N1_6 
REMARK    5  A    between atoms: N1_6  and  C5_7 
REMARK    6  A    between atoms: C5_7  and  C6_8 
REMARK    7  A    between atoms: C10_12  and  O2_13 
REMARK    8  A    between atoms: C16_19  and  O3_20 
REMARK    9  A    between atoms: C25_29  and  C26_30 
REMARK   10  A    between atoms: C33_37  and  O4_38 
REMARK   11  A    between atoms: C36_41  and  C37_42 
REMARK   12  A    between atoms: C38_44  and  O6_45 
ROOT
HETATM    1  C6  UNL     1      -8.492  46.721 -33.229  1.00  0.00    -0.022 C 
HETATM    2  C7  UNL     1      -9.514  45.942 -32.795  1.00  0.00    -0.014 C 
HETATM    3  C8  UNL     1      -9.401  45.147 -31.518  1.00  0.00     0.021 C 
HETATM    4  C9  UNL     1     -10.656  44.941 -30.669  1.00  0.00     0.051 C 
HETATM    5  C10 UNL     1     -10.057  44.272 -29.411  1.00  0.00     0.098 C 
HETATM    6  C11 UNL     1      -8.747  45.116 -29.126  1.00  0.00    -0.002 C 
HETATM    7  C12 UNL     1      -7.594  44.242 -28.607  1.00  0.00     0.019 C 
HETATM    8  C13 UNL     1      -9.003  46.255 -28.097  1.00  0.00     0.013 C 
HETATM    9  C14 UNL     1      -9.829  45.844 -26.888  1.00  0.00     0.010 C 
HETATM   10  C15 UNL     1     -11.212  45.330 -27.340  1.00  0.00     0.041 C 
HETATM   11  C16 UNL     1     -11.027  44.064 -28.195  1.00  0.00     0.095 C 
HETATM   12  C17 UNL     1     -12.393  43.516 -28.639  1.00  0.00     0.049 C 
HETATM   13  C18 UNL     1     -13.329  43.203 -27.458  1.00  0.00     0.025 C 
HETATM   14  C19 UNL     1     -14.562  42.413 -27.996  1.00  0.00     0.013 C 
HETATM   15  C20 UNL     1     -15.898  42.600 -27.254  1.00  0.00    -0.002 C 
HETATM   16  C21 UNL     1     -16.609  43.920 -27.678  1.00  0.00     0.013 C 
HETATM   17  C22 UNL     1     -17.573  43.719 -28.840  1.00  0.00    -0.026 C 
HETATM   18  C23 UNL     1     -17.879  42.531 -29.377  1.00  0.00    -0.030 C 
HETATM   19  C24 UNL     1     -17.372  41.233 -28.835  1.00  0.00     0.032 C 
HETATM   20  C25 UNL     1     -16.868  41.382 -27.389  1.00  0.00    -0.002 C 
HETATM   21  C31 UNL     1     -15.663  45.067 -28.089  1.00  0.00     0.019 C 
HETATM   22  C32 UNL     1     -14.516  45.522 -27.167  1.00  0.00     0.051 C 
HETATM   23  C33 UNL     1     -15.002  46.496 -26.062  1.00  0.00     0.125 C 
HETATM   24  C34 UNL     1     -13.914  46.820 -25.029  1.00  0.00     0.033 C 
HETATM   25  C35 UNL     1     -12.514  46.633 -25.596  1.00  0.00     0.023 C 
HETATM   26  C36 UNL     1     -12.220  45.179 -26.132  1.00  0.00     0.051 C 
HETATM   27  C38 UNL     1     -13.573  44.445 -26.555  1.00  0.00     0.082 C 
HETATM   28  C39 UNL     1      -8.447  45.820 -30.506  1.00  0.00     0.036 C 
HETATM   29  C40 UNL     1      -7.150  45.980 -31.228  1.00  0.00    -0.035 C 
HETATM   30  C41 UNL     1      -5.961  45.394 -31.148  1.00  0.00     0.088 C 
HETATM   31  C42 UNL     1      -5.225  45.811 -32.345  1.00  0.00     0.284 C 
HETATM   32  O7  UNL     1      -4.088  45.462 -32.608  1.00  0.00    -0.260 OA
HETATM   33  O8  UNL     1      -6.018  46.593 -33.125  1.00  0.00    -0.304 OA
HETATM   34  C43 UNL     1      -7.210  46.897 -32.413  1.00  0.00     0.192 C 
ENDROOT
BRANCH   1  35
HETATM   35  C5  UNL     1      -8.629  47.566 -34.473  1.00  0.00     0.306 C 
BRANCH  35  36
HETATM   36  N1  UNL     1      -9.037  46.769 -35.619  1.00  0.00     0.087 N 
HETATM   37  H10 UNL     1      -9.964  46.379 -35.451  1.00  0.00     0.316 HD
BRANCH  36  38
HETATM   38  C4  UNL     1      -9.035  47.547 -36.854  1.00  0.00     0.272 C 
BRANCH  38  39
HETATM   39  C3  UNL     1     -10.453  47.704 -37.402  1.00  0.00     0.056 C 
BRANCH  39  40
HETATM   40  C2  UNL     1     -10.629  48.985 -38.218  1.00  0.00     0.168 C 
BRANCH  40  41
HETATM   41  O1  UNL     1     -11.889  49.595 -37.924  1.00  0.00    -0.396 OA
HETATM   42  C1  UNL     1     -12.763  49.610 -39.046  1.00  0.00     0.201 C 
ENDBRANCH  40  41
ENDBRANCH  39  40
ENDBRANCH  38  39
ENDBRANCH  36  38
ENDBRANCH  35  36
ENDBRANCH   1  35
BRANCH   5  43
HETATM   43  O2  UNL     1      -9.653  42.928 -29.800  1.00  0.00    -0.386 OA
HETATM   44  H17 UNL     1     -10.357  42.530 -30.344  1.00  0.00     0.210 HD
ENDBRANCH   5  43
BRANCH  11  45
HETATM   45  O3  UNL     1     -10.445  43.050 -27.356  1.00  0.00    -0.386 OA
HETATM   46  H26 UNL     1      -9.878  42.506 -27.946  1.00  0.00     0.210 HD
ENDBRANCH  11  45
BRANCH  26  47
HETATM   47  C37 UNL     1     -11.544  44.368 -25.011  1.00  0.00     0.244 C 
HETATM   48  O5  UNL     1     -10.485  44.669 -24.464  1.00  0.00    -0.306 OA
ENDBRANCH  26  47
BRANCH  27  49
HETATM   49  O6  UNL     1     -14.211  43.993 -25.340  1.00  0.00    -0.388 OA
HETATM   50  H58 UNL     1     -13.842  43.134 -25.068  1.00  0.00     0.210 HD
ENDBRANCH  27  49
BRANCH  23  51
HETATM   51  O4  UNL     1     -16.125  45.964 -25.366  1.00  0.00    -0.395 OA
HETATM   52  H52 UNL     1     -15.815  45.111 -24.995  1.00  0.00     0.210 HD
ENDBRANCH  23  51
BRANCH  20  53
HETATM   53  C26 UNL     1     -16.304  40.045 -26.853  1.00  0.00    -0.010 C 
HETATM   54  C27 UNL     1     -15.305  40.222 -25.699  1.00  0.00     0.005 C 
HETATM   55  C28 UNL     1     -14.362  39.018 -25.763  1.00  0.00     0.000 C 
HETATM   56  C29 UNL     1     -14.748  38.240 -27.015  1.00  0.00     0.000 C 
HETATM   57  C30 UNL     1     -15.499  39.243 -27.877  1.00  0.00     0.005 C 
ENDBRANCH  20  53
TORSDOF 12
ENDMDL
MODEL 5
REMARK minimizedAffinity -6.97953749
REMARK CNNscore 0.48451817
REMARK CNNaffinity 6.81527328
REMARK  12 active torsions:
REMARK  status: ('A' for Active; 'I' for Inactive)
REMARK    1  A    between atoms: O1_2  and  C2_3 
REMARK    2  A    between atoms: C2_3  and  C3_4 
REMARK    3  A    between atoms: C3_4  and  C4_5 
REMARK    4  A    between atoms: C4_5  and  N1_6 
REMARK    5  A    between atoms: N1_6  and  C5_7 
REMARK    6  A    between atoms: C5_7  and  C6_8 
REMARK    7  A    between atoms: C10_12  and  O2_13 
REMARK    8  A    between atoms: C16_19  and  O3_20 
REMARK    9  A    between atoms: C25_29  and  C26_30 
REMARK   10  A    between atoms: C33_37  and  O4_38 
REMARK   11  A    between atoms: C36_41  and  C37_42 
REMARK   12  A    between atoms: C38_44  and  O6_45 
ROOT
HETATM    1  C6  UNL     1      -7.581  42.529 -31.592  1.00  0.00    -0.022 C 
HETATM    2  C7  UNL     1      -7.015  43.227 -30.575  1.00  0.00    -0.014 C 
HETATM    3  C8  UNL     1      -7.423  44.648 -30.282  1.00  0.00     0.021 C 
HETATM    4  C9  UNL     1      -7.421  45.127 -28.829  1.00  0.00     0.051 C 
HETATM    5  C10 UNL     1      -8.071  46.523 -28.975  1.00  0.00     0.098 C 
HETATM    6  C11 UNL     1      -9.273  46.272 -29.977  1.00  0.00    -0.002 C 
HETATM    7  C12 UNL     1      -9.487  47.455 -30.935  1.00  0.00     0.019 C 
HETATM    8  C13 UNL     1     -10.608  46.000 -29.223  1.00  0.00     0.013 C 
HETATM    9  C14 UNL     1     -10.876  46.931 -28.051  1.00  0.00     0.010 C 
HETATM   10  C15 UNL     1      -9.743  46.813 -27.010  1.00  0.00     0.041 C 
HETATM   11  C16 UNL     1      -8.421  47.278 -27.645  1.00  0.00     0.095 C 
HETATM   12  C17 UNL     1      -7.278  47.194 -26.621  1.00  0.00     0.049 C 
HETATM   13  C18 UNL     1      -7.550  48.014 -25.346  1.00  0.00     0.025 C 
HETATM   14  C19 UNL     1      -6.237  48.077 -24.507  1.00  0.00     0.013 C 
HETATM   15  C20 UNL     1      -6.382  48.175 -22.977  1.00  0.00    -0.002 C 
HETATM   16  C21 UNL     1      -6.676  46.785 -22.339  1.00  0.00     0.013 C 
HETATM   17  C22 UNL     1      -5.408  46.055 -21.918  1.00  0.00    -0.026 C 
HETATM   18  C23 UNL     1      -4.175  46.576 -21.973  1.00  0.00    -0.030 C 
HETATM   19  C24 UNL     1      -3.903  47.991 -22.376  1.00  0.00     0.032 C 
HETATM   20  C25 UNL     1      -5.167  48.861 -22.272  1.00  0.00    -0.002 C 
HETATM   21  C31 UNL     1      -7.464  45.809 -23.237  1.00  0.00     0.019 C 
HETATM   22  C32 UNL     1      -8.795  46.226 -23.889  1.00  0.00     0.051 C 
HETATM   23  C33 UNL     1      -9.995  46.090 -22.915  1.00  0.00     0.125 C 
HETATM   24  C34 UNL     1     -11.297  46.667 -23.485  1.00  0.00     0.033 C 
HETATM   25  C35 UNL     1     -11.294  46.689 -25.007  1.00  0.00     0.023 C 
HETATM   26  C36 UNL     1     -10.110  47.514 -25.642  1.00  0.00     0.051 C 
HETATM   27  C38 UNL     1      -8.868  47.587 -24.642  1.00  0.00     0.082 C 
HETATM   28  C39 UNL     1      -8.885  44.923 -30.698  1.00  0.00     0.036 C 
HETATM   29  C40 UNL     1      -8.960  44.566 -32.146  1.00  0.00    -0.035 C 
HETATM   30  C41 UNL     1      -9.070  45.261 -33.273  1.00  0.00     0.088 C 
HETATM   31  C42 UNL     1      -8.782  44.318 -34.357  1.00  0.00     0.284 C 
HETATM   32  O7  UNL     1      -8.790  44.609 -35.540  1.00  0.00    -0.260 OA
HETATM   33  O8  UNL     1      -8.461  43.103 -33.838  1.00  0.00    -0.304 OA
HETATM   34  C43 UNL     1      -8.712  43.117 -32.440  1.00  0.00     0.192 C 
ENDROOT
BRANCH   1  35
HETATM   35  C5  UNL     1      -7.219  41.086 -31.846  1.00  0.00     0.306 C 
BRANCH  35  36
HETATM   36  N1  UNL     1      -8.157  40.451 -32.757  1.00  0.00     0.087 N 
HETATM   37  H10 UNL     1      -8.267  41.027 -33.590  1.00  0.00     0.316 HD
BRANCH  36  38
HETATM   38  C4  UNL     1      -7.731  39.104 -33.128  1.00  0.00     0.272 C 
BRANCH  38  39
HETATM   39  C3  UNL     1      -8.936  38.177 -33.286  1.00  0.00     0.056 C 
BRANCH  39  40
HETATM   40  C2  UNL     1     -10.261  38.881 -32.995  1.00  0.00     0.168 C 
BRANCH  40  41
HETATM   41  O1  UNL     1     -10.580  38.788 -31.603  1.00  0.00    -0.396 OA
HETATM   42  C1  UNL     1     -11.265  39.938 -31.123  1.00  0.00     0.201 C 
ENDBRANCH  40  41
ENDBRANCH  39  40
ENDBRANCH  38  39
ENDBRANCH  36  38
ENDBRANCH  35  36
ENDBRANCH   1  35
BRANCH   5  43
HETATM   43  O2  UNL     1      -7.097  47.373 -29.643  1.00  0.00    -0.386 OA
HETATM   44  H17 UNL     1      -6.219  47.222 -29.248  1.00  0.00     0.210 HD
ENDBRANCH   5  43
BRANCH  11  45
HETATM   45  O3  UNL     1      -8.559  48.673 -27.973  1.00  0.00    -0.386 OA
HETATM   46  H26 UNL     1      -8.014  48.814 -28.779  1.00  0.00     0.210 HD
ENDBRANCH  11  45
BRANCH  26  47
HETATM   47  C37 UNL     1     -10.604  48.945 -25.926  1.00  0.00     0.244 C 
HETATM   48  O5  UNL     1      -9.910  49.957 -25.851  1.00  0.00    -0.306 OA
ENDBRANCH  26  47
BRANCH  27  49
HETATM   49  O6  UNL     1      -9.182  48.584 -23.644  1.00  0.00    -0.388 OA
HETATM   50  H58 UNL     1      -8.954  49.471 -23.974  1.00  0.00     0.210 HD
ENDBRANCH  27  49
BRANCH  23  51
HETATM   51  O4  UNL     1      -9.728  46.744 -21.677  1.00  0.00    -0.395 OA
HETATM   52  H52 UNL     1      -9.551  47.679 -21.916  1.00  0.00     0.210 HD
ENDBRANCH  23  51
BRANCH  20  53
HETATM   53  C26 UNL     1      -4.886  50.311 -22.735  1.00  0.00    -0.010 C 
HETATM   54  C27 UNL     1      -3.636  50.439 -23.619  1.00  0.00     0.005 C 
HETATM   55  C28 UNL     1      -3.106  51.859 -23.404  1.00  0.00     0.000 C 
HETATM   56  C29 UNL     1      -3.974  52.478 -22.316  1.00  0.00     0.000 C 
HETATM   57  C30 UNL     1      -4.598  51.292 -21.598  1.00  0.00     0.005 C 
ENDBRANCH  20  53
TORSDOF 12
ENDMDL
MODEL 6
REMARK minimizedAffinity -7.43028259
REMARK CNNscore 0.460072309
REMARK CNNaffinity 6.39858961
REMARK  12 active torsions:
REMARK  status: ('A' for Active; 'I' for Inactive)
REMARK    1  A    between atoms: O1_2  and  C2_3 
REMARK    2  A    between atoms: C2_3  and  C3_4 
REMARK    3  A    between atoms: C3_4  and  C4_5 
REMARK    4  A    between atoms: C4_5  and  N1_6 
REMARK    5  A    between atoms: N1_6  and  C5_7 
REMARK    6  A    between atoms: C5_7  and  C6_8 
REMARK    7  A    between atoms: C10_12  and  O2_13 
REMARK    8  A    between atoms: C16_19  and  O3_20 
REMARK    9  A    between atoms: C25_29  and  C26_30 
REMARK   10  A    between atoms: C33_37  and  O4_38 
REMARK   11  A    between atoms: C36_41  and  C37_42 
REMARK   12  A    between atoms: C38_44  and  O6_45 
ROOT
HETATM    1  C6  UNL     1      -7.610  43.292 -32.490  1.00  0.00    -0.022 C 
HETATM    2  C7  UNL     1      -7.270  43.704 -31.243  1.00  0.00    -0.014 C 
HETATM    3  C8  UNL     1      -7.943  44.893 -30.604  1.00  0.00     0.021 C 
HETATM    4  C9  UNL     1      -8.160  44.886 -29.089  1.00  0.00     0.051 C 
HETATM    5  C10 UNL     1      -9.024  46.156 -28.908  1.00  0.00     0.098 C 
HETATM    6  C11 UNL     1     -10.065  46.074 -30.100  1.00  0.00    -0.002 C 
HETATM    7  C12 UNL     1     -10.387  47.457 -30.685  1.00  0.00     0.019 C 
HETATM    8  C13 UNL     1     -11.398  45.402 -29.659  1.00  0.00     0.013 C 
HETATM    9  C14 UNL     1     -11.931  45.872 -28.315  1.00  0.00     0.010 C 
HETATM   10  C15 UNL     1     -10.899  45.586 -27.204  1.00  0.00     0.041 C 
HETATM   11  C16 UNL     1      -9.623  46.400 -27.478  1.00  0.00     0.095 C 
HETATM   12  C17 UNL     1      -8.584  46.152 -26.372  1.00  0.00     0.049 C 
HETATM   13  C18 UNL     1      -9.112  46.486 -24.965  1.00  0.00     0.025 C 
HETATM   14  C19 UNL     1      -7.914  46.458 -23.965  1.00  0.00     0.013 C 
HETATM   15  C20 UNL     1      -8.218  46.049 -22.512  1.00  0.00    -0.002 C 
HETATM   16  C21 UNL     1      -8.328  44.502 -22.363  1.00  0.00     0.013 C 
HETATM   17  C22 UNL     1      -6.999  43.854 -22.000  1.00  0.00    -0.026 C 
HETATM   18  C23 UNL     1      -5.875  44.527 -21.721  1.00  0.00    -0.030 C 
HETATM   19  C24 UNL     1      -5.812  46.020 -21.645  1.00  0.00     0.032 C 
HETATM   20  C25 UNL     1      -7.211  46.635 -21.470  1.00  0.00    -0.002 C 
HETATM   21  C31 UNL     1      -8.848  43.762 -23.612  1.00  0.00     0.019 C 
HETATM   22  C32 UNL     1     -10.163  44.180 -24.295  1.00  0.00     0.051 C 
HETATM   23  C33 UNL     1     -11.408  43.585 -23.586  1.00  0.00     0.125 C 
HETATM   24  C34 UNL     1     -12.731  44.132 -24.140  1.00  0.00     0.033 C 
HETATM   25  C35 UNL     1     -12.588  44.631 -25.571  1.00  0.00     0.023 C 
HETATM   26  C36 UNL     1     -11.509  45.765 -25.758  1.00  0.00     0.051 C 
HETATM   27  C38 UNL     1     -10.398  45.686 -24.614  1.00  0.00     0.082 C 
HETATM   28  C39 UNL     1      -9.384  45.085 -31.125  1.00  0.00     0.036 C 
HETATM   29  C40 UNL     1      -9.260  45.195 -32.608  1.00  0.00    -0.035 C 
HETATM   30  C41 UNL     1      -9.380  46.188 -33.483  1.00  0.00     0.088 C 
HETATM   31  C42 UNL     1      -8.833  45.681 -34.744  1.00  0.00     0.284 C 
HETATM   32  O7  UNL     1      -8.779  46.326 -35.777  1.00  0.00    -0.260 OA
HETATM   33  O8  UNL     1      -8.359  44.420 -34.568  1.00  0.00    -0.304 OA
HETATM   34  C43 UNL     1      -8.739  43.959 -33.279  1.00  0.00     0.192 C 
ENDROOT
BRANCH   1  35
HETATM   35  C5  UNL     1      -6.982  42.065 -33.105  1.00  0.00     0.306 C 
BRANCH  35  36
HETATM   36  N1  UNL     1      -6.108  42.409 -34.214  1.00  0.00     0.087 N 
HETATM   37  H10 UNL     1      -6.076  43.422 -34.323  1.00  0.00     0.316 HD
BRANCH  36  38
HETATM   38  C4  UNL     1      -4.758  41.881 -34.030  1.00  0.00     0.272 C 
BRANCH  38  39
HETATM   39  C3  UNL     1      -4.686  40.414 -34.454  1.00  0.00     0.056 C 
BRANCH  39  40
HETATM   40  C2  UNL     1      -3.644  40.169 -35.545  1.00  0.00     0.168 C 
BRANCH  40  41
HETATM   41  O1  UNL     1      -2.862  39.011 -35.238  1.00  0.00    -0.396 OA
HETATM   42  C1  UNL     1      -2.102  39.167 -34.046  1.00  0.00     0.201 C 
ENDBRANCH  40  41
ENDBRANCH  39  40
ENDBRANCH  38  39
ENDBRANCH  36  38
ENDBRANCH  35  36
ENDBRANCH   1  35
BRANCH   5  43
HETATM   43  O2  UNL     1      -8.151  47.296 -29.147  1.00  0.00    -0.386 OA
HETATM   44  H17 UNL     1      -7.302  47.147 -28.694  1.00  0.00     0.210 HD
ENDBRANCH   5  43
BRANCH  11  45
HETATM   45  O3  UNL     1      -9.966  47.796 -27.395  1.00  0.00    -0.386 OA
HETATM   46  H26 UNL     1      -9.380  48.255 -28.037  1.00  0.00     0.210 HD
ENDBRANCH  11  45
BRANCH  26  47
HETATM   47  C37 UNL     1     -12.211  47.133 -25.674  1.00  0.00     0.244 C 
HETATM   48  O5  UNL     1     -13.151  47.487 -26.383  1.00  0.00    -0.306 OA
ENDBRANCH  26  47
BRANCH  27  49
HETATM   49  O6  UNL     1     -10.971  46.267 -23.422  1.00  0.00    -0.388 OA
HETATM   50  H58 UNL     1     -10.869  47.234 -23.439  1.00  0.00     0.210 HD
ENDBRANCH  27  49
BRANCH  23  51
HETATM   51  O4  UNL     1     -11.377  43.846 -22.186  1.00  0.00    -0.395 OA
HETATM   52  H52 UNL     1     -11.341  44.823 -22.110  1.00  0.00     0.210 HD
ENDBRANCH  23  51
BRANCH  20  53
HETATM   53  C26 UNL     1      -7.142  48.180 -21.438  1.00  0.00    -0.010 C 
HETATM   54  C27 UNL     1      -5.941  48.754 -22.208  1.00  0.00     0.005 C 
HETATM   55  C28 UNL     1      -5.604  50.089 -21.539  1.00  0.00     0.000 C 
HETATM   56  C29 UNL     1      -6.523  50.203 -20.328  1.00  0.00     0.000 C 
HETATM   57  C30 UNL     1      -6.963  48.776 -20.041  1.00  0.00     0.005 C 
ENDBRANCH  20  53
TORSDOF 12
ENDMDL
MODEL 7
REMARK minimizedAffinity -6.93487167
REMARK CNNscore 0.449602842
REMARK CNNaffinity 6.74265051
REMARK  12 active torsions:
REMARK  status: ('A' for Active; 'I' for Inactive)
REMARK    1  A    between atoms: O1_2  and  C2_3 
REMARK    2  A    between atoms: C2_3  and  C3_4 
REMARK    3  A    between atoms: C3_4  and  C4_5 
REMARK    4  A    between atoms: C4_5  and  N1_6 
REMARK    5  A    between atoms: N1_6  and  C5_7 
REMARK    6  A    between atoms: C5_7  and  C6_8 
REMARK    7  A    between atoms: C10_12  and  O2_13 
REMARK    8  A    between atoms: C16_19  and  O3_20 
REMARK    9  A    between atoms: C25_29  and  C26_30 
REMARK   10  A    between atoms: C33_37  and  O4_38 
REMARK   11  A    between atoms: C36_41  and  C37_42 
REMARK   12  A    between atoms: C38_44  and  O6_45 
ROOT
HETATM    1  C6  UNL     1      -5.103  50.946 -22.786  1.00  0.00    -0.022 C 
HETATM    2  C7  UNL     1      -5.851  49.849 -23.065  1.00  0.00    -0.014 C 
HETATM    3  C8  UNL     1      -6.278  48.898 -21.976  1.00  0.00     0.021 C 
HETATM    4  C9  UNL     1      -7.635  48.202 -22.100  1.00  0.00     0.051 C 
HETATM    5  C10 UNL     1      -7.739  47.507 -20.723  1.00  0.00     0.098 C 
HETATM    6  C11 UNL     1      -7.237  48.613 -19.706  1.00  0.00    -0.002 C 
HETATM    7  C12 UNL     1      -6.425  48.012 -18.548  1.00  0.00     0.019 C 
HETATM    8  C13 UNL     1      -8.419  49.430 -19.108  1.00  0.00     0.013 C 
HETATM    9  C14 UNL     1      -9.613  48.594 -18.675  1.00  0.00     0.010 C 
HETATM   10  C15 UNL     1     -10.176  47.810 -19.879  1.00  0.00     0.041 C 
HETATM   11  C16 UNL     1      -9.110  46.822 -20.383  1.00  0.00     0.095 C 
HETATM   12  C17 UNL     1      -9.653  46.008 -21.568  1.00  0.00     0.049 C 
HETATM   13  C18 UNL     1     -10.943  45.240 -21.230  1.00  0.00     0.025 C 
HETATM   14  C19 UNL     1     -11.254  44.252 -22.397  1.00  0.00     0.013 C 
HETATM   15  C20 UNL     1     -12.734  43.925 -22.669  1.00  0.00    -0.002 C 
HETATM   16  C21 UNL     1     -13.428  45.051 -23.490  1.00  0.00     0.013 C 
HETATM   17  C22 UNL     1     -13.361  44.807 -24.992  1.00  0.00    -0.026 C 
HETATM   18  C23 UNL     1     -12.868  43.700 -25.561  1.00  0.00    -0.030 C 
HETATM   19  C24 UNL     1     -12.400  42.515 -24.777  1.00  0.00     0.032 C 
HETATM   20  C25 UNL     1     -12.956  42.532 -23.342  1.00  0.00    -0.002 C 
HETATM   21  C31 UNL     1     -12.870  46.470 -23.253  1.00  0.00     0.019 C 
HETATM   22  C32 UNL     1     -12.743  47.048 -21.831  1.00  0.00     0.051 C 
HETATM   23  C33 UNL     1     -14.084  47.632 -21.313  1.00  0.00     0.125 C 
HETATM   24  C34 UNL     1     -14.023  48.049 -19.837  1.00  0.00     0.033 C 
HETATM   25  C35 UNL     1     -12.603  48.362 -19.390  1.00  0.00     0.023 C 
HETATM   26  C36 UNL     1     -11.587  47.170 -19.571  1.00  0.00     0.051 C 
HETATM   27  C38 UNL     1     -12.073  46.180 -20.725  1.00  0.00     0.082 C 
HETATM   28  C39 UNL     1      -6.417  49.612 -20.613  1.00  0.00     0.036 C 
HETATM   29  C40 UNL     1      -5.093  50.252 -20.362  1.00  0.00    -0.035 C 
HETATM   30  C41 UNL     1      -4.084  50.012 -19.532  1.00  0.00     0.088 C 
HETATM   31  C42 UNL     1      -2.965  50.827 -20.012  1.00  0.00     0.284 C 
HETATM   32  O7  UNL     1      -1.865  50.860 -19.488  1.00  0.00    -0.260 OA
HETATM   33  O8  UNL     1      -3.327  51.488 -21.143  1.00  0.00    -0.304 OA
HETATM   34  C43 UNL     1      -4.722  51.317 -21.351  1.00  0.00     0.192 C 
ENDROOT
BRANCH   1  35
HETATM   35  C5  UNL     1      -4.729  51.931 -23.866  1.00  0.00     0.306 C 
BRANCH  35  36
HETATM   36  N1  UNL     1      -3.290  52.128 -23.937  1.00  0.00     0.087 N 
HETATM   37  H10 UNL     1      -2.892  52.074 -23.001  1.00  0.00     0.316 HD
BRANCH  36  38
HETATM   38  C4  UNL     1      -2.648  51.152 -24.814  1.00  0.00     0.272 C 
BRANCH  38  39
HETATM   39  C3  UNL     1      -1.128  51.310 -24.783  1.00  0.00     0.056 C 
BRANCH  39  40
HETATM   40  C2  UNL     1      -0.689  52.642 -24.175  1.00  0.00     0.168 C 
BRANCH  40  41
HETATM   41  O1  UNL     1      -0.801  53.693 -25.139  1.00  0.00    -0.396 OA
HETATM   42  C1  UNL     1      -0.020  53.450 -26.303  1.00  0.00     0.201 C 
ENDBRANCH  40  41
ENDBRANCH  39  40
ENDBRANCH  38  39
ENDBRANCH  36  38
ENDBRANCH  35  36
ENDBRANCH   1  35
BRANCH   5  43
HETATM   43  O2  UNL     1      -6.769  46.421 -20.725  1.00  0.00    -0.386 OA
HETATM   44  H17 UNL     1      -6.821  45.950 -21.576  1.00  0.00     0.210 HD
ENDBRANCH   5  43
BRANCH  11  45
HETATM   45  O3  UNL     1      -8.859  45.872 -19.330  1.00  0.00    -0.386 OA
HETATM   46  H26 UNL     1      -7.912  45.623 -19.413  1.00  0.00     0.210 HD
ENDBRANCH  11  45
BRANCH  26  47
HETATM   47  C37 UNL     1     -11.506  46.386 -18.247  1.00  0.00     0.244 C 
HETATM   48  O5  UNL     1     -12.320  46.467 -17.329  1.00  0.00    -0.306 OA
ENDBRANCH  26  47
BRANCH  27  49
HETATM   49  O6  UNL     1     -13.122  45.357 -20.168  1.00  0.00    -0.388 OA
HETATM   50  H58 UNL     1     -12.736  44.598 -19.696  1.00  0.00     0.210 HD
ENDBRANCH  27  49
BRANCH  23  51
HETATM   51  O4  UNL     1     -15.145  46.693 -21.461  1.00  0.00    -0.395 OA
HETATM   52  H52 UNL     1     -14.863  45.906 -20.949  1.00  0.00     0.210 HD
ENDBRANCH  23  51
BRANCH  20  53
HETATM   53  C26 UNL     1     -12.431  41.328 -22.525  1.00  0.00    -0.010 C 
HETATM   54  C27 UNL     1     -11.258  40.597 -23.199  1.00  0.00     0.005 C 
HETATM   55  C28 UNL     1     -11.325  39.147 -22.714  1.00  0.00     0.000 C 
HETATM   56  C29 UNL     1     -12.594  39.034 -21.878  1.00  0.00     0.000 C 
HETATM   57  C30 UNL     1     -13.453  40.209 -22.320  1.00  0.00     0.005 C 
ENDBRANCH  20  53
TORSDOF 12
ENDMDL
MODEL 8
REMARK minimizedAffinity -7.18847036
REMARK CNNscore 0.415110976
REMARK CNNaffinity 6.26382971
REMARK  12 active torsions:
REMARK  status: ('A' for Active; 'I' for Inactive)
REMARK    1  A    between atoms: O1_2  and  C2_3 
REMARK    2  A    between atoms: C2_3  and  C3_4 
REMARK    3  A    between atoms: C3_4  and  C4_5 
REMARK    4  A    between atoms: C4_5  and  N1_6 
REMARK    5  A    between atoms: N1_6  and  C5_7 
REMARK    6  A    between atoms: C5_7  and  C6_8 
REMARK    7  A    between atoms: C10_12  and  O2_13 
REMARK    8  A    between atoms: C16_19  and  O3_20 
REMARK    9  A    between atoms: C25_29  and  C26_30 
REMARK   10  A    between atoms: C33_37  and  O4_38 
REMARK   11  A    between atoms: C36_41  and  C37_42 
REMARK   12  A    between atoms: C38_44  and  O6_45 
ROOT
HETATM    1  C6  UNL     1     -10.715  46.727 -30.310  1.00  0.00    -0.022 C 
HETATM    2  C7  UNL     1     -11.696  45.830 -30.040  1.00  0.00    -0.014 C 
HETATM    3  C8  UNL     1     -11.890  45.280 -28.649  1.00  0.00     0.021 C 
HETATM    4  C9  UNL     1     -13.309  44.952 -28.182  1.00  0.00     0.051 C 
HETATM    5  C10 UNL     1     -13.062  44.620 -26.692  1.00  0.00     0.098 C 
HETATM    6  C11 UNL     1     -12.055  45.749 -26.219  1.00  0.00    -0.002 C 
HETATM    7  C12 UNL     1     -11.020  45.220 -25.215  1.00  0.00     0.019 C 
HETATM    8  C13 UNL     1     -12.798  46.955 -25.573  1.00  0.00     0.013 C 
HETATM    9  C14 UNL     1     -13.903  46.572 -24.601  1.00  0.00     0.010 C 
HETATM   10  C15 UNL     1     -14.971  45.722 -25.320  1.00  0.00     0.041 C 
HETATM   11  C16 UNL     1     -14.334  44.406 -25.798  1.00  0.00     0.095 C 
HETATM   12  C17 UNL     1     -15.384  43.528 -26.498  1.00  0.00     0.049 C 
HETATM   13  C18 UNL     1     -16.598  43.213 -25.605  1.00  0.00     0.025 C 
HETATM   14  C19 UNL     1     -17.457  42.114 -26.302  1.00  0.00     0.013 C 
HETATM   15  C20 UNL     1     -18.974  42.134 -26.041  1.00  0.00    -0.002 C 
HETATM   16  C21 UNL     1     -19.694  43.199 -26.921  1.00  0.00     0.013 C 
HETATM   17  C22 UNL     1     -20.185  42.629 -28.245  1.00  0.00    -0.026 C 
HETATM   18  C23 UNL     1     -20.121  41.336 -28.587  1.00  0.00    -0.030 C 
HETATM   19  C24 UNL     1     -19.634  40.268 -27.661  1.00  0.00     0.032 C 
HETATM   20  C25 UNL     1     -19.657  40.737 -26.196  1.00  0.00    -0.002 C 
HETATM   21  C31 UNL     1     -18.845  44.439 -27.268  1.00  0.00     0.019 C 
HETATM   22  C32 UNL     1     -18.141  45.256 -26.167  1.00  0.00     0.051 C 
HETATM   23  C33 UNL     1     -19.099  46.266 -25.482  1.00  0.00     0.125 C 
HETATM   24  C34 UNL     1     -18.467  46.960 -24.268  1.00  0.00     0.033 C 
HETATM   25  C35 UNL     1     -16.948  46.980 -24.347  1.00  0.00     0.023 C 
HETATM   26  C36 UNL     1     -16.284  45.554 -24.457  1.00  0.00     0.051 C 
HETATM   27  C38 UNL     1     -17.302  44.502 -25.094  1.00  0.00     0.082 C 
HETATM   28  C39 UNL     1     -11.429  46.280 -27.567  1.00  0.00     0.036 C 
HETATM   29  C40 UNL     1     -10.006  46.591 -27.894  1.00  0.00    -0.035 C 
HETATM   30  C41 UNL     1      -8.835  46.281 -27.348  1.00  0.00     0.088 C 
HETATM   31  C42 UNL     1      -7.819  46.653 -28.337  1.00  0.00     0.284 C 
HETATM   32  O7  UNL     1      -6.620  46.509 -28.176  1.00  0.00    -0.260 OA
HETATM   33  O8  UNL     1      -8.420  47.127 -29.460  1.00  0.00    -0.304 OA
HETATM   34  C43 UNL     1      -9.809  47.285 -29.209  1.00  0.00     0.192 C 
ENDROOT
BRANCH   1  35
HETATM   35  C5  UNL     1     -10.561  47.325 -31.687  1.00  0.00     0.306 C 
BRANCH  35  36
HETATM   36  N1  UNL     1      -9.163  47.533 -32.026  1.00  0.00     0.087 N 
HETATM   37  H10 UNL     1      -8.595  47.488 -31.181  1.00  0.00     0.316 HD
BRANCH  36  38
HETATM   38  C4  UNL     1      -8.688  46.558 -33.004  1.00  0.00     0.272 C 
BRANCH  38  39
HETATM   39  C3  UNL     1      -7.631  47.175 -33.919  1.00  0.00     0.056 C 
BRANCH  39  40
HETATM   40  C2  UNL     1      -6.287  47.371 -33.216  1.00  0.00     0.168 C 
BRANCH  40  41
HETATM   41  O1  UNL     1      -5.381  48.085 -34.062  1.00  0.00    -0.396 OA
HETATM   42  C1  UNL     1      -4.025  47.718 -33.840  1.00  0.00     0.201 C 
ENDBRANCH  40  41
ENDBRANCH  39  40
ENDBRANCH  38  39
ENDBRANCH  36  38
ENDBRANCH  35  36
ENDBRANCH   1  35
BRANCH   5  43
HETATM   43  O2  UNL     1     -12.361  43.345 -26.655  1.00  0.00    -0.386 OA
HETATM   44  H17 UNL     1     -12.782  42.733 -27.286  1.00  0.00     0.210 HD
ENDBRANCH   5  43
BRANCH  11  45
HETATM   45  O3  UNL     1     -13.915  43.673 -24.633  1.00  0.00    -0.386 OA
HETATM   46  H26 UNL     1     -13.113  43.174 -24.904  1.00  0.00     0.210 HD
ENDBRANCH  11  45
BRANCH  26  47
HETATM   47  C37 UNL     1     -15.900  45.079 -23.043  1.00  0.00     0.244 C 
HETATM   48  O5  UNL     1     -16.463  45.425 -22.007  1.00  0.00    -0.306 OA
ENDBRANCH  26  47
BRANCH  27  49
HETATM   49  O6  UNL     1     -18.228  44.119 -24.053  1.00  0.00    -0.388 OA
HETATM   50  H58 UNL     1     -17.846  43.406 -23.511  1.00  0.00     0.210 HD
ENDBRANCH  27  49
BRANCH  23  51
HETATM   51  O4  UNL     1     -20.297  45.627 -25.050  1.00  0.00    -0.395 OA
HETATM   52  H52 UNL     1     -20.002  44.923 -24.435  1.00  0.00     0.210 HD
ENDBRANCH  23  51
BRANCH  20  53
HETATM   53  C26 UNL     1     -19.109  39.641 -25.250  1.00  0.00    -0.010 C 
HETATM   54  C27 UNL     1     -19.849  38.300 -25.375  1.00  0.00     0.005 C 
HETATM   55  C28 UNL     1     -19.723  37.616 -24.011  1.00  0.00     0.000 C 
HETATM   56  C29 UNL     1     -19.031  38.616 -23.094  1.00  0.00     0.000 C 
HETATM   57  C30 UNL     1     -19.246  39.966 -23.762  1.00  0.00     0.005 C 
ENDBRANCH  20  53
TORSDOF 12
ENDMDL
MODEL 9
REMARK minimizedAffinity -7.8620491
REMARK CNNscore 0.40865314
REMARK CNNaffinity 7.1759305
REMARK  12 active torsions:
REMARK  status: ('A' for Active; 'I' for Inactive)
REMARK    1  A    between atoms: O1_2  and  C2_3 
REMARK    2  A    between atoms: C2_3  and  C3_4 
REMARK    3  A    between atoms: C3_4  and  C4_5 
REMARK    4  A    between atoms: C4_5  and  N1_6 
REMARK    5  A    between atoms: N1_6  and  C5_7 
REMARK    6  A    between atoms: C5_7  and  C6_8 
REMARK    7  A    between atoms: C10_12  and  O2_13 
REMARK    8  A    between atoms: C16_19  and  O3_20 
REMARK    9  A    between atoms: C25_29  and  C26_30 
REMARK   10  A    between atoms: C33_37  and  O4_38 
REMARK   11  A    between atoms: C36_41  and  C37_42 
REMARK   12  A    between atoms: C38_44  and  O6_45 
ROOT
HETATM    1  C6  UNL     1       0.807  51.853 -17.147  1.00  0.00    -0.022 C 
HETATM    2  C7  UNL     1       0.842  52.503 -15.957  1.00  0.00    -0.014 C 
HETATM    3  C8  UNL     1       0.684  51.758 -14.656  1.00  0.00     0.021 C 
HETATM    4  C9  UNL     1       1.448  52.256 -13.428  1.00  0.00     0.051 C 
HETATM    5  C10 UNL     1       1.157  51.123 -12.417  1.00  0.00     0.098 C 
HETATM    6  C11 UNL     1       1.331  49.802 -13.275  1.00  0.00    -0.002 C 
HETATM    7  C12 UNL     1       0.321  48.714 -12.877  1.00  0.00     0.019 C 
HETATM    8  C13 UNL     1       2.766  49.213 -13.146  1.00  0.00     0.013 C 
HETATM    9  C14 UNL     1       3.317  49.187 -11.729  1.00  0.00     0.010 C 
HETATM   10  C15 UNL     1       3.368  50.618 -11.153  1.00  0.00     0.041 C 
HETATM   11  C16 UNL     1       1.938  51.176 -11.057  1.00  0.00     0.095 C 
HETATM   12  C17 UNL     1       1.956  52.593 -10.462  1.00  0.00     0.049 C 
HETATM   13  C18 UNL     1       2.625  52.656  -9.077  1.00  0.00     0.025 C 
HETATM   14  C19 UNL     1       2.354  54.062  -8.457  1.00  0.00     0.013 C 
HETATM   15  C20 UNL     1       3.421  54.631  -7.505  1.00  0.00    -0.002 C 
HETATM   16  C21 UNL     1       4.617  55.250  -8.288  1.00  0.00     0.013 C 
HETATM   17  C22 UNL     1       4.431  56.737  -8.560  1.00  0.00    -0.026 C 
HETATM   18  C23 UNL     1       3.419  57.476  -8.088  1.00  0.00    -0.030 C 
HETATM   19  C24 UNL     1       2.382  56.941  -7.152  1.00  0.00     0.032 C 
HETATM   20  C25 UNL     1       2.856  55.650  -6.463  1.00  0.00    -0.002 C 
HETATM   21  C31 UNL     1       4.915  54.592  -9.650  1.00  0.00     0.019 C 
HETATM   22  C32 UNL     1       5.118  53.069  -9.772  1.00  0.00     0.051 C 
HETATM   23  C33 UNL     1       6.560  52.638  -9.396  1.00  0.00     0.125 C 
HETATM   24  C34 UNL     1       6.732  51.114  -9.337  1.00  0.00     0.033 C 
HETATM   25  C35 UNL     1       5.707  50.389 -10.197  1.00  0.00     0.023 C 
HETATM   26  C36 UNL     1       4.208  50.697  -9.817  1.00  0.00     0.051 C 
HETATM   27  C38 UNL     1       4.083  52.118  -9.101  1.00  0.00     0.082 C 
HETATM   28  C39 UNL     1       1.185  50.301 -14.765  1.00  0.00     0.036 C 
HETATM   29  C40 UNL     1       0.417  49.700 -15.895  1.00  0.00    -0.035 C 
HETATM   30  C41 UNL     1      -0.563  48.807 -15.986  1.00  0.00     0.088 C 
HETATM   31  C42 UNL     1      -1.061  48.895 -17.361  1.00  0.00     0.284 C 
HETATM   32  O7  UNL     1      -1.969  48.215 -17.806  1.00  0.00    -0.260 OA
HETATM   33  O8  UNL     1      -0.397  49.873 -18.031  1.00  0.00    -0.304 OA
HETATM   34  C43 UNL     1       0.684  50.330 -17.230  1.00  0.00     0.192 C 
ENDROOT
BRANCH   1  35
HETATM   35  C5  UNL     1       1.028  52.589 -18.446  1.00  0.00     0.306 C 
BRANCH  35  36
HETATM   36  N1  UNL     1      -0.221  52.802 -19.160  1.00  0.00     0.087 N 
HETATM   37  H10 UNL     1      -0.416  53.801 -19.216  1.00  0.00     0.316 HD
BRANCH  36  38
HETATM   38  C4  UNL     1      -0.190  52.220 -20.499  1.00  0.00     0.272 C 
BRANCH  38  39
HETATM   39  C3  UNL     1       0.790  52.973 -21.398  1.00  0.00     0.056 C 
BRANCH  39  40
HETATM   40  C2  UNL     1       0.662  52.577 -22.869  1.00  0.00     0.168 C 
BRANCH  40  41
HETATM   41  O1  UNL     1       0.827  53.722 -23.711  1.00  0.00    -0.396 OA
HETATM   42  C1  UNL     1       0.164  53.579 -24.961  1.00  0.00     0.201 C 
ENDBRANCH  40  41
ENDBRANCH  39  40
ENDBRANCH  38  39
ENDBRANCH  36  38
ENDBRANCH  35  36
ENDBRANCH   1  35
BRANCH   5  43
HETATM   43  O2  UNL     1      -0.246  51.239 -12.047  1.00  0.00    -0.386 OA
HETATM   44  H17 UNL     1      -0.456  52.177 -11.887  1.00  0.00     0.210 HD
ENDBRANCH   5  43
BRANCH  11  45
HETATM   45  O3  UNL     1       1.211  50.361 -10.118  1.00  0.00    -0.386 OA
HETATM   46  H26 UNL     1       0.280  50.354 -10.434  1.00  0.00     0.210 HD
ENDBRANCH  11  45
BRANCH  26  47
HETATM   47  C37 UNL     1       3.712  49.608  -8.846  1.00  0.00     0.244 C 
HETATM   48  O5  UNL     1       4.306  49.245  -7.833  1.00  0.00    -0.306 OA
ENDBRANCH  26  47
BRANCH  27  49
HETATM   49  O6  UNL     1       4.517  51.948  -7.734  1.00  0.00    -0.388 OA
HETATM   50  H58 UNL     1       3.781  51.621  -7.188  1.00  0.00     0.210 HD
ENDBRANCH  27  49
BRANCH  23  51
HETATM   51  O4  UNL     1       6.945  53.173  -8.133  1.00  0.00    -0.395 OA
HETATM   52  H52 UNL     1       6.280  52.830  -7.498  1.00  0.00     0.210 HD
ENDBRANCH  23  51
BRANCH  20  53
HETATM   53  C26 UNL     1       1.761  55.079  -5.531  1.00  0.00    -0.010 C 
HETATM   54  C27 UNL     1       0.366  55.669  -5.795  1.00  0.00     0.005 C 
HETATM   55  C28 UNL     1      -0.387  55.595  -4.464  1.00  0.00     0.000 C 
HETATM   56  C29 UNL     1       0.615  55.087  -3.434  1.00  0.00     0.000 C 
HETATM   57  C30 UNL     1       1.977  55.376  -4.046  1.00  0.00     0.005 C 
ENDBRANCH  20  53
TORSDOF 12
ENDMDL
