MODEL 1
REMARK minimizedAffinity -6.9732337
REMARK CNNscore 0.642390966
REMARK CNNaffinity 6.09792185
REMARK  7 active torsions:
REMARK  status: ('A' for Active; 'I' for Inactive)
REMARK    1  A    between atoms: C2_2  and  C30_33 
REMARK    2  A    between atoms: C3_3  and  C4_4 
REMARK    3  A    between atoms: C4_4  and  C5_5 
REMARK    4  A    between atoms: C5_5  and  C6_6 
REMARK    5  A    between atoms: C6_6  and  C8_8 
REMARK    6  A    between atoms: C15_15  and  O1_16 
REMARK    7  A    between atoms: C30_33  and  O5_35 
ROOT
HETATM    1  C8  UNL     1     -17.805   3.860  14.789  1.00  0.00    -0.002 C 
HETATM    2  C9  UNL     1     -17.554   3.817  16.313  1.00  0.00     0.007 C 
HETATM    3  C10 UNL     1     -16.926   2.435  16.618  1.00  0.00     0.015 C 
HETATM    4  C11 UNL     1     -16.493   1.872  15.246  1.00  0.00    -0.005 C 
HETATM    5  C12 UNL     1     -15.106   2.506  14.912  1.00  0.00     0.021 C 
HETATM    6  C13 UNL     1     -16.283   0.378  15.025  1.00  0.00     0.002 C 
HETATM    7  C14 UNL     1     -16.525  -0.197  13.811  1.00  0.00    -0.032 C 
HETATM    8  C15 UNL     1     -17.028   0.640  12.633  1.00  0.00     0.149 C 
HETATM    9  C16 UNL     1     -17.366   2.125  12.897  1.00  0.00     0.047 C 
HETATM   10  C17 UNL     1     -17.711   2.368  14.367  1.00  0.00    -0.026 C 
HETATM   11  C18 UNL     1     -19.029   1.606  14.696  1.00  0.00     0.016 C 
HETATM   12  C19 UNL     1     -16.414  -1.737  13.628  1.00  0.00    -0.012 C 
HETATM   13  C20 UNL     1     -17.745  -2.305  14.193  1.00  0.00     0.021 C 
HETATM   14  C21 UNL     1     -16.298  -2.278  12.171  1.00  0.00     0.021 C 
HETATM   15  C22 UNL     1     -14.862  -2.465  11.707  1.00  0.00     0.080 C 
HETATM   16  C23 UNL     1     -14.209  -3.538  12.554  1.00  0.00     0.135 C 
HETATM   17  O2  UNL     1     -13.465  -4.373  12.038  1.00  0.00    -0.297 OA
HETATM   18  C24 UNL     1     -14.499  -3.528  14.068  1.00  0.00     0.018 C 
HETATM   19  C25 UNL     1     -15.379  -4.739  14.395  1.00  0.00     0.023 C 
HETATM   20  C26 UNL     1     -13.146  -3.705  14.793  1.00  0.00     0.023 C 
HETATM   21  C27 UNL     1     -15.131  -2.146  14.434  1.00  0.00     0.020 C 
HETATM   22  C28 UNL     1     -15.344  -1.886  15.925  1.00  0.00     0.090 C 
HETATM   23  C29 UNL     1     -15.776  -0.453  16.173  1.00  0.00     0.157 C 
HETATM   24  O3  UNL     1     -15.707   0.012  17.309  1.00  0.00    -0.293 OA
ENDROOT
BRANCH   1  25
HETATM   25  C6  UNL     1     -18.930   4.792  14.259  1.00  0.00    -0.014 C 
HETATM   26  C7  UNL     1     -18.942   4.763  12.720  1.00  0.00     0.010 C 
BRANCH  25  27
HETATM   27  C5  UNL     1     -19.107   6.237  14.785  1.00  0.00     0.008 C 
BRANCH  27  28
HETATM   28  C4  UNL     1     -17.901   7.138  15.071  1.00  0.00     0.028 C 
BRANCH  28  29
HETATM   29  C3  UNL     1     -17.167   7.636  13.861  1.00  0.00    -0.013 C 
HETATM   30  C2  UNL     1     -15.994   7.180  13.378  1.00  0.00     0.008 C 
HETATM   31  C1  UNL     1     -15.156   6.100  13.992  1.00  0.00     0.055 C 
BRANCH  30  32
HETATM   32  C30 UNL     1     -15.488   7.830  12.141  1.00  0.00     0.171 C 
HETATM   33  O4  UNL     1     -15.935   7.702  11.015  1.00  0.00    -0.646 OA
BRANCH  32  34
HETATM   34  O5  UNL     1     -14.427   8.618  12.377  1.00  0.00    -0.773 OA
HETATM   35  H44 UNL     1     -14.204   8.969  11.490  1.00  0.00     0.167 HD
ENDBRANCH  32  34
ENDBRANCH  30  32
ENDBRANCH  28  29
ENDBRANCH  27  28
ENDBRANCH  25  27
ENDBRANCH   1  25
BRANCH   8  36
HETATM   36  O1  UNL     1     -16.041   0.601  11.605  1.00  0.00    -0.391 OA
HETATM   37  H22 UNL     1     -15.248   1.048  11.944  1.00  0.00     0.210 HD
ENDBRANCH   8  36
TORSDOF 7
ENDMDL
MODEL 2
REMARK minimizedAffinity -8.84577656
REMARK CNNscore 0.639654517
REMARK CNNaffinity 6.62059259
REMARK  7 active torsions:
REMARK  status: ('A' for Active; 'I' for Inactive)
REMARK    1  A    between atoms: C2_2  and  C30_33 
REMARK    2  A    between atoms: C3_3  and  C4_4 
REMARK    3  A    between atoms: C4_4  and  C5_5 
REMARK    4  A    between atoms: C5_5  and  C6_6 
REMARK    5  A    between atoms: C6_6  and  C8_8 
REMARK    6  A    between atoms: C15_15  and  O1_16 
REMARK    7  A    between atoms: C30_33  and  O5_35 
ROOT
HETATM    1  C8  UNL     1       0.839  10.651  16.979  1.00  0.00    -0.002 C 
HETATM    2  C9  UNL     1       2.344  10.565  17.324  1.00  0.00     0.007 C 
HETATM    3  C10 UNL     1       3.041   9.927  16.098  1.00  0.00     0.015 C 
HETATM    4  C11 UNL     1       2.006  10.003  14.954  1.00  0.00    -0.005 C 
HETATM    5  C12 UNL     1       2.101  11.438  14.349  1.00  0.00     0.021 C 
HETATM    6  C13 UNL     1       2.084   9.081  13.742  1.00  0.00     0.002 C 
HETATM    7  C14 UNL     1       0.956   8.675  13.088  1.00  0.00    -0.032 C 
HETATM    8  C15 UNL     1      -0.428   9.124  13.560  1.00  0.00     0.149 C 
HETATM    9  C16 UNL     1      -0.511   9.949  14.866  1.00  0.00     0.047 C 
HETATM   10  C17 UNL     1       0.691   9.682  15.774  1.00  0.00    -0.026 C 
HETATM   11  C18 UNL     1       0.633   8.200  16.247  1.00  0.00     0.016 C 
HETATM   12  C19 UNL     1       1.042   7.648  11.925  1.00  0.00    -0.012 C 
HETATM   13  C20 UNL     1       1.170   6.265  12.619  1.00  0.00     0.021 C 
HETATM   14  C21 UNL     1      -0.188   7.541  10.973  1.00  0.00     0.021 C 
HETATM   15  C22 UNL     1      -0.080   8.428   9.742  1.00  0.00     0.080 C 
HETATM   16  C23 UNL     1       1.084   7.954   8.897  1.00  0.00     0.135 C 
HETATM   17  O2  UNL     1       0.988   7.912   7.670  1.00  0.00    -0.297 OA
HETATM   18  C24 UNL     1       2.379   7.548   9.629  1.00  0.00     0.018 C 
HETATM   19  C25 UNL     1       2.537   6.028   9.514  1.00  0.00     0.023 C 
HETATM   20  C26 UNL     1       3.554   8.213   8.879  1.00  0.00     0.023 C 
HETATM   21  C27 UNL     1       2.299   8.086  11.094  1.00  0.00     0.020 C 
HETATM   22  C28 UNL     1       3.566   7.917  11.934  1.00  0.00     0.090 C 
HETATM   23  C29 UNL     1       3.441   8.643  13.260  1.00  0.00     0.157 C 
HETATM   24  O3  UNL     1       4.452   8.864  13.926  1.00  0.00    -0.293 OA
ENDROOT
BRANCH   1  25
HETATM   25  C6  UNL     1      -0.180  10.662  18.152  1.00  0.00    -0.014 C 
HETATM   26  C7  UNL     1      -1.612  10.739  17.590  1.00  0.00     0.010 C 
BRANCH  25  27
HETATM   27  C5  UNL     1      -0.013  11.603  19.369  1.00  0.00     0.008 C 
BRANCH  27  28
HETATM   28  C4  UNL     1       1.240  11.558  20.250  1.00  0.00     0.028 C 
BRANCH  28  29
HETATM   29  C3  UNL     1       1.403  10.317  21.077  1.00  0.00    -0.013 C 
HETATM   30  C2  UNL     1       2.541   9.853  21.632  1.00  0.00     0.008 C 
HETATM   31  C1  UNL     1       3.898  10.471  21.488  1.00  0.00     0.055 C 
BRANCH  30  32
HETATM   32  C30 UNL     1       2.429   8.607  22.433  1.00  0.00     0.171 C 
HETATM   33  O4  UNL     1       1.630   7.702  22.268  1.00  0.00    -0.646 OA
BRANCH  32  34
HETATM   34  O5  UNL     1       3.334   8.555  23.424  1.00  0.00    -0.773 OA
HETATM   35  H44 UNL     1       3.143   7.699  23.860  1.00  0.00     0.167 HD
ENDBRANCH  32  34
ENDBRANCH  30  32
ENDBRANCH  28  29
ENDBRANCH  27  28
ENDBRANCH  25  27
ENDBRANCH   1  25
BRANCH   8  36
HETATM   36  O1  UNL     1      -1.022   9.902  12.524  1.00  0.00    -0.391 OA
HETATM   37  H22 UNL     1      -0.488  10.708  12.422  1.00  0.00     0.210 HD
ENDBRANCH   8  36
TORSDOF 7
ENDMDL
MODEL 3
REMARK minimizedAffinity -8.04027939
REMARK CNNscore 0.504589617
REMARK CNNaffinity 6.55756617
REMARK  7 active torsions:
REMARK  status: ('A' for Active; 'I' for Inactive)
REMARK    1  A    between atoms: C2_2  and  C30_33 
REMARK    2  A    between atoms: C3_3  and  C4_4 
REMARK    3  A    between atoms: C4_4  and  C5_5 
REMARK    4  A    between atoms: C5_5  and  C6_6 
REMARK    5  A    between atoms: C6_6  and  C8_8 
REMARK    6  A    between atoms: C15_15  and  O1_16 
REMARK    7  A    between atoms: C30_33  and  O5_35 
ROOT
HETATM    1  C8  UNL     1      -3.452   7.535  15.013  1.00  0.00    -0.002 C 
HETATM    2  C9  UNL     1      -4.161   6.292  14.429  1.00  0.00     0.007 C 
HETATM    3  C10 UNL     1      -3.242   5.744  13.311  1.00  0.00     0.015 C 
HETATM    4  C11 UNL     1      -1.880   6.442  13.524  1.00  0.00    -0.005 C 
HETATM    5  C12 UNL     1      -1.127   5.643  14.632  1.00  0.00     0.021 C 
HETATM    6  C13 UNL     1      -0.861   6.568  12.396  1.00  0.00     0.002 C 
HETATM    7  C14 UNL     1      -0.014   7.636  12.325  1.00  0.00    -0.032 C 
HETATM    8  C15 UNL     1      -0.068   8.751  13.371  1.00  0.00     0.149 C 
HETATM    9  C16 UNL     1      -1.189   8.686  14.434  1.00  0.00     0.047 C 
HETATM   10  C17 UNL     1      -2.390   7.883  13.934  1.00  0.00    -0.026 C 
HETATM   11  C18 UNL     1      -3.033   8.648  12.739  1.00  0.00     0.016 C 
HETATM   12  C19 UNL     1       0.943   7.808  11.112  1.00  0.00    -0.012 C 
HETATM   13  C20 UNL     1       0.056   8.402   9.983  1.00  0.00     0.021 C 
HETATM   14  C21 UNL     1       2.142   8.790  11.280  1.00  0.00     0.021 C 
HETATM   15  C22 UNL     1       3.418   8.111  11.752  1.00  0.00     0.080 C 
HETATM   16  C23 UNL     1       3.881   7.140  10.685  1.00  0.00     0.135 C 
HETATM   17  O2  UNL     1       5.077   7.041  10.408  1.00  0.00    -0.297 OA
HETATM   18  C24 UNL     1       2.807   6.285   9.984  1.00  0.00     0.018 C 
HETATM   19  C25 UNL     1       2.671   6.777   8.539  1.00  0.00     0.023 C 
HETATM   20  C26 UNL     1       3.331   4.832   9.952  1.00  0.00     0.023 C 
HETATM   21  C27 UNL     1       1.493   6.367  10.826  1.00  0.00     0.020 C 
HETATM   22  C28 UNL     1       0.355   5.452  10.372  1.00  0.00     0.090 C 
HETATM   23  C29 UNL     1      -0.790   5.471  11.368  1.00  0.00     0.157 C 
HETATM   24  O3  UNL     1      -1.646   4.588  11.323  1.00  0.00    -0.293 OA
ENDROOT
BRANCH   1  25
HETATM   25  C6  UNL     1      -4.327   8.629  15.684  1.00  0.00    -0.014 C 
HETATM   26  C7  UNL     1      -5.697   8.696  14.983  1.00  0.00     0.010 C 
BRANCH  25  27
HETATM   27  C5  UNL     1      -3.782  10.050  15.967  1.00  0.00     0.008 C 
BRANCH  27  28
HETATM   28  C4  UNL     1      -3.303  10.460  17.364  1.00  0.00     0.028 C 
BRANCH  28  29
HETATM   29  C3  UNL     1      -1.860  10.173  17.660  1.00  0.00    -0.013 C 
HETATM   30  C2  UNL     1      -0.799  10.946  17.353  1.00  0.00     0.008 C 
HETATM   31  C1  UNL     1      -0.848  12.240  16.599  1.00  0.00     0.055 C 
BRANCH  30  32
HETATM   32  C30 UNL     1       0.533  10.446  17.784  1.00  0.00     0.171 C 
HETATM   33  O4  UNL     1       1.238  10.911  18.662  1.00  0.00    -0.646 OA
BRANCH  32  34
HETATM   34  O5  UNL     1       0.926   9.371  17.080  1.00  0.00    -0.773 OA
HETATM   35  H44 UNL     1       1.802   9.158  17.463  1.00  0.00     0.167 HD
ENDBRANCH  32  34
ENDBRANCH  30  32
ENDBRANCH  28  29
ENDBRANCH  27  28
ENDBRANCH  25  27
ENDBRANCH   1  25
BRANCH   8  36
HETATM   36  O1  UNL     1       1.178   8.774  14.063  1.00  0.00    -0.391 OA
HETATM   37  H22 UNL     1       1.256   7.938  14.552  1.00  0.00     0.210 HD
ENDBRANCH   8  36
TORSDOF 7
ENDMDL
MODEL 4
REMARK minimizedAffinity -8.82905769
REMARK CNNscore 0.468725592
REMARK CNNaffinity 6.82628584
REMARK  7 active torsions:
REMARK  status: ('A' for Active; 'I' for Inactive)
REMARK    1  A    between atoms: C2_2  and  C30_33 
REMARK    2  A    between atoms: C3_3  and  C4_4 
REMARK    3  A    between atoms: C4_4  and  C5_5 
REMARK    4  A    between atoms: C5_5  and  C6_6 
REMARK    5  A    between atoms: C6_6  and  C8_8 
REMARK    6  A    between atoms: C15_15  and  O1_16 
REMARK    7  A    between atoms: C30_33  and  O5_35 
ROOT
HETATM    1  C8  UNL     1      -3.392   7.819  14.741  1.00  0.00    -0.002 C 
HETATM    2  C9  UNL     1      -4.129   6.577  14.189  1.00  0.00     0.007 C 
HETATM    3  C10 UNL     1      -3.199   5.949  13.124  1.00  0.00     0.015 C 
HETATM    4  C11 UNL     1      -1.819   6.608  13.347  1.00  0.00    -0.005 C 
HETATM    5  C12 UNL     1      -1.127   5.832  14.510  1.00  0.00     0.021 C 
HETATM    6  C13 UNL     1      -0.765   6.649  12.247  1.00  0.00     0.002 C 
HETATM    7  C14 UNL     1       0.122   7.682  12.155  1.00  0.00    -0.032 C 
HETATM    8  C15 UNL     1       0.079   8.843  13.151  1.00  0.00     0.149 C 
HETATM    9  C16 UNL     1      -1.074   8.865  14.181  1.00  0.00     0.047 C 
HETATM   10  C17 UNL     1      -2.288   8.082  13.680  1.00  0.00    -0.026 C 
HETATM   11  C18 UNL     1      -2.868   8.816  12.435  1.00  0.00     0.016 C 
HETATM   12  C19 UNL     1       1.118   7.768  10.965  1.00  0.00    -0.012 C 
HETATM   13  C20 UNL     1       0.287   8.342   9.786  1.00  0.00     0.021 C 
HETATM   14  C21 UNL     1       2.347   8.713  11.127  1.00  0.00     0.021 C 
HETATM   15  C22 UNL     1       3.584   8.012  11.666  1.00  0.00     0.080 C 
HETATM   16  C23 UNL     1       4.042   6.979  10.656  1.00  0.00     0.135 C 
HETATM   17  O2  UNL     1       5.241   6.827  10.419  1.00  0.00    -0.297 OA
HETATM   18  C24 UNL     1       2.958   6.132   9.960  1.00  0.00     0.018 C 
HETATM   19  C25 UNL     1       2.881   6.565   8.491  1.00  0.00     0.023 C 
HETATM   20  C26 UNL     1       3.430   4.662  10.005  1.00  0.00     0.023 C 
HETATM   21  C27 UNL     1       1.624   6.297  10.758  1.00  0.00     0.020 C 
HETATM   22  C28 UNL     1       0.467   5.403  10.310  1.00  0.00     0.090 C 
HETATM   23  C29 UNL     1      -0.704   5.506  11.269  1.00  0.00     0.157 C 
HETATM   24  O3  UNL     1      -1.589   4.652  11.236  1.00  0.00    -0.293 OA
ENDROOT
BRANCH   1  25
HETATM   25  C6  UNL     1      -4.246   8.972  15.338  1.00  0.00    -0.014 C 
HETATM   26  C7  UNL     1      -3.595   9.477  16.638  1.00  0.00     0.010 C 
BRANCH  25  27
HETATM   27  C5  UNL     1      -5.781   8.850  15.500  1.00  0.00     0.008 C 
BRANCH  27  28
HETATM   28  C4  UNL     1      -6.475   7.485  15.544  1.00  0.00     0.028 C 
BRANCH  28  29
HETATM   29  C3  UNL     1      -7.899   7.470  15.070  1.00  0.00    -0.013 C 
HETATM   30  C2  UNL     1      -8.490   6.531  14.304  1.00  0.00     0.008 C 
HETATM   31  C1  UNL     1      -7.817   5.324  13.725  1.00  0.00     0.055 C 
BRANCH  30  32
HETATM   32  C30 UNL     1      -9.929   6.737  13.994  1.00  0.00     0.171 C 
HETATM   33  O4  UNL     1     -10.421   6.915  12.894  1.00  0.00    -0.646 OA
BRANCH  32  34
HETATM   34  O5  UNL     1     -10.695   6.716  15.097  1.00  0.00    -0.773 OA
HETATM   35  H44 UNL     1     -11.598   6.865  14.748  1.00  0.00     0.167 HD
ENDBRANCH  32  34
ENDBRANCH  30  32
ENDBRANCH  28  29
ENDBRANCH  27  28
ENDBRANCH  25  27
ENDBRANCH   1  25
BRANCH   8  36
HETATM   36  O1  UNL     1       1.304   8.853  13.878  1.00  0.00    -0.391 OA
HETATM   37  H22 UNL     1       1.338   8.037  14.404  1.00  0.00     0.210 HD
ENDBRANCH   8  36
TORSDOF 7
ENDMDL
MODEL 5
REMARK minimizedAffinity -7.13550234
REMARK CNNscore 0.424036294
REMARK CNNaffinity 6.87913704
REMARK  7 active torsions:
REMARK  status: ('A' for Active; 'I' for Inactive)
REMARK    1  A    between atoms: C2_2  and  C30_33 
REMARK    2  A    between atoms: C3_3  and  C4_4 
REMARK    3  A    between atoms: C4_4  and  C5_5 
REMARK    4  A    between atoms: C5_5  and  C6_6 
REMARK    5  A    between atoms: C6_6  and  C8_8 
REMARK    6  A    between atoms: C15_15  and  O1_16 
REMARK    7  A    between atoms: C30_33  and  O5_35 
ROOT
HETATM    1  C8  UNL     1      -8.913   7.145  15.086  1.00  0.00    -0.002 C 
HETATM    2  C9  UNL     1      -8.017   8.403  15.154  1.00  0.00     0.007 C 
HETATM    3  C10 UNL     1      -8.966   9.624  15.101  1.00  0.00     0.015 C 
HETATM    4  C11 UNL     1     -10.377   9.058  15.377  1.00  0.00    -0.005 C 
HETATM    5  C12 UNL     1     -10.520   8.926  16.925  1.00  0.00     0.021 C 
HETATM    6  C13 UNL     1     -11.636   9.803  14.948  1.00  0.00     0.002 C 
HETATM    7  C14 UNL     1     -12.770   9.130  14.596  1.00  0.00    -0.032 C 
HETATM    8  C15 UNL     1     -12.811   7.601  14.609  1.00  0.00     0.149 C 
HETATM    9  C16 UNL     1     -11.495   6.849  14.914  1.00  0.00     0.047 C 
HETATM   10  C17 UNL     1     -10.271   7.699  14.572  1.00  0.00    -0.026 C 
HETATM   11  C18 UNL     1     -10.240   7.922  13.031  1.00  0.00     0.016 C 
HETATM   12  C19 UNL     1     -14.010   9.897  14.055  1.00  0.00    -0.012 C 
HETATM   13  C20 UNL     1     -13.685  10.184  12.564  1.00  0.00     0.021 C 
HETATM   14  C21 UNL     1     -15.375   9.145  14.062  1.00  0.00     0.021 C 
HETATM   15  C22 UNL     1     -16.197   9.394  15.317  1.00  0.00     0.080 C 
HETATM   16  C23 UNL     1     -16.581  10.859  15.370  1.00  0.00     0.135 C 
HETATM   17  O2  UNL     1     -17.709  11.195  15.729  1.00  0.00    -0.297 OA
HETATM   18  C24 UNL     1     -15.507  11.892  14.974  1.00  0.00     0.018 C 
HETATM   19  C25 UNL     1     -15.915  12.517  13.635  1.00  0.00     0.023 C 
HETATM   20  C26 UNL     1     -15.525  13.001  16.049  1.00  0.00     0.023 C 
HETATM   21  C27 UNL     1     -14.120  11.173  14.962  1.00  0.00     0.020 C 
HETATM   22  C28 UNL     1     -12.905  12.076  14.744  1.00  0.00     0.090 C 
HETATM   23  C29 UNL     1     -11.612  11.308  14.944  1.00  0.00     0.157 C 
HETATM   24  O3  UNL     1     -10.560  11.925  15.101  1.00  0.00    -0.293 OA
ENDROOT
BRANCH   1  25
HETATM   25  C6  UNL     1      -8.296   5.837  14.520  1.00  0.00    -0.014 C 
HETATM   26  C7  UNL     1      -7.583   5.071  15.650  1.00  0.00     0.010 C 
BRANCH  25  27
HETATM   27  C5  UNL     1      -7.446   5.828  13.227  1.00  0.00     0.008 C 
BRANCH  27  28
HETATM   28  C4  UNL     1      -6.038   5.223  13.198  1.00  0.00     0.028 C 
BRANCH  28  29
HETATM   29  C3  UNL     1      -5.911   3.919  12.468  1.00  0.00    -0.013 C 
HETATM   30  C2  UNL     1      -4.777   3.232  12.223  1.00  0.00     0.008 C 
HETATM   31  C1  UNL     1      -3.393   3.668  12.596  1.00  0.00     0.055 C 
BRANCH  30  32
HETATM   32  C30 UNL     1      -4.925   1.943  11.498  1.00  0.00     0.171 C 
HETATM   33  O4  UNL     1      -5.962   1.450  11.092  1.00  0.00    -0.646 OA
BRANCH  32  34
HETATM   34  O5  UNL     1      -3.749   1.321  11.318  1.00  0.00    -0.773 OA
HETATM   35  H44 UNL     1      -3.996   0.503  10.840  1.00  0.00     0.167 HD
ENDBRANCH  32  34
ENDBRANCH  30  32
ENDBRANCH  28  29
ENDBRANCH  27  28
ENDBRANCH  25  27
ENDBRANCH   1  25
BRANCH   8  36
HETATM   36  O1  UNL     1     -13.775   7.188  15.574  1.00  0.00    -0.391 OA
HETATM   37  H22 UNL     1     -13.450   7.465  16.447  1.00  0.00     0.210 HD
ENDBRANCH   8  36
TORSDOF 7
ENDMDL
MODEL 6
REMARK minimizedAffinity -6.70726967
REMARK CNNscore 0.368789881
REMARK CNNaffinity 6.19481134
REMARK  7 active torsions:
REMARK  status: ('A' for Active; 'I' for Inactive)
REMARK    1  A    between atoms: C2_2  and  C30_33 
REMARK    2  A    between atoms: C3_3  and  C4_4 
REMARK    3  A    between atoms: C4_4  and  C5_5 
REMARK    4  A    between atoms: C5_5  and  C6_6 
REMARK    5  A    between atoms: C6_6  and  C8_8 
REMARK    6  A    between atoms: C15_15  and  O1_16 
REMARK    7  A    between atoms: C30_33  and  O5_35 
ROOT
HETATM    1  C8  UNL     1     -15.275   6.249  21.303  1.00  0.00    -0.002 C 
HETATM    2  C9  UNL     1     -15.742   7.526  22.039  1.00  0.00     0.007 C 
HETATM    3  C10 UNL     1     -15.519   7.271  23.549  1.00  0.00     0.015 C 
HETATM    4  C11 UNL     1     -14.600   6.030  23.623  1.00  0.00    -0.005 C 
HETATM    5  C12 UNL     1     -13.138   6.535  23.420  1.00  0.00     0.021 C 
HETATM    6  C13 UNL     1     -14.526   5.163  24.874  1.00  0.00     0.002 C 
HETATM    7  C14 UNL     1     -14.276   3.824  24.792  1.00  0.00    -0.032 C 
HETATM    8  C15 UNL     1     -14.074   3.145  23.436  1.00  0.00     0.149 C 
HETATM    9  C16 UNL     1     -14.283   4.001  22.165  1.00  0.00     0.047 C 
HETATM   10  C17 UNL     1     -15.213   5.185  22.433  1.00  0.00    -0.026 C 
HETATM   11  C18 UNL     1     -16.631   4.634  22.766  1.00  0.00     0.016 C 
HETATM   12  C19 UNL     1     -14.313   2.932  26.065  1.00  0.00    -0.012 C 
HETATM   13  C20 UNL     1     -15.821   2.663  26.323  1.00  0.00     0.021 C 
HETATM   14  C21 UNL     1     -13.633   1.531  25.978  1.00  0.00     0.021 C 
HETATM   15  C22 UNL     1     -12.184   1.533  26.437  1.00  0.00     0.080 C 
HETATM   16  C23 UNL     1     -12.137   1.876  27.912  1.00  0.00     0.135 C 
HETATM   17  O2  UNL     1     -11.367   1.281  28.667  1.00  0.00    -0.297 OA
HETATM   18  C24 UNL     1     -13.071   2.995  28.415  1.00  0.00     0.018 C 
HETATM   19  C25 UNL     1     -14.164   2.355  29.277  1.00  0.00     0.023 C 
HETATM   20  C26 UNL     1     -12.226   3.922  29.317  1.00  0.00     0.023 C 
HETATM   21  C27 UNL     1     -13.598   3.783  27.173  1.00  0.00     0.020 C 
HETATM   22  C28 UNL     1     -14.418   5.036  27.481  1.00  0.00     0.090 C 
HETATM   23  C29 UNL     1     -14.709   5.822  26.216  1.00  0.00     0.157 C 
HETATM   24  O3  UNL     1     -15.092   6.988  26.302  1.00  0.00    -0.293 OA
ENDROOT
BRANCH   1  25
HETATM   25  C6  UNL     1     -15.900   5.935  19.916  1.00  0.00    -0.014 C 
HETATM   26  C7  UNL     1     -15.396   6.956  18.879  1.00  0.00     0.010 C 
BRANCH  25  27
HETATM   27  C5  UNL     1     -17.416   5.676  19.743  1.00  0.00     0.008 C 
BRANCH  27  28
HETATM   28  C4  UNL     1     -18.054   5.550  18.356  1.00  0.00     0.028 C 
BRANCH  28  29
HETATM   29  C3  UNL     1     -17.809   4.249  17.650  1.00  0.00    -0.013 C 
HETATM   30  C2  UNL     1     -17.072   4.054  16.538  1.00  0.00     0.008 C 
HETATM   31  C1  UNL     1     -16.380   5.123  15.749  1.00  0.00     0.055 C 
BRANCH  30  32
HETATM   32  C30 UNL     1     -16.964   2.654  16.050  1.00  0.00     0.171 C 
HETATM   33  O4  UNL     1     -17.316   1.647  16.639  1.00  0.00    -0.646 OA
BRANCH  32  34
HETATM   34  O5  UNL     1     -16.408   2.581  14.830  1.00  0.00    -0.773 OA
HETATM   35  H44 UNL     1     -16.399   1.619  14.643  1.00  0.00     0.167 HD
ENDBRANCH  32  34
ENDBRANCH  30  32
ENDBRANCH  28  29
ENDBRANCH  27  28
ENDBRANCH  25  27
ENDBRANCH   1  25
BRANCH   8  36
HETATM   36  O1  UNL     1     -12.749   2.625  23.390  1.00  0.00    -0.391 OA
HETATM   37  H22 UNL     1     -12.137   3.381  23.416  1.00  0.00     0.210 HD
ENDBRANCH   8  36
TORSDOF 7
ENDMDL
MODEL 7
REMARK minimizedAffinity -7.4806819
REMARK CNNscore 0.366078526
REMARK CNNaffinity 6.70777941
REMARK  7 active torsions:
REMARK  status: ('A' for Active; 'I' for Inactive)
REMARK    1  A    between atoms: C2_2  and  C30_33 
REMARK    2  A    between atoms: C3_3  and  C4_4 
REMARK    3  A    between atoms: C4_4  and  C5_5 
REMARK    4  A    between atoms: C5_5  and  C6_6 
REMARK    5  A    between atoms: C6_6  and  C8_8 
REMARK    6  A    between atoms: C15_15  and  O1_16 
REMARK    7  A    between atoms: C30_33  and  O5_35 
ROOT
HETATM    1  C8  UNL     1     -10.543   7.724  14.953  1.00  0.00    -0.002 C 
HETATM    2  C9  UNL     1     -10.113   9.194  14.749  1.00  0.00     0.007 C 
HETATM    3  C10 UNL     1     -11.394   9.982  14.385  1.00  0.00     0.015 C 
HETATM    4  C11 UNL     1     -12.567   9.044  14.748  1.00  0.00    -0.005 C 
HETATM    5  C12 UNL     1     -12.820   9.203  16.279  1.00  0.00     0.021 C 
HETATM    6  C13 UNL     1     -13.948   9.211  14.123  1.00  0.00     0.002 C 
HETATM    7  C14 UNL     1     -14.761   8.136  13.908  1.00  0.00    -0.032 C 
HETATM    8  C15 UNL     1     -14.307   6.722  14.278  1.00  0.00     0.149 C 
HETATM    9  C16 UNL     1     -12.857   6.543  14.787  1.00  0.00     0.047 C 
HETATM   10  C17 UNL     1     -11.945   7.664  14.287  1.00  0.00    -0.026 C 
HETATM   11  C18 UNL     1     -11.829   7.552  12.739  1.00  0.00     0.016 C 
HETATM   12  C19 UNL     1     -16.118   8.305  13.170  1.00  0.00    -0.012 C 
HETATM   13  C20 UNL     1     -15.751   8.362  11.662  1.00  0.00     0.021 C 
HETATM   14  C21 UNL     1     -17.161   7.155  13.316  1.00  0.00     0.021 C 
HETATM   15  C22 UNL     1     -18.145   7.372  14.455  1.00  0.00     0.080 C 
HETATM   16  C23 UNL     1     -18.984   8.596  14.153  1.00  0.00     0.135 C 
HETATM   17  O2  UNL     1     -20.192   8.599  14.393  1.00  0.00    -0.297 OA
HETATM   18  C24 UNL     1     -18.267   9.823  13.554  1.00  0.00     0.018 C 
HETATM   19  C25 UNL     1     -18.713   9.974  12.096  1.00  0.00     0.023 C 
HETATM   20  C26 UNL     1     -18.753  11.062  14.339  1.00  0.00     0.023 C 
HETATM   21  C27 UNL     1     -16.728   9.630  13.748  1.00  0.00     0.020 C 
HETATM   22  C28 UNL     1     -15.855  10.823  13.358  1.00  0.00     0.090 C 
HETATM   23  C29 UNL     1     -14.411  10.598  13.767  1.00  0.00     0.157 C 
HETATM   24  O3  UNL     1     -13.637  11.553  13.803  1.00  0.00    -0.293 OA
ENDROOT
BRANCH   1  25
HETATM   25  C6  UNL     1      -9.480   6.613  14.727  1.00  0.00    -0.014 C 
HETATM   26  C7  UNL     1      -8.456   6.636  15.876  1.00  0.00     0.010 C 
BRANCH  25  27
HETATM   27  C5  UNL     1      -8.774   6.425  13.362  1.00  0.00     0.008 C 
BRANCH  27  28
HETATM   28  C4  UNL     1      -7.429   5.699  13.250  1.00  0.00     0.028 C 
BRANCH  28  29
HETATM   29  C3  UNL     1      -7.503   4.268  12.807  1.00  0.00    -0.013 C 
HETATM   30  C2  UNL     1      -6.470   3.462  12.489  1.00  0.00     0.008 C 
HETATM   31  C1  UNL     1      -5.026   3.858  12.468  1.00  0.00     0.055 C 
BRANCH  30  32
HETATM   32  C30 UNL     1      -6.812   2.067  12.103  1.00  0.00     0.171 C 
HETATM   33  O4  UNL     1      -6.139   1.312  11.425  1.00  0.00    -0.646 OA
BRANCH  32  34
HETATM   34  O5  UNL     1      -8.003   1.682  12.590  1.00  0.00    -0.773 OA
HETATM   35  H44 UNL     1      -8.095   0.764  12.261  1.00  0.00     0.167 HD
ENDBRANCH  32  34
ENDBRANCH  30  32
ENDBRANCH  28  29
ENDBRANCH  27  28
ENDBRANCH  25  27
ENDBRANCH   1  25
BRANCH   8  36
HETATM   36  O1  UNL     1     -15.180   6.223  15.287  1.00  0.00    -0.391 OA
HETATM   37  H22 UNL     1     -15.055   6.771  16.079  1.00  0.00     0.210 HD
ENDBRANCH   8  36
TORSDOF 7
ENDMDL
MODEL 8
REMARK minimizedAffinity -8.16791439
REMARK CNNscore 0.337918371
REMARK CNNaffinity 6.60009146
REMARK  7 active torsions:
REMARK  status: ('A' for Active; 'I' for Inactive)
REMARK    1  A    between atoms: C2_2  and  C30_33 
REMARK    2  A    between atoms: C3_3  and  C4_4 
REMARK    3  A    between atoms: C4_4  and  C5_5 
REMARK    4  A    between atoms: C5_5  and  C6_6 
REMARK    5  A    between atoms: C6_6  and  C8_8 
REMARK    6  A    between atoms: C15_15  and  O1_16 
REMARK    7  A    between atoms: C30_33  and  O5_35 
ROOT
HETATM    1  C8  UNL     1      -5.797   6.047  14.318  1.00  0.00    -0.002 C 
HETATM    2  C9  UNL     1      -5.426   5.186  13.089  1.00  0.00     0.007 C 
HETATM    3  C10 UNL     1      -3.940   5.485  12.775  1.00  0.00     0.015 C 
HETATM    4  C11 UNL     1      -3.395   6.209  14.026  1.00  0.00    -0.005 C 
HETATM    5  C12 UNL     1      -3.025   5.105  15.065  1.00  0.00     0.021 C 
HETATM    6  C13 UNL     1      -2.154   7.092  13.962  1.00  0.00     0.002 C 
HETATM    7  C14 UNL     1      -2.014   8.176  14.781  1.00  0.00    -0.032 C 
HETATM    8  C15 UNL     1      -3.109   8.547  15.783  1.00  0.00     0.149 C 
HETATM    9  C16 UNL     1      -4.421   7.729  15.752  1.00  0.00     0.047 C 
HETATM   10  C17 UNL     1      -4.655   7.098  14.379  1.00  0.00    -0.026 C 
HETATM   11  C18 UNL     1      -4.885   8.239  13.344  1.00  0.00     0.016 C 
HETATM   12  C19 UNL     1      -0.797   9.131  14.629  1.00  0.00    -0.012 C 
HETATM   13  C20 UNL     1      -1.155  10.049  13.429  1.00  0.00     0.021 C 
HETATM   14  C21 UNL     1      -0.482  10.083  15.822  1.00  0.00     0.021 C 
HETATM   15  C22 UNL     1       0.526   9.509  16.805  1.00  0.00     0.080 C 
HETATM   16  C23 UNL     1       1.858   9.345  16.101  1.00  0.00     0.135 C 
HETATM   17  O2  UNL     1       2.908   9.630  16.678  1.00  0.00    -0.297 OA
HETATM   18  C24 UNL     1       1.840   8.799  14.659  1.00  0.00     0.018 C 
HETATM   19  C25 UNL     1       2.232   9.938  13.711  1.00  0.00     0.023 C 
HETATM   20  C26 UNL     1       2.927   7.704  14.573  1.00  0.00     0.023 C 
HETATM   21  C27 UNL     1       0.430   8.183  14.389  1.00  0.00     0.020 C 
HETATM   22  C28 UNL     1       0.271   7.447  13.058  1.00  0.00     0.090 C 
HETATM   23  C29 UNL     1      -1.064   6.729  12.989  1.00  0.00     0.157 C 
HETATM   24  O3  UNL     1      -1.240   5.858  12.137  1.00  0.00    -0.293 OA
ENDROOT
BRANCH   1  25
HETATM   25  C6  UNL     1      -7.287   6.444  14.509  1.00  0.00    -0.014 C 
HETATM   26  C7  UNL     1      -7.818   5.843  15.823  1.00  0.00     0.010 C 
BRANCH  25  27
HETATM   27  C5  UNL     1      -8.326   6.288  13.371  1.00  0.00     0.008 C 
BRANCH  27  28
HETATM   28  C4  UNL     1      -9.822   6.510  13.617  1.00  0.00     0.028 C 
BRANCH  28  29
HETATM   29  C3  UNL     1     -10.195   7.867  14.138  1.00  0.00    -0.013 C 
HETATM   30  C2  UNL     1     -11.291   8.586  13.820  1.00  0.00     0.008 C 
HETATM   31  C1  UNL     1     -12.343   8.185  12.832  1.00  0.00     0.055 C 
BRANCH  30  32
HETATM   32  C30 UNL     1     -11.442   9.899  14.499  1.00  0.00     0.171 C 
HETATM   33  O4  UNL     1     -11.803  10.090  15.647  1.00  0.00    -0.646 OA
BRANCH  32  34
HETATM   34  O5  UNL     1     -11.134  10.928  13.693  1.00  0.00    -0.773 OA
HETATM   35  H44 UNL     1     -11.280  11.712  14.262  1.00  0.00     0.167 HD
ENDBRANCH  32  34
ENDBRANCH  30  32
ENDBRANCH  28  29
ENDBRANCH  27  28
ENDBRANCH  25  27
ENDBRANCH   1  25
BRANCH   8  36
HETATM   36  O1  UNL     1      -2.566   8.437  17.096  1.00  0.00    -0.391 OA
HETATM   37  H22 UNL     1      -2.357   7.500  17.248  1.00  0.00     0.210 HD
ENDBRANCH   8  36
TORSDOF 7
ENDMDL
MODEL 9
REMARK minimizedAffinity -6.97240591
REMARK CNNscore 0.319862902
REMARK CNNaffinity 5.64800692
REMARK  7 active torsions:
REMARK  status: ('A' for Active; 'I' for Inactive)
REMARK    1  A    between atoms: C2_2  and  C30_33 
REMARK    2  A    between atoms: C3_3  and  C4_4 
REMARK    3  A    between atoms: C4_4  and  C5_5 
REMARK    4  A    between atoms: C5_5  and  C6_6 
REMARK    5  A    between atoms: C6_6  and  C8_8 
REMARK    6  A    between atoms: C15_15  and  O1_16 
REMARK    7  A    between atoms: C30_33  and  O5_35 
ROOT
HETATM    1  C8  UNL     1       2.846  12.912  20.218  1.00  0.00    -0.002 C 
HETATM    2  C9  UNL     1       1.623  13.684  20.762  1.00  0.00     0.007 C 
HETATM    3  C10 UNL     1       0.388  13.147  19.999  1.00  0.00     0.015 C 
HETATM    4  C11 UNL     1       0.863  11.845  19.316  1.00  0.00    -0.005 C 
HETATM    5  C12 UNL     1       0.779  10.713  20.388  1.00  0.00     0.021 C 
HETATM    6  C13 UNL     1       0.139  11.267  18.106  1.00  0.00     0.002 C 
HETATM    7  C14 UNL     1       0.814  10.569  17.146  1.00  0.00    -0.032 C 
HETATM    8  C15 UNL     1       2.325  10.354  17.249  1.00  0.00     0.149 C 
HETATM    9  C16 UNL     1       3.074  11.055  18.406  1.00  0.00     0.047 C 
HETATM   10  C17 UNL     1       2.320  12.293  18.893  1.00  0.00    -0.026 C 
HETATM   11  C18 UNL     1       2.308  13.346  17.746  1.00  0.00     0.016 C 
HETATM   12  C19 UNL     1       0.085  10.081  15.862  1.00  0.00    -0.012 C 
HETATM   13  C20 UNL     1       0.013  11.329  14.942  1.00  0.00     0.021 C 
HETATM   14  C21 UNL     1       0.782   8.966  15.024  1.00  0.00     0.021 C 
HETATM   15  C22 UNL     1       0.337   7.561  15.398  1.00  0.00     0.080 C 
HETATM   16  C23 UNL     1      -1.134   7.407  15.068  1.00  0.00     0.135 C 
HETATM   17  O2  UNL     1      -1.554   6.366  14.563  1.00  0.00    -0.297 OA
HETATM   18  C24 UNL     1      -2.067   8.589  15.401  1.00  0.00     0.018 C 
HETATM   19  C25 UNL     1      -2.519   9.228  14.083  1.00  0.00     0.023 C 
HETATM   20  C26 UNL     1      -3.311   8.002  16.104  1.00  0.00     0.023 C 
HETATM   21  C27 UNL     1      -1.305   9.554  16.365  1.00  0.00     0.020 C 
HETATM   22  C28 UNL     1      -2.128  10.710  16.935  1.00  0.00     0.090 C 
HETATM   23  C29 UNL     1      -1.350  11.460  18.000  1.00  0.00     0.157 C 
HETATM   24  O3  UNL     1      -1.946  12.218  18.764  1.00  0.00    -0.293 OA
ENDROOT
BRANCH   1  25
HETATM   25  C6  UNL     1       4.240  13.593  20.307  1.00  0.00    -0.014 C 
HETATM   26  C7  UNL     1       4.070  15.123  20.265  1.00  0.00     0.010 C 
BRANCH  25  27
HETATM   27  C5  UNL     1       5.425  13.144  19.419  1.00  0.00     0.008 C 
BRANCH  27  28
HETATM   28  C4  UNL     1       6.442  12.106  19.906  1.00  0.00     0.028 C 
BRANCH  28  29
HETATM   29  C3  UNL     1       7.616  12.658  20.661  1.00  0.00    -0.013 C 
HETATM   30  C2  UNL     1       7.778  12.691  21.999  1.00  0.00     0.008 C 
HETATM   31  C1  UNL     1       6.781  12.219  23.012  1.00  0.00     0.055 C 
BRANCH  30  32
HETATM   32  C30 UNL     1       9.053  13.271  22.498  1.00  0.00     0.171 C 
HETATM   33  O4  UNL     1       9.815  13.996  21.884  1.00  0.00    -0.646 OA
BRANCH  32  34
HETATM   34  O5  UNL     1       9.318  12.905  23.762  1.00  0.00    -0.773 OA
HETATM   35  H44 UNL     1      10.171  13.349  23.952  1.00  0.00     0.167 HD
ENDBRANCH  32  34
ENDBRANCH  30  32
ENDBRANCH  28  29
ENDBRANCH  27  28
ENDBRANCH  25  27
ENDBRANCH   1  25
BRANCH   8  36
HETATM   36  O1  UNL     1       2.570   8.955  17.364  1.00  0.00    -0.391 OA
HETATM   37  H22 UNL     1       2.190   8.661  18.209  1.00  0.00     0.210 HD
ENDBRANCH   8  36
TORSDOF 7
ENDMDL
