MODEL 1
REMARK minimizedAffinity -9.86912823
REMARK CNNscore 0.402294874
REMARK CNNaffinity 7.41715813
REMARK  11 active torsions:
REMARK  status: ('A' for Active; 'I' for Inactive)
REMARK    1  A    between atoms: C3_3  and  O1_4 
REMARK    2  A    between atoms: N1_14  and  O2_16 
REMARK    3  A    between atoms: O2_16  and  C13_17 
REMARK    4  A    between atoms: C13_17  and  C14_18 
REMARK       I    between atoms: C14_18  and  N2_20 
REMARK    5  A    between atoms: N2_20  and  C15_21 
REMARK    6  A    between atoms: C15_21  and  C16_22 
REMARK    7  A    between atoms: C15_21  and  C17_25 
REMARK    8  A    between atoms: C16_22  and  O5_24 
REMARK    9  A    between atoms: C17_25  and  O6_26 
REMARK   10  A    between atoms: C17_25  and  C18_27 
REMARK   11  A    between atoms: C22_31  and  N3_32 
ROOT
HETATM    1  C1  UNL     1      -0.378   8.844   8.663  1.00  0.00     0.015 C 
HETATM    2  C2  UNL     1       0.157   8.340   9.610  1.00  0.00    -0.078 C 
HETATM    3  C3  UNL     1       0.852   7.698  10.746  1.00  0.00     0.128 C 
HETATM    4  C4  UNL     1       1.530   6.385  10.278  1.00  0.00     0.052 C 
HETATM    5  C5  UNL     1       0.586   5.230  10.679  1.00  0.00     0.010 C 
HETATM    6  C6  UNL     1      -0.655   5.917  11.253  1.00  0.00     0.002 C 
HETATM    7  C7  UNL     1      -1.547   5.124  12.221  1.00  0.00    -0.004 C 
HETATM    8  C8  UNL     1      -2.060   3.823  11.581  1.00  0.00     0.010 C 
HETATM    9  C9  UNL     1      -2.989   3.051  12.519  1.00  0.00     0.035 C 
HETATM   10  C10 UNL     1      -4.119   3.942  12.976  1.00  0.00    -0.069 C 
HETATM   11  C11 UNL     1      -5.391   3.605  12.697  1.00  0.00     0.030 C 
HETATM   12  C12 UNL     1      -6.494   4.564  12.951  1.00  0.00     0.032 C 
HETATM   13  N1  UNL     1      -7.709   4.100  13.051  1.00  0.00    -0.271 N 
ATOM     14  H1  UNL     1      -7.955   3.111  13.001  1.00  0.00     0.194 HD
HETATM   15  C24 UNL     1      -6.084   6.018  13.063  1.00  0.00     0.060 C 
HETATM   16  C25 UNL     1      -4.956   6.085  14.082  1.00  0.00     0.020 C 
HETATM   17  C26 UNL     1      -3.701   5.248  13.677  1.00  0.00    -0.016 C 
HETATM   18  C27 UNL     1      -2.982   4.911  15.008  1.00  0.00     0.020 C 
HETATM   19  C28 UNL     1      -2.748   6.024  12.687  1.00  0.00     0.002 C 
HETATM   20  C29 UNL     1      -2.258   7.403  13.208  1.00  0.00     0.007 C 
HETATM   21  C30 UNL     1      -1.288   8.113  12.243  1.00  0.00     0.014 C 
HETATM   22  C31 UNL     1      -0.092   7.210  11.885  1.00  0.00     0.003 C 
HETATM   23  C32 UNL     1       0.747   6.969  13.178  1.00  0.00     0.020 C 
ENDROOT
BRANCH   3  24
HETATM   24  O1  UNL     1       1.829   8.604  11.236  1.00  0.00    -0.377 OA
HETATM   25  H2  UNL     1       2.330   8.923  10.465  1.00  0.00     0.211 HD
ENDBRANCH   3  24
BRANCH  13  26
HETATM   26  O2  UNL     1      -8.636   5.139  13.237  1.00  0.00    -0.271 OA
BRANCH  26  27
HETATM   27  C13 UNL     1      -7.961   6.336  13.607  1.00  0.00     0.303 C 
BRANCH  27  28
HETATM   28  C14 UNL     1      -8.816   7.303  14.419  1.00  0.00     0.244 C 
HETATM   29  O3  UNL     1      -8.352   8.309  14.955  1.00  0.00    -0.271 OA
HETATM   30  N2  UNL     1     -10.125   6.916  14.570  1.00  0.00    -0.342 N 
HETATM   31  H16 UNL     1     -10.465   6.224  13.897  1.00  0.00     0.163 HD
BRANCH  30  32
HETATM   32  C15 UNL     1     -11.114   7.778  15.220  1.00  0.00     0.216 C 
BRANCH  32  33
HETATM   33  C16 UNL     1     -10.406   8.869  16.016  1.00  0.00     0.166 C 
HETATM   34  O4  UNL     1      -9.433   9.528  15.680  1.00  0.00    -0.648 OA
BRANCH  33  35
HETATM   35  O5  UNL     1     -10.985   9.105  17.213  1.00  0.00    -0.775 OA
HETATM   36  H18 UNL     1     -10.403   9.784  17.620  1.00  0.00     0.167 HD
ENDBRANCH  33  35
ENDBRANCH  32  33
BRANCH  32  37
HETATM   37  C17 UNL     1     -12.082   8.435  14.207  1.00  0.00     0.184 C 
BRANCH  37  38
HETATM   38  O6  UNL     1     -11.447   8.500  12.919  1.00  0.00    -0.388 OA
HETATM   39  H20 UNL     1     -11.192   9.429  12.773  1.00  0.00     0.210 HD
ENDBRANCH  37  38
BRANCH  37  40
HETATM   40  C18 UNL     1     -13.425   7.721  14.064  1.00  0.00    -0.025 A 
HETATM   41  C19 UNL     1     -13.838   6.756  15.002  1.00  0.00     0.010 A 
HETATM   42  C20 UNL     1     -15.073   6.110  14.888  1.00  0.00     0.003 A 
HETATM   43  C21 UNL     1     -15.933   6.418  13.839  1.00  0.00     0.036 A 
HETATM   44  C22 UNL     1     -15.555   7.400  12.919  1.00  0.00     0.103 A 
HETATM   45  C23 UNL     1     -14.317   8.050  13.026  1.00  0.00     0.045 A 
BRANCH  44  46
HETATM   46  N3  UNL     1     -16.465   7.758  11.830  1.00  0.00    -0.116 N 
HETATM   47  O7  UNL     1     -17.644   7.379  11.917  1.00  0.00    -0.532 OA
HETATM   48  O8  UNL     1     -15.997   8.407  10.881  1.00  0.00    -0.532 OA
ENDBRANCH  44  46
ENDBRANCH  37  40
ENDBRANCH  32  37
ENDBRANCH  30  32
ENDBRANCH  27  28
ENDBRANCH  26  27
ENDBRANCH  13  26
TORSDOF 11
ENDMDL
MODEL 2
REMARK minimizedAffinity -10.5466328
REMARK CNNscore 0.390329272
REMARK CNNaffinity 6.62543869
REMARK  11 active torsions:
REMARK  status: ('A' for Active; 'I' for Inactive)
REMARK    1  A    between atoms: C3_3  and  O1_4 
REMARK    2  A    between atoms: N1_14  and  O2_16 
REMARK    3  A    between atoms: O2_16  and  C13_17 
REMARK    4  A    between atoms: C13_17  and  C14_18 
REMARK       I    between atoms: C14_18  and  N2_20 
REMARK    5  A    between atoms: N2_20  and  C15_21 
REMARK    6  A    between atoms: C15_21  and  C16_22 
REMARK    7  A    between atoms: C15_21  and  C17_25 
REMARK    8  A    between atoms: C16_22  and  O5_24 
REMARK    9  A    between atoms: C17_25  and  O6_26 
REMARK   10  A    between atoms: C17_25  and  C18_27 
REMARK   11  A    between atoms: C22_31  and  N3_32 
ROOT
HETATM    1  C1  UNL     1       4.592   8.912   9.593  1.00  0.00     0.015 C 
HETATM    2  C2  UNL     1       3.759   8.053   9.506  1.00  0.00    -0.078 C 
HETATM    3  C3  UNL     1       2.723   7.010   9.352  1.00  0.00     0.128 C 
HETATM    4  C4  UNL     1       1.612   7.507   8.392  1.00  0.00     0.052 C 
HETATM    5  C5  UNL     1       0.451   8.009   9.278  1.00  0.00     0.010 C 
HETATM    6  C6  UNL     1       0.975   7.900  10.712  1.00  0.00     0.002 C 
HETATM    7  C7  UNL     1      -0.046   7.796  11.856  1.00  0.00    -0.004 C 
HETATM    8  C8  UNL     1      -1.012   8.993  11.864  1.00  0.00     0.010 C 
HETATM    9  C9  UNL     1      -1.999   8.924  13.030  1.00  0.00     0.035 C 
HETATM   10  C10 UNL     1      -1.252   8.789  14.334  1.00  0.00    -0.069 C 
HETATM   11  C11 UNL     1      -1.390   9.730  15.285  1.00  0.00     0.030 C 
HETATM   12  C12 UNL     1      -0.511   9.727  16.479  1.00  0.00     0.032 C 
HETATM   13  N1  UNL     1      -0.903  10.375  17.542  1.00  0.00    -0.271 N 
ATOM     14  H1  UNL     1      -1.797  10.860  17.624  1.00  0.00     0.194 HD
HETATM   15  C24 UNL     1       0.787   8.959  16.333  1.00  0.00     0.060 C 
HETATM   16  C25 UNL     1       0.428   7.572  15.822  1.00  0.00     0.020 C 
HETATM   17  C26 UNL     1      -0.295   7.586  14.438  1.00  0.00    -0.016 C 
HETATM   18  C27 UNL     1      -1.115   6.272  14.386  1.00  0.00     0.020 C 
HETATM   19  C28 UNL     1       0.713   7.685  13.228  1.00  0.00     0.002 C 
HETATM   20  C29 UNL     1       1.794   6.570  13.194  1.00  0.00     0.007 C 
HETATM   21  C30 UNL     1       2.730   6.663  11.973  1.00  0.00     0.014 C 
HETATM   22  C31 UNL     1       1.933   6.689  10.655  1.00  0.00     0.003 C 
HETATM   23  C32 UNL     1       1.209   5.317  10.490  1.00  0.00     0.020 C 
ENDROOT
BRANCH   3  24
HETATM   24  O1  UNL     1       3.341   5.847   8.821  1.00  0.00    -0.377 OA
HETATM   25  H2  UNL     1       3.874   6.133   8.059  1.00  0.00     0.211 HD
ENDBRANCH   3  24
BRANCH  13  26
HETATM   26  O2  UNL     1       0.064  10.317  18.559  1.00  0.00    -0.271 OA
BRANCH  26  27
HETATM   27  C13 UNL     1      -0.167  11.347  19.513  1.00  0.00     0.303 C 
BRANCH  27  28
HETATM   28  C14 UNL     1       0.976  11.541  20.503  1.00  0.00     0.244 C 
HETATM   29  O3  UNL     1       1.375  12.654  20.846  1.00  0.00    -0.271 OA
HETATM   30  N2  UNL     1       1.575  10.376  20.916  1.00  0.00    -0.342 N 
HETATM   31  H16 UNL     1       1.027   9.522  20.782  1.00  0.00     0.163 HD
BRANCH  30  32
HETATM   32  C15 UNL     1       2.610  10.366  21.951  1.00  0.00     0.216 C 
BRANCH  32  33
HETATM   33  C16 UNL     1       2.527   9.072  22.753  1.00  0.00     0.166 C 
HETATM   34  O4  UNL     1       2.898   8.877  23.901  1.00  0.00    -0.648 OA
BRANCH  33  35
HETATM   35  O5  UNL     1       1.941   8.066  22.067  1.00  0.00    -0.775 OA
HETATM   36  H18 UNL     1       2.000   7.303  22.684  1.00  0.00     0.167 HD
ENDBRANCH  33  35
ENDBRANCH  32  33
BRANCH  32  37
HETATM   37  C17 UNL     1       4.035  10.508  21.363  1.00  0.00     0.184 C 
BRANCH  37  38
HETATM   38  O6  UNL     1       3.943  10.719  19.944  1.00  0.00    -0.388 OA
HETATM   39  H20 UNL     1       4.207   9.886  19.513  1.00  0.00     0.210 HD
ENDBRANCH  37  38
BRANCH  37  40
HETATM   40  C18 UNL     1       4.862  11.633  21.980  1.00  0.00    -0.025 A 
HETATM   41  C19 UNL     1       4.291  12.890  22.252  1.00  0.00     0.010 A 
HETATM   42  C20 UNL     1       5.037  13.921  22.832  1.00  0.00     0.003 A 
HETATM   43  C21 UNL     1       6.373  13.720  23.166  1.00  0.00     0.036 A 
HETATM   44  C22 UNL     1       6.947  12.466  22.937  1.00  0.00     0.103 A 
HETATM   45  C23 UNL     1       6.204  11.429  22.353  1.00  0.00     0.045 A 
BRANCH  44  46
HETATM   46  N3  UNL     1       8.341  12.230  23.314  1.00  0.00    -0.116 N 
HETATM   47  O7  UNL     1       9.031  13.218  23.614  1.00  0.00    -0.532 OA
HETATM   48  O8  UNL     1       8.750  11.058  23.299  1.00  0.00    -0.532 OA
ENDBRANCH  44  46
ENDBRANCH  37  40
ENDBRANCH  32  37
ENDBRANCH  30  32
ENDBRANCH  27  28
ENDBRANCH  26  27
ENDBRANCH  13  26
TORSDOF 11
ENDMDL
MODEL 3
REMARK minimizedAffinity -8.7068634
REMARK CNNscore 0.308090031
REMARK CNNaffinity 7.02681589
REMARK  11 active torsions:
REMARK  status: ('A' for Active; 'I' for Inactive)
REMARK    1  A    between atoms: C3_3  and  O1_4 
REMARK    2  A    between atoms: N1_14  and  O2_16 
REMARK    3  A    between atoms: O2_16  and  C13_17 
REMARK    4  A    between atoms: C13_17  and  C14_18 
REMARK       I    between atoms: C14_18  and  N2_20 
REMARK    5  A    between atoms: N2_20  and  C15_21 
REMARK    6  A    between atoms: C15_21  and  C16_22 
REMARK    7  A    between atoms: C15_21  and  C17_25 
REMARK    8  A    between atoms: C16_22  and  O5_24 
REMARK    9  A    between atoms: C17_25  and  O6_26 
REMARK   10  A    between atoms: C17_25  and  C18_27 
REMARK   11  A    between atoms: C22_31  and  N3_32 
ROOT
HETATM    1  C1  UNL     1      -1.750   8.879  12.092  1.00  0.00     0.015 C 
HETATM    2  C2  UNL     1      -1.781   7.877  12.750  1.00  0.00    -0.078 C 
HETATM    3  C3  UNL     1      -1.788   6.619  13.527  1.00  0.00     0.128 C 
HETATM    4  C4  UNL     1      -1.640   5.407  12.571  1.00  0.00     0.052 C 
HETATM    5  C5  UNL     1      -3.060   4.844  12.344  1.00  0.00     0.010 C 
HETATM    6  C6  UNL     1      -3.990   5.816  13.072  1.00  0.00     0.002 C 
HETATM    7  C7  UNL     1      -5.372   5.311  13.516  1.00  0.00    -0.004 C 
HETATM    8  C8  UNL     1      -6.189   4.779  12.326  1.00  0.00     0.010 C 
HETATM    9  C9  UNL     1      -7.585   4.321  12.749  1.00  0.00     0.035 C 
HETATM   10  C10 UNL     1      -8.299   5.437  13.473  1.00  0.00    -0.069 C 
HETATM   11  C11 UNL     1      -9.453   5.923  12.981  1.00  0.00     0.030 C 
HETATM   12  C12 UNL     1     -10.056   7.150  13.555  1.00  0.00     0.032 C 
HETATM   13  N1  UNL     1     -11.325   7.374  13.348  1.00  0.00    -0.271 N 
ATOM     14  H1  UNL     1     -11.947   6.742  12.844  1.00  0.00     0.194 HD
HETATM   15  C24 UNL     1      -9.111   8.040  14.335  1.00  0.00     0.060 C 
HETATM   16  C25 UNL     1      -8.408   7.157  15.356  1.00  0.00     0.020 C 
HETATM   17  C26 UNL     1      -7.578   6.001  14.712  1.00  0.00    -0.016 C 
HETATM   18  C27 UNL     1      -7.489   4.900  15.800  1.00  0.00     0.020 C 
HETATM   19  C28 UNL     1      -6.145   6.469  14.246  1.00  0.00     0.002 C 
HETATM   20  C29 UNL     1      -5.281   7.116  15.363  1.00  0.00     0.007 C 
HETATM   21  C30 UNL     1      -3.869   7.514  14.891  1.00  0.00     0.014 C 
HETATM   22  C31 UNL     1      -3.132   6.320  14.255  1.00  0.00     0.003 C 
HETATM   23  C32 UNL     1      -2.887   5.247  15.360  1.00  0.00     0.020 C 
ENDROOT
BRANCH   3  24
HETATM   24  O1  UNL     1      -0.701   6.656  14.440  1.00  0.00    -0.377 OA
HETATM   25  H2  UNL     1       0.085   6.921  13.931  1.00  0.00     0.211 HD
ENDBRANCH   3  24
BRANCH  13  26
HETATM   26  O2  UNL     1     -11.723   8.598  13.911  1.00  0.00    -0.271 OA
BRANCH  26  27
HETATM   27  C13 UNL     1     -12.395   8.372  15.145  1.00  0.00     0.303 C 
BRANCH  27  28
HETATM   28  C14 UNL     1     -12.101   9.422  16.211  1.00  0.00     0.244 C 
HETATM   29  O3  UNL     1     -11.282  10.325  16.045  1.00  0.00    -0.271 OA
HETATM   30  N2  UNL     1     -12.762   9.227  17.399  1.00  0.00    -0.342 N 
HETATM   31  H16 UNL     1     -13.586   8.621  17.356  1.00  0.00     0.163 HD
BRANCH  30  32
HETATM   32  C15 UNL     1     -12.688  10.199  18.492  1.00  0.00     0.216 C 
BRANCH  32  33
HETATM   33  C16 UNL     1     -14.090  10.682  18.850  1.00  0.00     0.166 C 
HETATM   34  O4  UNL     1     -14.510  11.830  18.840  1.00  0.00    -0.648 OA
BRANCH  33  35
HETATM   35  O5  UNL     1     -14.924   9.673  19.183  1.00  0.00    -0.775 OA
HETATM   36  H18 UNL     1     -15.756  10.136  19.427  1.00  0.00     0.167 HD
ENDBRANCH  33  35
ENDBRANCH  32  33
BRANCH  32  37
HETATM   37  C17 UNL     1     -12.015   9.615  19.757  1.00  0.00     0.184 C 
BRANCH  37  38
HETATM   38  O6  UNL     1     -11.114   8.563  19.372  1.00  0.00    -0.388 OA
HETATM   39  H20 UNL     1     -11.538   7.720  19.613  1.00  0.00     0.210 HD
ENDBRANCH  37  38
BRANCH  37  40
HETATM   40  C18 UNL     1     -11.254  10.639  20.595  1.00  0.00    -0.025 A 
HETATM   41  C19 UNL     1     -10.575  11.714  19.990  1.00  0.00     0.010 A 
HETATM   42  C20 UNL     1      -9.889  12.665  20.751  1.00  0.00     0.003 A 
HETATM   43  C21 UNL     1      -9.871  12.575  22.139  1.00  0.00     0.036 A 
HETATM   44  C22 UNL     1     -10.570  11.535  22.759  1.00  0.00     0.103 A 
HETATM   45  C23 UNL     1     -11.257  10.576  22.002  1.00  0.00     0.045 A 
BRANCH  44  46
HETATM   46  N3  UNL     1     -10.587  11.447  24.221  1.00  0.00    -0.116 N 
HETATM   47  O7  UNL     1      -9.883  12.251  24.853  1.00  0.00    -0.532 OA
HETATM   48  O8  UNL     1     -11.295  10.567  24.735  1.00  0.00    -0.532 OA
ENDBRANCH  44  46
ENDBRANCH  37  40
ENDBRANCH  32  37
ENDBRANCH  30  32
ENDBRANCH  27  28
ENDBRANCH  26  27
ENDBRANCH  13  26
TORSDOF 11
ENDMDL
MODEL 4
REMARK minimizedAffinity -8.62833118
REMARK CNNscore 0.298952579
REMARK CNNaffinity 6.95844889
REMARK  11 active torsions:
REMARK  status: ('A' for Active; 'I' for Inactive)
REMARK    1  A    between atoms: C3_3  and  O1_4 
REMARK    2  A    between atoms: N1_14  and  O2_16 
REMARK    3  A    between atoms: O2_16  and  C13_17 
REMARK    4  A    between atoms: C13_17  and  C14_18 
REMARK       I    between atoms: C14_18  and  N2_20 
REMARK    5  A    between atoms: N2_20  and  C15_21 
REMARK    6  A    between atoms: C15_21  and  C16_22 
REMARK    7  A    between atoms: C15_21  and  C17_25 
REMARK    8  A    between atoms: C16_22  and  O5_24 
REMARK    9  A    between atoms: C17_25  and  O6_26 
REMARK   10  A    between atoms: C17_25  and  C18_27 
REMARK   11  A    between atoms: C22_31  and  N3_32 
ROOT
HETATM    1  C1  UNL     1      -5.463   3.256  10.140  1.00  0.00     0.015 C 
HETATM    2  C2  UNL     1      -5.905   3.532  11.219  1.00  0.00    -0.078 C 
HETATM    3  C3  UNL     1      -6.496   3.882  12.529  1.00  0.00     0.128 C 
HETATM    4  C4  UNL     1      -7.620   4.933  12.337  1.00  0.00     0.052 C 
HETATM    5  C5  UNL     1      -7.001   6.310  12.662  1.00  0.00     0.010 C 
HETATM    6  C6  UNL     1      -5.518   6.026  12.910  1.00  0.00     0.002 C 
HETATM    7  C7  UNL     1      -4.716   7.023  13.761  1.00  0.00    -0.004 C 
HETATM    8  C8  UNL     1      -4.767   8.442  13.169  1.00  0.00     0.010 C 
HETATM    9  C9  UNL     1      -3.930   9.432  13.981  1.00  0.00     0.035 C 
HETATM   10  C10 UNL     1      -2.515   8.924  14.116  1.00  0.00    -0.069 C 
HETATM   11  C11 UNL     1      -1.494   9.653  13.630  1.00  0.00     0.030 C 
HETATM   12  C12 UNL     1      -0.128   9.080  13.565  1.00  0.00     0.032 C 
HETATM   13  N1  UNL     1       0.885   9.898  13.472  1.00  0.00    -0.271 N 
ATOM     14  H1  UNL     1       0.807  10.915  13.476  1.00  0.00     0.194 HD
HETATM   15  C24 UNL     1      -0.050   7.568  13.607  1.00  0.00     0.060 C 
HETATM   16  C25 UNL     1      -0.857   7.113  14.813  1.00  0.00     0.020 C 
HETATM   17  C26 UNL     1      -2.362   7.528  14.748  1.00  0.00    -0.016 C 
HETATM   18  C27 UNL     1      -2.842   7.575  16.221  1.00  0.00     0.020 C 
HETATM   19  C28 UNL     1      -3.230   6.529  13.889  1.00  0.00     0.002 C 
HETATM   20  C29 UNL     1      -3.160   5.048  14.354  1.00  0.00     0.007 C 
HETATM   21  C30 UNL     1      -4.058   4.105  13.529  1.00  0.00     0.014 C 
HETATM   22  C31 UNL     1      -5.517   4.600  13.505  1.00  0.00     0.003 C 
HETATM   23  C32 UNL     1      -6.089   4.519  14.954  1.00  0.00     0.020 C 
ENDROOT
BRANCH   3  24
HETATM   24  O1  UNL     1      -7.027   2.698  13.105  1.00  0.00    -0.377 OA
HETATM   25  H2  UNL     1      -7.564   2.267  12.418  1.00  0.00     0.211 HD
ENDBRANCH   3  24
BRANCH  13  26
HETATM   26  O2  UNL     1       2.097   9.195  13.367  1.00  0.00    -0.271 OA
BRANCH  26  27
HETATM   27  C13 UNL     1       3.185  10.109  13.277  1.00  0.00     0.303 C 
BRANCH  27  28
HETATM   28  C14 UNL     1       4.463   9.496  12.714  1.00  0.00     0.244 C 
HETATM   29  O3  UNL     1       5.217   8.798  13.390  1.00  0.00    -0.271 OA
HETATM   30  N2  UNL     1       4.743   9.856  11.419  1.00  0.00    -0.342 N 
HETATM   31  H16 UNL     1       3.954  10.218  10.877  1.00  0.00     0.163 HD
BRANCH  30  32
HETATM   32  C15 UNL     1       5.865   9.272  10.681  1.00  0.00     0.216 C 
BRANCH  32  33
HETATM   33  C16 UNL     1       7.172   9.567  11.410  1.00  0.00     0.166 C 
HETATM   34  O4  UNL     1       7.654   8.962  12.356  1.00  0.00    -0.648 OA
BRANCH  33  35
HETATM   35  O5  UNL     1       7.840  10.617  10.885  1.00  0.00    -0.775 OA
HETATM   36  H18 UNL     1       8.619  10.712  11.476  1.00  0.00     0.167 HD
ENDBRANCH  33  35
ENDBRANCH  32  33
BRANCH  32  37
HETATM   37  C17 UNL     1       5.720   7.743  10.498  1.00  0.00     0.184 C 
BRANCH  37  38
HETATM   38  O6  UNL     1       6.300   7.072  11.631  1.00  0.00    -0.388 OA
HETATM   39  H20 UNL     1       7.147   6.693  11.335  1.00  0.00     0.210 HD
ENDBRANCH  37  38
BRANCH  37  40
HETATM   40  C18 UNL     1       4.282   7.263  10.320  1.00  0.00    -0.025 A 
HETATM   41  C19 UNL     1       3.739   6.266  11.153  1.00  0.00     0.010 A 
HETATM   42  C20 UNL     1       2.418   5.833  11.007  1.00  0.00     0.003 A 
HETATM   43  C21 UNL     1       1.599   6.391  10.031  1.00  0.00     0.036 A 
HETATM   44  C22 UNL     1       2.109   7.407   9.218  1.00  0.00     0.103 A 
HETATM   45  C23 UNL     1       3.434   7.845   9.358  1.00  0.00     0.045 A 
BRANCH  44  46
HETATM   46  N3  UNL     1       1.248   8.027   8.210  1.00  0.00    -0.116 N 
HETATM   47  O7  UNL     1       1.356   7.629   7.039  1.00  0.00    -0.532 OA
HETATM   48  O8  UNL     1       0.473   8.920   8.586  1.00  0.00    -0.532 OA
ENDBRANCH  44  46
ENDBRANCH  37  40
ENDBRANCH  32  37
ENDBRANCH  30  32
ENDBRANCH  27  28
ENDBRANCH  26  27
ENDBRANCH  13  26
TORSDOF 11
ENDMDL
MODEL 5
REMARK minimizedAffinity -8.76032352
REMARK CNNscore 0.2835612
REMARK CNNaffinity 7.12154627
REMARK  11 active torsions:
REMARK  status: ('A' for Active; 'I' for Inactive)
REMARK    1  A    between atoms: C3_3  and  O1_4 
REMARK    2  A    between atoms: N1_14  and  O2_16 
REMARK    3  A    between atoms: O2_16  and  C13_17 
REMARK    4  A    between atoms: C13_17  and  C14_18 
REMARK       I    between atoms: C14_18  and  N2_20 
REMARK    5  A    between atoms: N2_20  and  C15_21 
REMARK    6  A    between atoms: C15_21  and  C16_22 
REMARK    7  A    between atoms: C15_21  and  C17_25 
REMARK    8  A    between atoms: C16_22  and  O5_24 
REMARK    9  A    between atoms: C17_25  and  O6_26 
REMARK   10  A    between atoms: C17_25  and  C18_27 
REMARK   11  A    between atoms: C22_31  and  N3_32 
ROOT
HETATM    1  C1  UNL     1      -7.052   5.174  16.658  1.00  0.00     0.015 C 
HETATM    2  C2  UNL     1      -7.050   5.679  15.571  1.00  0.00    -0.078 C 
HETATM    3  C3  UNL     1      -7.074   6.265  14.214  1.00  0.00     0.128 C 
HETATM    4  C4  UNL     1      -7.161   5.136  13.154  1.00  0.00     0.052 C 
HETATM    5  C5  UNL     1      -5.726   4.908  12.630  1.00  0.00     0.010 C 
HETATM    6  C6  UNL     1      -4.845   5.819  13.486  1.00  0.00     0.002 C 
HETATM    7  C7  UNL     1      -3.485   6.259  12.922  1.00  0.00    -0.004 C 
HETATM    8  C8  UNL     1      -2.601   5.051  12.568  1.00  0.00     0.010 C 
HETATM    9  C9  UNL     1      -1.225   5.479  12.053  1.00  0.00     0.035 C 
HETATM   10  C10 UNL     1      -0.561   6.395  13.052  1.00  0.00    -0.069 C 
HETATM   11  C11 UNL     1       0.614   6.042  13.605  1.00  0.00     0.030 C 
HETATM   12  C12 UNL     1       1.175   6.821  14.735  1.00  0.00     0.032 C 
HETATM   13  N1  UNL     1       2.452   6.718  14.986  1.00  0.00    -0.271 N 
ATOM     14  H1  UNL     1       3.105   6.162  14.435  1.00  0.00     0.194 HD
HETATM   15  C24 UNL     1       0.183   7.669  15.502  1.00  0.00     0.060 C 
HETATM   16  C25 UNL     1      -0.567   8.511  14.480  1.00  0.00     0.020 C 
HETATM   17  C26 UNL     1      -1.352   7.661  13.430  1.00  0.00    -0.016 C 
HETATM   18  C27 UNL     1      -1.490   8.572  12.183  1.00  0.00     0.020 C 
HETATM   19  C28 UNL     1      -2.761   7.191  13.961  1.00  0.00     0.002 C 
HETATM   20  C29 UNL     1      -3.690   8.341  14.438  1.00  0.00     0.007 C 
HETATM   21  C30 UNL     1      -5.077   7.856  14.901  1.00  0.00     0.014 C 
HETATM   22  C31 UNL     1      -5.769   7.014  13.812  1.00  0.00     0.003 C 
HETATM   23  C32 UNL     1      -6.064   7.937  12.590  1.00  0.00     0.020 C 
ENDROOT
BRANCH   3  24
HETATM   24  O1  UNL     1      -8.209   7.113  14.118  1.00  0.00    -0.377 OA
HETATM   25  H2  UNL     1      -8.969   6.606  14.453  1.00  0.00     0.211 HD
ENDBRANCH   3  24
BRANCH  13  26
HETATM   26  O2  UNL     1       2.810   7.474  16.115  1.00  0.00    -0.271 OA
BRANCH  26  27
HETATM   27  C13 UNL     1       3.252   8.767  15.718  1.00  0.00     0.303 C 
BRANCH  27  28
HETATM   28  C14 UNL     1       4.615   8.773  15.035  1.00  0.00     0.244 C 
HETATM   29  O3  UNL     1       5.648   9.096  15.618  1.00  0.00    -0.271 OA
HETATM   30  N2  UNL     1       4.581   8.467  13.696  1.00  0.00    -0.342 N 
HETATM   31  H16 UNL     1       3.741   7.980  13.372  1.00  0.00     0.163 HD
BRANCH  30  32
HETATM   32  C15 UNL     1       5.805   8.314  12.908  1.00  0.00     0.216 C 
BRANCH  32  33
HETATM   33  C16 UNL     1       6.385   6.919  13.120  1.00  0.00     0.166 C 
HETATM   34  O4  UNL     1       6.642   6.079  12.271  1.00  0.00    -0.648 OA
BRANCH  33  35
HETATM   35  O5  UNL     1       6.645   6.651  14.418  1.00  0.00    -0.775 OA
HETATM   36  H18 UNL     1       6.963   5.722  14.401  1.00  0.00     0.167 HD
ENDBRANCH  33  35
ENDBRANCH  32  33
BRANCH  32  37
HETATM   37  C17 UNL     1       5.567   8.540  11.396  1.00  0.00     0.184 C 
BRANCH  37  38
HETATM   38  O6  UNL     1       6.756   8.184  10.669  1.00  0.00    -0.388 OA
HETATM   39  H20 UNL     1       7.179   9.015  10.389  1.00  0.00     0.210 HD
ENDBRANCH  37  38
BRANCH  37  40
HETATM   40  C18 UNL     1       4.383   7.766  10.822  1.00  0.00    -0.025 A 
HETATM   41  C19 UNL     1       3.944   6.565  11.411  1.00  0.00     0.010 A 
HETATM   42  C20 UNL     1       2.851   5.858  10.902  1.00  0.00     0.003 A 
HETATM   43  C21 UNL     1       2.158   6.337   9.795  1.00  0.00     0.036 A 
HETATM   44  C22 UNL     1       2.556   7.547   9.218  1.00  0.00     0.103 A 
HETATM   45  C23 UNL     1       3.654   8.259   9.723  1.00  0.00     0.045 A 
BRANCH  44  46
HETATM   46  N3  UNL     1       1.816   8.080   8.073  1.00  0.00    -0.116 N 
HETATM   47  O7  UNL     1       2.139   7.680   6.943  1.00  0.00    -0.532 OA
HETATM   48  O8  UNL     1       0.920   8.907   8.303  1.00  0.00    -0.532 OA
ENDBRANCH  44  46
ENDBRANCH  37  40
ENDBRANCH  32  37
ENDBRANCH  30  32
ENDBRANCH  27  28
ENDBRANCH  26  27
ENDBRANCH  13  26
TORSDOF 11
ENDMDL
MODEL 6
REMARK minimizedAffinity -8.37050056
REMARK CNNscore 0.223626748
REMARK CNNaffinity 6.88560629
REMARK  11 active torsions:
REMARK  status: ('A' for Active; 'I' for Inactive)
REMARK    1  A    between atoms: C3_3  and  O1_4 
REMARK    2  A    between atoms: N1_14  and  O2_16 
REMARK    3  A    between atoms: O2_16  and  C13_17 
REMARK    4  A    between atoms: C13_17  and  C14_18 
REMARK       I    between atoms: C14_18  and  N2_20 
REMARK    5  A    between atoms: N2_20  and  C15_21 
REMARK    6  A    between atoms: C15_21  and  C16_22 
REMARK    7  A    between atoms: C15_21  and  C17_25 
REMARK    8  A    between atoms: C16_22  and  O5_24 
REMARK    9  A    between atoms: C17_25  and  O6_26 
REMARK   10  A    between atoms: C17_25  and  C18_27 
REMARK   11  A    between atoms: C22_31  and  N3_32 
ROOT
HETATM    1  C1  UNL     1      -2.269   8.923  12.134  1.00  0.00     0.015 C 
HETATM    2  C2  UNL     1      -2.403   8.000  12.887  1.00  0.00    -0.078 C 
HETATM    3  C3  UNL     1      -2.543   6.832  13.783  1.00  0.00     0.128 C 
HETATM    4  C4  UNL     1      -2.577   5.526  12.948  1.00  0.00     0.052 C 
HETATM    5  C5  UNL     1      -4.062   5.130  12.804  1.00  0.00     0.010 C 
HETATM    6  C6  UNL     1      -4.841   6.277  13.451  1.00  0.00     0.002 C 
HETATM    7  C7  UNL     1      -6.260   5.996  13.968  1.00  0.00    -0.004 C 
HETATM    8  C8  UNL     1      -7.174   5.461  12.852  1.00  0.00     0.010 C 
HETATM    9  C9  UNL     1      -8.603   5.226  13.344  1.00  0.00     0.035 C 
HETATM   10  C10 UNL     1      -9.149   6.487  13.968  1.00  0.00    -0.069 C 
HETATM   11  C11 UNL     1     -10.248   7.067  13.453  1.00  0.00     0.030 C 
HETATM   12  C12 UNL     1     -10.675   8.409  13.916  1.00  0.00     0.032 C 
HETATM   13  N1  UNL     1     -11.912   8.772  13.712  1.00  0.00    -0.271 N 
ATOM     14  H1  UNL     1     -12.623   8.180  13.283  1.00  0.00     0.194 HD
HETATM   15  C24 UNL     1      -9.603   9.242  14.587  1.00  0.00     0.060 C 
HETATM   16  C25 UNL     1      -8.984   8.378  15.675  1.00  0.00     0.020 C 
HETATM   17  C26 UNL     1      -8.325   7.070  15.132  1.00  0.00    -0.016 C 
HETATM   18  C27 UNL     1      -8.340   6.075  16.321  1.00  0.00     0.020 C 
HETATM   19  C28 UNL     1      -6.860   7.306  14.595  1.00  0.00     0.002 C 
HETATM   20  C29 UNL     1      -5.888   7.940  15.627  1.00  0.00     0.007 C 
HETATM   21  C30 UNL     1      -4.453   8.110  15.092  1.00  0.00     0.014 C 
HETATM   22  C31 UNL     1      -3.890   6.777  14.562  1.00  0.00     0.003 C 
HETATM   23  C32 UNL     1      -3.747   5.791  15.763  1.00  0.00     0.020 C 
ENDROOT
BRANCH   3  24
HETATM   24  O1  UNL     1      -1.432   6.818  14.667  1.00  0.00    -0.377 OA
HETATM   25  H2  UNL     1      -0.635   6.931  14.121  1.00  0.00     0.211 HD
ENDBRANCH   3  24
BRANCH  13  26
HETATM   26  O2  UNL     1     -12.138  10.084  14.160  1.00  0.00    -0.271 OA
BRANCH  26  27
HETATM   27  C13 UNL     1     -13.161  10.697  13.384  1.00  0.00     0.303 C 
BRANCH  27  28
HETATM   28  C14 UNL     1     -14.520  10.016  13.503  1.00  0.00     0.244 C 
HETATM   29  O3  UNL     1     -14.982   9.641  14.580  1.00  0.00    -0.271 OA
HETATM   30  N2  UNL     1     -15.146   9.782  12.303  1.00  0.00    -0.342 N 
HETATM   31  H16 UNL     1     -14.814  10.340  11.512  1.00  0.00     0.163 HD
BRANCH  30  32
HETATM   32  C15 UNL     1     -16.506   9.243  12.234  1.00  0.00     0.216 C 
BRANCH  32  33
HETATM   33  C16 UNL     1     -17.279   9.932  11.114  1.00  0.00     0.166 C 
HETATM   34  O4  UNL     1     -17.338  11.128  10.871  1.00  0.00    -0.648 OA
BRANCH  33  35
HETATM   35  O5  UNL     1     -17.935   9.061  10.317  1.00  0.00    -0.775 OA
HETATM   36  H18 UNL     1     -18.413   9.643   9.686  1.00  0.00     0.167 HD
ENDBRANCH  33  35
ENDBRANCH  32  33
BRANCH  32  37
HETATM   37  C17 UNL     1     -16.523   7.714  11.998  1.00  0.00     0.184 C 
BRANCH  37  38
HETATM   38  O6  UNL     1     -15.484   7.366  11.067  1.00  0.00    -0.388 OA
HETATM   39  H20 UNL     1     -15.916   7.168  10.217  1.00  0.00     0.210 HD
ENDBRANCH  37  38
BRANCH  37  40
HETATM   40  C18 UNL     1     -16.357   6.879  13.265  1.00  0.00    -0.025 A 
HETATM   41  C19 UNL     1     -15.114   6.312  13.604  1.00  0.00     0.010 A 
HETATM   42  C20 UNL     1     -14.948   5.559  14.770  1.00  0.00     0.003 A 
HETATM   43  C21 UNL     1     -16.018   5.360  15.636  1.00  0.00     0.036 A 
HETATM   44  C22 UNL     1     -17.251   5.947  15.335  1.00  0.00     0.103 A 
HETATM   45  C23 UNL     1     -17.424   6.700  14.165  1.00  0.00     0.045 A 
BRANCH  44  46
HETATM   46  N3  UNL     1     -18.377   5.774  16.254  1.00  0.00    -0.116 N 
HETATM   47  O7  UNL     1     -18.739   6.762  16.912  1.00  0.00    -0.532 OA
HETATM   48  O8  UNL     1     -18.891   4.646  16.328  1.00  0.00    -0.532 OA
ENDBRANCH  44  46
ENDBRANCH  37  40
ENDBRANCH  32  37
ENDBRANCH  30  32
ENDBRANCH  27  28
ENDBRANCH  26  27
ENDBRANCH  13  26
TORSDOF 11
ENDMDL
MODEL 7
REMARK minimizedAffinity -8.17301369
REMARK CNNscore 0.20131959
REMARK CNNaffinity 6.46470785
REMARK  11 active torsions:
REMARK  status: ('A' for Active; 'I' for Inactive)
REMARK    1  A    between atoms: C3_3  and  O1_4 
REMARK    2  A    between atoms: N1_14  and  O2_16 
REMARK    3  A    between atoms: O2_16  and  C13_17 
REMARK    4  A    between atoms: C13_17  and  C14_18 
REMARK       I    between atoms: C14_18  and  N2_20 
REMARK    5  A    between atoms: N2_20  and  C15_21 
REMARK    6  A    between atoms: C15_21  and  C16_22 
REMARK    7  A    between atoms: C15_21  and  C17_25 
REMARK    8  A    between atoms: C16_22  and  O5_24 
REMARK    9  A    between atoms: C17_25  and  O6_26 
REMARK   10  A    between atoms: C17_25  and  C18_27 
REMARK   11  A    between atoms: C22_31  and  N3_32 
ROOT
HETATM    1  C1  UNL     1      -7.100   5.699  16.627  1.00  0.00     0.015 C 
HETATM    2  C2  UNL     1      -6.773   6.019  15.518  1.00  0.00    -0.078 C 
HETATM    3  C3  UNL     1      -6.375   6.366  14.137  1.00  0.00     0.128 C 
HETATM    4  C4  UNL     1      -5.669   5.157  13.471  1.00  0.00     0.052 C 
HETATM    5  C5  UNL     1      -4.150   5.414  13.581  1.00  0.00     0.010 C 
HETATM    6  C6  UNL     1      -4.026   6.695  14.409  1.00  0.00     0.002 C 
HETATM    7  C7  UNL     1      -2.745   7.532  14.271  1.00  0.00    -0.004 C 
HETATM    8  C8  UNL     1      -1.491   6.706  14.605  1.00  0.00     0.010 C 
HETATM    9  C9  UNL     1      -0.214   7.544  14.520  1.00  0.00     0.035 C 
HETATM   10  C10 UNL     1      -0.339   8.767  15.397  1.00  0.00    -0.069 C 
HETATM   11  C11 UNL     1       0.529   8.957  16.408  1.00  0.00     0.030 C 
HETATM   12  C12 UNL     1       0.299  10.032  17.402  1.00  0.00     0.032 C 
HETATM   13  N1  UNL     1       1.312  10.449  18.112  1.00  0.00    -0.271 N 
ATOM     14  H1  UNL     1       2.268  10.109  18.007  1.00  0.00     0.194 HD
HETATM   15  C24 UNL     1      -1.125  10.542  17.497  1.00  0.00     0.060 C 
HETATM   16  C25 UNL     1      -1.566  10.897  16.086  1.00  0.00     0.020 C 
HETATM   17  C26 UNL     1      -1.540   9.684  15.101  1.00  0.00    -0.016 C 
HETATM   18  C27 UNL     1      -1.381  10.301  13.689  1.00  0.00     0.020 C 
HETATM   19  C28 UNL     1      -2.841   8.796  15.200  1.00  0.00     0.002 C 
HETATM   20  C29 UNL     1      -4.170   9.568  14.977  1.00  0.00     0.007 C 
HETATM   21  C30 UNL     1      -5.418   8.665  15.027  1.00  0.00     0.014 C 
HETATM   22  C31 UNL     1      -5.300   7.488  14.040  1.00  0.00     0.003 C 
HETATM   23  C32 UNL     1      -5.288   8.062  12.589  1.00  0.00     0.020 C 
ENDROOT
BRANCH   3  24
HETATM   24  O1  UNL     1      -7.547   6.707  13.412  1.00  0.00    -0.377 OA
HETATM   25  H2  UNL     1      -8.197   6.003  13.579  1.00  0.00     0.211 HD
ENDBRANCH   3  24
BRANCH  13  26
HETATM   26  O2  UNL     1       0.914  11.427  19.039  1.00  0.00    -0.271 OA
BRANCH  26  27
HETATM   27  C13 UNL     1       0.840  10.863  20.343  1.00  0.00     0.303 C 
BRANCH  27  28
HETATM   28  C14 UNL     1       2.183  10.398  20.895  1.00  0.00     0.244 C 
HETATM   29  O3  UNL     1       2.365   9.262  21.330  1.00  0.00    -0.271 OA
HETATM   30  N2  UNL     1       3.148  11.375  20.941  1.00  0.00    -0.342 N 
HETATM   31  H16 UNL     1       2.987  12.188  20.341  1.00  0.00     0.163 HD
BRANCH  30  32
HETATM   32  C15 UNL     1       4.528  11.080  21.333  1.00  0.00     0.216 C 
BRANCH  32  33
HETATM   33  C16 UNL     1       5.495  11.787  20.390  1.00  0.00     0.166 C 
HETATM   34  O4  UNL     1       6.673  11.526  20.193  1.00  0.00    -0.648 OA
BRANCH  33  35
HETATM   35  O5  UNL     1       4.916  12.795  19.703  1.00  0.00    -0.775 OA
HETATM   36  H18 UNL     1       5.659  13.176  19.184  1.00  0.00     0.167 HD
ENDBRANCH  33  35
ENDBRANCH  32  33
BRANCH  32  37
HETATM   37  C17 UNL     1       4.833  11.507  22.788  1.00  0.00     0.184 C 
BRANCH  37  38
HETATM   38  O6  UNL     1       5.894  10.689  23.310  1.00  0.00    -0.388 OA
HETATM   39  H20 UNL     1       5.489  10.058  23.932  1.00  0.00     0.210 HD
ENDBRANCH  37  38
BRANCH  37  40
HETATM   40  C18 UNL     1       5.214  12.977  22.947  1.00  0.00    -0.025 A 
HETATM   41  C19 UNL     1       4.229  13.979  23.028  1.00  0.00     0.010 A 
HETATM   42  C20 UNL     1       4.568  15.326  23.189  1.00  0.00     0.003 A 
HETATM   43  C21 UNL     1       5.903  15.708  23.284  1.00  0.00     0.036 A 
HETATM   44  C22 UNL     1       6.894  14.722  23.242  1.00  0.00     0.103 A 
HETATM   45  C23 UNL     1       6.559  13.371  23.078  1.00  0.00     0.045 A 
BRANCH  44  46
HETATM   46  N3  UNL     1       8.300  15.106  23.374  1.00  0.00    -0.116 N 
HETATM   47  O7  UNL     1       8.964  14.558  24.268  1.00  0.00    -0.532 OA
HETATM   48  O8  UNL     1       8.737  15.965  22.592  1.00  0.00    -0.532 OA
ENDBRANCH  44  46
ENDBRANCH  37  40
ENDBRANCH  32  37
ENDBRANCH  30  32
ENDBRANCH  27  28
ENDBRANCH  26  27
ENDBRANCH  13  26
TORSDOF 11
ENDMDL
MODEL 8
REMARK minimizedAffinity -8.93237686
REMARK CNNscore 0.178210109
REMARK CNNaffinity 6.99524069
REMARK  11 active torsions:
REMARK  status: ('A' for Active; 'I' for Inactive)
REMARK    1  A    between atoms: C3_3  and  O1_4 
REMARK    2  A    between atoms: N1_14  and  O2_16 
REMARK    3  A    between atoms: O2_16  and  C13_17 
REMARK    4  A    between atoms: C13_17  and  C14_18 
REMARK       I    between atoms: C14_18  and  N2_20 
REMARK    5  A    between atoms: N2_20  and  C15_21 
REMARK    6  A    between atoms: C15_21  and  C16_22 
REMARK    7  A    between atoms: C15_21  and  C17_25 
REMARK    8  A    between atoms: C16_22  and  O5_24 
REMARK    9  A    between atoms: C17_25  and  O6_26 
REMARK   10  A    between atoms: C17_25  and  C18_27 
REMARK   11  A    between atoms: C22_31  and  N3_32 
ROOT
HETATM    1  C1  UNL     1      -1.784   8.869  11.867  1.00  0.00     0.015 C 
HETATM    2  C2  UNL     1      -1.831   7.889  12.557  1.00  0.00    -0.078 C 
HETATM    3  C3  UNL     1      -1.863   6.656  13.372  1.00  0.00     0.128 C 
HETATM    4  C4  UNL     1      -1.887   5.412  12.446  1.00  0.00     0.052 C 
HETATM    5  C5  UNL     1      -3.359   4.953  12.359  1.00  0.00     0.010 C 
HETATM    6  C6  UNL     1      -4.149   6.011  13.132  1.00  0.00     0.002 C 
HETATM    7  C7  UNL     1      -5.520   5.624  13.707  1.00  0.00    -0.004 C 
HETATM    8  C8  UNL     1      -6.474   5.124  12.608  1.00  0.00     0.010 C 
HETATM    9  C9  UNL     1      -7.858   4.785  13.163  1.00  0.00     0.035 C 
HETATM   10  C10 UNL     1      -8.422   5.970  13.909  1.00  0.00    -0.069 C 
HETATM   11  C11 UNL     1      -9.576   6.529  13.501  1.00  0.00     0.030 C 
HETATM   12  C12 UNL     1     -10.035   7.813  14.084  1.00  0.00     0.032 C 
HETATM   13  N1  UNL     1     -11.298   8.126  13.979  1.00  0.00    -0.271 N 
ATOM     14  H1  UNL     1     -12.006   7.531  13.549  1.00  0.00     0.194 HD
HETATM   15  C24 UNL     1      -8.963   8.648  14.752  1.00  0.00     0.060 C 
HETATM   16  C25 UNL     1      -8.241   7.742  15.737  1.00  0.00     0.020 C 
HETATM   17  C26 UNL     1      -7.557   6.509  15.063  1.00  0.00    -0.016 C 
HETATM   18  C27 UNL     1      -7.455   5.434  16.175  1.00  0.00     0.020 C 
HETATM   19  C28 UNL     1      -6.140   6.855  14.462  1.00  0.00     0.002 C 
HETATM   20  C29 UNL     1      -5.137   7.463  15.481  1.00  0.00     0.007 C 
HETATM   21  C30 UNL     1      -3.746   7.741  14.878  1.00  0.00     0.014 C 
HETATM   22  C31 UNL     1      -3.156   6.479  14.220  1.00  0.00     0.003 C 
HETATM   23  C32 UNL     1      -2.896   5.419  15.335  1.00  0.00     0.020 C 
ENDROOT
BRANCH   3  24
HETATM   24  O1  UNL     1      -0.700   6.634  14.187  1.00  0.00    -0.377 OA
HETATM   25  H2  UNL     1       0.056   6.825  13.606  1.00  0.00     0.211 HD
ENDBRANCH   3  24
BRANCH  13  26
HETATM   26  O2  UNL     1     -11.555   9.391  14.534  1.00  0.00    -0.271 OA
BRANCH  26  27
HETATM   27  C13 UNL     1     -12.932   9.504  14.875  1.00  0.00     0.303 C 
BRANCH  27  28
HETATM   28  C14 UNL     1     -13.882   9.040  13.778  1.00  0.00     0.244 C 
HETATM   29  O3  UNL     1     -13.558   9.001  12.591  1.00  0.00    -0.271 OA
HETATM   30  N2  UNL     1     -15.153   8.748  14.211  1.00  0.00    -0.342 N 
HETATM   31  H16 UNL     1     -15.251   8.570  15.214  1.00  0.00     0.163 HD
BRANCH  30  32
HETATM   32  C15 UNL     1     -16.162   8.179  13.316  1.00  0.00     0.216 C 
BRANCH  32  33
HETATM   33  C16 UNL     1     -16.183   8.952  12.002  1.00  0.00     0.166 C 
HETATM   34  O4  UNL     1     -16.423  10.139  11.836  1.00  0.00    -0.648 OA
BRANCH  33  35
HETATM   35  O5  UNL     1     -15.866   8.185  10.937  1.00  0.00    -0.775 OA
HETATM   36  H18 UNL     1     -15.965   8.798  10.175  1.00  0.00     0.167 HD
ENDBRANCH  33  35
ENDBRANCH  32  33
BRANCH  32  37
HETATM   37  C17 UNL     1     -15.912   6.681  13.020  1.00  0.00     0.184 C 
BRANCH  37  38
HETATM   38  O6  UNL     1     -14.513   6.477  12.756  1.00  0.00    -0.388 OA
HETATM   39  H20 UNL     1     -14.421   6.341  11.796  1.00  0.00     0.210 HD
ENDBRANCH  37  38
BRANCH  37  40
HETATM   40  C18 UNL     1     -16.349   5.736  14.137  1.00  0.00    -0.025 A 
HETATM   41  C19 UNL     1     -17.403   6.077  15.006  1.00  0.00     0.010 A 
HETATM   42  C20 UNL     1     -17.821   5.211  16.021  1.00  0.00     0.003 A 
HETATM   43  C21 UNL     1     -17.204   3.976  16.189  1.00  0.00     0.036 A 
HETATM   44  C22 UNL     1     -16.181   3.605  15.312  1.00  0.00     0.103 A 
HETATM   45  C23 UNL     1     -15.755   4.470  14.294  1.00  0.00     0.045 A 
BRANCH  44  46
HETATM   46  N3  UNL     1     -15.546   2.294  15.457  1.00  0.00    -0.116 N 
HETATM   47  O7  UNL     1     -14.481   2.101  14.849  1.00  0.00    -0.532 OA
HETATM   48  O8  UNL     1     -16.119   1.453  16.167  1.00  0.00    -0.532 OA
ENDBRANCH  44  46
ENDBRANCH  37  40
ENDBRANCH  32  37
ENDBRANCH  30  32
ENDBRANCH  27  28
ENDBRANCH  26  27
ENDBRANCH  13  26
TORSDOF 11
ENDMDL
MODEL 9
REMARK minimizedAffinity -9.58056164
REMARK CNNscore 0.154765606
REMARK CNNaffinity 7.10237455
REMARK  11 active torsions:
REMARK  status: ('A' for Active; 'I' for Inactive)
REMARK    1  A    between atoms: C3_3  and  O1_4 
REMARK    2  A    between atoms: N1_14  and  O2_16 
REMARK    3  A    between atoms: O2_16  and  C13_17 
REMARK    4  A    between atoms: C13_17  and  C14_18 
REMARK       I    between atoms: C14_18  and  N2_20 
REMARK    5  A    between atoms: N2_20  and  C15_21 
REMARK    6  A    between atoms: C15_21  and  C16_22 
REMARK    7  A    between atoms: C15_21  and  C17_25 
REMARK    8  A    between atoms: C16_22  and  O5_24 
REMARK    9  A    between atoms: C17_25  and  O6_26 
REMARK   10  A    between atoms: C17_25  and  C18_27 
REMARK   11  A    between atoms: C22_31  and  N3_32 
ROOT
HETATM    1  C1  UNL     1      -0.122   8.616   8.700  1.00  0.00     0.015 C 
HETATM    2  C2  UNL     1       0.322   8.120   9.698  1.00  0.00    -0.078 C 
HETATM    3  C3  UNL     1       0.898   7.481  10.900  1.00  0.00     0.128 C 
HETATM    4  C4  UNL     1       1.326   6.027  10.571  1.00  0.00     0.052 C 
HETATM    5  C5  UNL     1       0.193   5.107  11.076  1.00  0.00     0.010 C 
HETATM    6  C6  UNL     1      -0.900   6.059  11.565  1.00  0.00     0.002 C 
HETATM    7  C7  UNL     1      -1.912   5.539  12.598  1.00  0.00    -0.004 C 
HETATM    8  C8  UNL     1      -2.655   4.293  12.085  1.00  0.00     0.010 C 
HETATM    9  C9  UNL     1      -3.701   3.798  13.085  1.00  0.00     0.035 C 
HETATM   10  C10 UNL     1      -4.649   4.918  13.440  1.00  0.00    -0.069 C 
HETATM   11  C11 UNL     1      -5.963   4.789  13.182  1.00  0.00     0.030 C 
HETATM   12  C12 UNL     1      -6.873   5.949  13.327  1.00  0.00     0.032 C 
HETATM   13  N1  UNL     1      -8.152   5.723  13.460  1.00  0.00    -0.271 N 
ATOM     14  H1  UNL     1      -8.571   4.794  13.506  1.00  0.00     0.194 HD
HETATM   15  C24 UNL     1      -6.209   7.310  13.299  1.00  0.00     0.060 C 
HETATM   16  C25 UNL     1      -5.079   7.276  14.317  1.00  0.00     0.020 C 
HETATM   17  C26 UNL     1      -3.998   6.191  14.011  1.00  0.00    -0.016 C 
HETATM   18  C27 UNL     1      -3.341   5.865  15.376  1.00  0.00     0.020 C 
HETATM   19  C28 UNL     1      -2.929   6.681  12.959  1.00  0.00     0.002 C 
HETATM   20  C29 UNL     1      -2.196   7.995  13.346  1.00  0.00     0.007 C 
HETATM   21  C30 UNL     1      -1.122   8.420  12.325  1.00  0.00     0.014 C 
HETATM   22  C31 UNL     1      -0.109   7.287  12.071  1.00  0.00     0.003 C 
HETATM   23  C32 UNL     1       0.683   7.029  13.390  1.00  0.00     0.020 C 
ENDROOT
BRANCH   3  24
HETATM   24  O1  UNL     1       2.026   8.242  11.307  1.00  0.00    -0.377 OA
HETATM   25  H2  UNL     1       2.570   8.387  10.514  1.00  0.00     0.211 HD
ENDBRANCH   3  24
BRANCH  13  26
HETATM   26  O2  UNL     1      -8.876   6.925  13.532  1.00  0.00    -0.271 OA
BRANCH  26  27
HETATM   27  C13 UNL     1     -10.192   6.734  13.024  1.00  0.00     0.303 C 
BRANCH  27  28
HETATM   28  C14 UNL     1     -11.293   6.984  14.048  1.00  0.00     0.244 C 
HETATM   29  O3  UNL     1     -11.087   6.968  15.261  1.00  0.00    -0.271 OA
HETATM   30  N2  UNL     1     -12.546   7.146  13.509  1.00  0.00    -0.342 N 
HETATM   31  H16 UNL     1     -12.574   7.390  12.515  1.00  0.00     0.163 HD
BRANCH  30  32
HETATM   32  C15 UNL     1     -13.701   7.508  14.333  1.00  0.00     0.216 C 
BRANCH  32  33
HETATM   33  C16 UNL     1     -13.477   8.878  14.963  1.00  0.00     0.166 C 
HETATM   34  O4  UNL     1     -12.929   9.850  14.464  1.00  0.00    -0.648 OA
BRANCH  33  35
HETATM   35  O5  UNL     1     -13.988   8.972  16.209  1.00  0.00    -0.775 OA
HETATM   36  H18 UNL     1     -13.730   9.877  16.495  1.00  0.00     0.167 HD
ENDBRANCH  33  35
ENDBRANCH  32  33
BRANCH  32  37
HETATM   37  C17 UNL     1     -15.020   7.530  13.524  1.00  0.00     0.184 C 
BRANCH  37  38
HETATM   38  O6  UNL     1     -14.733   7.878  12.159  1.00  0.00    -0.388 OA
HETATM   39  H20 UNL     1     -15.027   8.798  12.031  1.00  0.00     0.210 HD
ENDBRANCH  37  38
BRANCH  37  40
HETATM   40  C18 UNL     1     -15.797   6.216  13.550  1.00  0.00    -0.025 A 
HETATM   41  C19 UNL     1     -16.903   6.009  12.704  1.00  0.00     0.010 A 
HETATM   42  C20 UNL     1     -17.610   4.803  12.709  1.00  0.00     0.003 A 
HETATM   43  C21 UNL     1     -17.225   3.766  13.553  1.00  0.00     0.036 A 
HETATM   44  C22 UNL     1     -16.107   3.940  14.373  1.00  0.00     0.103 A 
HETATM   45  C23 UNL     1     -15.395   5.148  14.375  1.00  0.00     0.045 A 
BRANCH  44  46
HETATM   46  N3  UNL     1     -15.671   2.845  15.241  1.00  0.00    -0.116 N 
HETATM   47  O7  UNL     1     -16.424   2.513  16.170  1.00  0.00    -0.532 OA
HETATM   48  O8  UNL     1     -14.569   2.327  15.002  1.00  0.00    -0.532 OA
ENDBRANCH  44  46
ENDBRANCH  37  40
ENDBRANCH  32  37
ENDBRANCH  30  32
ENDBRANCH  27  28
ENDBRANCH  26  27
ENDBRANCH  13  26
TORSDOF 11
ENDMDL
