MODEL 1
REMARK minimizedAffinity -9.0167942
REMARK CNNscore 0.874197006
REMARK CNNaffinity 6.31490707
REMARK  8 active torsions:
REMARK  status: ('A' for Active; 'I' for Inactive)
REMARK    1  A    between atoms: C3_3  and  C4_4 
REMARK    2  A    between atoms: C4_4  and  O1_5 
REMARK    3  A    between atoms: C6_9  and  C7_10 
REMARK    4  A    between atoms: C7_10  and  O4_12 
REMARK    5  A    between atoms: C7_10  and  C9_13 
REMARK    6  A    between atoms: C12_16  and  O5_17 
REMARK    7  A    between atoms: C15_20  and  O6_21 
REMARK    8  A    between atoms: C16_22  and  O7_23 
ROOT
HETATM    1  C9  UNL     1      -2.916  49.687 -21.562  1.00  0.00     0.033 C 
HETATM    2  C10 UNL     1      -3.235  48.167 -21.702  1.00  0.00     0.011 C 
HETATM    3  C11 UNL     1      -2.910  47.490 -20.357  1.00  0.00     0.039 C 
HETATM    4  C12 UNL     1      -2.653  48.653 -19.406  1.00  0.00     0.070 C 
HETATM    5  C13 UNL     1      -1.856  48.309 -18.113  1.00  0.00     0.028 C 
HETATM    6  C14 UNL     1      -2.719  47.424 -17.172  1.00  0.00     0.043 C 
HETATM    7  C15 UNL     1      -2.321  47.407 -15.700  1.00  0.00     0.154 C 
HETATM    8  C16 UNL     1      -2.036  48.839 -15.182  1.00  0.00     0.098 C 
HETATM    9  C17 UNL     1      -1.801  48.828 -13.655  1.00  0.00     0.042 C 
HETATM   10  C18 UNL     1      -1.221  50.135 -13.098  1.00  0.00     0.010 C 
HETATM   11  C19 UNL     1      -1.252  51.294 -14.077  1.00  0.00     0.079 C 
HETATM   12  C20 UNL     1      -0.551  50.893 -15.357  1.00  0.00     0.138 C 
HETATM   13  O8  UNL     1       0.271  51.656 -15.873  1.00  0.00    -0.297 OA
HETATM   14  C21 UNL     1      -0.868  49.505 -15.964  1.00  0.00     0.054 C 
HETATM   15  C22 UNL     1       0.477  48.728 -15.809  1.00  0.00     0.027 C 
HETATM   16  C23 UNL     1      -1.195  49.606 -17.500  1.00  0.00     0.011 C 
HETATM   17  C24 UNL     1      -1.893  50.900 -17.989  1.00  0.00     0.007 C 
HETATM   18  C25 UNL     1      -1.915  51.041 -19.531  1.00  0.00     0.013 C 
HETATM   19  C26 UNL     1      -1.954  49.703 -20.311  1.00  0.00    -0.006 C 
HETATM   20  C27 UNL     1      -0.518  49.287 -20.728  1.00  0.00     0.019 C 
ENDROOT
BRANCH   1  21
HETATM   21  C7  UNL     1      -2.515  50.394 -22.908  1.00  0.00     0.085 C 
HETATM   22  C8  UNL     1      -3.113  51.812 -22.969  1.00  0.00     0.049 C 
BRANCH  21  23
HETATM   23  C6  UNL     1      -3.012  49.560 -24.158  1.00  0.00     0.170 C 
HETATM   24  O3  UNL     1      -2.562  50.188 -25.380  1.00  0.00    -0.309 OA
HETATM   25  C5  UNL     1      -2.937  49.708 -26.591  1.00  0.00     0.292 C 
HETATM   26  C3  UNL     1      -4.110  48.791 -26.617  1.00  0.00     0.042 C 
HETATM   27  O2  UNL     1      -2.354  50.048 -27.613  1.00  0.00    -0.260 OA
HETATM   28  C2  UNL     1      -4.901  48.686 -25.526  1.00  0.00    -0.067 C 
HETATM   29  C1  UNL     1      -6.180  47.896 -25.461  1.00  0.00     0.044 C 
HETATM   30  C28 UNL     1      -4.532  49.402 -24.248  1.00  0.00     0.070 C 
BRANCH  26  31
HETATM   31  C4  UNL     1      -4.392  48.147 -27.947  1.00  0.00     0.209 C 
BRANCH  31  32
HETATM   32  O1  UNL     1      -4.545  49.125 -28.975  1.00  0.00    -0.396 OA
HETATM   33  H6  UNL     1      -4.265  49.992 -28.633  1.00  0.00     0.209 HD
ENDBRANCH  31  32
ENDBRANCH  26  31
ENDBRANCH  21  23
BRANCH  21  34
HETATM   34  O4  UNL     1      -1.086  50.516 -22.968  1.00  0.00    -0.387 OA
HETATM   35  H11 UNL     1      -0.850  51.252 -23.561  1.00  0.00     0.210 HD
ENDBRANCH  21  34
ENDBRANCH   1  21
BRANCH   4  36
HETATM   36  O5  UNL     1      -3.968  49.158 -19.078  1.00  0.00    -0.389 OA
HETATM   37  H17 UNL     1      -4.017  49.384 -18.132  1.00  0.00     0.210 HD
ENDBRANCH   4  36
BRANCH   7  38
HETATM   38  O6  UNL     1      -1.237  46.508 -15.484  1.00  0.00    -0.392 OA
HETATM   39  H22 UNL     1      -1.456  45.670 -15.929  1.00  0.00     0.210 HD
ENDBRANCH   7  38
BRANCH   8  40
HETATM   40  O7  UNL     1      -3.235  49.612 -15.434  1.00  0.00    -0.386 OA
HETATM   41  H23 UNL     1      -3.927  49.328 -14.815  1.00  0.00     0.210 HD
ENDBRANCH   8  40
TORSDOF 8
ENDMDL
MODEL 2
REMARK minimizedAffinity -9.75478935
REMARK CNNscore 0.805502176
REMARK CNNaffinity 6.11058187
REMARK  8 active torsions:
REMARK  status: ('A' for Active; 'I' for Inactive)
REMARK    1  A    between atoms: C3_3  and  C4_4 
REMARK    2  A    between atoms: C4_4  and  O1_5 
REMARK    3  A    between atoms: C6_9  and  C7_10 
REMARK    4  A    between atoms: C7_10  and  O4_12 
REMARK    5  A    between atoms: C7_10  and  C9_13 
REMARK    6  A    between atoms: C12_16  and  O5_17 
REMARK    7  A    between atoms: C15_20  and  O6_21 
REMARK    8  A    between atoms: C16_22  and  O7_23 
ROOT
HETATM    1  C9  UNL     1       4.699  66.020 -35.792  1.00  0.00     0.033 C 
HETATM    2  C10 UNL     1       3.390  65.537 -35.095  1.00  0.00     0.011 C 
HETATM    3  C11 UNL     1       2.196  66.067 -35.910  1.00  0.00     0.039 C 
HETATM    4  C12 UNL     1       2.830  66.623 -37.181  1.00  0.00     0.070 C 
HETATM    5  C13 UNL     1       1.959  67.633 -37.987  1.00  0.00     0.028 C 
HETATM    6  C14 UNL     1       0.749  66.903 -38.629  1.00  0.00     0.043 C 
HETATM    7  C15 UNL     1       0.093  67.593 -39.821  1.00  0.00     0.154 C 
HETATM    8  C16 UNL     1       1.157  68.112 -40.820  1.00  0.00     0.098 C 
HETATM    9  C17 UNL     1       0.482  68.654 -42.100  1.00  0.00     0.042 C 
HETATM   10  C18 UNL     1       1.417  69.456 -43.013  1.00  0.00     0.010 C 
HETATM   11  C19 UNL     1       2.887  69.334 -42.657  1.00  0.00     0.079 C 
HETATM   12  C20 UNL     1       3.089  69.715 -41.206  1.00  0.00     0.138 C 
HETATM   13  O8  UNL     1       4.005  70.481 -40.893  1.00  0.00    -0.297 OA
HETATM   14  C21 UNL     1       2.104  69.150 -40.154  1.00  0.00     0.054 C 
HETATM   15  C22 UNL     1       1.344  70.420 -39.655  1.00  0.00     0.027 C 
HETATM   16  C23 UNL     1       2.863  68.526 -38.926  1.00  0.00     0.011 C 
HETATM   17  C24 UNL     1       4.236  67.867 -39.208  1.00  0.00     0.007 C 
HETATM   18  C25 UNL     1       5.037  67.540 -37.922  1.00  0.00     0.013 C 
HETATM   19  C26 UNL     1       4.173  67.216 -36.678  1.00  0.00    -0.006 C 
HETATM   20  C27 UNL     1       3.988  68.489 -35.809  1.00  0.00     0.019 C 
ENDROOT
BRANCH   1  21
HETATM   21  C7  UNL     1       5.925  66.200 -34.825  1.00  0.00     0.085 C 
HETATM   22  C8  UNL     1       7.051  66.984 -35.523  1.00  0.00     0.049 C 
BRANCH  21  23
HETATM   23  C6  UNL     1       6.481  64.797 -34.346  1.00  0.00     0.170 C 
HETATM   24  O3  UNL     1       7.925  64.791 -34.409  1.00  0.00    -0.309 OA
HETATM   25  C5  UNL     1       8.632  63.670 -34.132  1.00  0.00     0.292 C 
HETATM   26  C3  UNL     1       7.885  62.381 -34.154  1.00  0.00     0.042 C 
HETATM   27  O2  UNL     1       9.836  63.719 -33.913  1.00  0.00    -0.260 OA
HETATM   28  C2  UNL     1       6.646  62.336 -34.693  1.00  0.00    -0.067 C 
HETATM   29  C1  UNL     1       5.836  61.083 -34.889  1.00  0.00     0.044 C 
HETATM   30  C28 UNL     1       5.975  63.605 -35.163  1.00  0.00     0.070 C 
BRANCH  26  31
HETATM   31  C4  UNL     1       8.659  61.182 -33.679  1.00  0.00     0.209 C 
BRANCH  31  32
HETATM   32  O1  UNL     1       8.970  61.283 -32.290  1.00  0.00    -0.396 OA
HETATM   33  H6  UNL     1       8.469  62.023 -31.904  1.00  0.00     0.209 HD
ENDBRANCH  31  32
ENDBRANCH  26  31
ENDBRANCH  21  23
BRANCH  21  34
HETATM   34  O4  UNL     1       5.511  66.953 -33.675  1.00  0.00    -0.387 OA
HETATM   35  H11 UNL     1       6.286  67.388 -33.279  1.00  0.00     0.210 HD
ENDBRANCH  21  34
ENDBRANCH   1  21
BRANCH   4  36
HETATM   36  O5  UNL     1       3.134  65.457 -37.982  1.00  0.00    -0.389 OA
HETATM   37  H17 UNL     1       2.924  65.625 -38.918  1.00  0.00     0.210 HD
ENDBRANCH   4  36
BRANCH   7  38
HETATM   38  O6  UNL     1      -0.805  68.608 -39.382  1.00  0.00    -0.392 OA
HETATM   39  H22 UNL     1      -1.366  68.225 -38.684  1.00  0.00     0.210 HD
ENDBRANCH   7  38
BRANCH   8  40
HETATM   40  O7  UNL     1       1.956  66.964 -41.200  1.00  0.00    -0.386 OA
HETATM   41  H23 UNL     1       1.426  66.392 -41.778  1.00  0.00     0.210 HD
ENDBRANCH   8  40
TORSDOF 8
ENDMDL
MODEL 3
REMARK minimizedAffinity -9.15085793
REMARK CNNscore 0.619266629
REMARK CNNaffinity 5.92810822
REMARK  8 active torsions:
REMARK  status: ('A' for Active; 'I' for Inactive)
REMARK    1  A    between atoms: C3_3  and  C4_4 
REMARK    2  A    between atoms: C4_4  and  O1_5 
REMARK    3  A    between atoms: C6_9  and  C7_10 
REMARK    4  A    between atoms: C7_10  and  O4_12 
REMARK    5  A    between atoms: C7_10  and  C9_13 
REMARK    6  A    between atoms: C12_16  and  O5_17 
REMARK    7  A    between atoms: C15_20  and  O6_21 
REMARK    8  A    between atoms: C16_22  and  O7_23 
ROOT
HETATM    1  C9  UNL     1     -13.773  44.674 -28.037  1.00  0.00     0.033 C 
HETATM    2  C10 UNL     1     -14.345  46.118 -27.903  1.00  0.00     0.011 C 
HETATM    3  C11 UNL     1     -13.198  47.109 -28.177  1.00  0.00     0.039 C 
HETATM    4  C12 UNL     1     -12.066  46.232 -28.703  1.00  0.00     0.070 C 
HETATM    5  C13 UNL     1     -10.639  46.853 -28.630  1.00  0.00     0.028 C 
HETATM    6  C14 UNL     1     -10.514  48.026 -29.640  1.00  0.00     0.043 C 
HETATM    7  C15 UNL     1      -9.100  48.413 -30.060  1.00  0.00     0.154 C 
HETATM    8  C16 UNL     1      -8.255  47.159 -30.398  1.00  0.00     0.098 C 
HETATM    9  C17 UNL     1      -6.886  47.569 -30.985  1.00  0.00     0.042 C 
HETATM   10  C18 UNL     1      -5.870  46.422 -31.070  1.00  0.00     0.010 C 
HETATM   11  C19 UNL     1      -6.468  45.046 -30.843  1.00  0.00     0.079 C 
HETATM   12  C20 UNL     1      -7.198  45.024 -29.518  1.00  0.00     0.138 C 
HETATM   13  O8  UNL     1      -7.023  44.086 -28.734  1.00  0.00    -0.297 OA
HETATM   14  C21 UNL     1      -8.125  46.214 -29.170  1.00  0.00     0.054 C 
HETATM   15  C22 UNL     1      -7.402  46.893 -27.965  1.00  0.00     0.027 C 
HETATM   16  C23 UNL     1      -9.535  45.724 -28.675  1.00  0.00     0.011 C 
HETATM   17  C24 UNL     1     -10.077  44.406 -29.283  1.00  0.00     0.007 C 
HETATM   18  C25 UNL     1     -11.318  43.850 -28.541  1.00  0.00     0.013 C 
HETATM   19  C26 UNL     1     -12.222  44.923 -27.884  1.00  0.00    -0.006 C 
HETATM   20  C27 UNL     1     -11.848  45.094 -26.387  1.00  0.00     0.019 C 
ENDROOT
BRANCH   1  21
HETATM   21  C7  UNL     1     -14.516  43.596 -27.166  1.00  0.00     0.085 C 
HETATM   22  C8  UNL     1     -15.275  42.605 -28.068  1.00  0.00     0.049 C 
BRANCH  21  23
HETATM   23  C6  UNL     1     -15.532  44.278 -26.164  1.00  0.00     0.170 C 
HETATM   24  O3  UNL     1     -16.727  44.682 -26.870  1.00  0.00    -0.309 OA
HETATM   25  C5  UNL     1     -17.712  45.369 -26.244  1.00  0.00     0.292 C 
HETATM   26  C3  UNL     1     -17.358  46.025 -24.954  1.00  0.00     0.042 C 
HETATM   27  O2  UNL     1     -18.826  45.473 -26.741  1.00  0.00    -0.260 OA
HETATM   28  C2  UNL     1     -16.059  46.143 -24.598  1.00  0.00    -0.067 C 
HETATM   29  C1  UNL     1     -15.561  46.889 -23.390  1.00  0.00     0.044 C 
HETATM   30  C28 UNL     1     -14.979  45.512 -25.445  1.00  0.00     0.070 C 
BRANCH  26  31
HETATM   31  C4  UNL     1     -18.512  46.633 -24.204  1.00  0.00     0.209 C 
BRANCH  31  32
HETATM   32  O1  UNL     1     -19.057  47.748 -24.909  1.00  0.00    -0.396 OA
HETATM   33  H6  UNL     1     -18.680  47.773 -25.806  1.00  0.00     0.209 HD
ENDBRANCH  31  32
ENDBRANCH  26  31
ENDBRANCH  21  23
BRANCH  21  34
HETATM   34  O4  UNL     1     -13.547  42.851 -26.412  1.00  0.00    -0.387 OA
HETATM   35  H11 UNL     1     -13.917  41.980 -26.184  1.00  0.00     0.210 HD
ENDBRANCH  21  34
ENDBRANCH   1  21
BRANCH   4  36
HETATM   36  O5  UNL     1     -12.430  45.943 -30.073  1.00  0.00    -0.389 OA
HETATM   37  H17 UNL     1     -11.645  45.989 -30.648  1.00  0.00     0.210 HD
ENDBRANCH   4  36
BRANCH   7  38
HETATM   38  O6  UNL     1      -8.494  49.248 -29.077  1.00  0.00    -0.392 OA
HETATM   39  H22 UNL     1      -9.133  49.947 -28.849  1.00  0.00     0.210 HD
ENDBRANCH   7  38
BRANCH   8  40
HETATM   40  O7  UNL     1      -8.977  46.445 -31.431  1.00  0.00    -0.386 OA
HETATM   41  H23 UNL     1      -8.907  46.943 -32.263  1.00  0.00     0.210 HD
ENDBRANCH   8  40
TORSDOF 8
ENDMDL
MODEL 4
REMARK minimizedAffinity -9.68845558
REMARK CNNscore 0.611534595
REMARK CNNaffinity 5.62860727
REMARK  8 active torsions:
REMARK  status: ('A' for Active; 'I' for Inactive)
REMARK    1  A    between atoms: C3_3  and  C4_4 
REMARK    2  A    between atoms: C4_4  and  O1_5 
REMARK    3  A    between atoms: C6_9  and  C7_10 
REMARK    4  A    between atoms: C7_10  and  O4_12 
REMARK    5  A    between atoms: C7_10  and  C9_13 
REMARK    6  A    between atoms: C12_16  and  O5_17 
REMARK    7  A    between atoms: C15_20  and  O6_21 
REMARK    8  A    between atoms: C16_22  and  O7_23 
ROOT
HETATM    1  C9  UNL     1       6.482  66.940 -36.570  1.00  0.00     0.033 C 
HETATM    2  C10 UNL     1       7.229  66.644 -37.906  1.00  0.00     0.011 C 
HETATM    3  C11 UNL     1       6.216  66.791 -39.057  1.00  0.00     0.039 C 
HETATM    4  C12 UNL     1       4.987  67.405 -38.396  1.00  0.00     0.070 C 
HETATM    5  C13 UNL     1       3.648  67.248 -39.176  1.00  0.00     0.028 C 
HETATM    6  C14 UNL     1       3.676  68.113 -40.466  1.00  0.00     0.043 C 
HETATM    7  C15 UNL     1       2.324  68.474 -41.072  1.00  0.00     0.154 C 
HETATM    8  C16 UNL     1       1.332  68.948 -39.981  1.00  0.00     0.098 C 
HETATM    9  C17 UNL     1       0.027  69.471 -40.624  1.00  0.00     0.042 C 
HETATM   10  C18 UNL     1      -1.123  69.680 -39.631  1.00  0.00     0.010 C 
HETATM   11  C19 UNL     1      -0.703  69.620 -38.174  1.00  0.00     0.079 C 
HETATM   12  C20 UNL     1       0.011  68.312 -37.907  1.00  0.00     0.138 C 
HETATM   13  O8  UNL     1      -0.285  67.641 -36.913  1.00  0.00    -0.297 OA
HETATM   14  C21 UNL     1       1.077  67.837 -38.923  1.00  0.00     0.054 C 
HETATM   15  C22 UNL     1       0.437  66.554 -39.543  1.00  0.00     0.027 C 
HETATM   16  C23 UNL     1       2.412  67.414 -38.207  1.00  0.00     0.011 C 
HETATM   17  C24 UNL     1       2.788  68.176 -36.912  1.00  0.00     0.007 C 
HETATM   18  C25 UNL     1       3.946  67.514 -36.123  1.00  0.00     0.013 C 
HETATM   19  C26 UNL     1       4.973  66.745 -36.991  1.00  0.00    -0.006 C 
HETATM   20  C27 UNL     1       4.615  65.236 -37.031  1.00  0.00     0.019 C 
ENDROOT
BRANCH   1  21
HETATM   21  C7  UNL     1       7.079  66.207 -35.313  1.00  0.00     0.085 C 
HETATM   22  C8  UNL     1       8.349  65.427 -35.698  1.00  0.00     0.049 C 
BRANCH  21  23
HETATM   23  C6  UNL     1       6.022  65.210 -34.683  1.00  0.00     0.170 C 
HETATM   24  O3  UNL     1       5.801  65.540 -33.293  1.00  0.00    -0.309 OA
HETATM   25  C5  UNL     1       5.002  64.774 -32.512  1.00  0.00     0.292 C 
HETATM   26  C3  UNL     1       4.693  63.403 -33.006  1.00  0.00     0.042 C 
HETATM   27  O2  UNL     1       4.590  65.185 -31.434  1.00  0.00    -0.260 OA
HETATM   28  C2  UNL     1       5.404  62.886 -34.033  1.00  0.00    -0.067 C 
HETATM   29  C1  UNL     1       5.279  61.477 -34.546  1.00  0.00     0.044 C 
HETATM   30  C28 UNL     1       6.426  63.735 -34.753  1.00  0.00     0.070 C 
BRANCH  26  31
HETATM   31  C4  UNL     1       3.672  62.645 -32.202  1.00  0.00     0.209 C 
BRANCH  31  32
HETATM   32  O1  UNL     1       2.897  63.524 -31.387  1.00  0.00    -0.396 OA
HETATM   33  H6  UNL     1       3.076  64.443 -31.653  1.00  0.00     0.209 HD
ENDBRANCH  31  32
ENDBRANCH  26  31
ENDBRANCH  21  23
BRANCH  21  34
HETATM   34  O4  UNL     1       7.443  67.183 -34.327  1.00  0.00    -0.387 OA
HETATM   35  H11 UNL     1       8.130  66.813 -33.745  1.00  0.00     0.210 HD
ENDBRANCH  21  34
ENDBRANCH   1  21
BRANCH   4  36
HETATM   36  O5  UNL     1       5.320  68.803 -38.225  1.00  0.00    -0.389 OA
HETATM   37  H17 UNL     1       4.551  69.361 -38.435  1.00  0.00     0.210 HD
ENDBRANCH   4  36
BRANCH   7  38
HETATM   38  O6  UNL     1       1.822  67.395 -41.856  1.00  0.00    -0.392 OA
HETATM   39  H22 UNL     1       2.541  67.093 -42.439  1.00  0.00     0.210 HD
ENDBRANCH   7  38
BRANCH   8  40
HETATM   40  O7  UNL     1       1.965  70.063 -39.308  1.00  0.00    -0.386 OA
HETATM   41  H23 UNL     1       1.962  70.831 -39.904  1.00  0.00     0.210 HD
ENDBRANCH   8  40
TORSDOF 8
ENDMDL
MODEL 5
REMARK minimizedAffinity -8.49847698
REMARK CNNscore 0.577926695
REMARK CNNaffinity 6.25542784
REMARK  8 active torsions:
REMARK  status: ('A' for Active; 'I' for Inactive)
REMARK    1  A    between atoms: C3_3  and  C4_4 
REMARK    2  A    between atoms: C4_4  and  O1_5 
REMARK    3  A    between atoms: C6_9  and  C7_10 
REMARK    4  A    between atoms: C7_10  and  O4_12 
REMARK    5  A    between atoms: C7_10  and  C9_13 
REMARK    6  A    between atoms: C12_16  and  O5_17 
REMARK    7  A    between atoms: C15_20  and  O6_21 
REMARK    8  A    between atoms: C16_22  and  O7_23 
ROOT
HETATM    1  C9  UNL     1      -1.331  50.845 -16.879  1.00  0.00     0.033 C 
HETATM    2  C10 UNL     1      -0.108  51.480 -17.608  1.00  0.00     0.011 C 
HETATM    3  C11 UNL     1      -0.370  51.406 -19.124  1.00  0.00     0.039 C 
HETATM    4  C12 UNL     1      -1.827  50.966 -19.229  1.00  0.00     0.070 C 
HETATM    5  C13 UNL     1      -2.254  50.357 -20.598  1.00  0.00     0.028 C 
HETATM    6  C14 UNL     1      -2.262  51.457 -21.694  1.00  0.00     0.043 C 
HETATM    7  C15 UNL     1      -3.105  51.175 -22.933  1.00  0.00     0.154 C 
HETATM    8  C16 UNL     1      -4.498  50.619 -22.546  1.00  0.00     0.098 C 
HETATM    9  C17 UNL     1      -5.402  50.499 -23.794  1.00  0.00     0.042 C 
HETATM   10  C18 UNL     1      -6.683  49.686 -23.567  1.00  0.00     0.010 C 
HETATM   11  C19 UNL     1      -6.981  49.393 -22.108  1.00  0.00     0.079 C 
HETATM   12  C20 UNL     1      -5.788  48.710 -21.475  1.00  0.00     0.138 C 
HETATM   13  O8  UNL     1      -5.953  47.707 -20.776  1.00  0.00    -0.297 OA
HETATM   14  C21 UNL     1      -4.379  49.282 -21.761  1.00  0.00     0.054 C 
HETATM   15  C22 UNL     1      -3.695  48.154 -22.597  1.00  0.00     0.027 C 
HETATM   16  C23 UNL     1      -3.551  49.470 -20.436  1.00  0.00     0.011 C 
HETATM   17  C24 UNL     1      -4.344  49.831 -19.155  1.00  0.00     0.007 C 
HETATM   18  C25 UNL     1      -3.505  49.715 -17.858  1.00  0.00     0.013 C 
HETATM   19  C26 UNL     1      -1.991  49.992 -18.032  1.00  0.00    -0.006 C 
HETATM   20  C27 UNL     1      -1.221  48.658 -18.224  1.00  0.00     0.019 C 
ENDROOT
BRANCH   1  21
HETATM   21  C7  UNL     1      -0.996  50.205 -15.482  1.00  0.00     0.085 C 
HETATM   22  C8  UNL     1      -1.612  51.042 -14.346  1.00  0.00     0.049 C 
BRANCH  21  23
HETATM   23  C6  UNL     1       0.568  50.098 -15.267  1.00  0.00     0.170 C 
HETATM   24  O3  UNL     1       0.853  49.260 -14.124  1.00  0.00    -0.309 OA
HETATM   25  C5  UNL     1       2.122  49.086 -13.684  1.00  0.00     0.292 C 
HETATM   26  C3  UNL     1       3.137  50.072 -14.150  1.00  0.00     0.042 C 
HETATM   27  O2  UNL     1       2.404  48.180 -12.909  1.00  0.00    -0.260 OA
HETATM   28  C2  UNL     1       2.733  51.216 -14.747  1.00  0.00    -0.067 C 
HETATM   29  C1  UNL     1       3.641  52.345 -15.150  1.00  0.00     0.044 C 
HETATM   30  C28 UNL     1       1.269  51.441 -15.045  1.00  0.00     0.070 C 
BRANCH  26  31
HETATM   31  C4  UNL     1       4.560  49.753 -13.781  1.00  0.00     0.209 C 
BRANCH  31  32
HETATM   32  O1  UNL     1       4.728  49.694 -12.365  1.00  0.00    -0.396 OA
HETATM   33  H6  UNL     1       3.852  49.702 -11.941  1.00  0.00     0.209 HD
ENDBRANCH  31  32
ENDBRANCH  26  31
ENDBRANCH  21  23
BRANCH  21  34
HETATM   34  O4  UNL     1      -1.566  48.889 -15.418  1.00  0.00    -0.387 OA
HETATM   35  H11 UNL     1      -1.705  48.643 -14.486  1.00  0.00     0.210 HD
ENDBRANCH  21  34
ENDBRANCH   1  21
BRANCH   4  36
HETATM   36  O5  UNL     1      -2.594  52.158 -18.938  1.00  0.00    -0.389 OA
HETATM   37  H17 UNL     1      -3.359  52.222 -19.536  1.00  0.00     0.210 HD
ENDBRANCH   4  36
BRANCH   7  38
HETATM   38  O6  UNL     1      -2.400  50.334 -23.841  1.00  0.00    -0.392 OA
HETATM   39  H22 UNL     1      -1.503  50.700 -23.946  1.00  0.00     0.210 HD
ENDBRANCH   7  38
BRANCH   8  40
HETATM   40  O7  UNL     1      -5.099  51.598 -21.663  1.00  0.00    -0.386 OA
HETATM   41  H23 UNL     1      -5.352  52.377 -22.186  1.00  0.00     0.210 HD
ENDBRANCH   8  40
TORSDOF 8
ENDMDL
MODEL 6
REMARK minimizedAffinity -8.14356518
REMARK CNNscore 0.532424688
REMARK CNNaffinity 5.4275136
REMARK  8 active torsions:
REMARK  status: ('A' for Active; 'I' for Inactive)
REMARK    1  A    between atoms: C3_3  and  C4_4 
REMARK    2  A    between atoms: C4_4  and  O1_5 
REMARK    3  A    between atoms: C6_9  and  C7_10 
REMARK    4  A    between atoms: C7_10  and  O4_12 
REMARK    5  A    between atoms: C7_10  and  C9_13 
REMARK    6  A    between atoms: C12_16  and  O5_17 
REMARK    7  A    between atoms: C15_20  and  O6_21 
REMARK    8  A    between atoms: C16_22  and  O7_23 
ROOT
HETATM    1  C9  UNL     1      -0.034  52.863 -12.041  1.00  0.00     0.033 C 
HETATM    2  C10 UNL     1      -1.148  53.608 -11.243  1.00  0.00     0.011 C 
HETATM    3  C11 UNL     1      -0.490  54.275 -10.021  1.00  0.00     0.039 C 
HETATM    4  C12 UNL     1       1.006  54.116 -10.271  1.00  0.00     0.070 C 
HETATM    5  C13 UNL     1       1.922  54.266  -9.019  1.00  0.00     0.028 C 
HETATM    6  C14 UNL     1       1.922  55.739  -8.528  1.00  0.00     0.043 C 
HETATM    7  C15 UNL     1       3.102  56.167  -7.663  1.00  0.00     0.154 C 
HETATM    8  C16 UNL     1       4.442  55.672  -8.262  1.00  0.00     0.098 C 
HETATM    9  C17 UNL     1       5.637  56.254  -7.475  1.00  0.00     0.042 C 
HETATM   10  C18 UNL     1       6.984  55.593  -7.796  1.00  0.00     0.010 C 
HETATM   11  C19 UNL     1       6.959  54.699  -9.022  1.00  0.00     0.079 C 
HETATM   12  C20 UNL     1       5.870  53.660  -8.868  1.00  0.00     0.138 C 
HETATM   13  O8  UNL     1       6.109  52.476  -9.121  1.00  0.00    -0.297 OA
HETATM   14  C21 UNL     1       4.483  54.120  -8.356  1.00  0.00     0.054 C 
HETATM   15  C22 UNL     1       4.369  53.432  -6.959  1.00  0.00     0.027 C 
HETATM   16  C23 UNL     1       3.320  53.572  -9.263  1.00  0.00     0.011 C 
HETATM   17  C24 UNL     1       3.626  53.396 -10.771  1.00  0.00     0.007 C 
HETATM   18  C25 UNL     1       2.540  52.591 -11.528  1.00  0.00     0.013 C 
HETATM   19  C26 UNL     1       1.107  52.728 -10.958  1.00  0.00    -0.006 C 
HETATM   20  C27 UNL     1       0.799  51.550  -9.995  1.00  0.00     0.019 C 
ENDROOT
BRANCH   1  21
HETATM   21  C7  UNL     1      -0.537  51.616 -12.854  1.00  0.00     0.085 C 
HETATM   22  C8  UNL     1       0.216  50.347 -12.414  1.00  0.00     0.049 C 
BRANCH  21  23
HETATM   23  C6  UNL     1      -0.336  51.833 -14.409  1.00  0.00     0.170 C 
HETATM   24  O3  UNL     1      -1.027  50.798 -15.146  1.00  0.00    -0.309 OA
HETATM   25  C5  UNL     1      -0.931  50.717 -16.494  1.00  0.00     0.292 C 
HETATM   26  C3  UNL     1       0.193  51.456 -17.134  1.00  0.00     0.042 C 
HETATM   27  O2  UNL     1      -1.714  50.035 -17.144  1.00  0.00    -0.260 OA
HETATM   28  C2  UNL     1       1.199  51.937 -16.369  1.00  0.00    -0.067 C 
HETATM   29  C1  UNL     1       2.448  52.588 -16.896  1.00  0.00     0.044 C 
HETATM   30  C28 UNL     1       1.127  51.829 -14.864  1.00  0.00     0.070 C 
BRANCH  26  31
HETATM   31  C4  UNL     1       0.171  51.483 -18.638  1.00  0.00     0.209 C 
BRANCH  31  32
HETATM   32  O1  UNL     1      -0.270  52.749 -19.127  1.00  0.00    -0.396 OA
HETATM   33  H6  UNL     1      -0.297  53.383 -18.389  1.00  0.00     0.209 HD
ENDBRANCH  31  32
ENDBRANCH  26  31
ENDBRANCH  21  23
BRANCH  21  34
HETATM   34  O4  UNL     1      -1.933  51.413 -12.590  1.00  0.00    -0.387 OA
HETATM   35  H11 UNL     1      -2.161  50.482 -12.756  1.00  0.00     0.210 HD
ENDBRANCH  21  34
ENDBRANCH   1  21
BRANCH   4  36
HETATM   36  O5  UNL     1       1.324  55.124 -11.260  1.00  0.00    -0.389 OA
HETATM   37  H17 UNL     1       2.173  55.550 -11.048  1.00  0.00     0.210 HD
ENDBRANCH   4  36
BRANCH   7  38
HETATM   38  O6  UNL     1       2.908  55.760  -6.312  1.00  0.00    -0.392 OA
HETATM   39  H22 UNL     1       2.006  56.020  -6.052  1.00  0.00     0.210 HD
ENDBRANCH   7  38
BRANCH   8  40
HETATM   40  O7  UNL     1       4.508  56.199  -9.610  1.00  0.00    -0.386 OA
HETATM   41  H23 UNL     1       4.671  57.155  -9.565  1.00  0.00     0.210 HD
ENDBRANCH   8  40
TORSDOF 8
ENDMDL
MODEL 7
REMARK minimizedAffinity -9.35937691
REMARK CNNscore 0.528270245
REMARK CNNaffinity 6.06743813
REMARK  8 active torsions:
REMARK  status: ('A' for Active; 'I' for Inactive)
REMARK    1  A    between atoms: C3_3  and  C4_4 
REMARK    2  A    between atoms: C4_4  and  O1_5 
REMARK    3  A    between atoms: C6_9  and  C7_10 
REMARK    4  A    between atoms: C7_10  and  O4_12 
REMARK    5  A    between atoms: C7_10  and  C9_13 
REMARK    6  A    between atoms: C12_16  and  O5_17 
REMARK    7  A    between atoms: C15_20  and  O6_21 
REMARK    8  A    between atoms: C16_22  and  O7_23 
ROOT
HETATM    1  C9  UNL     1      -2.719  49.213 -23.790  1.00  0.00     0.033 C 
HETATM    2  C10 UNL     1      -1.668  50.047 -22.997  1.00  0.00     0.011 C 
HETATM    3  C11 UNL     1      -1.999  49.923 -21.498  1.00  0.00     0.039 C 
HETATM    4  C12 UNL     1      -3.065  48.835 -21.440  1.00  0.00     0.070 C 
HETATM    5  C13 UNL     1      -3.931  48.801 -20.146  1.00  0.00     0.028 C 
HETATM    6  C14 UNL     1      -3.069  48.348 -18.936  1.00  0.00     0.043 C 
HETATM    7  C15 UNL     1      -3.823  47.788 -17.735  1.00  0.00     0.154 C 
HETATM    8  C16 UNL     1      -4.915  46.784 -18.180  1.00  0.00     0.098 C 
HETATM    9  C17 UNL     1      -5.555  46.097 -16.952  1.00  0.00     0.042 C 
HETATM   10  C18 UNL     1      -6.838  45.317 -17.265  1.00  0.00     0.010 C 
HETATM   11  C19 UNL     1      -7.094  45.113 -18.747  1.00  0.00     0.079 C 
HETATM   12  C20 UNL     1      -7.090  46.453 -19.451  1.00  0.00     0.138 C 
HETATM   13  O8  UNL     1      -7.985  46.728 -20.255  1.00  0.00    -0.297 OA
HETATM   14  C21 UNL     1      -5.966  47.460 -19.105  1.00  0.00     0.054 C 
HETATM   15  C22 UNL     1      -6.730  48.622 -18.397  1.00  0.00     0.027 C 
HETATM   16  C23 UNL     1      -5.293  48.043 -20.402  1.00  0.00     0.011 C 
HETATM   17  C24 UNL     1      -5.214  47.110 -21.636  1.00  0.00     0.007 C 
HETATM   18  C25 UNL     1      -4.808  47.844 -22.938  1.00  0.00     0.013 C 
HETATM   19  C26 UNL     1      -3.886  49.072 -22.736  1.00  0.00    -0.006 C 
HETATM   20  C27 UNL     1      -4.731  50.374 -22.690  1.00  0.00     0.019 C 
ENDROOT
BRANCH   1  21
HETATM   21  C7  UNL     1      -2.997  49.732 -25.248  1.00  0.00     0.085 C 
HETATM   22  C8  UNL     1      -2.897  48.575 -26.259  1.00  0.00     0.049 C 
BRANCH  21  23
HETATM   23  C6  UNL     1      -1.973  50.870 -25.650  1.00  0.00     0.170 C 
HETATM   24  O3  UNL     1      -2.556  51.724 -26.660  1.00  0.00    -0.309 OA
HETATM   25  C5  UNL     1      -1.839  52.722 -27.231  1.00  0.00     0.292 C 
HETATM   26  C3  UNL     1      -0.358  52.656 -27.081  1.00  0.00     0.042 C 
HETATM   27  O2  UNL     1      -2.389  53.611 -27.869  1.00  0.00    -0.260 OA
HETATM   28  C2  UNL     1       0.220  51.516 -26.641  1.00  0.00    -0.067 C 
HETATM   29  C1  UNL     1       1.703  51.275 -26.563  1.00  0.00     0.044 C 
HETATM   30  C28 UNL     1      -0.636  50.355 -26.192  1.00  0.00     0.070 C 
BRANCH  26  31
HETATM   31  C4  UNL     1       0.392  53.862 -27.578  1.00  0.00     0.209 C 
BRANCH  31  32
HETATM   32  O1  UNL     1       0.047  55.030 -26.834  1.00  0.00    -0.396 OA
HETATM   33  H6  UNL     1      -0.470  54.768 -26.052  1.00  0.00     0.209 HD
ENDBRANCH  31  32
ENDBRANCH  26  31
ENDBRANCH  21  23
BRANCH  21  34
HETATM   34  O4  UNL     1      -4.330  50.260 -25.315  1.00  0.00    -0.387 OA
HETATM   35  H11 UNL     1      -4.644  50.227 -26.235  1.00  0.00     0.210 HD
ENDBRANCH  21  34
ENDBRANCH   1  21
BRANCH   4  36
HETATM   36  O5  UNL     1      -2.335  47.596 -21.600  1.00  0.00    -0.389 OA
HETATM   37  H17 UNL     1      -2.687  46.916 -20.998  1.00  0.00     0.210 HD
ENDBRANCH   4  36
BRANCH   7  38
HETATM   38  O6  UNL     1      -4.330  48.844 -16.925  1.00  0.00    -0.392 OA
HETATM   39  H22 UNL     1      -3.606  49.480 -16.780  1.00  0.00     0.210 HD
ENDBRANCH   7  38
BRANCH   8  40
HETATM   40  O7  UNL     1      -4.240  45.760 -18.951  1.00  0.00    -0.386 OA
HETATM   41  H23 UNL     1      -3.718  45.206 -18.347  1.00  0.00     0.210 HD
ENDBRANCH   8  40
TORSDOF 8
ENDMDL
MODEL 8
REMARK minimizedAffinity -10.1864357
REMARK CNNscore 0.506490886
REMARK CNNaffinity 5.65052557
REMARK  8 active torsions:
REMARK  status: ('A' for Active; 'I' for Inactive)
REMARK    1  A    between atoms: C3_3  and  C4_4 
REMARK    2  A    between atoms: C4_4  and  O1_5 
REMARK    3  A    between atoms: C6_9  and  C7_10 
REMARK    4  A    between atoms: C7_10  and  O4_12 
REMARK    5  A    between atoms: C7_10  and  C9_13 
REMARK    6  A    between atoms: C12_16  and  O5_17 
REMARK    7  A    between atoms: C15_20  and  O6_21 
REMARK    8  A    between atoms: C16_22  and  O7_23 
ROOT
HETATM    1  C9  UNL     1       4.553  65.914 -34.500  1.00  0.00     0.033 C 
HETATM    2  C10 UNL     1       5.901  66.687 -34.631  1.00  0.00     0.011 C 
HETATM    3  C11 UNL     1       5.797  67.616 -35.855  1.00  0.00     0.039 C 
HETATM    4  C12 UNL     1       4.326  67.548 -36.251  1.00  0.00     0.070 C 
HETATM    5  C13 UNL     1       3.994  67.997 -37.705  1.00  0.00     0.028 C 
HETATM    6  C14 UNL     1       4.206  69.528 -37.854  1.00  0.00     0.043 C 
HETATM    7  C15 UNL     1       3.479  70.206 -39.010  1.00  0.00     0.154 C 
HETATM    8  C16 UNL     1       2.006  69.732 -39.098  1.00  0.00     0.098 C 
HETATM    9  C17 UNL     1       1.235  70.548 -40.160  1.00  0.00     0.042 C 
HETATM   10  C18 UNL     1      -0.133  69.962 -40.532  1.00  0.00     0.010 C 
HETATM   11  C19 UNL     1      -0.612  68.865 -39.599  1.00  0.00     0.079 C 
HETATM   12  C20 UNL     1       0.437  67.778 -39.514  1.00  0.00     0.138 C 
HETATM   13  O8  UNL     1       0.106  66.593 -39.615  1.00  0.00    -0.297 OA
HETATM   14  C21 UNL     1       1.916  68.198 -39.338  1.00  0.00     0.054 C 
HETATM   15  C22 UNL     1       2.578  67.761 -40.682  1.00  0.00     0.027 C 
HETATM   16  C23 UNL     1       2.610  67.397 -38.174  1.00  0.00     0.011 C 
HETATM   17  C24 UNL     1       1.721  66.983 -36.976  1.00  0.00     0.007 C 
HETATM   18  C25 UNL     1       2.402  65.965 -36.028  1.00  0.00     0.013 C 
HETATM   19  C26 UNL     1       3.945  66.074 -35.949  1.00  0.00    -0.006 C 
HETATM   20  C27 UNL     1       4.603  65.063 -36.925  1.00  0.00     0.019 C 
ENDROOT
BRANCH   1  21
HETATM   21  C7  UNL     1       4.674  64.502 -33.819  1.00  0.00     0.085 C 
HETATM   22  C8  UNL     1       4.419  64.611 -32.305  1.00  0.00     0.049 C 
BRANCH  21  23
HETATM   23  C6  UNL     1       6.106  63.874 -34.066  1.00  0.00     0.170 C 
HETATM   24  O3  UNL     1       6.746  64.528 -35.186  1.00  0.00    -0.309 OA
HETATM   25  C5  UNL     1       7.947  64.107 -35.649  1.00  0.00     0.292 C 
HETATM   26  C3  UNL     1       8.384  62.743 -35.240  1.00  0.00     0.042 C 
HETATM   27  O2  UNL     1       8.616  64.807 -36.399  1.00  0.00    -0.260 OA
HETATM   28  C2  UNL     1       7.494  61.897 -34.674  1.00  0.00    -0.067 C 
HETATM   29  C1  UNL     1       7.771  60.459 -34.330  1.00  0.00     0.044 C 
HETATM   30  C28 UNL     1       6.097  62.370 -34.350  1.00  0.00     0.070 C 
BRANCH  26  31
HETATM   31  C4  UNL     1       9.790  62.375 -35.630  1.00  0.00     0.209 C 
BRANCH  31  32
HETATM   32  O1  UNL     1       9.806  61.559 -36.801  1.00  0.00    -0.396 OA
HETATM   33  H6  UNL     1       8.918  61.555 -37.198  1.00  0.00     0.209 HD
ENDBRANCH  31  32
ENDBRANCH  26  31
ENDBRANCH  21  23
BRANCH  21  34
HETATM   34  O4  UNL     1       3.681  63.626 -34.372  1.00  0.00    -0.387 OA
HETATM   35  H11 UNL     1       3.487  62.916 -33.734  1.00  0.00     0.210 HD
ENDBRANCH  21  34
ENDBRANCH   1  21
BRANCH   4  36
HETATM   36  O5  UNL     1       3.646  68.387 -35.288  1.00  0.00    -0.389 OA
HETATM   37  H17 UNL     1       2.959  68.918 -35.728  1.00  0.00     0.210 HD
ENDBRANCH   4  36
BRANCH   7  38
HETATM   38  O6  UNL     1       4.197  70.030 -40.228  1.00  0.00    -0.392 OA
HETATM   39  H22 UNL     1       5.130  70.251 -40.055  1.00  0.00     0.210 HD
ENDBRANCH   7  38
BRANCH   8  40
HETATM   40  O7  UNL     1       1.407  70.015 -37.810  1.00  0.00    -0.386 OA
HETATM   41  H23 UNL     1       1.286  70.974 -37.725  1.00  0.00     0.210 HD
ENDBRANCH   8  40
TORSDOF 8
ENDMDL
MODEL 9
REMARK minimizedAffinity -8.89856434
REMARK CNNscore 0.457630962
REMARK CNNaffinity 6.34516001
REMARK  8 active torsions:
REMARK  status: ('A' for Active; 'I' for Inactive)
REMARK    1  A    between atoms: C3_3  and  C4_4 
REMARK    2  A    between atoms: C4_4  and  O1_5 
REMARK    3  A    between atoms: C6_9  and  C7_10 
REMARK    4  A    between atoms: C7_10  and  O4_12 
REMARK    5  A    between atoms: C7_10  and  C9_13 
REMARK    6  A    between atoms: C12_16  and  O5_17 
REMARK    7  A    between atoms: C15_20  and  O6_21 
REMARK    8  A    between atoms: C16_22  and  O7_23 
ROOT
HETATM    1  C9  UNL     1      -4.423  49.480 -22.584  1.00  0.00     0.033 C 
HETATM    2  C10 UNL     1      -4.097  50.602 -21.552  1.00  0.00     0.011 C 
HETATM    3  C11 UNL     1      -5.081  50.463 -20.375  1.00  0.00     0.039 C 
HETATM    4  C12 UNL     1      -5.780  49.132 -20.629  1.00  0.00     0.070 C 
HETATM    5  C13 UNL     1      -7.136  48.927 -19.890  1.00  0.00     0.028 C 
HETATM    6  C14 UNL     1      -6.897  48.779 -18.363  1.00  0.00     0.043 C 
HETATM    7  C15 UNL     1      -8.002  48.094 -17.566  1.00  0.00     0.154 C 
HETATM    8  C16 UNL     1      -8.497  46.813 -18.284  1.00  0.00     0.098 C 
HETATM    9  C17 UNL     1      -9.490  46.038 -17.390  1.00  0.00     0.042 C 
HETATM   10  C18 UNL     1     -10.259  44.928 -18.119  1.00  0.00     0.010 C 
HETATM   11  C19 UNL     1      -9.711  44.594 -19.494  1.00  0.00     0.079 C 
HETATM   12  C20 UNL     1      -9.650  45.852 -20.333  1.00  0.00     0.138 C 
HETATM   13  O8  UNL     1     -10.076  45.839 -21.492  1.00  0.00    -0.297 OA
HETATM   14  C21 UNL     1      -9.081  47.139 -19.688  1.00  0.00     0.054 C 
HETATM   15  C22 UNL     1     -10.321  48.085 -19.618  1.00  0.00     0.027 C 
HETATM   16  C23 UNL     1      -8.003  47.820 -20.610  1.00  0.00     0.011 C 
HETATM   17  C24 UNL     1      -7.137  46.886 -21.491  1.00  0.00     0.007 C 
HETATM   18  C25 UNL     1      -6.316  47.642 -22.566  1.00  0.00     0.013 C 
HETATM   19  C26 UNL     1      -5.895  49.080 -22.176  1.00  0.00    -0.006 C 
HETATM   20  C27 UNL     1      -6.910  50.108 -22.744  1.00  0.00     0.019 C 
ENDROOT
BRANCH   1  21
HETATM   21  C7  UNL     1      -4.059  49.837 -24.072  1.00  0.00     0.085 C 
HETATM   22  C8  UNL     1      -3.452  48.615 -24.785  1.00  0.00     0.049 C 
BRANCH  21  23
HETATM   23  C6  UNL     1      -3.035  51.042 -24.131  1.00  0.00     0.170 C 
HETATM   24  O3  UNL     1      -2.844  51.461 -25.502  1.00  0.00    -0.309 OA
HETATM   25  C5  UNL     1      -1.943  52.421 -25.821  1.00  0.00     0.292 C 
HETATM   26  C3  UNL     1      -0.906  52.736 -24.800  1.00  0.00     0.042 C 
HETATM   27  O2  UNL     1      -1.967  52.972 -26.915  1.00  0.00    -0.260 OA
HETATM   28  C2  UNL     1      -0.729  51.905 -23.747  1.00  0.00    -0.067 C 
HETATM   29  C1  UNL     1       0.359  52.038 -22.717  1.00  0.00     0.044 C 
HETATM   30  C28 UNL     1      -1.655  50.729 -23.544  1.00  0.00     0.070 C 
BRANCH  26  31
HETATM   31  C4  UNL     1      -0.031  53.918 -25.116  1.00  0.00     0.209 C 
BRANCH  31  32
HETATM   32  O1  UNL     1       0.686  53.722 -26.334  1.00  0.00    -0.396 OA
HETATM   33  H6  UNL     1       0.328  52.941 -26.791  1.00  0.00     0.209 HD
ENDBRANCH  31  32
ENDBRANCH  26  31
ENDBRANCH  21  23
BRANCH  21  34
HETATM   34  O4  UNL     1      -5.255  50.208 -24.773  1.00  0.00    -0.387 OA
HETATM   35  H11 UNL     1      -5.128  50.061 -25.727  1.00  0.00     0.210 HD
ENDBRANCH  21  34
ENDBRANCH   1  21
BRANCH   4  36
HETATM   36  O5  UNL     1      -4.820  48.129 -20.223  1.00  0.00    -0.389 OA
HETATM   37  H17 UNL     1      -5.266  47.408 -19.743  1.00  0.00     0.210 HD
ENDBRANCH   4  36
BRANCH   7  38
HETATM   38  O6  UNL     1      -9.051  49.011 -17.271  1.00  0.00    -0.392 OA
HETATM   39  H22 UNL     1      -8.644  49.823 -16.921  1.00  0.00     0.210 HD
ENDBRANCH   7  38
BRANCH   8  40
HETATM   40  O7  UNL     1      -7.332  45.973 -18.473  1.00  0.00    -0.386 OA
HETATM   41  H23 UNL     1      -7.065  45.609 -17.613  1.00  0.00     0.210 HD
ENDBRANCH   8  40
TORSDOF 8
ENDMDL
