MODEL 1
REMARK minimizedAffinity -6.21409321
REMARK  12 active torsions:
REMARK  status: ('A' for Active; 'I' for Inactive)
REMARK    1  A    between atoms: C2_2  and  C3_3 
REMARK    2  A    between atoms: C3_3  and  C4_4 
REMARK    3  A    between atoms: C3_3  and  C13_17 
REMARK    4  A    between atoms: C4_4  and  O2_6 
REMARK    5  A    between atoms: O2_6  and  C5_7 
REMARK    6  A    between atoms: C5_7  and  C6_8 
REMARK    7  A    between atoms: C6_8  and  O3_9 
REMARK    8  A    between atoms: O3_9  and  C7_10 
REMARK    9  A    between atoms: C7_10  and  C8_11 
REMARK   10  A    between atoms: C8_11  and  N1_12 
REMARK   11  A    between atoms: N1_12  and  C9_13 
REMARK   12  A    between atoms: N1_12  and  C11_15 
ROOT
HETATM    1  C4  UNL     1      -2.978  51.755 -26.075  1.00  0.00     0.267 C 
HETATM    2  O1  UNL     1      -3.051  52.951 -26.330  1.00  0.00    -0.265 OA
ENDROOT
BRANCH   1   3
HETATM    3  C3  UNL     1      -2.110  50.747 -26.824  1.00  0.00     0.118 C 
BRANCH   3   4
HETATM    4  C2  UNL     1      -2.342  49.298 -26.347  1.00  0.00     0.015 C 
HETATM    5  C1  UNL     1      -3.320  48.472 -27.174  1.00  0.00     0.006 C 
ENDBRANCH   3   4
BRANCH   3   6
HETATM    6  C13 UNL     1      -0.638  51.129 -26.887  1.00  0.00    -0.044 A 
HETATM    7  C14 UNL     1      -0.074  51.509 -28.114  1.00  0.00     0.008 A 
HETATM    8  C15 UNL     1       1.278  51.849 -28.203  1.00  0.00     0.001 A 
HETATM    9  C16 UNL     1       2.083  51.808 -27.067  1.00  0.00     0.000 A 
HETATM   10  C17 UNL     1       1.539  51.424 -25.843  1.00  0.00     0.001 A 
HETATM   11  C18 UNL     1       0.188  51.084 -25.753  1.00  0.00     0.008 A 
ENDBRANCH   3   6
ENDBRANCH   1   3
BRANCH   1  12
HETATM   12  O2  UNL     1      -3.663  51.122 -25.077  1.00  0.00    -0.319 OA
BRANCH  12  13
HETATM   13  C5  UNL     1      -4.467  51.952 -24.220  1.00  0.00     0.205 C 
BRANCH  13  14
HETATM   14  C6  UNL     1      -3.655  52.322 -22.981  1.00  0.00     0.194 C 
BRANCH  14  15
HETATM   15  O3  UNL     1      -2.805  51.229 -22.624  1.00  0.00    -0.387 OA
BRANCH  15  16
HETATM   16  C7  UNL     1      -2.560  51.184 -21.216  1.00  0.00     0.198 C 
BRANCH  16  17
HETATM   17  C8  UNL     1      -1.042  51.096 -20.984  1.00  0.00     0.298 C 
BRANCH  17  18
HETATM   18  N1  UNL     1      -0.415  52.389 -20.640  1.00  0.00     0.089 N 
BRANCH  18  19
HETATM   19  C9  UNL     1       0.847  52.587 -21.371  1.00  0.00     0.268 C 
HETATM   20  C10 UNL     1       1.371  54.020 -21.316  1.00  0.00     0.037 C 
ENDBRANCH  18  19
BRANCH  18  21
HETATM   21  C11 UNL     1      -0.291  52.543 -19.180  1.00  0.00     0.268 C 
HETATM   22  C12 UNL     1      -0.101  51.261 -18.374  1.00  0.00     0.037 C 
ENDBRANCH  18  21
ENDBRANCH  17  18
ENDBRANCH  16  17
ENDBRANCH  15  16
ENDBRANCH  14  15
ENDBRANCH  13  14
ENDBRANCH  12  13
ENDBRANCH   1  12
TORSDOF 12
ENDMDL
MODEL 2
REMARK minimizedAffinity -6.13101959
REMARK  12 active torsions:
REMARK  status: ('A' for Active; 'I' for Inactive)
REMARK    1  A    between atoms: C2_2  and  C3_3 
REMARK    2  A    between atoms: C3_3  and  C4_4 
REMARK    3  A    between atoms: C3_3  and  C13_17 
REMARK    4  A    between atoms: C4_4  and  O2_6 
REMARK    5  A    between atoms: O2_6  and  C5_7 
REMARK    6  A    between atoms: C5_7  and  C6_8 
REMARK    7  A    between atoms: C6_8  and  O3_9 
REMARK    8  A    between atoms: O3_9  and  C7_10 
REMARK    9  A    between atoms: C7_10  and  C8_11 
REMARK   10  A    between atoms: C8_11  and  N1_12 
REMARK   11  A    between atoms: N1_12  and  C9_13 
REMARK   12  A    between atoms: N1_12  and  C11_15 
ROOT
HETATM    1  C4  UNL     1      -2.676  50.922 -21.866  1.00  0.00     0.267 C 
HETATM    2  O1  UNL     1      -3.457  51.186 -20.960  1.00  0.00    -0.265 OA
ENDROOT
BRANCH   1   3
HETATM    3  C3  UNL     1      -1.207  50.549 -21.680  1.00  0.00     0.118 C 
BRANCH   3   4
HETATM    4  C2  UNL     1      -1.027  49.227 -20.903  1.00  0.00     0.015 C 
HETATM    5  C1  UNL     1      -1.624  47.985 -21.555  1.00  0.00     0.006 C 
ENDBRANCH   3   4
BRANCH   3   6
HETATM    6  C13 UNL     1      -0.348  51.682 -21.140  1.00  0.00    -0.044 A 
HETATM    7  C14 UNL     1       0.374  52.490 -22.033  1.00  0.00     0.008 A 
HETATM    8  C15 UNL     1       1.182  53.527 -21.563  1.00  0.00     0.001 A 
HETATM    9  C16 UNL     1       1.283  53.766 -20.195  1.00  0.00     0.000 A 
HETATM   10  C17 UNL     1       0.580  52.968 -19.295  1.00  0.00     0.001 A 
HETATM   11  C18 UNL     1      -0.229  51.930 -19.763  1.00  0.00     0.008 A 
ENDBRANCH   3   6
ENDBRANCH   1   3
BRANCH   1  12
HETATM   12  O2  UNL     1      -2.988  50.918 -23.195  1.00  0.00    -0.319 OA
BRANCH  12  13
HETATM   13  C5  UNL     1      -2.925  52.185 -23.875  1.00  0.00     0.205 C 
BRANCH  13  14
HETATM   14  C6  UNL     1      -3.693  52.083 -25.190  1.00  0.00     0.194 C 
BRANCH  14  15
HETATM   15  O3  UNL     1      -3.000  52.817 -26.204  1.00  0.00    -0.387 OA
BRANCH  15  16
HETATM   16  C7  UNL     1      -1.995  52.024 -26.841  1.00  0.00     0.198 C 
BRANCH  16  17
HETATM   17  C8  UNL     1      -1.035  52.962 -27.594  1.00  0.00     0.298 C 
BRANCH  17  18
HETATM   18  N1  UNL     1       0.337  52.978 -27.044  1.00  0.00     0.089 N 
BRANCH  18  19
HETATM   19  C9  UNL     1       1.106  51.801 -27.480  1.00  0.00     0.268 C 
HETATM   20  C10 UNL     1       2.185  51.371 -26.489  1.00  0.00     0.037 C 
ENDBRANCH  18  19
BRANCH  18  21
HETATM   21  C11 UNL     1       0.318  53.174 -25.584  1.00  0.00     0.268 C 
HETATM   22  C12 UNL     1       0.253  54.617 -25.092  1.00  0.00     0.037 C 
ENDBRANCH  18  21
ENDBRANCH  17  18
ENDBRANCH  16  17
ENDBRANCH  15  16
ENDBRANCH  14  15
ENDBRANCH  13  14
ENDBRANCH  12  13
ENDBRANCH   1  12
TORSDOF 12
ENDMDL
MODEL 3
REMARK minimizedAffinity -6.13101101
REMARK  12 active torsions:
REMARK  status: ('A' for Active; 'I' for Inactive)
REMARK    1  A    between atoms: C2_2  and  C3_3 
REMARK    2  A    between atoms: C3_3  and  C4_4 
REMARK    3  A    between atoms: C3_3  and  C13_17 
REMARK    4  A    between atoms: C4_4  and  O2_6 
REMARK    5  A    between atoms: O2_6  and  C5_7 
REMARK    6  A    between atoms: C5_7  and  C6_8 
REMARK    7  A    between atoms: C6_8  and  O3_9 
REMARK    8  A    between atoms: O3_9  and  C7_10 
REMARK    9  A    between atoms: C7_10  and  C8_11 
REMARK   10  A    between atoms: C8_11  and  N1_12 
REMARK   11  A    between atoms: N1_12  and  C9_13 
REMARK   12  A    between atoms: N1_12  and  C11_15 
ROOT
HETATM    1  C4  UNL     1      -3.114  51.712 -26.076  1.00  0.00     0.267 C 
HETATM    2  O1  UNL     1      -3.034  52.933 -26.121  1.00  0.00    -0.265 OA
ENDROOT
BRANCH   1   3
HETATM    3  C3  UNL     1      -2.252  50.744 -26.883  1.00  0.00     0.118 C 
BRANCH   3   4
HETATM    4  C2  UNL     1      -2.457  49.275 -26.457  1.00  0.00     0.015 C 
HETATM    5  C1  UNL     1      -3.437  48.468 -27.299  1.00  0.00     0.006 C 
ENDBRANCH   3   4
BRANCH   3   6
HETATM    6  C13 UNL     1      -0.786  51.145 -26.964  1.00  0.00    -0.044 A 
HETATM    7  C14 UNL     1      -0.257  51.593 -28.184  1.00  0.00     0.008 A 
HETATM    8  C15 UNL     1       1.088  51.952 -28.289  1.00  0.00     0.001 A 
HETATM    9  C16 UNL     1       1.922  51.864 -27.178  1.00  0.00     0.000 A 
HETATM   10  C17 UNL     1       1.414  51.413 -25.962  1.00  0.00     0.001 A 
HETATM   11  C18 UNL     1       0.069  51.053 -25.854  1.00  0.00     0.008 A 
ENDBRANCH   3   6
ENDBRANCH   1   3
BRANCH   1  12
HETATM   12  O2  UNL     1      -3.989  51.010 -25.297  1.00  0.00    -0.319 OA
BRANCH  12  13
HETATM   13  C5  UNL     1      -3.816  51.120 -23.873  1.00  0.00     0.205 C 
BRANCH  13  14
HETATM   14  C6  UNL     1      -2.704  52.124 -23.582  1.00  0.00     0.194 C 
BRANCH  14  15
HETATM   15  O3  UNL     1      -1.662  51.481 -22.843  1.00  0.00    -0.387 OA
BRANCH  15  16
HETATM   16  C7  UNL     1      -2.025  51.286 -21.474  1.00  0.00     0.198 C 
BRANCH  16  17
HETATM   17  C8  UNL     1      -0.834  50.649 -20.737  1.00  0.00     0.298 C 
BRANCH  17  18
HETATM   18  N1  UNL     1       0.030  51.625 -20.042  1.00  0.00     0.089 N 
BRANCH  18  19
HETATM   19  C9  UNL     1      -0.524  51.995 -18.729  1.00  0.00     0.268 C 
HETATM   20  C10 UNL     1       0.407  51.684 -17.560  1.00  0.00     0.037 C 
ENDBRANCH  18  19
BRANCH  18  21
HETATM   21  C11 UNL     1       0.329  52.777 -20.911  1.00  0.00     0.268 C 
HETATM   22  C12 UNL     1       1.288  53.822 -20.349  1.00  0.00     0.037 C 
ENDBRANCH  18  21
ENDBRANCH  17  18
ENDBRANCH  16  17
ENDBRANCH  15  16
ENDBRANCH  14  15
ENDBRANCH  13  14
ENDBRANCH  12  13
ENDBRANCH   1  12
TORSDOF 12
ENDMDL
MODEL 4
REMARK minimizedAffinity -6.0967145
REMARK  12 active torsions:
REMARK  status: ('A' for Active; 'I' for Inactive)
REMARK    1  A    between atoms: C2_2  and  C3_3 
REMARK    2  A    between atoms: C3_3  and  C4_4 
REMARK    3  A    between atoms: C3_3  and  C13_17 
REMARK    4  A    between atoms: C4_4  and  O2_6 
REMARK    5  A    between atoms: O2_6  and  C5_7 
REMARK    6  A    between atoms: C5_7  and  C6_8 
REMARK    7  A    between atoms: C6_8  and  O3_9 
REMARK    8  A    between atoms: O3_9  and  C7_10 
REMARK    9  A    between atoms: C7_10  and  C8_11 
REMARK   10  A    between atoms: C8_11  and  N1_12 
REMARK   11  A    between atoms: N1_12  and  C9_13 
REMARK   12  A    between atoms: N1_12  and  C11_15 
ROOT
HETATM    1  C4  UNL     1      -2.778  51.401 -19.578  1.00  0.00     0.267 C 
HETATM    2  O1  UNL     1      -2.729  51.783 -18.416  1.00  0.00    -0.265 OA
ENDROOT
BRANCH   1   3
HETATM    3  C3  UNL     1      -1.598  50.845 -20.372  1.00  0.00     0.118 C 
BRANCH   3   4
HETATM    4  C2  UNL     1      -0.988  49.586 -19.719  1.00  0.00     0.015 C 
HETATM    5  C1  UNL     1      -0.844  48.370 -20.626  1.00  0.00     0.006 C 
ENDBRANCH   3   4
BRANCH   3   6
HETATM    6  C13 UNL     1      -0.557  51.892 -20.741  1.00  0.00    -0.044 A 
HETATM    7  C14 UNL     1      -0.023  52.720 -19.742  1.00  0.00     0.008 A 
HETATM    8  C15 UNL     1       0.922  53.699 -20.056  1.00  0.00     0.001 A 
HETATM    9  C16 UNL     1       1.341  53.865 -21.373  1.00  0.00     0.000 A 
HETATM   10  C17 UNL     1       0.814  53.057 -22.378  1.00  0.00     0.001 A 
HETATM   11  C18 UNL     1      -0.131  52.077 -22.066  1.00  0.00     0.008 A 
ENDBRANCH   3   6
ENDBRANCH   1   3
BRANCH   1  12
HETATM   12  O2  UNL     1      -3.897  51.409 -20.362  1.00  0.00    -0.319 OA
BRANCH  12  13
HETATM   13  C5  UNL     1      -3.749  50.904 -21.701  1.00  0.00     0.205 C 
BRANCH  13  14
HETATM   14  C6  UNL     1      -3.957  52.047 -22.691  1.00  0.00     0.194 C 
BRANCH  14  15
HETATM   15  O3  UNL     1      -3.176  51.808 -23.865  1.00  0.00    -0.387 OA
BRANCH  15  16
HETATM   16  C7  UNL     1      -3.975  51.844 -25.051  1.00  0.00     0.198 C 
BRANCH  16  17
HETATM   17  C8  UNL     1      -3.051  52.076 -26.258  1.00  0.00     0.298 C 
BRANCH  17  18
HETATM   18  N1  UNL     1      -2.256  50.890 -26.637  1.00  0.00     0.089 N 
BRANCH  18  19
HETATM   19  C9  UNL     1      -0.978  51.274 -27.260  1.00  0.00     0.268 C 
HETATM   20  C10 UNL     1       0.249  50.797 -26.488  1.00  0.00     0.037 C 
ENDBRANCH  18  19
BRANCH  18  21
HETATM   21  C11 UNL     1      -3.058  49.953 -27.445  1.00  0.00     0.268 C 
HETATM   22  C12 UNL     1      -3.242  48.549 -26.875  1.00  0.00     0.037 C 
ENDBRANCH  18  21
ENDBRANCH  17  18
ENDBRANCH  16  17
ENDBRANCH  15  16
ENDBRANCH  14  15
ENDBRANCH  13  14
ENDBRANCH  12  13
ENDBRANCH   1  12
TORSDOF 12
ENDMDL
MODEL 5
REMARK minimizedAffinity -6.08312178
REMARK  12 active torsions:
REMARK  status: ('A' for Active; 'I' for Inactive)
REMARK    1  A    between atoms: C2_2  and  C3_3 
REMARK    2  A    between atoms: C3_3  and  C4_4 
REMARK    3  A    between atoms: C3_3  and  C13_17 
REMARK    4  A    between atoms: C4_4  and  O2_6 
REMARK    5  A    between atoms: O2_6  and  C5_7 
REMARK    6  A    between atoms: C5_7  and  C6_8 
REMARK    7  A    between atoms: C6_8  and  O3_9 
REMARK    8  A    between atoms: O3_9  and  C7_10 
REMARK    9  A    between atoms: C7_10  and  C8_11 
REMARK   10  A    between atoms: C8_11  and  N1_12 
REMARK   11  A    between atoms: N1_12  and  C9_13 
REMARK   12  A    between atoms: N1_12  and  C11_15 
ROOT
HETATM    1  C4  UNL     1      -0.119  53.597 -25.969  1.00  0.00     0.267 C 
HETATM    2  O1  UNL     1       0.175  54.661 -26.499  1.00  0.00    -0.265 OA
ENDROOT
BRANCH   1   3
HETATM    3  C3  UNL     1       0.835  52.727 -25.153  1.00  0.00     0.118 C 
BRANCH   3   4
HETATM    4  C2  UNL     1       1.176  51.399 -25.862  1.00  0.00     0.015 C 
HETATM    5  C1  UNL     1       2.497  51.368 -26.620  1.00  0.00     0.006 C 
ENDBRANCH   3   4
BRANCH   3   6
HETATM    6  C13 UNL     1       0.412  52.542 -23.704  1.00  0.00    -0.044 A 
HETATM    7  C14 UNL     1      -0.502  51.529 -23.374  1.00  0.00     0.008 A 
HETATM    8  C15 UNL     1      -0.919  51.347 -22.054  1.00  0.00     0.001 A 
HETATM    9  C16 UNL     1      -0.431  52.177 -21.048  1.00  0.00     0.000 A 
HETATM   10  C17 UNL     1       0.471  53.192 -21.361  1.00  0.00     0.001 A 
HETATM   11  C18 UNL     1       0.889  53.376 -22.681  1.00  0.00     0.008 A 
ENDBRANCH   3   6
ENDBRANCH   1   3
BRANCH   1  12
HETATM   12  O2  UNL     1      -1.350  53.007 -26.021  1.00  0.00    -0.319 OA
BRANCH  12  13
HETATM   13  C5  UNL     1      -1.803  52.574 -27.316  1.00  0.00     0.205 C 
BRANCH  13  14
HETATM   14  C6  UNL     1      -2.982  51.621 -27.138  1.00  0.00     0.194 C 
BRANCH  14  15
HETATM   15  O3  UNL     1      -2.805  50.481 -27.984  1.00  0.00    -0.387 OA
BRANCH  15  16
HETATM   16  C7  UNL     1      -3.085  49.260 -27.295  1.00  0.00     0.198 C 
BRANCH  16  17
HETATM   17  C8  UNL     1      -2.712  49.436 -25.813  1.00  0.00     0.298 C 
BRANCH  17  18
HETATM   18  N1  UNL     1      -3.436  48.525 -24.903  1.00  0.00     0.089 N 
BRANCH  18  19
HETATM   19  C9  UNL     1      -4.818  48.297 -25.355  1.00  0.00     0.268 C 
HETATM   20  C10 UNL     1      -5.876  48.812 -24.383  1.00  0.00     0.037 C 
ENDBRANCH  18  19
BRANCH  18  21
HETATM   21  C11 UNL     1      -3.331  48.981 -23.505  1.00  0.00     0.268 C 
HETATM   22  C12 UNL     1      -2.635  48.036 -22.531  1.00  0.00     0.037 C 
ENDBRANCH  18  21
ENDBRANCH  17  18
ENDBRANCH  16  17
ENDBRANCH  15  16
ENDBRANCH  14  15
ENDBRANCH  13  14
ENDBRANCH  12  13
ENDBRANCH   1  12
TORSDOF 12
ENDMDL
MODEL 6
REMARK minimizedAffinity -6.04294968
REMARK  12 active torsions:
REMARK  status: ('A' for Active; 'I' for Inactive)
REMARK    1  A    between atoms: C2_2  and  C3_3 
REMARK    2  A    between atoms: C3_3  and  C4_4 
REMARK    3  A    between atoms: C3_3  and  C13_17 
REMARK    4  A    between atoms: C4_4  and  O2_6 
REMARK    5  A    between atoms: O2_6  and  C5_7 
REMARK    6  A    between atoms: C5_7  and  C6_8 
REMARK    7  A    between atoms: C6_8  and  O3_9 
REMARK    8  A    between atoms: O3_9  and  C7_10 
REMARK    9  A    between atoms: C7_10  and  C8_11 
REMARK   10  A    between atoms: C8_11  and  N1_12 
REMARK   11  A    between atoms: N1_12  and  C9_13 
REMARK   12  A    between atoms: N1_12  and  C11_15 
ROOT
HETATM    1  C4  UNL     1      -3.023  51.760 -25.938  1.00  0.00     0.267 C 
HETATM    2  O1  UNL     1      -3.071  52.964 -26.154  1.00  0.00    -0.265 OA
ENDROOT
BRANCH   1   3
HETATM    3  C3  UNL     1      -2.206  50.754 -26.745  1.00  0.00     0.118 C 
BRANCH   3   4
HETATM    4  C2  UNL     1      -2.433  49.300 -26.280  1.00  0.00     0.015 C 
HETATM    5  C1  UNL     1      -3.372  48.464 -27.141  1.00  0.00     0.006 C 
ENDBRANCH   3   4
BRANCH   3   6
HETATM    6  C13 UNL     1      -0.734  51.118 -26.873  1.00  0.00    -0.044 A 
HETATM    7  C14 UNL     1       0.094  51.063 -25.741  1.00  0.00     0.008 A 
HETATM    8  C15 UNL     1       1.445  51.407 -25.829  1.00  0.00     0.001 A 
HETATM    9  C16 UNL     1       1.983  51.815 -27.046  1.00  0.00     0.000 A 
HETATM   10  C17 UNL     1       1.172  51.883 -28.177  1.00  0.00     0.001 A 
HETATM   11  C18 UNL     1      -0.179  51.539 -28.092  1.00  0.00     0.008 A 
ENDBRANCH   3   6
ENDBRANCH   1   3
BRANCH   1  12
HETATM   12  O2  UNL     1      -3.695  51.113 -24.940  1.00  0.00    -0.319 OA
BRANCH  12  13
HETATM   13  C5  UNL     1      -4.712  51.866 -24.255  1.00  0.00     0.205 C 
BRANCH  13  14
HETATM   14  C6  UNL     1      -5.223  51.050 -23.071  1.00  0.00     0.194 C 
BRANCH  14  15
HETATM   15  O3  UNL     1      -4.708  51.601 -21.856  1.00  0.00    -0.387 OA
BRANCH  15  16
HETATM   16  C7  UNL     1      -3.891  50.663 -21.151  1.00  0.00     0.198 C 
BRANCH  16  17
HETATM   17  C8  UNL     1      -2.468  51.237 -21.043  1.00  0.00     0.298 C 
BRANCH  17  18
HETATM   18  N1  UNL     1      -1.443  50.427 -21.735  1.00  0.00     0.089 N 
BRANCH  18  19
HETATM   19  C9  UNL     1      -1.808  49.001 -21.756  1.00  0.00     0.268 C 
HETATM   20  C10 UNL     1      -0.939  48.131 -20.852  1.00  0.00     0.037 C 
ENDBRANCH  18  19
BRANCH  18  21
HETATM   21  C11 UNL     1      -0.101  50.694 -21.187  1.00  0.00     0.268 C 
HETATM   22  C12 UNL     1       0.585  51.972 -21.660  1.00  0.00     0.037 C 
ENDBRANCH  18  21
ENDBRANCH  17  18
ENDBRANCH  16  17
ENDBRANCH  15  16
ENDBRANCH  14  15
ENDBRANCH  13  14
ENDBRANCH  12  13
ENDBRANCH   1  12
TORSDOF 12
ENDMDL
MODEL 7
REMARK minimizedAffinity -5.94317245
REMARK  12 active torsions:
REMARK  status: ('A' for Active; 'I' for Inactive)
REMARK    1  A    between atoms: C2_2  and  C3_3 
REMARK    2  A    between atoms: C3_3  and  C4_4 
REMARK    3  A    between atoms: C3_3  and  C13_17 
REMARK    4  A    between atoms: C4_4  and  O2_6 
REMARK    5  A    between atoms: O2_6  and  C5_7 
REMARK    6  A    between atoms: C5_7  and  C6_8 
REMARK    7  A    between atoms: C6_8  and  O3_9 
REMARK    8  A    between atoms: O3_9  and  C7_10 
REMARK    9  A    between atoms: C7_10  and  C8_11 
REMARK   10  A    between atoms: C8_11  and  N1_12 
REMARK   11  A    between atoms: N1_12  and  C9_13 
REMARK   12  A    between atoms: N1_12  and  C11_15 
ROOT
HETATM    1  C4  UNL     1      -2.531  51.781 -25.979  1.00  0.00     0.267 C 
HETATM    2  O1  UNL     1      -2.986  52.850 -26.365  1.00  0.00    -0.265 OA
ENDROOT
BRANCH   1   3
HETATM    3  C3  UNL     1      -1.194  51.601 -25.263  1.00  0.00     0.118 C 
BRANCH   3   4
HETATM    4  C2  UNL     1      -1.041  52.546 -24.052  1.00  0.00     0.015 C 
HETATM    5  C1  UNL     1      -1.089  51.884 -22.681  1.00  0.00     0.006 C 
ENDBRANCH   3   4
BRANCH   3   6
HETATM    6  C13 UNL     1       0.009  51.620 -26.193  1.00  0.00    -0.044 A 
HETATM    7  C14 UNL     1       1.301  51.506 -25.656  1.00  0.00     0.008 A 
HETATM    8  C15 UNL     1       2.424  51.536 -26.486  1.00  0.00     0.001 A 
HETATM    9  C16 UNL     1       2.270  51.685 -27.862  1.00  0.00     0.000 A 
HETATM   10  C17 UNL     1       0.995  51.808 -28.409  1.00  0.00     0.001 A 
HETATM   11  C18 UNL     1      -0.129  51.778 -27.581  1.00  0.00     0.008 A 
ENDBRANCH   3   6
ENDBRANCH   1   3
BRANCH   1  12
HETATM   12  O2  UNL     1      -3.142  50.568 -26.126  1.00  0.00    -0.319 OA
BRANCH  12  13
HETATM   13  C5  UNL     1      -3.211  50.040 -27.463  1.00  0.00     0.205 C 
BRANCH  13  14
HETATM   14  C6  UNL     1      -4.093  48.794 -27.462  1.00  0.00     0.194 C 
BRANCH  14  15
HETATM   15  O3  UNL     1      -4.016  48.155 -28.738  1.00  0.00    -0.387 OA
BRANCH  15  16
HETATM   16  C7  UNL     1      -5.269  48.189 -29.427  1.00  0.00     0.198 C 
BRANCH  16  17
HETATM   17  C8  UNL     1      -6.380  47.789 -28.442  1.00  0.00     0.298 C 
BRANCH  17  18
HETATM   18  N1  UNL     1      -7.735  47.805 -29.032  1.00  0.00     0.089 N 
BRANCH  18  19
HETATM   19  C9  UNL     1      -8.443  46.537 -28.789  1.00  0.00     0.268 C 
HETATM   20  C10 UNL     1      -7.520  45.377 -28.425  1.00  0.00     0.037 C 
ENDBRANCH  18  19
BRANCH  18  21
HETATM   21  C11 UNL     1      -7.688  48.202 -30.450  1.00  0.00     0.268 C 
HETATM   22  C12 UNL     1      -8.517  49.422 -30.842  1.00  0.00     0.037 C 
ENDBRANCH  18  21
ENDBRANCH  17  18
ENDBRANCH  16  17
ENDBRANCH  15  16
ENDBRANCH  14  15
ENDBRANCH  13  14
ENDBRANCH  12  13
ENDBRANCH   1  12
TORSDOF 12
ENDMDL
MODEL 8
REMARK minimizedAffinity -5.88968229
REMARK  12 active torsions:
REMARK  status: ('A' for Active; 'I' for Inactive)
REMARK    1  A    between atoms: C2_2  and  C3_3 
REMARK    2  A    between atoms: C3_3  and  C4_4 
REMARK    3  A    between atoms: C3_3  and  C13_17 
REMARK    4  A    between atoms: C4_4  and  O2_6 
REMARK    5  A    between atoms: O2_6  and  C5_7 
REMARK    6  A    between atoms: C5_7  and  C6_8 
REMARK    7  A    between atoms: C6_8  and  O3_9 
REMARK    8  A    between atoms: O3_9  and  C7_10 
REMARK    9  A    between atoms: C7_10  and  C8_11 
REMARK   10  A    between atoms: C8_11  and  N1_12 
REMARK   11  A    between atoms: N1_12  and  C9_13 
REMARK   12  A    between atoms: N1_12  and  C11_15 
ROOT
HETATM    1  C4  UNL     1       0.346  53.903 -25.227  1.00  0.00     0.267 C 
HETATM    2  O1  UNL     1       0.026  54.459 -26.270  1.00  0.00    -0.265 OA
ENDROOT
BRANCH   1   3
HETATM    3  C3  UNL     1      -0.047  52.482 -24.832  1.00  0.00     0.118 C 
BRANCH   3   4
HETATM    4  C2  UNL     1       0.527  51.420 -25.794  1.00  0.00     0.015 C 
HETATM    5  C1  UNL     1       1.979  51.617 -26.213  1.00  0.00     0.006 C 
ENDBRANCH   3   4
BRANCH   3   6
HETATM    6  C13 UNL     1      -1.535  52.306 -24.565  1.00  0.00    -0.044 A 
HETATM    7  C14 UNL     1      -2.008  52.319 -23.244  1.00  0.00     0.008 A 
HETATM    8  C15 UNL     1      -3.366  52.145 -22.971  1.00  0.00     0.001 A 
HETATM    9  C16 UNL     1      -4.268  51.951 -24.014  1.00  0.00     0.000 A 
HETATM   10  C17 UNL     1      -3.812  51.927 -25.331  1.00  0.00     0.001 A 
HETATM   11  C18 UNL     1      -2.454  52.101 -25.606  1.00  0.00     0.008 A 
ENDBRANCH   3   6
ENDBRANCH   1   3
BRANCH   1  12
HETATM   12  O2  UNL     1       1.108  54.462 -24.241  1.00  0.00    -0.319 OA
BRANCH  12  13
HETATM   13  C5  UNL     1       1.151  53.760 -22.985  1.00  0.00     0.205 C 
BRANCH  13  14
HETATM   14  C6  UNL     1       1.727  54.686 -21.917  1.00  0.00     0.194 C 
BRANCH  14  15
HETATM   15  O3  UNL     1       1.408  54.173 -20.621  1.00  0.00    -0.387 OA
BRANCH  15  16
HETATM   16  C7  UNL     1       0.935  52.825 -20.684  1.00  0.00     0.198 C 
BRANCH  16  17
HETATM   17  C8  UNL     1      -0.036  52.591 -19.514  1.00  0.00     0.298 C 
BRANCH  17  18
HETATM   18  N1  UNL     1      -0.275  51.164 -19.214  1.00  0.00     0.089 N 
BRANCH  18  19
HETATM   19  C9  UNL     1      -1.237  50.568 -20.156  1.00  0.00     0.268 C 
HETATM   20  C10 UNL     1      -0.687  49.364 -20.916  1.00  0.00     0.037 C 
ENDBRANCH  18  19
BRANCH  18  21
HETATM   21  C11 UNL     1      -0.632  50.975 -17.796  1.00  0.00     0.268 C 
HETATM   22  C12 UNL     1       0.405  50.277 -16.921  1.00  0.00     0.037 C 
ENDBRANCH  18  21
ENDBRANCH  17  18
ENDBRANCH  16  17
ENDBRANCH  15  16
ENDBRANCH  14  15
ENDBRANCH  13  14
ENDBRANCH  12  13
ENDBRANCH   1  12
TORSDOF 12
ENDMDL
MODEL 9
REMARK minimizedAffinity -5.8893404
REMARK  12 active torsions:
REMARK  status: ('A' for Active; 'I' for Inactive)
REMARK    1  A    between atoms: C2_2  and  C3_3 
REMARK    2  A    between atoms: C3_3  and  C4_4 
REMARK    3  A    between atoms: C3_3  and  C13_17 
REMARK    4  A    between atoms: C4_4  and  O2_6 
REMARK    5  A    between atoms: O2_6  and  C5_7 
REMARK    6  A    between atoms: C5_7  and  C6_8 
REMARK    7  A    between atoms: C6_8  and  O3_9 
REMARK    8  A    between atoms: O3_9  and  C7_10 
REMARK    9  A    between atoms: C7_10  and  C8_11 
REMARK   10  A    between atoms: C8_11  and  N1_12 
REMARK   11  A    between atoms: N1_12  and  C9_13 
REMARK   12  A    between atoms: N1_12  and  C11_15 
ROOT
HETATM    1  C4  UNL     1      -2.820  52.152 -23.026  1.00  0.00     0.267 C 
HETATM    2  O1  UNL     1      -3.919  52.345 -22.523  1.00  0.00    -0.265 OA
ENDROOT
BRANCH   1   3
HETATM    3  C3  UNL     1      -1.584  51.662 -22.274  1.00  0.00     0.118 C 
BRANCH   3   4
HETATM    4  C2  UNL     1      -0.269  52.145 -22.923  1.00  0.00     0.015 C 
HETATM    5  C1  UNL     1       0.744  52.784 -21.979  1.00  0.00     0.006 C 
ENDBRANCH   3   4
BRANCH   3   6
HETATM    6  C13 UNL     1      -1.593  50.169 -21.980  1.00  0.00    -0.044 A 
HETATM    7  C14 UNL     1      -2.449  49.326 -22.706  1.00  0.00     0.008 A 
HETATM    8  C15 UNL     1      -2.488  47.955 -22.446  1.00  0.00     0.001 A 
HETATM    9  C16 UNL     1      -1.677  47.410 -21.454  1.00  0.00     0.000 A 
HETATM   10  C17 UNL     1      -0.829  48.235 -20.719  1.00  0.00     0.001 A 
HETATM   11  C18 UNL     1      -0.788  49.607 -20.978  1.00  0.00     0.008 A 
ENDBRANCH   3   6
ENDBRANCH   1   3
BRANCH   1  12
HETATM   12  O2  UNL     1      -2.513  52.343 -24.343  1.00  0.00    -0.319 OA
BRANCH  12  13
HETATM   13  C5  UNL     1      -3.563  52.088 -25.293  1.00  0.00     0.205 C 
BRANCH  13  14
HETATM   14  C6  UNL     1      -2.949  51.913 -26.679  1.00  0.00     0.194 C 
BRANCH  14  15
HETATM   15  O3  UNL     1      -2.397  50.598 -26.793  1.00  0.00    -0.387 OA
BRANCH  15  16
HETATM   16  C7  UNL     1      -0.970  50.610 -26.689  1.00  0.00     0.198 C 
BRANCH  16  17
HETATM   17  C8  UNL     1      -0.406  51.528 -27.787  1.00  0.00     0.298 C 
BRANCH  17  18
HETATM   18  N1  UNL     1       0.589  52.503 -27.297  1.00  0.00     0.089 N 
BRANCH  18  19
HETATM   19  C9  UNL     1       1.347  51.971 -26.152  1.00  0.00     0.268 C 
HETATM   20  C10 UNL     1       2.651  51.282 -26.545  1.00  0.00     0.037 C 
ENDBRANCH  18  19
BRANCH  18  21
HETATM   21  C11 UNL     1      -0.036  53.814 -27.043  1.00  0.00     0.268 C 
HETATM   22  C12 UNL     1       0.097  54.368 -25.627  1.00  0.00     0.037 C 
ENDBRANCH  18  21
ENDBRANCH  17  18
ENDBRANCH  16  17
ENDBRANCH  15  16
ENDBRANCH  14  15
ENDBRANCH  13  14
ENDBRANCH  12  13
ENDBRANCH   1  12
TORSDOF 12
ENDMDL
