MODEL 1
REMARK minimizedAffinity -9.47389793
REMARK CNNscore 0.686431766
REMARK CNNaffinity 7.27136612
REMARK  4 active torsions:
REMARK  status: ('A' for Active; 'I' for Inactive)
REMARK    1  A    between atoms: C4_4  and  C5_5 
REMARK    2  A    between atoms: C5_5  and  C6_6 
REMARK    3  A    between atoms: C6_6  and  C7_7 
REMARK    4  A    between atoms: C7_7  and  C9_9 
ROOT
HETATM    1  C9  UNL     1       0.323   7.087  10.138  1.00  0.00    -0.002 C 
HETATM    2  C10 UNL     1      -0.123   8.537  10.359  1.00  0.00     0.006 C 
HETATM    3  C11 UNL     1      -1.004   8.473  11.591  1.00  0.00     0.011 C 
HETATM    4  C12 UNL     1      -0.226   7.564  12.570  1.00  0.00    -0.032 C 
HETATM    5  C13 UNL     1       0.821   8.476  13.281  1.00  0.00     0.016 C 
HETATM    6  C14 UNL     1      -1.160   6.938  13.684  1.00  0.00     0.004 C 
HETATM    7  C15 UNL     1      -1.955   8.029  14.437  1.00  0.00     0.007 C 
HETATM    8  C16 UNL     1      -2.953   7.477  15.444  1.00  0.00     0.007 C 
HETATM    9  C17 UNL     1      -4.065   6.616  14.819  1.00  0.00     0.010 C 
HETATM   10  C18 UNL     1      -5.336   7.392  14.327  1.00  0.00     0.018 C 
HETATM   11  C19 UNL     1      -5.999   8.153  15.496  1.00  0.00     0.023 C 
HETATM   12  C20 UNL     1      -5.059   8.387  13.190  1.00  0.00     0.023 C 
HETATM   13  C21 UNL     1      -6.382   6.385  13.813  1.00  0.00     0.135 C 
HETATM   14  O1  UNL     1      -7.563   6.696  13.643  1.00  0.00    -0.297 OA
HETATM   15  C22 UNL     1      -5.929   4.975  13.534  1.00  0.00     0.080 C 
HETATM   16  C23 UNL     1      -4.573   5.019  12.863  1.00  0.00     0.018 C 
HETATM   17  C24 UNL     1      -3.513   5.643  13.762  1.00  0.00    -0.026 A 
HETATM   18  C25 UNL     1      -2.404   4.728  14.225  1.00  0.00     0.021 A 
HETATM   19  C26 UNL     1      -2.082   5.803  13.198  1.00  0.00    -0.027 A 
HETATM   20  C27 UNL     1      -1.755   5.264  11.822  1.00  0.00     0.011 C 
HETATM   21  C28 UNL     1      -0.251   5.121  11.670  1.00  0.00     0.011 C 
HETATM   22  C29 UNL     1       0.477   6.490  11.609  1.00  0.00    -0.032 C 
HETATM   23  C30 UNL     1       1.943   6.216  12.014  1.00  0.00     0.016 C 
ENDROOT
BRANCH   1  24
HETATM   24  C7  UNL     1       1.513   6.946   9.134  1.00  0.00    -0.014 C 
HETATM   25  C8  UNL     1       1.558   8.133   8.159  1.00  0.00     0.010 C 
BRANCH  24  26
HETATM   26  C6  UNL     1       2.877   6.830   9.872  1.00  0.00     0.008 C 
BRANCH  26  27
HETATM   27  C5  UNL     1       3.637   5.522   9.595  1.00  0.00     0.028 C 
BRANCH  27  28
HETATM   28  C4  UNL     1       3.377   5.041   8.192  1.00  0.00    -0.025 C 
HETATM   29  C2  UNL     1       3.935   3.996   7.549  1.00  0.00    -0.091 C 
HETATM   30  C1  UNL     1       3.532   3.671   6.133  1.00  0.00     0.042 C 
HETATM   31  C3  UNL     1       4.969   3.062   8.117  1.00  0.00     0.042 C 
ENDBRANCH  27  28
ENDBRANCH  26  27
ENDBRANCH  24  26
ENDBRANCH   1  24
TORSDOF 4
ENDMDL
MODEL 2
REMARK minimizedAffinity -6.14616394
REMARK CNNscore 0.648524046
REMARK CNNaffinity 6.61872721
REMARK  4 active torsions:
REMARK  status: ('A' for Active; 'I' for Inactive)
REMARK    1  A    between atoms: C4_4  and  C5_5 
REMARK    2  A    between atoms: C5_5  and  C6_6 
REMARK    3  A    between atoms: C6_6  and  C7_7 
REMARK    4  A    between atoms: C7_7  and  C9_9 
ROOT
HETATM    1  C9  UNL     1     -13.820  -9.461  26.912  1.00  0.00    -0.002 C 
HETATM    2  C10 UNL     1     -14.166  -9.435  25.419  1.00  0.00     0.006 C 
HETATM    3  C11 UNL     1     -13.646 -10.758  24.892  1.00  0.00     0.011 C 
HETATM    4  C12 UNL     1     -14.095 -11.793  25.948  1.00  0.00    -0.032 C 
HETATM    5  C13 UNL     1     -15.573 -12.159  25.607  1.00  0.00     0.016 C 
HETATM    6  C14 UNL     1     -13.240 -13.124  25.891  1.00  0.00     0.004 C 
HETATM    7  C15 UNL     1     -13.233 -13.733  24.471  1.00  0.00     0.007 C 
HETATM    8  C16 UNL     1     -12.335 -14.953  24.330  1.00  0.00     0.007 C 
HETATM    9  C17 UNL     1     -10.844 -14.669  24.586  1.00  0.00     0.010 C 
HETATM   10  C18 UNL     1     -10.014 -14.196  23.341  1.00  0.00     0.018 C 
HETATM   11  C19 UNL     1     -10.055 -15.261  22.223  1.00  0.00     0.023 C 
HETATM   12  C20 UNL     1     -10.475 -12.853  22.757  1.00  0.00     0.023 C 
HETATM   13  C21 UNL     1      -8.536 -14.041  23.743  1.00  0.00     0.135 C 
HETATM   14  O1  UNL     1      -7.634 -13.966  22.906  1.00  0.00    -0.297 OA
HETATM   15  C22 UNL     1      -8.202 -14.002  25.212  1.00  0.00     0.080 C 
HETATM   16  C23 UNL     1      -9.240 -13.165  25.929  1.00  0.00     0.018 C 
HETATM   17  C24 UNL     1     -10.634 -13.771  25.819  1.00  0.00    -0.026 A 
HETATM   18  C25 UNL     1     -11.253 -14.264  27.106  1.00  0.00     0.021 A 
HETATM   19  C26 UNL     1     -11.814 -13.005  26.462  1.00  0.00    -0.027 A 
HETATM   20  C27 UNL     1     -11.545 -11.739  27.246  1.00  0.00     0.011 C 
HETATM   21  C28 UNL     1     -12.735 -11.426  28.137  1.00  0.00     0.011 C 
HETATM   22  C29 UNL     1     -13.987 -10.990  27.333  1.00  0.00    -0.032 C 
HETATM   23  C30 UNL     1     -15.201 -11.248  28.253  1.00  0.00     0.016 C 
ENDROOT
BRANCH   1  24
HETATM   24  C7  UNL     1     -14.559  -8.361  27.743  1.00  0.00    -0.014 C 
HETATM   25  C8  UNL     1     -16.084  -8.502  27.616  1.00  0.00     0.010 C 
BRANCH  24  26
HETATM   26  C6  UNL     1     -14.157  -8.408  29.244  1.00  0.00     0.008 C 
BRANCH  26  27
HETATM   27  C5  UNL     1     -12.678  -8.088  29.514  1.00  0.00     0.028 C 
BRANCH  27  28
HETATM   28  C4  UNL     1     -12.513  -6.657  29.955  1.00  0.00    -0.025 C 
HETATM   29  C2  UNL     1     -12.810  -6.111  31.151  1.00  0.00    -0.091 C 
HETATM   30  C1  UNL     1     -12.564  -4.644  31.399  1.00  0.00     0.042 C 
HETATM   31  C3  UNL     1     -13.388  -6.840  32.333  1.00  0.00     0.042 C 
ENDBRANCH  27  28
ENDBRANCH  26  27
ENDBRANCH  24  26
ENDBRANCH   1  24
TORSDOF 4
ENDMDL
MODEL 3
REMARK minimizedAffinity -8.1768589
REMARK CNNscore 0.537323534
REMARK CNNaffinity 7.16935778
REMARK  4 active torsions:
REMARK  status: ('A' for Active; 'I' for Inactive)
REMARK    1  A    between atoms: C4_4  and  C5_5 
REMARK    2  A    between atoms: C5_5  and  C6_6 
REMARK    3  A    between atoms: C6_6  and  C7_7 
REMARK    4  A    between atoms: C7_7  and  C9_9 
ROOT
HETATM    1  C9  UNL     1      -5.840   6.583  13.492  1.00  0.00    -0.002 C 
HETATM    2  C10 UNL     1      -5.272   5.161  13.547  1.00  0.00     0.006 C 
HETATM    3  C11 UNL     1      -3.770   5.357  13.501  1.00  0.00     0.011 C 
HETATM    4  C12 UNL     1      -3.506   6.519  14.486  1.00  0.00    -0.032 C 
HETATM    5  C13 UNL     1      -3.449   5.885  15.911  1.00  0.00     0.016 C 
HETATM    6  C14 UNL     1      -2.119   7.234  14.218  1.00  0.00     0.004 C 
HETATM    7  C15 UNL     1      -0.950   6.223  14.211  1.00  0.00     0.007 C 
HETATM    8  C16 UNL     1       0.392   6.838  13.847  1.00  0.00     0.007 C 
HETATM    9  C17 UNL     1       0.448   7.431  12.428  1.00  0.00     0.010 C 
HETATM   10  C18 UNL     1       0.850   6.434  11.286  1.00  0.00     0.018 C 
HETATM   11  C19 UNL     1       2.251   5.840  11.549  1.00  0.00     0.023 C 
HETATM   12  C20 UNL     1      -0.142   5.280  11.085  1.00  0.00     0.023 C 
HETATM   13  C21 UNL     1       0.945   7.199   9.952  1.00  0.00     0.135 C 
HETATM   14  O1  UNL     1       1.516   6.727   8.966  1.00  0.00    -0.297 OA
HETATM   15  C22 UNL     1       0.329   8.572   9.878  1.00  0.00     0.080 C 
HETATM   16  C23 UNL     1      -0.994   8.557  10.614  1.00  0.00     0.018 C 
HETATM   17  C24 UNL     1      -0.818   8.241  12.094  1.00  0.00    -0.026 A 
HETATM   18  C25 UNL     1      -1.165   9.349  13.061  1.00  0.00     0.021 A 
HETATM   19  C26 UNL     1      -2.087   8.143  12.974  1.00  0.00    -0.027 A 
HETATM   20  C27 UNL     1      -3.441   8.443  12.369  1.00  0.00     0.011 C 
HETATM   21  C28 UNL     1      -4.444   8.726  13.474  1.00  0.00     0.011 C 
HETATM   22  C29 UNL     1      -4.789   7.464  14.307  1.00  0.00    -0.032 C 
HETATM   23  C30 UNL     1      -5.331   7.975  15.661  1.00  0.00     0.016 C 
ENDROOT
BRANCH   1  24
HETATM   24  C7  UNL     1      -7.355   6.666  13.872  1.00  0.00    -0.014 C 
HETATM   25  C8  UNL     1      -8.245   6.196  12.710  1.00  0.00     0.010 C 
BRANCH  24  26
HETATM   26  C6  UNL     1      -7.675   5.826  15.142  1.00  0.00     0.008 C 
BRANCH  26  27
HETATM   27  C5  UNL     1      -8.773   6.425  16.036  1.00  0.00     0.028 C 
BRANCH  27  28
HETATM   28  C4  UNL     1      -8.861   7.917  15.847  1.00  0.00    -0.025 C 
HETATM   29  C2  UNL     1      -9.900   8.642  15.387  1.00  0.00    -0.091 C 
HETATM   30  C1  UNL     1      -9.790  10.142  15.277  1.00  0.00     0.042 C 
HETATM   31  C3  UNL     1     -11.231   8.095  14.951  1.00  0.00     0.042 C 
ENDBRANCH  27  28
ENDBRANCH  26  27
ENDBRANCH  24  26
ENDBRANCH   1  24
TORSDOF 4
ENDMDL
MODEL 4
REMARK minimizedAffinity -8.79463863
REMARK CNNscore 0.520482481
REMARK CNNaffinity 7.0889225
REMARK  4 active torsions:
REMARK  status: ('A' for Active; 'I' for Inactive)
REMARK    1  A    between atoms: C4_4  and  C5_5 
REMARK    2  A    between atoms: C5_5  and  C6_6 
REMARK    3  A    between atoms: C6_6  and  C7_7 
REMARK    4  A    between atoms: C7_7  and  C9_9 
ROOT
HETATM    1  C9  UNL     1      -6.507   6.375  13.353  1.00  0.00    -0.002 C 
HETATM    2  C10 UNL     1      -6.012   7.617  14.102  1.00  0.00     0.006 C 
HETATM    3  C11 UNL     1      -7.261   8.192  14.739  1.00  0.00     0.011 C 
HETATM    4  C12 UNL     1      -7.991   6.963  15.326  1.00  0.00    -0.032 C 
HETATM    5  C13 UNL     1      -7.332   6.679  16.712  1.00  0.00     0.016 C 
HETATM    6  C14 UNL     1      -9.532   7.234  15.569  1.00  0.00     0.004 C 
HETATM    7  C15 UNL     1      -9.757   8.493  16.437  1.00  0.00     0.007 C 
HETATM    8  C16 UNL     1     -11.221   8.866  16.610  1.00  0.00     0.007 C 
HETATM    9  C17 UNL     1     -11.937   9.227  15.296  1.00  0.00     0.010 C 
HETATM   10  C18 UNL     1     -11.841  10.729  14.855  1.00  0.00     0.018 C 
HETATM   11  C19 UNL     1     -12.447  11.654  15.933  1.00  0.00     0.023 C 
HETATM   12  C20 UNL     1     -10.411  11.201  14.551  1.00  0.00     0.023 C 
HETATM   13  C21 UNL     1     -12.676  10.940  13.578  1.00  0.00     0.135 C 
HETATM   14  O1  UNL     1     -13.006  12.063  13.190  1.00  0.00    -0.297 OA
HETATM   15  C22 UNL     1     -13.109   9.721  12.806  1.00  0.00     0.080 C 
HETATM   16  C23 UNL     1     -11.963   8.732  12.768  1.00  0.00     0.018 C 
HETATM   17  C24 UNL     1     -11.583   8.248  14.161  1.00  0.00    -0.026 A 
HETATM   18  C25 UNL     1     -11.829   6.786  14.453  1.00  0.00     0.021 A 
HETATM   19  C26 UNL     1     -10.395   7.267  14.293  1.00  0.00    -0.027 A 
HETATM   20  C27 UNL     1      -9.707   6.753  13.046  1.00  0.00     0.011 C 
HETATM   21  C28 UNL     1      -8.911   5.503  13.378  1.00  0.00     0.011 C 
HETATM   22  C29 UNL     1      -7.677   5.797  14.270  1.00  0.00    -0.032 C 
HETATM   23  C30 UNL     1      -7.318   4.463  14.962  1.00  0.00     0.016 C 
ENDROOT
BRANCH   1  24
HETATM   24  C7  UNL     1      -5.356   5.418  12.901  1.00  0.00    -0.014 C 
HETATM   25  C8  UNL     1      -4.142   5.532  13.837  1.00  0.00     0.010 C 
BRANCH  24  26
HETATM   26  C6  UNL     1      -5.828   3.938  12.843  1.00  0.00     0.008 C 
BRANCH  26  27
HETATM   27  C5  UNL     1      -5.608   3.256  11.483  1.00  0.00     0.028 C 
BRANCH  27  28
HETATM   28  C4  UNL     1      -4.418   2.333  11.534  1.00  0.00    -0.025 C 
HETATM   29  C2  UNL     1      -3.135   2.605  11.225  1.00  0.00    -0.091 C 
HETATM   30  C1  UNL     1      -2.080   1.534  11.349  1.00  0.00     0.042 C 
HETATM   31  C3  UNL     1      -2.605   3.929  10.748  1.00  0.00     0.042 C 
ENDBRANCH  27  28
ENDBRANCH  26  27
ENDBRANCH  24  26
ENDBRANCH   1  24
TORSDOF 4
ENDMDL
MODEL 5
REMARK minimizedAffinity -6.55598593
REMARK CNNscore 0.497310549
REMARK CNNaffinity 5.13147879
REMARK  4 active torsions:
REMARK  status: ('A' for Active; 'I' for Inactive)
REMARK    1  A    between atoms: C4_4  and  C5_5 
REMARK    2  A    between atoms: C5_5  and  C6_6 
REMARK    3  A    between atoms: C6_6  and  C7_7 
REMARK    4  A    between atoms: C7_7  and  C9_9 
ROOT
HETATM    1  C9  UNL     1      -3.444 -10.098   6.511  1.00  0.00    -0.002 C 
HETATM    2  C10 UNL     1      -2.965  -9.079   5.472  1.00  0.00     0.006 C 
HETATM    3  C11 UNL     1      -2.629  -9.917   4.254  1.00  0.00     0.011 C 
HETATM    4  C12 UNL     1      -3.811 -10.906   4.133  1.00  0.00    -0.032 C 
HETATM    5  C13 UNL     1      -4.947 -10.145   3.382  1.00  0.00     0.016 C 
HETATM    6  C14 UNL     1      -3.441 -12.188   3.282  1.00  0.00     0.004 C 
HETATM    7  C15 UNL     1      -2.881 -11.805   1.893  1.00  0.00     0.007 C 
HETATM    8  C16 UNL     1      -2.403 -12.995   1.074  1.00  0.00     0.007 C 
HETATM    9  C17 UNL     1      -1.235 -13.769   1.711  1.00  0.00     0.010 C 
HETATM   10  C18 UNL     1       0.202 -13.243   1.366  1.00  0.00     0.018 C 
HETATM   11  C19 UNL     1       0.447 -13.288  -0.158  1.00  0.00     0.023 C 
HETATM   12  C20 UNL     1       0.483 -11.819   1.866  1.00  0.00     0.023 C 
HETATM   13  C21 UNL     1       1.251 -14.172   2.005  1.00  0.00     0.135 C 
HETATM   14  O1  UNL     1       2.435 -14.160   1.657  1.00  0.00    -0.297 OA
HETATM   15  C22 UNL     1       0.792 -15.129   3.073  1.00  0.00     0.080 C 
HETATM   16  C23 UNL     1      -0.195 -14.421   3.976  1.00  0.00     0.018 C 
HETATM   17  C24 UNL     1      -1.445 -13.985   3.221  1.00  0.00    -0.026 A 
HETATM   18  C25 UNL     1      -2.736 -14.661   3.616  1.00  0.00     0.021 A 
HETATM   19  C26 UNL     1      -2.530 -13.203   3.998  1.00  0.00    -0.027 A 
HETATM   20  C27 UNL     1      -2.365 -12.972   5.485  1.00  0.00     0.011 C 
HETATM   21  C28 UNL     1      -3.705 -12.609   6.099  1.00  0.00     0.011 C 
HETATM   22  C29 UNL     1      -4.207 -11.209   5.658  1.00  0.00    -0.032 C 
HETATM   23  C30 UNL     1      -5.737 -11.211   5.874  1.00  0.00     0.016 C 
ENDROOT
BRANCH   1  24
HETATM   24  C7  UNL     1      -4.172  -9.448   7.733  1.00  0.00    -0.014 C 
HETATM   25  C8  UNL     1      -5.530  -8.859   7.319  1.00  0.00     0.010 C 
BRANCH  24  26
HETATM   26  C6  UNL     1      -4.381 -10.469   8.888  1.00  0.00     0.008 C 
BRANCH  26  27
HETATM   27  C5  UNL     1      -4.183  -9.882  10.295  1.00  0.00     0.028 C 
BRANCH  27  28
HETATM   28  C4  UNL     1      -5.253 -10.372  11.234  1.00  0.00    -0.025 C 
HETATM   29  C2  UNL     1      -6.287  -9.683  11.756  1.00  0.00    -0.091 C 
HETATM   30  C1  UNL     1      -7.263 -10.363  12.683  1.00  0.00     0.042 C 
HETATM   31  C3  UNL     1      -6.597  -8.233  11.503  1.00  0.00     0.042 C 
ENDBRANCH  27  28
ENDBRANCH  26  27
ENDBRANCH  24  26
ENDBRANCH   1  24
TORSDOF 4
ENDMDL
MODEL 6
REMARK minimizedAffinity -8.27790833
REMARK CNNscore 0.433303714
REMARK CNNaffinity 7.14076614
REMARK  4 active torsions:
REMARK  status: ('A' for Active; 'I' for Inactive)
REMARK    1  A    between atoms: C4_4  and  C5_5 
REMARK    2  A    between atoms: C5_5  and  C6_6 
REMARK    3  A    between atoms: C6_6  and  C7_7 
REMARK    4  A    between atoms: C7_7  and  C9_9 
ROOT
HETATM    1  C9  UNL     1      -2.412   7.547  12.727  1.00  0.00    -0.002 C 
HETATM    2  C10 UNL     1      -2.681   8.803  13.564  1.00  0.00     0.006 C 
HETATM    3  C11 UNL     1      -3.926   8.461  14.359  1.00  0.00     0.011 C 
HETATM    4  C12 UNL     1      -3.671   7.023  14.868  1.00  0.00    -0.032 C 
HETATM    5  C13 UNL     1      -2.801   7.159  16.155  1.00  0.00     0.016 C 
HETATM    6  C14 UNL     1      -5.010   6.277  15.263  1.00  0.00     0.004 C 
HETATM    7  C15 UNL     1      -5.838   7.097  16.279  1.00  0.00     0.007 C 
HETATM    8  C16 UNL     1      -7.189   6.480  16.610  1.00  0.00     0.007 C 
HETATM    9  C17 UNL     1      -8.141   6.368  15.406  1.00  0.00     0.010 C 
HETATM   10  C18 UNL     1      -9.038   7.624  15.124  1.00  0.00     0.018 C 
HETATM   11  C19 UNL     1      -9.934   7.939  16.342  1.00  0.00     0.023 C 
HETATM   12  C20 UNL     1      -8.246   8.888  14.758  1.00  0.00     0.023 C 
HETATM   13  C21 UNL     1      -9.988   7.319  13.951  1.00  0.00     0.135 C 
HETATM   14  O1  UNL     1     -10.981   8.012  13.715  1.00  0.00    -0.297 OA
HETATM   15  C22 UNL     1      -9.686   6.121  13.089  1.00  0.00     0.080 C 
HETATM   16  C23 UNL     1      -8.192   6.052  12.850  1.00  0.00     0.018 C 
HETATM   17  C24 UNL     1      -7.417   5.857  14.147  1.00  0.00    -0.026 A 
HETATM   18  C25 UNL     1      -6.682   4.546  14.297  1.00  0.00     0.021 A 
HETATM   19  C26 UNL     1      -5.873   5.815  14.073  1.00  0.00    -0.027 A 
HETATM   20  C27 UNL     1      -5.186   5.880  12.726  1.00  0.00     0.011 C 
HETATM   21  C28 UNL     1      -3.759   5.377  12.853  1.00  0.00     0.011 C 
HETATM   22  C29 UNL     1      -2.855   6.339  13.669  1.00  0.00    -0.032 C 
HETATM   23  C30 UNL     1      -1.671   5.487  14.180  1.00  0.00     0.016 C 
ENDROOT
BRANCH   1  24
HETATM   24  C7  UNL     1      -0.988   7.521  12.081  1.00  0.00    -0.014 C 
HETATM   25  C8  UNL     1       0.100   7.814  13.127  1.00  0.00     0.010 C 
BRANCH  24  26
HETATM   26  C6  UNL     1      -0.692   6.158  11.394  1.00  0.00     0.008 C 
BRANCH  26  27
HETATM   27  C5  UNL     1       0.746   6.011  10.872  1.00  0.00     0.028 C 
BRANCH  27  28
HETATM   28  C4  UNL     1       1.012   6.986   9.756  1.00  0.00    -0.025 C 
HETATM   29  C2  UNL     1       1.967   6.931   8.807  1.00  0.00    -0.091 C 
HETATM   30  C1  UNL     1       2.066   8.014   7.762  1.00  0.00     0.042 C 
HETATM   31  C3  UNL     1       3.002   5.849   8.660  1.00  0.00     0.042 C 
ENDBRANCH  27  28
ENDBRANCH  26  27
ENDBRANCH  24  26
ENDBRANCH   1  24
TORSDOF 4
ENDMDL
MODEL 7
REMARK minimizedAffinity -6.53719139
REMARK CNNscore 0.422866255
REMARK CNNaffinity 6.18083382
REMARK  4 active torsions:
REMARK  status: ('A' for Active; 'I' for Inactive)
REMARK    1  A    between atoms: C4_4  and  C5_5 
REMARK    2  A    between atoms: C5_5  and  C6_6 
REMARK    3  A    between atoms: C6_6  and  C7_7 
REMARK    4  A    between atoms: C7_7  and  C9_9 
ROOT
HETATM    1  C9  UNL     1      -2.353   9.824  15.717  1.00  0.00    -0.002 C 
HETATM    2  C10 UNL     1      -2.806   9.426  17.126  1.00  0.00     0.006 C 
HETATM    3  C11 UNL     1      -1.951  10.275  18.047  1.00  0.00     0.011 C 
HETATM    4  C12 UNL     1      -1.981  11.681  17.406  1.00  0.00    -0.032 C 
HETATM    5  C13 UNL     1      -3.300  12.359  17.892  1.00  0.00     0.016 C 
HETATM    6  C14 UNL     1      -0.769  12.585  17.877  1.00  0.00     0.004 C 
HETATM    7  C15 UNL     1      -0.688  12.667  19.418  1.00  0.00     0.007 C 
HETATM    8  C16 UNL     1       0.525  13.431  19.929  1.00  0.00     0.007 C 
HETATM    9  C17 UNL     1       1.874  12.795  19.551  1.00  0.00     0.010 C 
HETATM   10  C18 UNL     1       2.421  11.711  20.544  1.00  0.00     0.018 C 
HETATM   11  C19 UNL     1       2.619  12.313  21.953  1.00  0.00     0.023 C 
HETATM   12  C20 UNL     1       1.531  10.466  20.664  1.00  0.00     0.023 C 
HETATM   13  C21 UNL     1       3.810  11.241  20.071  1.00  0.00     0.135 C 
HETATM   14  O1  UNL     1       4.578  10.621  20.810  1.00  0.00    -0.297 OA
HETATM   15  C22 UNL     1       4.229  11.576  18.664  1.00  0.00     0.080 C 
HETATM   16  C23 UNL     1       3.045  11.385  17.740  1.00  0.00     0.018 C 
HETATM   17  C24 UNL     1       1.897  12.326  18.084  1.00  0.00    -0.026 A 
HETATM   18  C25 UNL     1       1.558  13.376  17.052  1.00  0.00     0.021 A 
HETATM   19  C26 UNL     1       0.593  12.218  17.259  1.00  0.00    -0.027 A 
HETATM   20  C27 UNL     1       0.525  11.256  16.091  1.00  0.00     0.011 C 
HETATM   21  C28 UNL     1      -0.630  11.636  15.182  1.00  0.00     0.011 C 
HETATM   22  C29 UNL     1      -2.015  11.378  15.832  1.00  0.00    -0.032 C 
HETATM   23  C30 UNL     1      -3.017  12.285  15.084  1.00  0.00     0.016 C 
ENDROOT
BRANCH   1  24
HETATM   24  C7  UNL     1      -3.324   9.340  14.590  1.00  0.00    -0.014 C 
HETATM   25  C8  UNL     1      -2.553   8.996  13.305  1.00  0.00     0.010 C 
BRANCH  24  26
HETATM   26  C6  UNL     1      -4.159   8.108  15.040  1.00  0.00     0.008 C 
BRANCH  26  27
HETATM   27  C5  UNL     1      -5.347   7.780  14.122  1.00  0.00     0.028 C 
BRANCH  27  28
HETATM   28  C4  UNL     1      -5.147   6.451  13.442  1.00  0.00    -0.025 C 
HETATM   29  C2  UNL     1      -5.941   5.363  13.483  1.00  0.00    -0.091 C 
HETATM   30  C1  UNL     1      -5.564   4.117  12.721  1.00  0.00     0.042 C 
HETATM   31  C3  UNL     1      -7.235   5.245  14.241  1.00  0.00     0.042 C 
ENDBRANCH  27  28
ENDBRANCH  26  27
ENDBRANCH  24  26
ENDBRANCH   1  24
TORSDOF 4
ENDMDL
MODEL 8
REMARK minimizedAffinity -8.48808384
REMARK CNNscore 0.422089547
REMARK CNNaffinity 6.9847579
REMARK  4 active torsions:
REMARK  status: ('A' for Active; 'I' for Inactive)
REMARK    1  A    between atoms: C4_4  and  C5_5 
REMARK    2  A    between atoms: C5_5  and  C6_6 
REMARK    3  A    between atoms: C6_6  and  C7_7 
REMARK    4  A    between atoms: C7_7  and  C9_9 
ROOT
HETATM    1  C9  UNL     1      -0.122   8.048  12.019  1.00  0.00    -0.002 C 
HETATM    2  C10 UNL     1      -0.942   9.249  12.505  1.00  0.00     0.006 C 
HETATM    3  C11 UNL     1      -2.088   8.629  13.281  1.00  0.00     0.011 C 
HETATM    4  C12 UNL     1      -1.419   7.532  14.139  1.00  0.00    -0.032 C 
HETATM    5  C13 UNL     1      -0.855   8.246  15.407  1.00  0.00     0.016 C 
HETATM    6  C14 UNL     1      -2.449   6.430  14.620  1.00  0.00     0.004 C 
HETATM    7  C15 UNL     1      -3.656   7.061  15.351  1.00  0.00     0.007 C 
HETATM    8  C16 UNL     1      -4.733   6.059  15.737  1.00  0.00     0.007 C 
HETATM    9  C17 UNL     1      -5.392   5.352  14.540  1.00  0.00     0.010 C 
HETATM   10  C18 UNL     1      -6.623   6.088  13.904  1.00  0.00     0.018 C 
HETATM   11  C19 UNL     1      -7.744   6.279  14.950  1.00  0.00     0.023 C 
HETATM   12  C20 UNL     1      -6.286   7.455  13.291  1.00  0.00     0.023 C 
HETATM   13  C21 UNL     1      -7.216   5.214  12.784  1.00  0.00     0.135 C 
HETATM   14  O1  UNL     1      -8.343   5.414  12.324  1.00  0.00    -0.297 OA
HETATM   15  C22 UNL     1      -6.384   4.072  12.260  1.00  0.00     0.080 C 
HETATM   16  C23 UNL     1      -4.946   4.529  12.140  1.00  0.00     0.018 C 
HETATM   17  C24 UNL     1      -4.355   4.910  13.491  1.00  0.00    -0.026 A 
HETATM   18  C25 UNL     1      -3.233   4.037  14.003  1.00  0.00     0.021 A 
HETATM   19  C26 UNL     1      -2.903   5.444  13.527  1.00  0.00    -0.027 A 
HETATM   20  C27 UNL     1      -2.091   5.490  12.251  1.00  0.00     0.011 C 
HETATM   21  C28 UNL     1      -0.615   5.604  12.586  1.00  0.00     0.011 C 
HETATM   22  C29 UNL     1      -0.244   6.980  13.197  1.00  0.00    -0.032 C 
HETATM   23  C30 UNL     1       1.075   6.765  13.975  1.00  0.00     0.016 C 
ENDROOT
BRANCH   1  24
HETATM   24  C7  UNL     1       1.298   8.435  11.490  1.00  0.00    -0.014 C 
HETATM   25  C8  UNL     1       2.121   9.143  12.579  1.00  0.00     0.010 C 
BRANCH  24  26
HETATM   26  C6  UNL     1       2.078   7.192  10.976  1.00  0.00     0.008 C 
BRANCH  26  27
HETATM   27  C5  UNL     1       3.259   7.525  10.050  1.00  0.00     0.028 C 
BRANCH  27  28
HETATM   28  C4  UNL     1       2.978   7.070   8.642  1.00  0.00    -0.025 C 
HETATM   29  C2  UNL     1       1.968   7.439   7.830  1.00  0.00    -0.091 C 
HETATM   30  C1  UNL     1       1.864   6.869   6.438  1.00  0.00     0.042 C 
HETATM   31  C3  UNL     1       0.873   8.413   8.172  1.00  0.00     0.042 C 
ENDBRANCH  27  28
ENDBRANCH  26  27
ENDBRANCH  24  26
ENDBRANCH   1  24
TORSDOF 4
ENDMDL
MODEL 9
REMARK minimizedAffinity -6.17701244
REMARK CNNscore 0.340257972
REMARK CNNaffinity 5.41154242
REMARK  4 active torsions:
REMARK  status: ('A' for Active; 'I' for Inactive)
REMARK    1  A    between atoms: C4_4  and  C5_5 
REMARK    2  A    between atoms: C5_5  and  C6_6 
REMARK    3  A    between atoms: C6_6  and  C7_7 
REMARK    4  A    between atoms: C7_7  and  C9_9 
ROOT
HETATM    1  C9  UNL     1     -13.931  -6.545  14.706  1.00  0.00    -0.002 C 
HETATM    2  C10 UNL     1     -12.601  -6.510  13.944  1.00  0.00     0.006 C 
HETATM    3  C11 UNL     1     -12.941  -5.830  12.632  1.00  0.00     0.011 C 
HETATM    4  C12 UNL     1     -13.828  -4.632  13.041  1.00  0.00    -0.032 C 
HETATM    5  C13 UNL     1     -12.855  -3.487  13.462  1.00  0.00     0.016 C 
HETATM    6  C14 UNL     1     -14.713  -4.100  11.841  1.00  0.00     0.004 C 
HETATM    7  C15 UNL     1     -13.851  -3.768  10.602  1.00  0.00     0.007 C 
HETATM    8  C16 UNL     1     -14.660  -3.358   9.382  1.00  0.00     0.007 C 
HETATM    9  C17 UNL     1     -15.603  -4.455   8.856  1.00  0.00     0.010 C 
HETATM   10  C18 UNL     1     -14.978  -5.457   7.823  1.00  0.00     0.018 C 
HETATM   11  C19 UNL     1     -14.467  -4.705   6.574  1.00  0.00     0.023 C 
HETATM   12  C20 UNL     1     -13.828  -6.302   8.390  1.00  0.00     0.023 C 
HETATM   13  C21 UNL     1     -16.067  -6.429   7.332  1.00  0.00     0.135 C 
HETATM   14  O1  UNL     1     -15.921  -7.118   6.320  1.00  0.00    -0.297 OA
HETATM   15  C22 UNL     1     -17.349  -6.511   8.119  1.00  0.00     0.080 C 
HETATM   16  C23 UNL     1     -17.022  -6.474   9.597  1.00  0.00     0.018 C 
HETATM   17  C24 UNL     1     -16.352  -5.166   9.998  1.00  0.00    -0.026 A 
HETATM   18  C25 UNL     1     -17.135  -4.270  10.929  1.00  0.00     0.021 A 
HETATM   19  C26 UNL     1     -15.912  -4.995  11.471  1.00  0.00    -0.027 A 
HETATM   20  C27 UNL     1     -16.232  -6.079  12.478  1.00  0.00     0.011 C 
HETATM   21  C28 UNL     1     -16.125  -5.518  13.886  1.00  0.00     0.011 C 
HETATM   22  C29 UNL     1     -14.664  -5.191  14.290  1.00  0.00    -0.032 C 
HETATM   23  C30 UNL     1     -14.756  -4.160  15.438  1.00  0.00     0.016 C 
ENDROOT
BRANCH   1  24
HETATM   24  C7  UNL     1     -13.772  -6.885  16.224  1.00  0.00    -0.014 C 
HETATM   25  C8  UNL     1     -14.406  -8.246  16.557  1.00  0.00     0.010 C 
BRANCH  24  26
HETATM   26  C6  UNL     1     -12.279  -6.890  16.659  1.00  0.00     0.008 C 
BRANCH  26  27
HETATM   27  C5  UNL     1     -11.667  -8.293  16.804  1.00  0.00     0.028 C 
BRANCH  27  28
HETATM   28  C4  UNL     1     -10.499  -8.270  17.754  1.00  0.00    -0.025 C 
HETATM   29  C2  UNL     1     -10.083  -9.240  18.592  1.00  0.00    -0.091 C 
HETATM   30  C1  UNL     1      -8.874  -9.022  19.468  1.00  0.00     0.042 C 
HETATM   31  C3  UNL     1     -10.720 -10.593  18.759  1.00  0.00     0.042 C 
ENDBRANCH  27  28
ENDBRANCH  26  27
ENDBRANCH  24  26
ENDBRANCH   1  24
TORSDOF 4
ENDMDL
