MODEL 1
REMARK minimizedAffinity -7.75002241
REMARK CNNscore 0.780635536
REMARK CNNaffinity 6.99550676
REMARK  6 active torsions:
REMARK  status: ('A' for Active; 'I' for Inactive)
REMARK    1  A    between atoms: C2_2  and  C30_31 
REMARK    2  A    between atoms: C3_3  and  C4_4 
REMARK    3  A    between atoms: C4_4  and  C5_5 
REMARK    4  A    between atoms: C5_5  and  C6_6 
REMARK    5  A    between atoms: C6_6  and  C8_8 
REMARK    6  A    between atoms: C30_31  and  O3_33 
ROOT
HETATM    1  C8  UNL     1       4.715  55.308  -8.896  1.00  0.00    -0.002 C 
HETATM    2  C9  UNL     1       4.035  56.548  -8.232  1.00  0.00     0.007 C 
HETATM    3  C10 UNL     1       2.508  56.392  -8.418  1.00  0.00     0.015 C 
HETATM    4  C11 UNL     1       2.359  55.266  -9.455  1.00  0.00    -0.013 C 
HETATM    5  C12 UNL     1       2.578  55.932 -10.860  1.00  0.00     0.021 C 
HETATM    6  C13 UNL     1       1.019  54.525  -9.560  1.00  0.00    -0.070 C 
HETATM    7  C14 UNL     1      -0.131  55.213  -9.625  1.00  0.00    -0.022 C 
HETATM    8  C15 UNL     1      -1.425  54.631 -10.082  1.00  0.00     0.034 C 
HETATM    9  C16 UNL     1      -1.252  53.350 -10.943  1.00  0.00     0.013 C 
HETATM   10  C17 UNL     1      -2.638  52.736 -11.385  1.00  0.00     0.018 C 
HETATM   11  C18 UNL     1      -2.542  52.215 -12.838  1.00  0.00     0.023 C 
HETATM   12  C19 UNL     1      -3.813  53.735 -11.364  1.00  0.00     0.023 C 
HETATM   13  C20 UNL     1      -3.035  51.586 -10.451  1.00  0.00     0.135 C 
HETATM   14  O1  UNL     1      -3.788  50.681 -10.812  1.00  0.00    -0.297 OA
HETATM   15  C21 UNL     1      -2.550  51.649  -9.022  1.00  0.00     0.080 C 
HETATM   16  C22 UNL     1      -1.046  51.885  -8.891  1.00  0.00     0.017 C 
HETATM   17  C23 UNL     1      -0.313  52.334 -10.199  1.00  0.00    -0.031 C 
HETATM   18  C24 UNL     1      -0.039  51.053 -11.026  1.00  0.00     0.016 C 
HETATM   19  C25 UNL     1       1.075  53.008  -9.791  1.00  0.00     0.024 C 
HETATM   20  C26 UNL     1       2.311  52.681 -10.665  1.00  0.00     0.010 C 
HETATM   21  C27 UNL     1       3.658  53.198 -10.088  1.00  0.00     0.011 C 
HETATM   22  C28 UNL     1       3.519  54.304  -9.016  1.00  0.00    -0.029 C 
HETATM   23  C29 UNL     1       3.303  53.666  -7.603  1.00  0.00     0.016 C 
ENDROOT
BRANCH   1  24
HETATM   24  C6  UNL     1       6.015  54.871  -8.163  1.00  0.00    -0.014 C 
HETATM   25  C7  UNL     1       7.024  54.208  -9.106  1.00  0.00     0.010 C 
BRANCH  24  26
HETATM   26  C5  UNL     1       6.694  56.033  -7.390  1.00  0.00     0.008 C 
BRANCH  26  27
HETATM   27  C4  UNL     1       7.073  55.723  -5.936  1.00  0.00     0.028 C 
BRANCH  27  28
HETATM   28  C3  UNL     1       8.342  56.437  -5.556  1.00  0.00    -0.013 C 
HETATM   29  C2  UNL     1       8.482  57.700  -5.102  1.00  0.00     0.008 C 
HETATM   30  C1  UNL     1       7.378  58.689  -4.865  1.00  0.00     0.055 C 
BRANCH  29  31
HETATM   31  C30 UNL     1       9.871  58.142  -4.803  1.00  0.00     0.171 C 
HETATM   32  O2  UNL     1      10.445  59.110  -5.271  1.00  0.00    -0.646 OA
BRANCH  31  33
HETATM   33  O3  UNL     1      10.485  57.338  -3.921  1.00  0.00    -0.773 OA
HETATM   34  H46 UNL     1      11.371  57.744  -3.824  1.00  0.00     0.167 HD
ENDBRANCH  31  33
ENDBRANCH  29  31
ENDBRANCH  27  28
ENDBRANCH  26  27
ENDBRANCH  24  26
ENDBRANCH   1  24
TORSDOF 6
ENDMDL
MODEL 2
REMARK minimizedAffinity -8.11864185
REMARK CNNscore 0.660607755
REMARK CNNaffinity 7.00691652
REMARK  6 active torsions:
REMARK  status: ('A' for Active; 'I' for Inactive)
REMARK    1  A    between atoms: C2_2  and  C30_31 
REMARK    2  A    between atoms: C3_3  and  C4_4 
REMARK    3  A    between atoms: C4_4  and  C5_5 
REMARK    4  A    between atoms: C5_5  and  C6_6 
REMARK    5  A    between atoms: C6_6  and  C8_8 
REMARK    6  A    between atoms: C30_31  and  O3_33 
ROOT
HETATM    1  C8  UNL     1       4.904  55.386  -9.159  1.00  0.00    -0.002 C 
HETATM    2  C9  UNL     1       4.270  56.612  -8.428  1.00  0.00     0.007 C 
HETATM    3  C10 UNL     1       2.735  56.447  -8.498  1.00  0.00     0.015 C 
HETATM    4  C11 UNL     1       2.513  55.333  -9.535  1.00  0.00    -0.013 C 
HETATM    5  C12 UNL     1       2.619  56.018 -10.945  1.00  0.00     0.021 C 
HETATM    6  C13 UNL     1       1.174  54.583  -9.546  1.00  0.00    -0.070 C 
HETATM    7  C14 UNL     1       0.018  55.263  -9.513  1.00  0.00    -0.022 C 
HETATM    8  C15 UNL     1      -1.304  54.677  -9.877  1.00  0.00     0.034 C 
HETATM    9  C16 UNL     1      -1.189  53.408 -10.765  1.00  0.00     0.013 C 
HETATM   10  C17 UNL     1      -2.600  52.789 -11.107  1.00  0.00     0.018 C 
HETATM   11  C18 UNL     1      -2.614  52.286 -12.570  1.00  0.00     0.023 C 
HETATM   12  C19 UNL     1      -3.777  53.778 -10.983  1.00  0.00     0.023 C 
HETATM   13  C20 UNL     1      -2.917  51.625 -10.160  1.00  0.00     0.135 C 
HETATM   14  O1  UNL     1      -3.690  50.718 -10.474  1.00  0.00    -0.297 OA
HETATM   15  C21 UNL     1      -2.324  51.674  -8.772  1.00  0.00     0.080 C 
HETATM   16  C22 UNL     1      -0.816  51.919  -8.755  1.00  0.00     0.017 C 
HETATM   17  C23 UNL     1      -0.189  52.390 -10.109  1.00  0.00    -0.031 C 
HETATM   18  C24 UNL     1       0.029  51.121 -10.971  1.00  0.00     0.016 C 
HETATM   19  C25 UNL     1       1.222  53.070  -9.800  1.00  0.00     0.024 C 
HETATM   20  C26 UNL     1       2.389  52.762 -10.771  1.00  0.00     0.010 C 
HETATM   21  C27 UNL     1       3.773  53.283 -10.293  1.00  0.00     0.011 C 
HETATM   22  C28 UNL     1       3.710  54.375  -9.199  1.00  0.00    -0.029 C 
HETATM   23  C29 UNL     1       3.608  53.717  -7.782  1.00  0.00     0.016 C 
ENDROOT
BRANCH   1  24
HETATM   24  C6  UNL     1       6.261  54.950  -8.533  1.00  0.00    -0.014 C 
HETATM   25  C7  UNL     1       6.172  54.766  -7.015  1.00  0.00     0.010 C 
BRANCH  24  26
HETATM   26  C5  UNL     1       6.848  53.673  -9.191  1.00  0.00     0.008 C 
BRANCH  26  27
HETATM   27  C4  UNL     1       6.876  52.426  -8.298  1.00  0.00     0.028 C 
BRANCH  27  28
HETATM   28  C3  UNL     1       6.950  51.177  -9.135  1.00  0.00    -0.013 C 
HETATM   29  C2  UNL     1       7.675  50.063  -8.904  1.00  0.00     0.008 C 
HETATM   30  C1  UNL     1       8.582  49.817  -7.734  1.00  0.00     0.055 C 
BRANCH  29  31
HETATM   31  C30 UNL     1       7.551  48.976  -9.912  1.00  0.00     0.171 C 
HETATM   32  O2  UNL     1       7.110  47.855  -9.726  1.00  0.00    -0.646 OA
BRANCH  31  33
HETATM   33  O3  UNL     1       7.993  49.348 -11.124  1.00  0.00    -0.773 OA
HETATM   34  H46 UNL     1       7.853  48.548 -11.671  1.00  0.00     0.167 HD
ENDBRANCH  31  33
ENDBRANCH  29  31
ENDBRANCH  27  28
ENDBRANCH  26  27
ENDBRANCH  24  26
ENDBRANCH   1  24
TORSDOF 6
ENDMDL
MODEL 3
REMARK minimizedAffinity -7.55141211
REMARK CNNscore 0.488789648
REMARK CNNaffinity 6.73078537
REMARK  6 active torsions:
REMARK  status: ('A' for Active; 'I' for Inactive)
REMARK    1  A    between atoms: C2_2  and  C30_31 
REMARK    2  A    between atoms: C3_3  and  C4_4 
REMARK    3  A    between atoms: C4_4  and  C5_5 
REMARK    4  A    between atoms: C5_5  and  C6_6 
REMARK    5  A    between atoms: C6_6  and  C8_8 
REMARK    6  A    between atoms: C30_31  and  O3_33 
ROOT
HETATM    1  C8  UNL     1      -2.446  52.395 -10.520  1.00  0.00    -0.002 C 
HETATM    2  C9  UNL     1      -3.006  53.852 -10.480  1.00  0.00     0.007 C 
HETATM    3  C10 UNL     1      -1.836  54.786 -10.091  1.00  0.00     0.015 C 
HETATM    4  C11 UNL     1      -0.733  53.834  -9.596  1.00  0.00    -0.013 C 
HETATM    5  C12 UNL     1      -1.094  53.479  -8.110  1.00  0.00     0.021 C 
HETATM    6  C13 UNL     1       0.717  54.336  -9.553  1.00  0.00    -0.070 C 
HETATM    7  C14 UNL     1       1.006  55.523  -8.999  1.00  0.00    -0.022 C 
HETATM    8  C15 UNL     1       2.377  55.938  -8.585  1.00  0.00     0.034 C 
HETATM    9  C16 UNL     1       3.342  54.740  -8.371  1.00  0.00     0.013 C 
HETATM   10  C17 UNL     1       4.794  55.209  -7.967  1.00  0.00     0.018 C 
HETATM   11  C18 UNL     1       5.377  54.253  -6.899  1.00  0.00     0.023 C 
HETATM   12  C19 UNL     1       4.861  56.624  -7.357  1.00  0.00     0.023 C 
HETATM   13  C20 UNL     1       5.711  55.228  -9.196  1.00  0.00     0.135 C 
HETATM   14  O1  UNL     1       6.934  55.111  -9.101  1.00  0.00    -0.297 OA
HETATM   15  C21 UNL     1       5.074  55.499 -10.538  1.00  0.00     0.080 C 
HETATM   16  C22 UNL     1       3.872  54.605 -10.841  1.00  0.00     0.017 C 
HETATM   17  C23 UNL     1       3.304  53.797  -9.627  1.00  0.00    -0.031 C 
HETATM   18  C24 UNL     1       4.195  52.541  -9.462  1.00  0.00     0.016 C 
HETATM   19  C25 UNL     1       1.812  53.347  -9.976  1.00  0.00     0.024 C 
HETATM   20  C26 UNL     1       1.383  51.918  -9.561  1.00  0.00     0.010 C 
HETATM   21  C27 UNL     1       0.000  51.478 -10.118  1.00  0.00     0.011 C 
HETATM   22  C28 UNL     1      -0.902  52.639 -10.599  1.00  0.00    -0.029 C 
HETATM   23  C29 UNL     1      -0.563  53.011 -12.081  1.00  0.00     0.016 C 
ENDROOT
BRANCH   1  24
HETATM   24  C6  UNL     1      -3.141  51.514 -11.598  1.00  0.00    -0.014 C 
HETATM   25  C7  UNL     1      -2.471  51.631 -12.970  1.00  0.00     0.010 C 
BRANCH  24  26
HETATM   26  C5  UNL     1      -3.249  50.023 -11.184  1.00  0.00     0.008 C 
BRANCH  26  27
HETATM   27  C4  UNL     1      -3.997  49.756  -9.872  1.00  0.00     0.028 C 
BRANCH  27  28
HETATM   28  C3  UNL     1      -5.481  49.921 -10.065  1.00  0.00    -0.013 C 
HETATM   29  C2  UNL     1      -6.346  49.056 -10.634  1.00  0.00     0.008 C 
HETATM   30  C1  UNL     1      -6.013  47.709 -11.205  1.00  0.00     0.055 C 
BRANCH  29  31
HETATM   31  C30 UNL     1      -7.769  49.488 -10.688  1.00  0.00     0.171 C 
HETATM   32  O2  UNL     1      -8.644  49.031 -11.403  1.00  0.00    -0.646 OA
BRANCH  31  33
HETATM   33  O3  UNL     1      -8.032  50.489  -9.834  1.00  0.00    -0.773 OA
HETATM   34  H46 UNL     1      -8.985  50.665  -9.979  1.00  0.00     0.167 HD
ENDBRANCH  31  33
ENDBRANCH  29  31
ENDBRANCH  27  28
ENDBRANCH  26  27
ENDBRANCH  24  26
ENDBRANCH   1  24
TORSDOF 6
ENDMDL
MODEL 4
REMARK minimizedAffinity -7.23094416
REMARK CNNscore 0.442283511
REMARK CNNaffinity 5.79260683
REMARK  6 active torsions:
REMARK  status: ('A' for Active; 'I' for Inactive)
REMARK    1  A    between atoms: C2_2  and  C30_31 
REMARK    2  A    between atoms: C3_3  and  C4_4 
REMARK    3  A    between atoms: C4_4  and  C5_5 
REMARK    4  A    between atoms: C5_5  and  C6_6 
REMARK    5  A    between atoms: C6_6  and  C8_8 
REMARK    6  A    between atoms: C30_31  and  O3_33 
ROOT
HETATM    1  C8  UNL     1     -13.193  46.050 -26.154  1.00  0.00    -0.002 C 
HETATM    2  C9  UNL     1     -12.273  46.644 -25.040  1.00  0.00     0.007 C 
HETATM    3  C10 UNL     1     -10.908  46.963 -25.691  1.00  0.00     0.015 C 
HETATM    4  C11 UNL     1     -10.955  46.250 -27.054  1.00  0.00    -0.013 C 
HETATM    5  C12 UNL     1     -10.600  44.745 -26.774  1.00  0.00     0.021 C 
HETATM    6  C13 UNL     1      -9.989  46.696 -28.160  1.00  0.00    -0.070 C 
HETATM    7  C14 UNL     1      -8.683  46.856 -27.895  1.00  0.00    -0.022 C 
HETATM    8  C15 UNL     1      -7.624  46.930 -28.941  1.00  0.00     0.034 C 
HETATM    9  C16 UNL     1      -8.058  46.313 -30.299  1.00  0.00     0.013 C 
HETATM   10  C17 UNL     1      -6.930  46.434 -31.397  1.00  0.00     0.018 C 
HETATM   11  C18 UNL     1      -6.886  45.145 -32.251  1.00  0.00     0.023 C 
HETATM   12  C19 UNL     1      -5.508  46.624 -30.832  1.00  0.00     0.023 C 
HETATM   13  C20 UNL     1      -7.196  47.643 -32.303  1.00  0.00     0.135 C 
HETATM   14  O1  UNL     1      -6.765  47.703 -33.456  1.00  0.00    -0.297 OA
HETATM   15  C21 UNL     1      -7.927  48.820 -31.701  1.00  0.00     0.080 C 
HETATM   16  C22 UNL     1      -9.230  48.441 -30.999  1.00  0.00     0.017 C 
HETATM   17  C23 UNL     1      -9.441  46.913 -30.737  1.00  0.00    -0.031 C 
HETATM   18  C24 UNL     1      -9.974  46.297 -32.055  1.00  0.00     0.016 C 
HETATM   19  C25 UNL     1     -10.542  46.747 -29.591  1.00  0.00     0.024 C 
HETATM   20  C26 UNL     1     -11.586  45.617 -29.765  1.00  0.00     0.010 C 
HETATM   21  C27 UNL     1     -12.744  45.651 -28.728  1.00  0.00     0.011 C 
HETATM   22  C28 UNL     1     -12.451  46.488 -27.461  1.00  0.00    -0.029 C 
HETATM   23  C29 UNL     1     -12.800  47.993 -27.713  1.00  0.00     0.016 C 
ENDROOT
BRANCH   1  24
HETATM   24  C6  UNL     1     -14.691  46.422 -25.958  1.00  0.00    -0.014 C 
HETATM   25  C7  UNL     1     -15.619  45.214 -26.114  1.00  0.00     0.010 C 
BRANCH  24  26
HETATM   26  C5  UNL     1     -14.966  47.134 -24.607  1.00  0.00     0.008 C 
BRANCH  26  27
HETATM   27  C4  UNL     1     -15.841  46.353 -23.618  1.00  0.00     0.028 C 
BRANCH  27  28
HETATM   28  C3  UNL     1     -17.293  46.457 -24.000  1.00  0.00    -0.013 C 
HETATM   29  C2  UNL     1     -18.289  45.589 -23.727  1.00  0.00     0.008 C 
HETATM   30  C1  UNL     1     -18.166  44.304 -22.961  1.00  0.00     0.055 C 
BRANCH  29  31
HETATM   31  C30 UNL     1     -19.639  45.955 -24.234  1.00  0.00     0.171 C 
HETATM   32  O2  UNL     1     -20.677  45.340 -24.058  1.00  0.00    -0.646 OA
BRANCH  31  33
HETATM   33  O3  UNL     1     -19.626  47.091 -24.950  1.00  0.00    -0.773 OA
HETATM   34  H46 UNL     1     -20.563  47.202 -25.213  1.00  0.00     0.167 HD
ENDBRANCH  31  33
ENDBRANCH  29  31
ENDBRANCH  27  28
ENDBRANCH  26  27
ENDBRANCH  24  26
ENDBRANCH   1  24
TORSDOF 6
ENDMDL
MODEL 5
REMARK minimizedAffinity -7.52156878
REMARK CNNscore 0.429207236
REMARK CNNaffinity 5.97551107
REMARK  6 active torsions:
REMARK  status: ('A' for Active; 'I' for Inactive)
REMARK    1  A    between atoms: C2_2  and  C30_31 
REMARK    2  A    between atoms: C3_3  and  C4_4 
REMARK    3  A    between atoms: C4_4  and  C5_5 
REMARK    4  A    between atoms: C5_5  and  C6_6 
REMARK    5  A    between atoms: C6_6  and  C8_8 
REMARK    6  A    between atoms: C30_31  and  O3_33 
ROOT
HETATM    1  C8  UNL     1      -9.713  46.547 -33.878  1.00  0.00    -0.002 C 
HETATM    2  C9  UNL     1      -8.187  46.389 -34.172  1.00  0.00     0.007 C 
HETATM    3  C10 UNL     1      -7.449  46.423 -32.814  1.00  0.00     0.015 C 
HETATM    4  C11 UNL     1      -8.504  46.927 -31.815  1.00  0.00    -0.013 C 
HETATM    5  C12 UNL     1      -8.539  48.491 -31.965  1.00  0.00     0.021 C 
HETATM    6  C13 UNL     1      -8.294  46.668 -30.316  1.00  0.00    -0.070 C 
HETATM    7  C14 UNL     1      -7.112  46.940 -29.742  1.00  0.00    -0.022 C 
HETATM    8  C15 UNL     1      -6.911  47.069 -28.270  1.00  0.00     0.034 C 
HETATM    9  C16 UNL     1      -8.223  47.366 -27.495  1.00  0.00     0.013 C 
HETATM   10  C17 UNL     1      -7.987  47.464 -25.938  1.00  0.00     0.018 C 
HETATM   11  C18 UNL     1      -8.854  48.599 -25.344  1.00  0.00     0.023 C 
HETATM   12  C19 UNL     1      -6.533  47.777 -25.531  1.00  0.00     0.023 C 
HETATM   13  C20 UNL     1      -8.345  46.135 -25.259  1.00  0.00     0.135 C 
HETATM   14  O1  UNL     1      -8.681  46.076 -24.075  1.00  0.00    -0.297 OA
HETATM   15  C21 UNL     1      -8.174  44.871 -26.067  1.00  0.00     0.080 C 
HETATM   16  C22 UNL     1      -8.854  44.918 -27.435  1.00  0.00     0.017 C 
HETATM   17  C23 UNL     1      -9.330  46.331 -27.909  1.00  0.00    -0.031 C 
HETATM   18  C24 UNL     1     -10.693  46.603 -27.223  1.00  0.00     0.016 C 
HETATM   19  C25 UNL     1      -9.532  46.289 -29.492  1.00  0.00     0.024 C 
HETATM   20  C26 UNL     1     -10.765  47.024 -30.073  1.00  0.00     0.010 C 
HETATM   21  C27 UNL     1     -11.011  46.764 -31.585  1.00  0.00     0.011 C 
HETATM   22  C28 UNL     1      -9.790  46.205 -32.352  1.00  0.00    -0.029 C 
HETATM   23  C29 UNL     1      -9.733  44.646 -32.220  1.00  0.00     0.016 C 
ENDROOT
BRANCH   1  24
HETATM   24  C6  UNL     1     -10.603  45.766 -34.887  1.00  0.00    -0.014 C 
HETATM   25  C7  UNL     1     -12.098  45.989 -34.641  1.00  0.00     0.010 C 
BRANCH  24  26
HETATM   26  C5  UNL     1     -10.255  46.076 -36.367  1.00  0.00     0.008 C 
BRANCH  26  27
HETATM   27  C4  UNL     1     -11.429  45.992 -37.350  1.00  0.00     0.028 C 
BRANCH  27  28
HETATM   28  C3  UNL     1     -11.589  47.291 -38.095  1.00  0.00    -0.013 C 
HETATM   29  C2  UNL     1     -12.648  48.127 -38.091  1.00  0.00     0.008 C 
HETATM   30  C1  UNL     1     -13.923  47.945 -37.322  1.00  0.00     0.055 C 
BRANCH  29  31
HETATM   31  C30 UNL     1     -12.524  49.350 -38.930  1.00  0.00     0.171 C 
HETATM   32  O2  UNL     1     -13.286  50.300 -38.951  1.00  0.00    -0.646 OA
BRANCH  31  33
HETATM   33  O3  UNL     1     -11.436  49.323 -39.716  1.00  0.00    -0.773 OA
HETATM   34  H46 UNL     1     -11.487  50.173 -40.200  1.00  0.00     0.167 HD
ENDBRANCH  31  33
ENDBRANCH  29  31
ENDBRANCH  27  28
ENDBRANCH  26  27
ENDBRANCH  24  26
ENDBRANCH   1  24
TORSDOF 6
ENDMDL
MODEL 6
REMARK minimizedAffinity -8.05655289
REMARK CNNscore 0.418047518
REMARK CNNaffinity 5.89762545
REMARK  6 active torsions:
REMARK  status: ('A' for Active; 'I' for Inactive)
REMARK    1  A    between atoms: C2_2  and  C30_31 
REMARK    2  A    between atoms: C3_3  and  C4_4 
REMARK    3  A    between atoms: C4_4  and  C5_5 
REMARK    4  A    between atoms: C5_5  and  C6_6 
REMARK    5  A    between atoms: C6_6  and  C8_8 
REMARK    6  A    between atoms: C30_31  and  O3_33 
ROOT
HETATM    1  C8  UNL     1       7.095  65.334 -34.901  1.00  0.00    -0.002 C 
HETATM    2  C9  UNL     1       6.075  65.364 -33.718  1.00  0.00     0.007 C 
HETATM    3  C10 UNL     1       4.831  66.145 -34.201  1.00  0.00     0.015 C 
HETATM    4  C11 UNL     1       5.285  66.824 -35.504  1.00  0.00    -0.013 C 
HETATM    5  C12 UNL     1       6.071  68.115 -35.075  1.00  0.00     0.021 C 
HETATM    6  C13 UNL     1       4.222  67.308 -36.500  1.00  0.00    -0.070 C 
HETATM    7  C14 UNL     1       3.176  68.033 -36.074  1.00  0.00    -0.022 C 
HETATM    8  C15 UNL     1       2.302  68.842 -36.972  1.00  0.00     0.034 C 
HETATM    9  C16 UNL     1       2.972  69.191 -38.329  1.00  0.00     0.013 C 
HETATM   10  C17 UNL     1       2.014  70.018 -39.272  1.00  0.00     0.018 C 
HETATM   11  C18 UNL     1       2.821  71.105 -40.020  1.00  0.00     0.023 C 
HETATM   12  C19 UNL     1       0.878  70.758 -38.536  1.00  0.00     0.023 C 
HETATM   13  C20 UNL     1       1.334  69.091 -40.288  1.00  0.00     0.135 C 
HETATM   14  O1  UNL     1       0.922  69.502 -41.374  1.00  0.00    -0.297 OA
HETATM   15  C21 UNL     1       1.091  67.660 -39.872  1.00  0.00     0.080 C 
HETATM   16  C22 UNL     1       2.333  66.957 -39.327  1.00  0.00     0.017 C 
HETATM   17  C23 UNL     1       3.546  67.886 -38.989  1.00  0.00    -0.031 C 
HETATM   18  C24 UNL     1       4.288  68.163 -40.320  1.00  0.00     0.016 C 
HETATM   19  C25 UNL     1       4.517  67.103 -37.992  1.00  0.00     0.024 C 
HETATM   20  C26 UNL     1       6.041  67.245 -38.225  1.00  0.00     0.010 C 
HETATM   21  C27 UNL     1       6.912  66.293 -37.357  1.00  0.00     0.011 C 
HETATM   22  C28 UNL     1       6.190  65.702 -36.124  1.00  0.00    -0.029 C 
HETATM   23  C29 UNL     1       5.401  64.411 -36.525  1.00  0.00     0.016 C 
ENDROOT
BRANCH   1  24
HETATM   24  C6  UNL     1       7.939  64.028 -34.934  1.00  0.00    -0.014 C 
HETATM   25  C7  UNL     1       7.125  62.817 -35.400  1.00  0.00     0.010 C 
BRANCH  24  26
HETATM   26  C5  UNL     1       9.229  64.161 -35.786  1.00  0.00     0.008 C 
BRANCH  26  27
HETATM   27  C4  UNL     1      10.265  63.047 -35.590  1.00  0.00     0.028 C 
BRANCH  27  28
HETATM   28  C3  UNL     1      10.789  63.054 -34.178  1.00  0.00    -0.013 C 
HETATM   29  C2  UNL     1      10.393  62.289 -33.140  1.00  0.00     0.008 C 
HETATM   30  C1  UNL     1       9.324  61.237 -33.167  1.00  0.00     0.055 C 
BRANCH  29  31
HETATM   31  C30 UNL     1      11.097  62.515 -31.849  1.00  0.00     0.171 C 
HETATM   32  O2  UNL     1      11.763  63.488 -31.541  1.00  0.00    -0.646 OA
BRANCH  31  33
HETATM   33  O3  UNL     1      10.935  61.494 -30.993  1.00  0.00    -0.773 OA
HETATM   34  H46 UNL     1      11.444  61.776 -30.206  1.00  0.00     0.167 HD
ENDBRANCH  31  33
ENDBRANCH  29  31
ENDBRANCH  27  28
ENDBRANCH  26  27
ENDBRANCH  24  26
ENDBRANCH   1  24
TORSDOF 6
ENDMDL
MODEL 7
REMARK minimizedAffinity -8.18198204
REMARK CNNscore 0.340875387
REMARK CNNaffinity 5.91729927
REMARK  6 active torsions:
REMARK  status: ('A' for Active; 'I' for Inactive)
REMARK    1  A    between atoms: C2_2  and  C30_31 
REMARK    2  A    between atoms: C3_3  and  C4_4 
REMARK    3  A    between atoms: C4_4  and  C5_5 
REMARK    4  A    between atoms: C5_5  and  C6_6 
REMARK    5  A    between atoms: C6_6  and  C8_8 
REMARK    6  A    between atoms: C30_31  and  O3_33 
ROOT
HETATM    1  C8  UNL     1       6.377  64.202 -34.198  1.00  0.00    -0.002 C 
HETATM    2  C9  UNL     1       4.940  64.564 -33.704  1.00  0.00     0.007 C 
HETATM    3  C10 UNL     1       4.476  65.805 -34.501  1.00  0.00     0.015 C 
HETATM    4  C11 UNL     1       5.754  66.326 -35.180  1.00  0.00    -0.013 C 
HETATM    5  C12 UNL     1       6.517  67.166 -34.094  1.00  0.00     0.021 C 
HETATM    6  C13 UNL     1       5.625  67.254 -36.396  1.00  0.00    -0.070 C 
HETATM    7  C14 UNL     1       4.796  68.309 -36.355  1.00  0.00    -0.022 C 
HETATM    8  C15 UNL     1       4.858  69.454 -37.310  1.00  0.00     0.034 C 
HETATM    9  C16 UNL     1       6.234  69.589 -38.018  1.00  0.00     0.013 C 
HETATM   10  C17 UNL     1       6.261  70.786 -39.046  1.00  0.00     0.018 C 
HETATM   11  C18 UNL     1       7.629  71.504 -38.982  1.00  0.00     0.023 C 
HETATM   12  C19 UNL     1       5.195  71.872 -38.789  1.00  0.00     0.023 C 
HETATM   13  C20 UNL     1       6.014  70.273 -40.470  1.00  0.00     0.135 C 
HETATM   14  O1  UNL     1       6.418  70.880 -41.463  1.00  0.00    -0.297 OA
HETATM   15  C21 UNL     1       5.163  69.035 -40.628  1.00  0.00     0.080 C 
HETATM   16  C22 UNL     1       5.614  67.862 -39.759  1.00  0.00     0.017 C 
HETATM   17  C23 UNL     1       6.650  68.207 -38.638  1.00  0.00    -0.031 C 
HETATM   18  C24 UNL     1       8.046  68.245 -39.308  1.00  0.00     0.016 C 
HETATM   19  C25 UNL     1       6.617  67.041 -37.547  1.00  0.00     0.024 C 
HETATM   20  C26 UNL     1       7.972  66.576 -36.960  1.00  0.00     0.010 C 
HETATM   21  C27 UNL     1       7.882  65.304 -36.071  1.00  0.00     0.011 C 
HETATM   22  C28 UNL     1       6.460  64.976 -35.556  1.00  0.00    -0.029 C 
HETATM   23  C29 UNL     1       5.679  64.135 -36.620  1.00  0.00     0.016 C 
ENDROOT
BRANCH   1  24
HETATM   24  C6  UNL     1       6.656  62.672 -34.165  1.00  0.00    -0.014 C 
HETATM   25  C7  UNL     1       5.428  61.846 -34.561  1.00  0.00     0.010 C 
BRANCH  24  26
HETATM   26  C5  UNL     1       7.876  62.261 -35.030  1.00  0.00     0.008 C 
BRANCH  26  27
HETATM   27  C4  UNL     1       8.667  61.050 -34.519  1.00  0.00     0.028 C 
BRANCH  27  28
HETATM   28  C3  UNL     1       9.463  61.417 -33.295  1.00  0.00    -0.013 C 
HETATM   29  C2  UNL     1      10.459  62.321 -33.191  1.00  0.00     0.008 C 
HETATM   30  C1  UNL     1      10.999  63.182 -34.295  1.00  0.00     0.055 C 
BRANCH  29  31
HETATM   31  C30 UNL     1      11.070  62.475 -31.843  1.00  0.00     0.171 C 
HETATM   32  O2  UNL     1      11.775  63.393 -31.463  1.00  0.00    -0.646 OA
BRANCH  31  33
HETATM   33  O3  UNL     1      10.766  61.456 -31.024  1.00  0.00    -0.773 OA
HETATM   34  H46 UNL     1      11.228  61.689 -30.193  1.00  0.00     0.167 HD
ENDBRANCH  31  33
ENDBRANCH  29  31
ENDBRANCH  27  28
ENDBRANCH  26  27
ENDBRANCH  24  26
ENDBRANCH   1  24
TORSDOF 6
ENDMDL
MODEL 8
REMARK minimizedAffinity -7.31034231
REMARK CNNscore 0.32169196
REMARK CNNaffinity 5.64119101
REMARK  6 active torsions:
REMARK  status: ('A' for Active; 'I' for Inactive)
REMARK    1  A    between atoms: C2_2  and  C30_31 
REMARK    2  A    between atoms: C3_3  and  C4_4 
REMARK    3  A    between atoms: C4_4  and  C5_5 
REMARK    4  A    between atoms: C5_5  and  C6_6 
REMARK    5  A    between atoms: C6_6  and  C8_8 
REMARK    6  A    between atoms: C30_31  and  O3_33 
ROOT
HETATM    1  C8  UNL     1       6.984  65.012 -35.376  1.00  0.00    -0.002 C 
HETATM    2  C9  UNL     1       6.074  64.319 -34.313  1.00  0.00     0.007 C 
HETATM    3  C10 UNL     1       4.620  64.770 -34.585  1.00  0.00     0.015 C 
HETATM    4  C11 UNL     1       4.759  65.949 -35.564  1.00  0.00    -0.013 C 
HETATM    5  C12 UNL     1       5.106  67.206 -34.689  1.00  0.00     0.021 C 
HETATM    6  C13 UNL     1       3.545  66.362 -36.407  1.00  0.00    -0.070 C 
HETATM    7  C14 UNL     1       2.346  66.528 -35.829  1.00  0.00    -0.022 C 
HETATM    8  C15 UNL     1       1.210  67.259 -36.462  1.00  0.00     0.034 C 
HETATM    9  C16 UNL     1       1.658  68.232 -37.587  1.00  0.00     0.013 C 
HETATM   10  C17 UNL     1       0.434  68.967 -38.261  1.00  0.00     0.018 C 
HETATM   11  C18 UNL     1       0.805  70.438 -38.562  1.00  0.00     0.023 C 
HETATM   12  C19 UNL     1      -0.839  69.014 -37.393  1.00  0.00     0.023 C 
HETATM   13  C20 UNL     1       0.039  68.260 -39.564  1.00  0.00     0.135 C 
HETATM   14  O1  UNL     1      -0.542  68.849 -40.477  1.00  0.00    -0.297 OA
HETATM   15  C21 UNL     1       0.294  66.774 -39.657  1.00  0.00     0.080 C 
HETATM   16  C22 UNL     1       1.725  66.372 -39.299  1.00  0.00     0.017 C 
HETATM   17  C23 UNL     1       2.587  67.477 -38.603  1.00  0.00    -0.031 C 
HETATM   18  C24 UNL     1       3.128  68.400 -39.723  1.00  0.00     0.016 C 
HETATM   19  C25 UNL     1       3.811  66.767 -37.863  1.00  0.00     0.024 C 
HETATM   20  C26 UNL     1       5.193  67.462 -37.946  1.00  0.00     0.010 C 
HETATM   21  C27 UNL     1       6.370  66.613 -37.388  1.00  0.00     0.011 C 
HETATM   22  C28 UNL     1       5.945  65.449 -36.462  1.00  0.00    -0.029 C 
HETATM   23  C29 UNL     1       5.596  64.181 -37.311  1.00  0.00     0.016 C 
ENDROOT
BRANCH   1  24
HETATM   24  C6  UNL     1       8.203  64.137 -35.786  1.00  0.00    -0.014 C 
HETATM   25  C7  UNL     1       9.340  64.964 -36.394  1.00  0.00     0.010 C 
BRANCH  24  26
HETATM   26  C5  UNL     1       8.742  63.267 -34.620  1.00  0.00     0.008 C 
BRANCH  26  27
HETATM   27  C4  UNL     1      10.268  63.117 -34.562  1.00  0.00     0.028 C 
BRANCH  27  28
HETATM   28  C3  UNL     1      10.781  62.438 -35.804  1.00  0.00    -0.013 C 
HETATM   29  C2  UNL     1      12.022  62.492 -36.329  1.00  0.00     0.008 C 
HETATM   30  C1  UNL     1      13.192  63.252 -35.775  1.00  0.00     0.055 C 
BRANCH  29  31
HETATM   31  C30 UNL     1      12.245  61.711 -37.576  1.00  0.00     0.171 C 
HETATM   32  O2  UNL     1      11.397  61.142 -38.242  1.00  0.00    -0.646 OA
BRANCH  31  33
HETATM   33  O3  UNL     1      13.538  61.677 -37.935  1.00  0.00    -0.773 OA
HETATM   34  H46 UNL     1      13.531  61.139 -38.753  1.00  0.00     0.167 HD
ENDBRANCH  31  33
ENDBRANCH  29  31
ENDBRANCH  27  28
ENDBRANCH  26  27
ENDBRANCH  24  26
ENDBRANCH   1  24
TORSDOF 6
ENDMDL
MODEL 9
REMARK minimizedAffinity -8.76955318
REMARK CNNscore 0.264462113
REMARK CNNaffinity 6.26955557
REMARK  6 active torsions:
REMARK  status: ('A' for Active; 'I' for Inactive)
REMARK    1  A    between atoms: C2_2  and  C30_31 
REMARK    2  A    between atoms: C3_3  and  C4_4 
REMARK    3  A    between atoms: C4_4  and  C5_5 
REMARK    4  A    between atoms: C5_5  and  C6_6 
REMARK    5  A    between atoms: C6_6  and  C8_8 
REMARK    6  A    between atoms: C30_31  and  O3_33 
ROOT
HETATM    1  C8  UNL     1      -2.581  49.561 -21.704  1.00  0.00    -0.002 C 
HETATM    2  C9  UNL     1      -1.301  50.236 -22.293  1.00  0.00     0.007 C 
HETATM    3  C10 UNL     1      -0.391  50.616 -21.102  1.00  0.00     0.015 C 
HETATM    4  C11 UNL     1      -1.291  50.463 -19.864  1.00  0.00    -0.013 C 
HETATM    5  C12 UNL     1      -2.146  51.778 -19.778  1.00  0.00     0.021 C 
HETATM    6  C13 UNL     1      -0.638  50.312 -18.484  1.00  0.00    -0.070 C 
HETATM    7  C14 UNL     1       0.340  51.149 -18.103  1.00  0.00    -0.022 C 
HETATM    8  C15 UNL     1       0.783  51.323 -16.690  1.00  0.00     0.034 C 
HETATM    9  C16 UNL     1      -0.278  50.866 -15.652  1.00  0.00     0.013 C 
HETATM   10  C17 UNL     1       0.230  51.030 -14.167  1.00  0.00     0.018 C 
HETATM   11  C18 UNL     1      -0.927  51.524 -13.267  1.00  0.00     0.023 C 
HETATM   12  C19 UNL     1       1.374  52.050 -13.993  1.00  0.00     0.023 C 
HETATM   13  C20 UNL     1       0.762  49.694 -13.634  1.00  0.00     0.135 C 
HETATM   14  O1  UNL     1       0.788  49.434 -12.429  1.00  0.00    -0.297 OA
HETATM   15  C21 UNL     1       1.356  48.730 -14.634  1.00  0.00     0.080 C 
HETATM   16  C22 UNL     1       0.450  48.450 -15.832  1.00  0.00     0.017 C 
HETATM   17  C23 UNL     1      -0.770  49.415 -16.001  1.00  0.00    -0.031 C 
HETATM   18  C24 UNL     1      -1.880  48.912 -15.046  1.00  0.00     0.016 C 
HETATM   19  C25 UNL     1      -1.283  49.317 -17.510  1.00  0.00     0.024 C 
HETATM   20  C26 UNL     1      -2.814  49.311 -17.742  1.00  0.00     0.010 C 
HETATM   21  C27 UNL     1      -3.238  49.001 -19.205  1.00  0.00     0.011 C 
HETATM   22  C28 UNL     1      -2.118  49.188 -20.256  1.00  0.00    -0.029 C 
HETATM   23  C29 UNL     1      -1.252  47.888 -20.363  1.00  0.00     0.016 C 
ENDROOT
BRANCH   1  24
HETATM   24  C6  UNL     1      -3.160  48.457 -22.635  1.00  0.00    -0.014 C 
HETATM   25  C7  UNL     1      -4.267  47.643 -21.958  1.00  0.00     0.010 C 
BRANCH  24  26
HETATM   26  C5  UNL     1      -3.662  49.013 -23.993  1.00  0.00     0.008 C 
BRANCH  26  27
HETATM   27  C4  UNL     1      -2.788  48.672 -25.207  1.00  0.00     0.028 C 
BRANCH  27  28
HETATM   28  C3  UNL     1      -3.644  48.379 -26.410  1.00  0.00    -0.013 C 
HETATM   29  C2  UNL     1      -3.778  49.114 -27.534  1.00  0.00     0.008 C 
HETATM   30  C1  UNL     1      -3.084  50.409 -27.840  1.00  0.00     0.055 C 
BRANCH  29  31
HETATM   31  C30 UNL     1      -4.702  48.574 -28.567  1.00  0.00     0.171 C 
HETATM   32  O2  UNL     1      -5.457  47.624 -28.447  1.00  0.00    -0.646 OA
BRANCH  31  33
HETATM   33  O3  UNL     1      -4.636  49.257 -29.721  1.00  0.00    -0.773 OA
HETATM   34  H46 UNL     1      -5.283  48.797 -30.294  1.00  0.00     0.167 HD
ENDBRANCH  31  33
ENDBRANCH  29  31
ENDBRANCH  27  28
ENDBRANCH  26  27
ENDBRANCH  24  26
ENDBRANCH   1  24
TORSDOF 6
ENDMDL
