MODEL 1
REMARK minimizedAffinity -9.22796249
REMARK  8 active torsions:
REMARK  status: ('A' for Active; 'I' for Inactive)
REMARK    1  A    between atoms: C12_14  and  C13_15 
REMARK    2  A    between atoms: C13_15  and  C15_17 
REMARK    3  A    between atoms: C15_17  and  C16_18 
REMARK    4  A    between atoms: C16_18  and  C17_20 
REMARK    5  A    between atoms: C26_29  and  C27_30 
REMARK    6  A    between atoms: C27_30  and  C28_31 
REMARK    7  A    between atoms: C28_31  and  C29_32 
REMARK    8  A    between atoms: C29_32  and  O5_34 
ROOT
HETATM    1  C1  UNL     1       4.091   7.459  10.570  1.00  0.00     0.025 C 
HETATM    2  C2  UNL     1       3.211   6.516  10.928  1.00  0.00     0.015 C 
HETATM    3  C3  UNL     1       3.030   5.287  10.125  1.00  0.00     0.289 C 
HETATM    4  O1  UNL     1       3.703   4.938   9.173  1.00  0.00    -0.260 OA
HETATM    5  O2  UNL     1       1.984   4.598  10.650  1.00  0.00    -0.311 OA
HETATM    6  C4  UNL     1       1.299   5.390  11.640  1.00  0.00     0.142 C 
HETATM    7  C5  UNL     1       0.004   5.897  11.022  1.00  0.00     0.039 C 
HETATM    8  C6  UNL     1      -0.777   6.927  11.855  1.00  0.00     0.006 C 
HETATM    9  C7  UNL     1       0.129   8.011  12.490  1.00  0.00    -0.027 A 
HETATM   10  C8  UNL     1      -0.608   9.005  13.412  1.00  0.00     0.011 C 
HETATM   11  C9  UNL     1      -1.676   8.397  14.334  1.00  0.00     0.011 C 
HETATM   12  C10 UNL     1      -2.633   7.485  13.552  1.00  0.00    -0.032 C 
HETATM   13  C11 UNL     1      -3.390   8.352  12.506  1.00  0.00     0.016 C 
HETATM   14  C12 UNL     1      -3.672   6.663  14.380  1.00  0.00    -0.002 C 
HETATM   15  C21 UNL     1      -3.936   5.416  13.487  1.00  0.00     0.006 C 
HETATM   16  C22 UNL     1      -2.845   5.394  12.397  1.00  0.00     0.011 C 
HETATM   17  C23 UNL     1      -1.746   6.331  12.924  1.00  0.00    -0.032 C 
HETATM   18  C24 UNL     1      -0.927   5.519  13.978  1.00  0.00     0.016 C 
HETATM   19  C25 UNL     1       1.094   8.708  11.562  1.00  0.00     0.022 A 
HETATM   20  C26 UNL     1       1.666   7.765  12.608  1.00  0.00    -0.021 A 
HETATM   21  C30 UNL     1       2.284   6.456  12.097  1.00  0.00     0.063 C 
ENDROOT
BRANCH  14  22
HETATM   22  C13 UNL     1      -4.964   7.279  14.998  1.00  0.00    -0.007 C 
HETATM   23  C14 UNL     1      -4.835   8.642  15.694  1.00  0.00     0.011 C 
BRANCH  22  24
HETATM   24  C15 UNL     1      -5.682   6.277  15.922  1.00  0.00     0.087 C 
BRANCH  24  25
HETATM   25  C16 UNL     1      -7.120   5.990  15.510  1.00  0.00     0.149 C 
HETATM   26  O3  UNL     1      -8.020   6.817  15.620  1.00  0.00    -0.293 OA
BRANCH  25  27
HETATM   27  C17 UNL     1      -7.360   4.651  14.890  1.00  0.00     0.052 C 
HETATM   28  C18 UNL     1      -7.580   4.419  13.581  1.00  0.00    -0.084 C 
HETATM   29  C19 UNL     1      -7.759   3.011  13.078  1.00  0.00     0.043 C 
HETATM   30  C20 UNL     1      -7.679   5.475  12.514  1.00  0.00     0.043 C 
ENDBRANCH  25  27
ENDBRANCH  24  25
ENDBRANCH  22  24
ENDBRANCH  14  22
BRANCH  20  31
HETATM   31  C27 UNL     1       2.394   8.316  13.847  1.00  0.00     0.021 C 
BRANCH  31  32
HETATM   32  C28 UNL     1       2.619   7.314  14.978  1.00  0.00     0.111 C 
BRANCH  32  33
HETATM   33  C29 UNL     1       1.954   7.767  16.249  1.00  0.00     0.139 C 
HETATM   34  O4  UNL     1       2.336   8.632  17.018  1.00  0.00    -0.650 OA
BRANCH  33  35
HETATM   35  O5  UNL     1       0.829   7.070  16.503  1.00  0.00    -0.776 OA
HETATM   36  H41 UNL     1       0.498   7.442  17.347  1.00  0.00     0.167 HD
ENDBRANCH  33  35
ENDBRANCH  32  33
ENDBRANCH  31  32
ENDBRANCH  20  31
TORSDOF 8
ENDMDL
MODEL 2
REMARK minimizedAffinity -9.13553619
REMARK  8 active torsions:
REMARK  status: ('A' for Active; 'I' for Inactive)
REMARK    1  A    between atoms: C12_14  and  C13_15 
REMARK    2  A    between atoms: C13_15  and  C15_17 
REMARK    3  A    between atoms: C15_17  and  C16_18 
REMARK    4  A    between atoms: C16_18  and  C17_20 
REMARK    5  A    between atoms: C26_29  and  C27_30 
REMARK    6  A    between atoms: C27_30  and  C28_31 
REMARK    7  A    between atoms: C28_31  and  C29_32 
REMARK    8  A    between atoms: C29_32  and  O5_34 
ROOT
HETATM    1  C1  UNL     1       3.881   7.390  12.509  1.00  0.00     0.025 C 
HETATM    2  C2  UNL     1       2.860   8.245  12.638  1.00  0.00     0.015 C 
HETATM    3  C3  UNL     1       3.026   9.544  13.326  1.00  0.00     0.289 C 
HETATM    4  O1  UNL     1       4.071  10.026  13.720  1.00  0.00    -0.260 OA
HETATM    5  O2  UNL     1       1.801  10.121  13.426  1.00  0.00    -0.311 OA
HETATM    6  C4  UNL     1       0.769   9.194  13.035  1.00  0.00     0.142 C 
HETATM    7  C5  UNL     1       0.081   8.697  14.299  1.00  0.00     0.039 C 
HETATM    8  C6  UNL     1      -0.920   7.546  14.107  1.00  0.00     0.006 C 
HETATM    9  C7  UNL     1      -0.407   6.444  13.148  1.00  0.00    -0.027 A 
HETATM   10  C8  UNL     1      -1.425   5.321  12.856  1.00  0.00     0.011 C 
HETATM   11  C9  UNL     1      -2.878   5.773  12.644  1.00  0.00     0.011 C 
HETATM   12  C10 UNL     1      -3.336   6.719  13.765  1.00  0.00    -0.032 C 
HETATM   13  C11 UNL     1      -3.305   5.936  15.108  1.00  0.00     0.016 C 
HETATM   14  C12 UNL     1      -4.735   7.395  13.600  1.00  0.00    -0.002 C 
HETATM   15  C21 UNL     1      -4.589   8.718  14.407  1.00  0.00     0.006 C 
HETATM   16  C22 UNL     1      -3.089   8.911  14.705  1.00  0.00     0.011 C 
HETATM   17  C23 UNL     1      -2.370   7.975  13.719  1.00  0.00    -0.032 C 
HETATM   18  C24 UNL     1      -2.349   8.705  12.338  1.00  0.00     0.016 C 
HETATM   19  C25 UNL     1       0.972   5.898  13.428  1.00  0.00     0.022 A 
HETATM   20  C26 UNL     1       0.781   6.748  12.182  1.00  0.00    -0.021 A 
HETATM   21  C30 UNL     1       1.443   8.133  12.179  1.00  0.00     0.063 C 
ENDROOT
BRANCH  14  22
HETATM   22  C13 UNL     1      -6.085   6.654  13.844  1.00  0.00    -0.007 C 
HETATM   23  C14 UNL     1      -6.827   6.949  15.156  1.00  0.00     0.011 C 
BRANCH  22  24
HETATM   24  C15 UNL     1      -5.938   5.133  13.647  1.00  0.00     0.087 C 
BRANCH  24  25
HETATM   25  C16 UNL     1      -6.984   4.535  12.716  1.00  0.00     0.149 C 
HETATM   26  O3  UNL     1      -7.876   5.203  12.202  1.00  0.00    -0.293 OA
BRANCH  25  27
HETATM   27  C17 UNL     1      -6.819   3.082  12.406  1.00  0.00     0.052 C 
HETATM   28  C18 UNL     1      -5.943   2.562  11.525  1.00  0.00    -0.084 C 
HETATM   29  C19 UNL     1      -5.843   1.070  11.342  1.00  0.00     0.043 C 
HETATM   30  C20 UNL     1      -5.010   3.356  10.652  1.00  0.00     0.043 C 
ENDBRANCH  25  27
ENDBRANCH  24  25
ENDBRANCH  22  24
ENDBRANCH  14  22
BRANCH  20  31
HETATM   31  C27 UNL     1       0.762   6.100  10.786  1.00  0.00     0.021 C 
BRANCH  31  32
HETATM   32  C28 UNL     1       1.973   6.401   9.905  1.00  0.00     0.111 C 
BRANCH  32  33
HETATM   33  C29 UNL     1       2.975   5.280   9.957  1.00  0.00     0.139 C 
HETATM   34  O4  UNL     1       4.133   5.303   9.578  1.00  0.00    -0.650 OA
BRANCH  33  35
HETATM   35  O5  UNL     1       2.443   4.154  10.471  1.00  0.00    -0.776 OA
HETATM   36  H41 UNL     1       3.176   3.503  10.443  1.00  0.00     0.167 HD
ENDBRANCH  33  35
ENDBRANCH  32  33
ENDBRANCH  31  32
ENDBRANCH  20  31
TORSDOF 8
ENDMDL
MODEL 3
REMARK minimizedAffinity -9.1259203
REMARK  8 active torsions:
REMARK  status: ('A' for Active; 'I' for Inactive)
REMARK    1  A    between atoms: C12_14  and  C13_15 
REMARK    2  A    between atoms: C13_15  and  C15_17 
REMARK    3  A    between atoms: C15_17  and  C16_18 
REMARK    4  A    between atoms: C16_18  and  C17_20 
REMARK    5  A    between atoms: C26_29  and  C27_30 
REMARK    6  A    between atoms: C27_30  and  C28_31 
REMARK    7  A    between atoms: C28_31  and  C29_32 
REMARK    8  A    between atoms: C29_32  and  O5_34 
ROOT
HETATM    1  C1  UNL     1       1.920   8.765  14.389  1.00  0.00     0.025 C 
HETATM    2  C2  UNL     1       0.733   9.358  14.213  1.00  0.00     0.015 C 
HETATM    3  C3  UNL     1       0.476  10.728  14.708  1.00  0.00     0.289 C 
HETATM    4  O1  UNL     1       1.293  11.489  15.191  1.00  0.00    -0.260 OA
HETATM    5  O2  UNL     1      -0.840  11.000  14.513  1.00  0.00    -0.311 OA
HETATM    6  C4  UNL     1      -1.550   9.814  14.106  1.00  0.00     0.142 C 
HETATM    7  C5  UNL     1      -2.349   9.311  15.300  1.00  0.00     0.039 C 
HETATM    8  C6  UNL     1      -3.020   7.939  15.125  1.00  0.00     0.006 C 
HETATM    9  C7  UNL     1      -2.102   6.892  14.447  1.00  0.00    -0.027 A 
HETATM   10  C8  UNL     1      -2.775   5.531  14.168  1.00  0.00     0.011 C 
HETATM   11  C9  UNL     1      -4.220   5.593  13.651  1.00  0.00     0.011 C 
HETATM   12  C10 UNL     1      -5.084   6.521  14.519  1.00  0.00    -0.032 C 
HETATM   13  C11 UNL     1      -5.150   5.925  15.954  1.00  0.00     0.016 C 
HETATM   14  C12 UNL     1      -6.535   6.817  14.022  1.00  0.00    -0.002 C 
HETATM   15  C21 UNL     1      -6.841   8.218  14.627  1.00  0.00     0.006 C 
HETATM   16  C22 UNL     1      -5.507   8.799  15.136  1.00  0.00     0.011 C 
HETATM   17  C23 UNL     1      -4.423   7.959  14.440  1.00  0.00    -0.032 C 
HETATM   18  C24 UNL     1      -4.288   8.513  12.985  1.00  0.00     0.016 C 
HETATM   19  C25 UNL     1      -0.720   6.730  15.033  1.00  0.00     0.022 A 
HETATM   20  C26 UNL     1      -0.841   7.363  13.656  1.00  0.00    -0.021 A 
HETATM   21  C30 UNL     1      -0.506   8.857  13.548  1.00  0.00     0.063 C 
ENDROOT
BRANCH  14  22
HETATM   22  C13 UNL     1      -7.714   5.805  14.150  1.00  0.00    -0.007 C 
HETATM   23  C14 UNL     1      -7.617   4.741  15.254  1.00  0.00     0.011 C 
BRANCH  22  24
HETATM   24  C15 UNL     1      -8.038   5.140  12.799  1.00  0.00     0.087 C 
BRANCH  24  25
HETATM   25  C16 UNL     1      -7.537   3.706  12.690  1.00  0.00     0.149 C 
HETATM   26  O3  UNL     1      -8.286   2.735  12.732  1.00  0.00    -0.293 OA
BRANCH  25  27
HETATM   27  C17 UNL     1      -6.068   3.550  12.456  1.00  0.00     0.052 C 
HETATM   28  C18 UNL     1      -5.480   2.524  11.813  1.00  0.00    -0.084 C 
HETATM   29  C19 UNL     1      -3.989   2.514  11.600  1.00  0.00     0.043 C 
HETATM   30  C20 UNL     1      -6.192   1.318  11.262  1.00  0.00     0.043 C 
ENDBRANCH  25  27
ENDBRANCH  24  25
ENDBRANCH  22  24
ENDBRANCH  14  22
BRANCH  20  31
HETATM   31  C27 UNL     1      -0.444   6.577  12.393  1.00  0.00     0.021 C 
BRANCH  31  32
HETATM   32  C28 UNL     1       0.914   5.881  12.452  1.00  0.00     0.111 C 
BRANCH  32  33
HETATM   33  C29 UNL     1       1.147   5.040  11.226  1.00  0.00     0.139 C 
HETATM   34  O4  UNL     1       1.705   5.372  10.194  1.00  0.00    -0.650 OA
BRANCH  33  35
HETATM   35  O5  UNL     1       0.628   3.804  11.359  1.00  0.00    -0.776 OA
HETATM   36  H41 UNL     1       0.830   3.362  10.507  1.00  0.00     0.167 HD
ENDBRANCH  33  35
ENDBRANCH  32  33
ENDBRANCH  31  32
ENDBRANCH  20  31
TORSDOF 8
ENDMDL
MODEL 4
REMARK minimizedAffinity -8.98864269
REMARK  8 active torsions:
REMARK  status: ('A' for Active; 'I' for Inactive)
REMARK    1  A    between atoms: C12_14  and  C13_15 
REMARK    2  A    between atoms: C13_15  and  C15_17 
REMARK    3  A    between atoms: C15_17  and  C16_18 
REMARK    4  A    between atoms: C16_18  and  C17_20 
REMARK    5  A    between atoms: C26_29  and  C27_30 
REMARK    6  A    between atoms: C27_30  and  C28_31 
REMARK    7  A    between atoms: C28_31  and  C29_32 
REMARK    8  A    between atoms: C29_32  and  O5_34 
ROOT
HETATM    1  C1  UNL     1      -7.588   4.795  14.334  1.00  0.00     0.025 C 
HETATM    2  C2  UNL     1      -6.729   4.391  13.392  1.00  0.00     0.015 C 
HETATM    3  C3  UNL     1      -6.785   3.022  12.835  1.00  0.00     0.289 C 
HETATM    4  O1  UNL     1      -7.642   2.186  13.052  1.00  0.00    -0.260 OA
HETATM    5  O2  UNL     1      -5.714   2.862  12.016  1.00  0.00    -0.311 OA
HETATM    6  C4  UNL     1      -4.805   3.973  12.144  1.00  0.00     0.142 C 
HETATM    7  C5  UNL     1      -3.610   3.511  12.966  1.00  0.00     0.039 C 
HETATM    8  C6  UNL     1      -2.620   4.610  13.383  1.00  0.00     0.006 C 
HETATM    9  C7  UNL     1      -3.314   5.901  13.883  1.00  0.00    -0.027 A 
HETATM   10  C8  UNL     1      -2.353   7.060  14.219  1.00  0.00     0.011 C 
HETATM   11  C9  UNL     1      -1.182   7.262  13.245  1.00  0.00     0.011 C 
HETATM   12  C10 UNL     1      -0.451   5.939  12.971  1.00  0.00    -0.032 C 
HETATM   13  C11 UNL     1       0.164   5.434  14.308  1.00  0.00     0.016 C 
HETATM   14  C12 UNL     1       0.659   5.952  11.872  1.00  0.00    -0.002 C 
HETATM   15  C21 UNL     1       0.666   4.483  11.354  1.00  0.00     0.006 C 
HETATM   16  C22 UNL     1      -0.603   3.799  11.900  1.00  0.00     0.011 C 
HETATM   17  C23 UNL     1      -1.518   4.956  12.332  1.00  0.00    -0.032 C 
HETATM   18  C24 UNL     1      -2.188   5.510  11.034  1.00  0.00     0.016 C 
HETATM   19  C25 UNL     1      -4.379   5.724  14.939  1.00  0.00     0.022 A 
HETATM   20  C26 UNL     1      -4.819   6.151  13.547  1.00  0.00    -0.021 A 
HETATM   21  C30 UNL     1      -5.612   5.125  12.726  1.00  0.00     0.063 C 
ENDROOT
BRANCH  14  22
HETATM   22  C13 UNL     1       2.082   6.548  12.090  1.00  0.00    -0.007 C 
HETATM   23  C14 UNL     1       2.311   7.389  13.355  1.00  0.00     0.011 C 
BRANCH  22  24
HETATM   24  C15 UNL     1       2.570   7.316  10.846  1.00  0.00     0.087 C 
BRANCH  24  25
HETATM   25  C16 UNL     1       1.476   8.125  10.162  1.00  0.00     0.149 C 
HETATM   26  O3  UNL     1       0.700   8.849  10.778  1.00  0.00    -0.293 OA
BRANCH  25  27
HETATM   27  C17 UNL     1       1.446   8.039   8.670  1.00  0.00     0.052 C 
HETATM   28  C18 UNL     1       2.033   7.082   7.926  1.00  0.00    -0.084 C 
HETATM   29  C19 UNL     1       1.883   7.084   6.427  1.00  0.00     0.043 C 
HETATM   30  C20 UNL     1       2.874   5.956   8.462  1.00  0.00     0.043 C 
ENDBRANCH  25  27
ENDBRANCH  24  25
ENDBRANCH  22  24
ENDBRANCH  14  22
BRANCH  20  31
HETATM   31  C27 UNL     1      -5.268   7.598  13.275  1.00  0.00     0.021 C 
BRANCH  31  32
HETATM   32  C28 UNL     1      -5.469   8.468  14.514  1.00  0.00     0.111 C 
BRANCH  32  33
HETATM   33  C29 UNL     1      -6.805   8.203  15.155  1.00  0.00     0.139 C 
HETATM   34  O4  UNL     1      -7.907   8.451  14.699  1.00  0.00    -0.650 OA
BRANCH  33  35
HETATM   35  O5  UNL     1      -6.674   7.653  16.377  1.00  0.00    -0.776 OA
HETATM   36  H41 UNL     1      -7.596   7.540  16.693  1.00  0.00     0.167 HD
ENDBRANCH  33  35
ENDBRANCH  32  33
ENDBRANCH  31  32
ENDBRANCH  20  31
TORSDOF 8
ENDMDL
MODEL 5
REMARK minimizedAffinity -8.92690086
REMARK  8 active torsions:
REMARK  status: ('A' for Active; 'I' for Inactive)
REMARK    1  A    between atoms: C12_14  and  C13_15 
REMARK    2  A    between atoms: C13_15  and  C15_17 
REMARK    3  A    between atoms: C15_17  and  C16_18 
REMARK    4  A    between atoms: C16_18  and  C17_20 
REMARK    5  A    between atoms: C26_29  and  C27_30 
REMARK    6  A    between atoms: C27_30  and  C28_31 
REMARK    7  A    between atoms: C28_31  and  C29_32 
REMARK    8  A    between atoms: C29_32  and  O5_34 
ROOT
HETATM    1  C1  UNL     1       5.081   6.816  11.044  1.00  0.00     0.025 C 
HETATM    2  C2  UNL     1       4.474   7.504  12.019  1.00  0.00     0.015 C 
HETATM    3  C3  UNL     1       5.178   7.842  13.275  1.00  0.00     0.289 C 
HETATM    4  O1  UNL     1       6.357   7.666  13.515  1.00  0.00    -0.260 OA
HETATM    5  O2  UNL     1       4.275   8.407  14.118  1.00  0.00    -0.311 OA
HETATM    6  C4  UNL     1       2.939   8.281  13.591  1.00  0.00     0.142 C 
HETATM    7  C5  UNL     1       2.227   7.186  14.372  1.00  0.00     0.039 C 
HETATM    8  C6  UNL     1       0.853   6.763  13.828  1.00  0.00     0.006 C 
HETATM    9  C7  UNL     1       0.826   6.610  12.287  1.00  0.00    -0.027 A 
HETATM   10  C8  UNL     1      -0.561   6.281  11.697  1.00  0.00     0.011 C 
HETATM   11  C9  UNL     1      -1.748   7.033  12.319  1.00  0.00     0.011 C 
HETATM   12  C10 UNL     1      -1.716   6.954  13.853  1.00  0.00    -0.032 C 
HETATM   13  C11 UNL     1      -1.867   5.464  14.269  1.00  0.00     0.016 C 
HETATM   14  C12 UNL     1      -2.764   7.811  14.633  1.00  0.00    -0.002 C 
HETATM   15  C21 UNL     1      -2.061   8.084  15.995  1.00  0.00     0.006 C 
HETATM   16  C22 UNL     1      -0.579   7.690  15.831  1.00  0.00     0.011 C 
HETATM   17  C23 UNL     1      -0.356   7.625  14.312  1.00  0.00    -0.032 C 
HETATM   18  C24 UNL     1      -0.179   9.097  13.819  1.00  0.00     0.016 C 
HETATM   19  C25 UNL     1       1.916   5.762  11.677  1.00  0.00     0.022 A 
HETATM   20  C26 UNL     1       1.953   7.261  11.424  1.00  0.00    -0.021 A 
HETATM   21  C30 UNL     1       3.086   8.050  12.094  1.00  0.00     0.063 C 
ENDROOT
BRANCH  14  22
HETATM   22  C13 UNL     1      -4.267   7.420  14.769  1.00  0.00    -0.007 C 
HETATM   23  C14 UNL     1      -4.619   6.288  15.745  1.00  0.00     0.011 C 
BRANCH  22  24
HETATM   24  C15 UNL     1      -4.909   7.154  13.394  1.00  0.00     0.087 C 
BRANCH  24  25
HETATM   25  C16 UNL     1      -6.001   6.094  13.426  1.00  0.00     0.149 C 
HETATM   26  O3  UNL     1      -7.121   6.306  13.880  1.00  0.00    -0.293 OA
BRANCH  25  27
HETATM   27  C17 UNL     1      -5.648   4.782  12.801  1.00  0.00     0.052 C 
HETATM   28  C18 UNL     1      -6.499   3.761  12.583  1.00  0.00    -0.084 C 
HETATM   29  C19 UNL     1      -6.023   2.508  11.896  1.00  0.00     0.043 C 
HETATM   30  C20 UNL     1      -7.949   3.736  12.982  1.00  0.00     0.043 C 
ENDBRANCH  25  27
ENDBRANCH  24  25
ENDBRANCH  22  24
ENDBRANCH  14  22
BRANCH  20  31
HETATM   31  C27 UNL     1       1.569   7.834  10.048  1.00  0.00     0.021 C 
BRANCH  31  32
HETATM   32  C28 UNL     1       1.874   6.934   8.852  1.00  0.00     0.111 C 
BRANCH  32  33
HETATM   33  C29 UNL     1       2.260   7.745   7.645  1.00  0.00     0.139 C 
HETATM   34  O4  UNL     1       2.879   8.794   7.624  1.00  0.00    -0.650 OA
BRANCH  33  35
HETATM   35  O5  UNL     1       1.811   7.189   6.503  1.00  0.00    -0.776 OA
HETATM   36  H41 UNL     1       2.110   7.803   5.799  1.00  0.00     0.167 HD
ENDBRANCH  33  35
ENDBRANCH  32  33
ENDBRANCH  31  32
ENDBRANCH  20  31
TORSDOF 8
ENDMDL
MODEL 6
REMARK minimizedAffinity -8.92499638
REMARK  8 active torsions:
REMARK  status: ('A' for Active; 'I' for Inactive)
REMARK    1  A    between atoms: C12_14  and  C13_15 
REMARK    2  A    between atoms: C13_15  and  C15_17 
REMARK    3  A    between atoms: C15_17  and  C16_18 
REMARK    4  A    between atoms: C16_18  and  C17_20 
REMARK    5  A    between atoms: C26_29  and  C27_30 
REMARK    6  A    between atoms: C27_30  and  C28_31 
REMARK    7  A    between atoms: C28_31  and  C29_32 
REMARK    8  A    between atoms: C29_32  and  O5_34 
ROOT
HETATM    1  C1  UNL     1      -5.769   2.836  11.611  1.00  0.00     0.025 C 
HETATM    2  C2  UNL     1      -5.290   3.654  12.556  1.00  0.00     0.015 C 
HETATM    3  C3  UNL     1      -6.179   4.572  13.301  1.00  0.00     0.289 C 
HETATM    4  O1  UNL     1      -7.394   4.606  13.248  1.00  0.00    -0.260 OA
HETATM    5  O2  UNL     1      -5.399   5.366  14.079  1.00  0.00    -0.311 OA
HETATM    6  C4  UNL     1      -4.007   5.191  13.749  1.00  0.00     0.142 C 
HETATM    7  C5  UNL     1      -3.560   6.400  12.940  1.00  0.00     0.039 C 
HETATM    8  C6  UNL     1      -2.155   6.309  12.323  1.00  0.00     0.006 C 
HETATM    9  C7  UNL     1      -1.857   4.930  11.683  1.00  0.00    -0.027 A 
HETATM   10  C8  UNL     1      -0.422   4.770  11.138  1.00  0.00     0.011 C 
HETATM   11  C9  UNL     1       0.695   5.360  12.013  1.00  0.00     0.011 C 
HETATM   12  C10 UNL     1       0.372   6.802  12.432  1.00  0.00    -0.032 C 
HETATM   13  C11 UNL     1       0.301   7.679  11.150  1.00  0.00     0.016 C 
HETATM   14  C12 UNL     1       1.334   7.479  13.460  1.00  0.00    -0.002 C 
HETATM   15  C21 UNL     1       0.419   8.514  14.178  1.00  0.00     0.006 C 
HETATM   16  C22 UNL     1      -1.038   8.179  13.799  1.00  0.00     0.011 C 
HETATM   17  C23 UNL     1      -0.981   6.741  13.256  1.00  0.00    -0.032 C 
HETATM   18  C24 UNL     1      -0.922   5.793  14.497  1.00  0.00     0.016 C 
HETATM   19  C25 UNL     1      -2.890   4.400  10.718  1.00  0.00     0.022 A 
HETATM   20  C26 UNL     1      -2.737   3.696  12.057  1.00  0.00    -0.021 A 
HETATM   21  C30 UNL     1      -3.895   3.842  13.054  1.00  0.00     0.063 C 
ENDROOT
BRANCH  14  22
HETATM   22  C13 UNL     1       2.741   8.035  13.088  1.00  0.00    -0.007 C 
HETATM   23  C14 UNL     1       2.826   9.500  12.635  1.00  0.00     0.011 C 
BRANCH  22  24
HETATM   24  C15 UNL     1       3.459   7.124  12.074  1.00  0.00     0.087 C 
BRANCH  24  25
HETATM   25  C16 UNL     1       4.326   7.883  11.079  1.00  0.00     0.149 C 
HETATM   26  O3  UNL     1       5.503   8.156  11.294  1.00  0.00    -0.293 OA
BRANCH  25  27
HETATM   27  C17 UNL     1       3.672   8.221   9.777  1.00  0.00     0.052 C 
HETATM   28  C18 UNL     1       3.155   7.336   8.904  1.00  0.00    -0.084 C 
HETATM   29  C19 UNL     1       2.477   7.814   7.648  1.00  0.00     0.043 C 
HETATM   30  C20 UNL     1       3.194   5.839   9.056  1.00  0.00     0.043 C 
ENDBRANCH  25  27
ENDBRANCH  24  25
ENDBRANCH  22  24
ENDBRANCH  14  22
BRANCH  20  31
HETATM   31  C27 UNL     1      -2.053   2.320  12.146  1.00  0.00     0.021 C 
BRANCH  31  32
HETATM   32  C28 UNL     1      -2.206   1.428  10.916  1.00  0.00     0.111 C 
BRANCH  32  33
HETATM   33  C29 UNL     1      -0.867   1.088  10.319  1.00  0.00     0.139 C 
HETATM   34  O4  UNL     1      -0.648   0.432   9.316  1.00  0.00    -0.650 OA
BRANCH  33  35
HETATM   35  O5  UNL     1       0.149   1.583  11.053  1.00  0.00    -0.776 OA
HETATM   36  H41 UNL     1       0.956   1.291  10.578  1.00  0.00     0.167 HD
ENDBRANCH  33  35
ENDBRANCH  32  33
ENDBRANCH  31  32
ENDBRANCH  20  31
TORSDOF 8
ENDMDL
MODEL 7
REMARK minimizedAffinity -8.73173809
REMARK  8 active torsions:
REMARK  status: ('A' for Active; 'I' for Inactive)
REMARK    1  A    between atoms: C12_14  and  C13_15 
REMARK    2  A    between atoms: C13_15  and  C15_17 
REMARK    3  A    between atoms: C15_17  and  C16_18 
REMARK    4  A    between atoms: C16_18  and  C17_20 
REMARK    5  A    between atoms: C26_29  and  C27_30 
REMARK    6  A    between atoms: C27_30  and  C28_31 
REMARK    7  A    between atoms: C28_31  and  C29_32 
REMARK    8  A    between atoms: C29_32  and  O5_34 
ROOT
HETATM    1  C1  UNL     1       2.360   6.454  12.109  1.00  0.00     0.025 C 
HETATM    2  C2  UNL     1       1.419   7.401  12.218  1.00  0.00     0.015 C 
HETATM    3  C3  UNL     1       1.767   8.792  12.578  1.00  0.00     0.289 C 
HETATM    4  O1  UNL     1       2.886   9.255  12.687  1.00  0.00    -0.260 OA
HETATM    5  O2  UNL     1       0.607   9.479  12.751  1.00  0.00    -0.311 OA
HETATM    6  C4  UNL     1      -0.521   8.581  12.739  1.00  0.00     0.142 C 
HETATM    7  C5  UNL     1      -0.998   8.407  14.174  1.00  0.00     0.039 C 
HETATM    8  C6  UNL     1      -2.072   7.329  14.395  1.00  0.00     0.006 C 
HETATM    9  C7  UNL     1      -1.789   6.018  13.621  1.00  0.00    -0.027 A 
HETATM   10  C8  UNL     1      -2.895   4.948  13.743  1.00  0.00     0.011 C 
HETATM   11  C9  UNL     1      -4.339   5.469  13.678  1.00  0.00     0.011 C 
HETATM   12  C10 UNL     1      -4.547   6.655  14.632  1.00  0.00    -0.032 C 
HETATM   13  C11 UNL     1      -4.318   6.158  16.088  1.00  0.00     0.016 C 
HETATM   14  C12 UNL     1      -5.919   7.398  14.557  1.00  0.00    -0.002 C 
HETATM   15  C21 UNL     1      -5.570   8.840  15.031  1.00  0.00     0.006 C 
HETATM   16  C22 UNL     1      -4.033   8.963  15.033  1.00  0.00     0.011 C 
HETATM   17  C23 UNL     1      -3.545   7.791  14.165  1.00  0.00    -0.032 C 
HETATM   18  C24 UNL     1      -3.732   8.225  12.676  1.00  0.00     0.016 C 
HETATM   19  C25 UNL     1      -0.410   5.426  13.783  1.00  0.00     0.022 A 
HETATM   20  C26 UNL     1      -0.776   6.022  12.433  1.00  0.00    -0.021 A 
HETATM   21  C30 UNL     1      -0.059   7.318  12.029  1.00  0.00     0.063 C 
ENDROOT
BRANCH  14  22
HETATM   22  C13 UNL     1      -7.239   6.838  15.168  1.00  0.00    -0.007 C 
HETATM   23  C14 UNL     1      -7.455   7.023  16.677  1.00  0.00     0.011 C 
BRANCH  22  24
HETATM   24  C15 UNL     1      -7.461   5.364  14.777  1.00  0.00     0.087 C 
BRANCH  24  25
HETATM   25  C16 UNL     1      -7.969   5.181  13.353  1.00  0.00     0.149 C 
HETATM   26  O3  UNL     1      -9.083   5.549  12.992  1.00  0.00    -0.293 OA
BRANCH  25  27
HETATM   27  C17 UNL     1      -6.995   4.582  12.390  1.00  0.00     0.052 C 
HETATM   28  C18 UNL     1      -6.787   3.265  12.199  1.00  0.00    -0.084 C 
HETATM   29  C19 UNL     1      -5.807   2.793  11.158  1.00  0.00     0.043 C 
HETATM   30  C20 UNL     1      -7.461   2.158  12.963  1.00  0.00     0.043 C 
ENDBRANCH  25  27
ENDBRANCH  24  25
ENDBRANCH  22  24
ENDBRANCH  14  22
BRANCH  20  31
HETATM   31  C27 UNL     1      -1.072   5.111  11.228  1.00  0.00     0.021 C 
BRANCH  31  32
HETATM   32  C28 UNL     1      -1.747   3.781  11.558  1.00  0.00     0.111 C 
BRANCH  32  33
HETATM   33  C29 UNL     1      -0.847   2.619  11.235  1.00  0.00     0.139 C 
HETATM   34  O4  UNL     1      -1.177   1.473  10.985  1.00  0.00    -0.650 OA
BRANCH  33  35
HETATM   35  O5  UNL     1       0.454   2.967  11.273  1.00  0.00    -0.776 OA
HETATM   36  H41 UNL     1       0.934   2.138  11.060  1.00  0.00     0.167 HD
ENDBRANCH  33  35
ENDBRANCH  32  33
ENDBRANCH  31  32
ENDBRANCH  20  31
TORSDOF 8
ENDMDL
MODEL 8
REMARK minimizedAffinity -8.53919315
REMARK  8 active torsions:
REMARK  status: ('A' for Active; 'I' for Inactive)
REMARK    1  A    between atoms: C12_14  and  C13_15 
REMARK    2  A    between atoms: C13_15  and  C15_17 
REMARK    3  A    between atoms: C15_17  and  C16_18 
REMARK    4  A    between atoms: C16_18  and  C17_20 
REMARK    5  A    between atoms: C26_29  and  C27_30 
REMARK    6  A    between atoms: C27_30  and  C28_31 
REMARK    7  A    between atoms: C28_31  and  C29_32 
REMARK    8  A    between atoms: C29_32  and  O5_34 
ROOT
HETATM    1  C1  UNL     1      -6.870   7.326  16.359  1.00  0.00     0.025 C 
HETATM    2  C2  UNL     1      -6.408   7.309  15.103  1.00  0.00     0.015 C 
HETATM    3  C3  UNL     1      -7.158   6.644  14.015  1.00  0.00     0.289 C 
HETATM    4  O1  UNL     1      -8.277   6.173  14.090  1.00  0.00    -0.260 OA
HETATM    5  O2  UNL     1      -6.382   6.667  12.901  1.00  0.00    -0.311 OA
HETATM    6  C4  UNL     1      -5.052   7.122  13.217  1.00  0.00     0.142 C 
HETATM    7  C5  UNL     1      -4.130   5.911  13.222  1.00  0.00     0.039 C 
HETATM    8  C6  UNL     1      -2.702   6.160  13.733  1.00  0.00     0.006 C 
HETATM    9  C7  UNL     1      -2.653   7.041  15.006  1.00  0.00    -0.027 A 
HETATM   10  C8  UNL     1      -1.231   7.391  15.492  1.00  0.00     0.011 C 
HETATM   11  C9  UNL     1      -0.216   7.742  14.394  1.00  0.00     0.011 C 
HETATM   12  C10 UNL     1      -0.223   6.691  13.273  1.00  0.00    -0.032 C 
HETATM   13  C11 UNL     1       0.227   5.330  13.877  1.00  0.00     0.016 C 
HETATM   14  C12 UNL     1       0.637   6.995  12.005  1.00  0.00    -0.002 C 
HETATM   15  C21 UNL     1      -0.100   6.213  10.877  1.00  0.00     0.006 C 
HETATM   16  C22 UNL     1      -1.473   5.790  11.436  1.00  0.00     0.011 C 
HETATM   17  C23 UNL     1      -1.688   6.685  12.668  1.00  0.00    -0.032 C 
HETATM   18  C24 UNL     1      -2.159   8.077  12.139  1.00  0.00     0.016 C 
HETATM   19  C25 UNL     1      -3.554   6.627  16.145  1.00  0.00     0.022 A 
HETATM   20  C26 UNL     1      -3.893   7.907  15.397  1.00  0.00    -0.021 A 
HETATM   21  C30 UNL     1      -5.157   7.888  14.527  1.00  0.00     0.063 C 
ENDROOT
BRANCH  14  22
HETATM   22  C13 UNL     1       2.188   6.851  11.959  1.00  0.00    -0.007 C 
HETATM   23  C14 UNL     1       3.008   8.114  11.656  1.00  0.00     0.011 C 
BRANCH  22  24
HETATM   24  C15 UNL     1       2.622   5.701  11.030  1.00  0.00     0.087 C 
BRANCH  24  25
HETATM   25  C16 UNL     1       3.422   6.164   9.820  1.00  0.00     0.149 C 
HETATM   26  O3  UNL     1       4.613   6.454   9.881  1.00  0.00    -0.293 OA
BRANCH  25  27
HETATM   27  C17 UNL     1       2.680   6.179   8.522  1.00  0.00     0.052 C 
HETATM   28  C18 UNL     1       2.510   7.252   7.726  1.00  0.00    -0.084 C 
HETATM   29  C19 UNL     1       1.782   7.120   6.414  1.00  0.00     0.043 C 
HETATM   30  C20 UNL     1       2.991   8.646   8.029  1.00  0.00     0.043 C 
ENDBRANCH  25  27
ENDBRANCH  24  25
ENDBRANCH  22  24
ENDBRANCH  14  22
BRANCH  20  31
HETATM   31  C27 UNL     1      -3.640   9.282  16.040  1.00  0.00     0.021 C 
BRANCH  31  32
HETATM   32  C28 UNL     1      -2.303   9.934  15.695  1.00  0.00     0.111 C 
BRANCH  32  33
HETATM   33  C29 UNL     1      -2.503  11.201  14.908  1.00  0.00     0.139 C 
HETATM   34  O4  UNL     1      -3.281  12.108  15.148  1.00  0.00    -0.650 OA
BRANCH  33  35
HETATM   35  O5  UNL     1      -1.712  11.245  13.819  1.00  0.00    -0.776 OA
HETATM   36  H41 UNL     1      -1.937  12.098  13.389  1.00  0.00     0.167 HD
ENDBRANCH  33  35
ENDBRANCH  32  33
ENDBRANCH  31  32
ENDBRANCH  20  31
TORSDOF 8
ENDMDL
MODEL 9
REMARK minimizedAffinity -8.49078846
REMARK  8 active torsions:
REMARK  status: ('A' for Active; 'I' for Inactive)
REMARK    1  A    between atoms: C12_14  and  C13_15 
REMARK    2  A    between atoms: C13_15  and  C15_17 
REMARK    3  A    between atoms: C15_17  and  C16_18 
REMARK    4  A    between atoms: C16_18  and  C17_20 
REMARK    5  A    between atoms: C26_29  and  C27_30 
REMARK    6  A    between atoms: C27_30  and  C28_31 
REMARK    7  A    between atoms: C28_31  and  C29_32 
REMARK    8  A    between atoms: C29_32  and  O5_34 
ROOT
HETATM    1  C1  UNL     1       0.236   5.297  13.855  1.00  0.00     0.025 C 
HETATM    2  C2  UNL     1      -0.575   6.340  14.068  1.00  0.00     0.015 C 
HETATM    3  C3  UNL     1      -0.217   7.411  15.022  1.00  0.00     0.289 C 
HETATM    4  O1  UNL     1       0.846   7.541  15.600  1.00  0.00    -0.260 OA
HETATM    5  O2  UNL     1      -1.283   8.246  15.130  1.00  0.00    -0.311 OA
HETATM    6  C4  UNL     1      -2.434   7.688  14.465  1.00  0.00     0.142 C 
HETATM    7  C5  UNL     1      -3.381   7.156  15.531  1.00  0.00     0.039 C 
HETATM    8  C6  UNL     1      -4.579   6.343  15.015  1.00  0.00     0.006 C 
HETATM    9  C7  UNL     1      -4.201   5.340  13.898  1.00  0.00    -0.027 A 
HETATM   10  C8  UNL     1      -5.395   4.575  13.289  1.00  0.00     0.011 C 
HETATM   11  C9  UNL     1      -6.667   5.403  13.047  1.00  0.00     0.011 C 
HETATM   12  C10 UNL     1      -7.049   6.214  14.294  1.00  0.00    -0.032 C 
HETATM   13  C11 UNL     1      -7.379   5.219  15.442  1.00  0.00     0.016 C 
HETATM   14  C12 UNL     1      -8.225   7.233  14.149  1.00  0.00    -0.002 C 
HETATM   15  C21 UNL     1      -7.898   8.311  15.224  1.00  0.00     0.006 C 
HETATM   16  C22 UNL     1      -6.447   8.070  15.688  1.00  0.00     0.011 C 
HETATM   17  C23 UNL     1      -5.830   7.180  14.597  1.00  0.00    -0.032 C 
HETATM   18  C24 UNL     1      -5.456   8.119  13.406  1.00  0.00     0.016 C 
HETATM   19  C25 UNL     1      -3.031   4.429  14.180  1.00  0.00     0.022 A 
HETATM   20  C26 UNL     1      -2.854   5.511  13.126  1.00  0.00    -0.021 A 
HETATM   21  C30 UNL     1      -1.904   6.666  13.470  1.00  0.00     0.063 C 
ENDROOT
BRANCH  14  22
HETATM   22  C13 UNL     1      -9.727   6.817  14.112  1.00  0.00    -0.007 C 
HETATM   23  C14 UNL     1     -10.401   6.721  12.735  1.00  0.00     0.011 C 
BRANCH  22  24
HETATM   24  C15 UNL     1     -10.577   7.686  15.060  1.00  0.00     0.087 C 
BRANCH  24  25
HETATM   25  C16 UNL     1     -11.986   7.947  14.547  1.00  0.00     0.149 C 
HETATM   26  O3  UNL     1     -12.273   8.919  13.856  1.00  0.00    -0.293 OA
BRANCH  25  27
HETATM   27  C17 UNL     1     -13.000   6.900  14.881  1.00  0.00     0.052 C 
HETATM   28  C18 UNL     1     -13.992   6.480  14.073  1.00  0.00    -0.084 C 
HETATM   29  C19 UNL     1     -14.918   5.378  14.514  1.00  0.00     0.043 C 
HETATM   30  C20 UNL     1     -14.293   7.032  12.706  1.00  0.00     0.043 C 
ENDBRANCH  25  27
ENDBRANCH  24  25
ENDBRANCH  22  24
ENDBRANCH  14  22
BRANCH  20  31
HETATM   31  C27 UNL     1      -2.828   5.151  11.630  1.00  0.00     0.021 C 
BRANCH  31  32
HETATM   32  C28 UNL     1      -1.744   4.161  11.210  1.00  0.00     0.111 C 
BRANCH  32  33
HETATM   33  C29 UNL     1      -2.328   2.803  10.926  1.00  0.00     0.139 C 
HETATM   34  O4  UNL     1      -3.165   2.205  11.578  1.00  0.00    -0.650 OA
BRANCH  33  35
HETATM   35  O5  UNL     1      -1.790   2.248   9.822  1.00  0.00    -0.776 OA
HETATM   36  H41 UNL     1      -2.235   1.376   9.748  1.00  0.00     0.167 HD
ENDBRANCH  33  35
ENDBRANCH  32  33
ENDBRANCH  31  32
ENDBRANCH  20  31
TORSDOF 8
ENDMDL
