MODEL 1
REMARK minimizedAffinity -9.40266418
REMARK  13 active torsions:
REMARK  status: ('A' for Active; 'I' for Inactive)
REMARK    1  A    between atoms: C2_2  and  C3_3 
REMARK    2  A    between atoms: C4_5  and  C5_6 
REMARK    3  A    between atoms: C5_6  and  C6_7 
REMARK    4  A    between atoms: C6_7  and  C7_8 
REMARK    5  A    between atoms: C7_8  and  C9_10 
REMARK    6  A    between atoms: C17_18  and  C18_19 
REMARK    7  A    between atoms: C18_19  and  O2_21 
REMARK    8  A    between atoms: C18_19  and  C20_22 
REMARK    9  A    between atoms: C20_22  and  O3_23 
REMARK   10  A    between atoms: C21_24  and  C22_25 
REMARK   11  A    between atoms: C22_25  and  C23_26 
REMARK   12  A    between atoms: C23_26  and  C24_27 
REMARK   13  A    between atoms: C24_27  and  O5_29 
ROOT
HETATM    1  C9  UNL     1      -4.089  50.102 -24.600  1.00  0.00    -0.002 C 
HETATM    2  C10 UNL     1      -4.276  51.616 -24.409  1.00  0.00     0.006 C 
HETATM    3  C11 UNL     1      -4.137  51.878 -22.892  1.00  0.00     0.011 C 
HETATM    4  C12 UNL     1      -3.812  50.509 -22.227  1.00  0.00    -0.032 C 
HETATM    5  C13 UNL     1      -5.178  49.889 -21.775  1.00  0.00     0.016 C 
HETATM    6  C14 UNL     1      -2.921  50.561 -20.940  1.00  0.00     0.004 C 
HETATM    7  C15 UNL     1      -3.273  51.690 -19.976  1.00  0.00     0.007 C 
HETATM    8  C16 UNL     1      -2.628  51.377 -18.634  1.00  0.00     0.009 C 
HETATM    9  C17 UNL     1      -1.085  51.439 -18.655  1.00  0.00     0.031 C 
HETATM   10  C21 UNL     1      -0.426  50.883 -19.974  1.00  0.00    -0.025 A 
HETATM   11  C25 UNL     1      -0.653  49.471 -20.483  1.00  0.00     0.021 A 
HETATM   12  C26 UNL     1      -1.411  50.577 -21.169  1.00  0.00    -0.027 A 
HETATM   13  C27 UNL     1      -1.037  51.035 -22.546  1.00  0.00     0.011 C 
HETATM   14  C28 UNL     1      -1.674  50.197 -23.645  1.00  0.00     0.011 C 
HETATM   15  C29 UNL     1      -3.138  49.719 -23.415  1.00  0.00    -0.032 C 
HETATM   16  C30 UNL     1      -3.131  48.195 -23.206  1.00  0.00     0.016 C 
ENDROOT
BRANCH   1  17
HETATM   17  C7  UNL     1      -3.842  49.595 -26.051  1.00  0.00    -0.014 C 
HETATM   18  C8  UNL     1      -4.565  48.312 -26.464  1.00  0.00     0.010 C 
BRANCH  17  19
HETATM   19  C6  UNL     1      -2.332  49.404 -26.360  1.00  0.00     0.008 C 
BRANCH  19  20
HETATM   20  C5  UNL     1      -1.691  50.562 -27.135  1.00  0.00     0.028 C 
BRANCH  20  21
HETATM   21  C4  UNL     1      -0.300  50.844 -26.633  1.00  0.00    -0.017 C 
HETATM   22  C2  UNL     1       0.563  51.759 -27.110  1.00  0.00    -0.028 C 
HETATM   23  C1  UNL     1       0.358  52.693 -28.263  1.00  0.00     0.051 C 
BRANCH  22  24
HETATM   24  C3  UNL     1       1.887  51.861 -26.430  1.00  0.00     0.265 C 
HETATM   25  O1  UNL     1       2.791  51.056 -26.620  1.00  0.00    -0.302 OA
ENDBRANCH  22  24
ENDBRANCH  20  21
ENDBRANCH  19  20
ENDBRANCH  17  19
ENDBRANCH   1  17
BRANCH  10  26
HETATM   26  C22 UNL     1       0.925  51.580 -20.282  1.00  0.00     0.021 C 
BRANCH  26  27
HETATM   27  C23 UNL     1       0.983  52.651 -21.373  1.00  0.00     0.111 C 
BRANCH  27  28
HETATM   28  C24 UNL     1       1.406  54.026 -20.944  1.00  0.00     0.139 C 
HETATM   29  O4  UNL     1       1.855  54.888 -21.683  1.00  0.00    -0.650 OA
BRANCH  28  30
HETATM   30  O5  UNL     1       1.152  54.307 -19.655  1.00  0.00    -0.776 OA
HETATM   31  H39 UNL     1       1.461  55.236 -19.571  1.00  0.00     0.167 HD
ENDBRANCH  28  30
ENDBRANCH  27  28
ENDBRANCH  26  27
ENDBRANCH  10  26
BRANCH   9  32
HETATM   32  C18 UNL     1      -0.482  50.924 -17.289  1.00  0.00     0.080 C 
HETATM   33  C19 UNL     1       0.026  49.473 -17.406  1.00  0.00     0.048 C 
BRANCH  32  34
HETATM   34  O2  UNL     1      -1.512  50.884 -16.279  1.00  0.00    -0.388 OA
HETATM   35  H31 UNL     1      -2.200  50.265 -16.579  1.00  0.00     0.210 HD
ENDBRANCH  32  34
BRANCH  32  36
HETATM   36  C20 UNL     1       0.656  51.788 -16.707  1.00  0.00     0.201 C 
BRANCH  36  37
HETATM   37  O3  UNL     1       0.649  53.084 -17.301  1.00  0.00    -0.398 OA
HETATM   38  H34 UNL     1      -0.294  53.221 -17.538  1.00  0.00     0.209 HD
ENDBRANCH  36  37
ENDBRANCH  32  36
ENDBRANCH   9  32
TORSDOF 13
ENDMDL
MODEL 2
REMARK minimizedAffinity -9.22418976
REMARK  13 active torsions:
REMARK  status: ('A' for Active; 'I' for Inactive)
REMARK    1  A    between atoms: C2_2  and  C3_3 
REMARK    2  A    between atoms: C4_5  and  C5_6 
REMARK    3  A    between atoms: C5_6  and  C6_7 
REMARK    4  A    between atoms: C6_7  and  C7_8 
REMARK    5  A    between atoms: C7_8  and  C9_10 
REMARK    6  A    between atoms: C17_18  and  C18_19 
REMARK    7  A    between atoms: C18_19  and  O2_21 
REMARK    8  A    between atoms: C18_19  and  C20_22 
REMARK    9  A    between atoms: C20_22  and  O3_23 
REMARK   10  A    between atoms: C21_24  and  C22_25 
REMARK   11  A    between atoms: C22_25  and  C23_26 
REMARK   12  A    between atoms: C23_26  and  C24_27 
REMARK   13  A    between atoms: C24_27  and  O5_29 
ROOT
HETATM    1  C9  UNL     1      -4.213  50.002 -24.635  1.00  0.00    -0.002 C 
HETATM    2  C10 UNL     1      -4.499  51.491 -24.386  1.00  0.00     0.006 C 
HETATM    3  C11 UNL     1      -4.409  51.696 -22.858  1.00  0.00     0.011 C 
HETATM    4  C12 UNL     1      -4.013  50.324 -22.242  1.00  0.00    -0.032 C 
HETATM    5  C13 UNL     1      -5.346  49.602 -21.849  1.00  0.00     0.016 C 
HETATM    6  C14 UNL     1      -3.155  50.375 -20.933  1.00  0.00     0.004 C 
HETATM    7  C15 UNL     1      -3.598  51.439 -19.932  1.00  0.00     0.007 C 
HETATM    8  C16 UNL     1      -2.963  51.110 -18.589  1.00  0.00     0.009 C 
HETATM    9  C17 UNL     1      -1.426  51.267 -18.570  1.00  0.00     0.031 C 
HETATM   10  C21 UNL     1      -0.706  50.810 -19.895  1.00  0.00    -0.025 A 
HETATM   11  C25 UNL     1      -0.832  49.409 -20.467  1.00  0.00     0.021 A 
HETATM   12  C26 UNL     1      -1.644  50.495 -21.125  1.00  0.00    -0.027 A 
HETATM   13  C27 UNL     1      -1.270  51.033 -22.473  1.00  0.00     0.011 C 
HETATM   14  C28 UNL     1      -1.830  50.205 -23.621  1.00  0.00     0.011 C 
HETATM   15  C29 UNL     1      -3.266  49.628 -23.445  1.00  0.00    -0.032 C 
HETATM   16  C30 UNL     1      -3.167  48.099 -23.299  1.00  0.00     0.016 C 
ENDROOT
BRANCH   1  17
HETATM   17  C7  UNL     1      -3.904  49.573 -26.100  1.00  0.00    -0.014 C 
HETATM   18  C8  UNL     1      -4.607  48.315 -26.612  1.00  0.00     0.010 C 
BRANCH  17  19
HETATM   19  C6  UNL     1      -2.382  49.397 -26.354  1.00  0.00     0.008 C 
BRANCH  19  20
HETATM   20  C5  UNL     1      -1.734  50.541 -27.144  1.00  0.00     0.028 C 
BRANCH  20  21
HETATM   21  C4  UNL     1      -0.312  50.764 -26.703  1.00  0.00    -0.017 C 
HETATM   22  C2  UNL     1       0.539  51.702 -27.159  1.00  0.00    -0.028 C 
HETATM   23  C1  UNL     1       0.287  52.724 -28.225  1.00  0.00     0.051 C 
BRANCH  22  24
HETATM   24  C3  UNL     1       1.901  51.733 -26.551  1.00  0.00     0.265 C 
HETATM   25  O1  UNL     1       2.912  51.966 -27.203  1.00  0.00    -0.302 OA
ENDBRANCH  22  24
ENDBRANCH  20  21
ENDBRANCH  19  20
ENDBRANCH  17  19
ENDBRANCH   1  17
BRANCH  10  26
HETATM   26  C22 UNL     1       0.605  51.602 -20.142  1.00  0.00     0.021 C 
BRANCH  26  27
HETATM   27  C23 UNL     1       0.611  52.740 -21.165  1.00  0.00     0.111 C 
BRANCH  27  28
HETATM   28  C24 UNL     1       1.428  53.950 -20.819  1.00  0.00     0.139 C 
HETATM   29  O4  UNL     1       1.777  54.813 -21.609  1.00  0.00    -0.650 OA
BRANCH  28  30
HETATM   30  O5  UNL     1       1.678  54.095 -19.507  1.00  0.00    -0.776 OA
HETATM   31  H39 UNL     1       2.183  54.937 -19.475  1.00  0.00     0.167 HD
ENDBRANCH  28  30
ENDBRANCH  27  28
ENDBRANCH  26  27
ENDBRANCH  10  26
BRANCH   9  32
HETATM   32  C18 UNL     1      -0.822  50.733 -17.213  1.00  0.00     0.080 C 
HETATM   33  C19 UNL     1      -1.865  50.763 -16.078  1.00  0.00     0.048 C 
BRANCH  32  34
HETATM   34  O2  UNL     1       0.243  51.602 -16.772  1.00  0.00    -0.388 OA
HETATM   35  H31 UNL     1      -0.134  52.487 -16.627  1.00  0.00     0.210 HD
ENDBRANCH  32  34
BRANCH  32  36
HETATM   36  C20 UNL     1      -0.219  49.314 -17.276  1.00  0.00     0.201 C 
BRANCH  36  37
HETATM   37  O3  UNL     1       0.425  48.994 -16.045  1.00  0.00    -0.398 OA
HETATM   38  H34 UNL     1      -0.071  49.524 -15.384  1.00  0.00     0.209 HD
ENDBRANCH  36  37
ENDBRANCH  32  36
ENDBRANCH   9  32
TORSDOF 13
ENDMDL
MODEL 3
REMARK minimizedAffinity -9.10274887
REMARK  13 active torsions:
REMARK  status: ('A' for Active; 'I' for Inactive)
REMARK    1  A    between atoms: C2_2  and  C3_3 
REMARK    2  A    between atoms: C4_5  and  C5_6 
REMARK    3  A    between atoms: C5_6  and  C6_7 
REMARK    4  A    between atoms: C6_7  and  C7_8 
REMARK    5  A    between atoms: C7_8  and  C9_10 
REMARK    6  A    between atoms: C17_18  and  C18_19 
REMARK    7  A    between atoms: C18_19  and  O2_21 
REMARK    8  A    between atoms: C18_19  and  C20_22 
REMARK    9  A    between atoms: C20_22  and  O3_23 
REMARK   10  A    between atoms: C21_24  and  C22_25 
REMARK   11  A    between atoms: C22_25  and  C23_26 
REMARK   12  A    between atoms: C23_26  and  C24_27 
REMARK   13  A    between atoms: C24_27  and  O5_29 
ROOT
HETATM    1  C9  UNL     1      -2.420  48.923 -19.552  1.00  0.00    -0.002 C 
HETATM    2  C10 UNL     1      -1.533  47.798 -20.110  1.00  0.00     0.006 C 
HETATM    3  C11 UNL     1      -1.750  47.800 -21.640  1.00  0.00     0.011 C 
HETATM    4  C12 UNL     1      -2.724  48.972 -21.955  1.00  0.00    -0.032 C 
HETATM    5  C13 UNL     1      -4.169  48.370 -21.969  1.00  0.00     0.016 C 
HETATM    6  C14 UNL     1      -2.539  49.668 -23.346  1.00  0.00     0.004 C 
HETATM    7  C15 UNL     1      -2.277  48.706 -24.501  1.00  0.00     0.007 C 
HETATM    8  C16 UNL     1      -2.522  49.458 -25.801  1.00  0.00     0.009 C 
HETATM    9  C17 UNL     1      -1.497  50.580 -26.075  1.00  0.00     0.031 C 
HETATM   10  C21 UNL     1      -1.047  51.381 -24.794  1.00  0.00    -0.025 A 
HETATM   11  C25 UNL     1      -2.021  52.113 -23.889  1.00  0.00     0.021 A 
HETATM   12  C26 UNL     1      -1.499  50.785 -23.405  1.00  0.00    -0.027 A 
HETATM   13  C27 UNL     1      -0.496  50.705 -22.294  1.00  0.00     0.011 C 
HETATM   14  C28 UNL     1      -1.134  50.724 -20.913  1.00  0.00     0.011 C 
HETATM   15  C29 UNL     1      -2.471  49.944 -20.738  1.00  0.00    -0.032 C 
HETATM   16  C30 UNL     1      -3.608  50.959 -20.523  1.00  0.00     0.016 C 
ENDROOT
BRANCH   1  17
HETATM   17  C7  UNL     1      -2.154  49.376 -18.086  1.00  0.00    -0.014 C 
HETATM   18  C8  UNL     1      -3.029  50.507 -17.544  1.00  0.00     0.010 C 
BRANCH  17  19
HETATM   19  C6  UNL     1      -0.670  49.776 -17.852  1.00  0.00     0.008 C 
BRANCH  19  20
HETATM   20  C5  UNL     1      -0.328  50.122 -16.398  1.00  0.00     0.028 C 
BRANCH  20  21
HETATM   21  C4  UNL     1       0.942  50.927 -16.319  1.00  0.00    -0.017 C 
HETATM   22  C2  UNL     1       1.271  51.994 -17.071  1.00  0.00    -0.028 C 
HETATM   23  C1  UNL     1       0.473  52.615 -18.175  1.00  0.00     0.051 C 
BRANCH  22  24
HETATM   24  C3  UNL     1       2.588  52.637 -16.792  1.00  0.00     0.265 C 
HETATM   25  O1  UNL     1       3.533  52.027 -16.307  1.00  0.00    -0.302 OA
ENDBRANCH  22  24
ENDBRANCH  20  21
ENDBRANCH  19  20
ENDBRANCH  17  19
ENDBRANCH   1  17
BRANCH  10  26
HETATM   26  C22 UNL     1       0.398  51.929 -24.935  1.00  0.00     0.021 C 
BRANCH  26  27
HETATM   27  C23 UNL     1       1.050  51.972 -26.319  1.00  0.00     0.111 C 
BRANCH  27  28
HETATM   28  C24 UNL     1       2.446  51.431 -26.421  1.00  0.00     0.139 C 
HETATM   29  O4  UNL     1       2.878  50.473 -25.799  1.00  0.00    -0.650 OA
BRANCH  28  30
HETATM   30  O5  UNL     1       3.204  52.022 -27.361  1.00  0.00    -0.776 OA
HETATM   31  H39 UNL     1       4.049  51.525 -27.300  1.00  0.00     0.167 HD
ENDBRANCH  28  30
ENDBRANCH  27  28
ENDBRANCH  26  27
ENDBRANCH  10  26
BRANCH   9  32
HETATM   32  C18 UNL     1      -1.919  51.434 -27.334  1.00  0.00     0.080 C 
HETATM   33  C19 UNL     1      -3.161  50.841 -28.029  1.00  0.00     0.048 C 
BRANCH  32  34
HETATM   34  O2  UNL     1      -0.874  51.395 -28.329  1.00  0.00    -0.388 OA
HETATM   35  H31 UNL     1      -0.751  50.468 -28.598  1.00  0.00     0.210 HD
ENDBRANCH  32  34
BRANCH  32  36
HETATM   36  C20 UNL     1      -2.190  52.927 -27.055  1.00  0.00     0.201 C 
BRANCH  36  37
HETATM   37  O3  UNL     1      -1.926  53.706 -28.219  1.00  0.00    -0.398 OA
HETATM   38  H34 UNL     1      -2.100  53.079 -28.956  1.00  0.00     0.209 HD
ENDBRANCH  36  37
ENDBRANCH  32  36
ENDBRANCH   9  32
TORSDOF 13
ENDMDL
MODEL 4
REMARK minimizedAffinity -9.0527916
REMARK  13 active torsions:
REMARK  status: ('A' for Active; 'I' for Inactive)
REMARK    1  A    between atoms: C2_2  and  C3_3 
REMARK    2  A    between atoms: C4_5  and  C5_6 
REMARK    3  A    between atoms: C5_6  and  C6_7 
REMARK    4  A    between atoms: C6_7  and  C7_8 
REMARK    5  A    between atoms: C7_8  and  C9_10 
REMARK    6  A    between atoms: C17_18  and  C18_19 
REMARK    7  A    between atoms: C18_19  and  O2_21 
REMARK    8  A    between atoms: C18_19  and  C20_22 
REMARK    9  A    between atoms: C20_22  and  O3_23 
REMARK   10  A    between atoms: C21_24  and  C22_25 
REMARK   11  A    between atoms: C22_25  and  C23_26 
REMARK   12  A    between atoms: C23_26  and  C24_27 
REMARK   13  A    between atoms: C24_27  and  O5_29 
ROOT
HETATM    1  C9  UNL     1      -3.804  50.538 -25.332  1.00  0.00    -0.002 C 
HETATM    2  C10 UNL     1      -4.077  51.991 -24.912  1.00  0.00     0.006 C 
HETATM    3  C11 UNL     1      -4.246  51.970 -23.377  1.00  0.00     0.011 C 
HETATM    4  C12 UNL     1      -4.009  50.503 -22.917  1.00  0.00    -0.032 C 
HETATM    5  C13 UNL     1      -5.413  49.812 -22.863  1.00  0.00     0.016 C 
HETATM    6  C14 UNL     1      -3.387  50.316 -21.492  1.00  0.00     0.004 C 
HETATM    7  C15 UNL     1      -3.960  51.250 -20.429  1.00  0.00     0.007 C 
HETATM    8  C16 UNL     1      -3.577  50.696 -19.065  1.00  0.00     0.009 C 
HETATM    9  C17 UNL     1      -2.063  50.758 -18.769  1.00  0.00     0.031 C 
HETATM   10  C21 UNL     1      -1.141  50.452 -20.010  1.00  0.00    -0.025 A 
HETATM   11  C25 UNL     1      -1.214  49.158 -20.799  1.00  0.00     0.021 A 
HETATM   12  C26 UNL     1      -1.863  50.373 -21.411  1.00  0.00    -0.027 A 
HETATM   13  C27 UNL     1      -1.244  51.074 -22.582  1.00  0.00     0.011 C 
HETATM   14  C28 UNL     1      -1.626  50.453 -23.918  1.00  0.00     0.011 C 
HETATM   15  C29 UNL     1      -3.089  49.942 -24.071  1.00  0.00    -0.032 C 
HETATM   16  C30 UNL     1      -3.069  48.406 -24.143  1.00  0.00     0.016 C 
ENDROOT
BRANCH   1  17
HETATM   17  C7  UNL     1      -3.262  50.305 -26.773  1.00  0.00    -0.014 C 
HETATM   18  C8  UNL     1      -3.730  49.037 -27.488  1.00  0.00     0.010 C 
BRANCH  17  19
HETATM   19  C6  UNL     1      -1.710  50.331 -26.831  1.00  0.00     0.008 C 
BRANCH  19  20
HETATM   20  C5  UNL     1      -1.123  51.524 -27.597  1.00  0.00     0.028 C 
BRANCH  20  21
HETATM   21  C4  UNL     1      -0.906  52.699 -26.683  1.00  0.00    -0.017 C 
HETATM   22  C2  UNL     1       0.140  52.902 -25.860  1.00  0.00    -0.028 C 
HETATM   23  C1  UNL     1       1.315  52.000 -25.638  1.00  0.00     0.051 C 
BRANCH  22  24
HETATM   24  C3  UNL     1       0.136  54.160 -25.059  1.00  0.00     0.265 C 
HETATM   25  O1  UNL     1       0.255  55.269 -25.568  1.00  0.00    -0.302 OA
ENDBRANCH  22  24
ENDBRANCH  20  21
ENDBRANCH  19  20
ENDBRANCH  17  19
ENDBRANCH   1  17
BRANCH  10  26
HETATM   26  C22 UNL     1       0.219  51.192 -19.914  1.00  0.00     0.021 C 
BRANCH  26  27
HETATM   27  C23 UNL     1       0.448  52.451 -20.755  1.00  0.00     0.111 C 
BRANCH  27  28
HETATM   28  C24 UNL     1       1.341  53.501 -20.163  1.00  0.00     0.139 C 
HETATM   29  O4  UNL     1       1.774  54.475 -20.759  1.00  0.00    -0.650 OA
BRANCH  28  30
HETATM   30  O5  UNL     1       1.565  53.362 -18.846  1.00  0.00    -0.776 OA
HETATM   31  H39 UNL     1       2.130  54.139 -18.639  1.00  0.00     0.167 HD
ENDBRANCH  28  30
ENDBRANCH  27  28
ENDBRANCH  26  27
ENDBRANCH  10  26
BRANCH   9  32
HETATM   32  C18 UNL     1      -1.719  50.001 -17.427  1.00  0.00     0.080 C 
HETATM   33  C19 UNL     1      -0.496  50.623 -16.724  1.00  0.00     0.048 C 
BRANCH  32  34
HETATM   34  O2  UNL     1      -1.340  48.639 -17.712  1.00  0.00    -0.388 OA
HETATM   35  H31 UNL     1      -0.548  48.661 -18.277  1.00  0.00     0.210 HD
ENDBRANCH  32  34
BRANCH  32  36
HETATM   36  C20 UNL     1      -2.873  49.921 -16.405  1.00  0.00     0.201 C 
BRANCH  36  37
HETATM   37  O3  UNL     1      -3.071  51.186 -15.779  1.00  0.00    -0.398 OA
HETATM   38  H34 UNL     1      -2.772  51.827 -16.462  1.00  0.00     0.209 HD
ENDBRANCH  36  37
ENDBRANCH  32  36
ENDBRANCH   9  32
TORSDOF 13
ENDMDL
MODEL 5
REMARK minimizedAffinity -8.97831631
REMARK  13 active torsions:
REMARK  status: ('A' for Active; 'I' for Inactive)
REMARK    1  A    between atoms: C2_2  and  C3_3 
REMARK    2  A    between atoms: C4_5  and  C5_6 
REMARK    3  A    between atoms: C5_6  and  C6_7 
REMARK    4  A    between atoms: C6_7  and  C7_8 
REMARK    5  A    between atoms: C7_8  and  C9_10 
REMARK    6  A    between atoms: C17_18  and  C18_19 
REMARK    7  A    between atoms: C18_19  and  O2_21 
REMARK    8  A    between atoms: C18_19  and  C20_22 
REMARK    9  A    between atoms: C20_22  and  O3_23 
REMARK   10  A    between atoms: C21_24  and  C22_25 
REMARK   11  A    between atoms: C22_25  and  C23_26 
REMARK   12  A    between atoms: C23_26  and  C24_27 
REMARK   13  A    between atoms: C24_27  and  O5_29 
ROOT
HETATM    1  C9  UNL     1      -4.533  49.192 -23.105  1.00  0.00    -0.002 C 
HETATM    2  C10 UNL     1      -5.413  50.305 -22.512  1.00  0.00     0.006 C 
HETATM    3  C11 UNL     1      -4.985  50.449 -21.035  1.00  0.00     0.011 C 
HETATM    4  C12 UNL     1      -3.815  49.450 -20.805  1.00  0.00    -0.032 C 
HETATM    5  C13 UNL     1      -4.449  48.123 -20.266  1.00  0.00     0.016 C 
HETATM    6  C14 UNL     1      -2.744  49.871 -19.744  1.00  0.00     0.004 C 
HETATM    7  C15 UNL     1      -3.324  50.500 -18.480  1.00  0.00     0.007 C 
HETATM    8  C16 UNL     1      -2.244  50.479 -17.408  1.00  0.00     0.009 C 
HETATM    9  C17 UNL     1      -1.048  51.408 -17.712  1.00  0.00     0.031 C 
HETATM   10  C21 UNL     1      -0.626  51.457 -19.229  1.00  0.00    -0.025 A 
HETATM   11  C25 UNL     1      -0.225  50.224 -20.019  1.00  0.00     0.021 A 
HETATM   12  C26 UNL     1      -1.612  50.765 -20.248  1.00  0.00    -0.027 A 
HETATM   13  C27 UNL     1      -1.963  51.487 -21.515  1.00  0.00     0.011 C 
HETATM   14  C28 UNL     1      -2.365  50.548 -22.643  1.00  0.00     0.011 C 
HETATM   15  C29 UNL     1      -3.219  49.303 -22.259  1.00  0.00    -0.032 C 
HETATM   16  C30 UNL     1      -2.358  48.041 -22.441  1.00  0.00     0.016 C 
ENDROOT
BRANCH   1  17
HETATM   17  C7  UNL     1      -4.506  49.060 -24.656  1.00  0.00    -0.014 C 
HETATM   18  C8  UNL     1      -5.637  48.255 -25.299  1.00  0.00     0.010 C 
BRANCH  17  19
HETATM   19  C6  UNL     1      -3.162  48.479 -25.175  1.00  0.00     0.008 C 
BRANCH  19  20
HETATM   20  C5  UNL     1      -2.915  48.690 -26.674  1.00  0.00     0.028 C 
BRANCH  20  21
HETATM   21  C4  UNL     1      -2.929  50.154 -27.023  1.00  0.00    -0.017 C 
HETATM   22  C2  UNL     1      -1.907  51.022 -26.912  1.00  0.00    -0.028 C 
HETATM   23  C1  UNL     1      -0.529  50.749 -26.393  1.00  0.00     0.051 C 
BRANCH  22  24
HETATM   24  C3  UNL     1      -2.163  52.428 -27.340  1.00  0.00     0.265 C 
HETATM   25  O1  UNL     1      -1.370  53.338 -27.130  1.00  0.00    -0.302 OA
ENDBRANCH  22  24
ENDBRANCH  20  21
ENDBRANCH  19  20
ENDBRANCH  17  19
ENDBRANCH   1  17
BRANCH  10  26
HETATM   26  C22 UNL     1       0.000  52.824 -19.609  1.00  0.00     0.021 C 
BRANCH  26  27
HETATM   27  C23 UNL     1       1.284  52.853 -20.442  1.00  0.00     0.111 C 
BRANCH  27  28
HETATM   28  C24 UNL     1       1.285  53.753 -21.644  1.00  0.00     0.139 C 
HETATM   29  O4  UNL     1       1.768  54.874 -21.683  1.00  0.00    -0.650 OA
BRANCH  28  30
HETATM   30  O5  UNL     1       0.796  53.189 -22.760  1.00  0.00    -0.776 OA
HETATM   31  H39 UNL     1       0.906  53.901 -23.428  1.00  0.00     0.167 HD
ENDBRANCH  28  30
ENDBRANCH  27  28
ENDBRANCH  26  27
ENDBRANCH  10  26
BRANCH   9  32
HETATM   32  C18 UNL     1       0.110  51.196 -16.659  1.00  0.00     0.080 C 
HETATM   33  C19 UNL     1       0.500  49.709 -16.539  1.00  0.00     0.048 C 
BRANCH  32  34
HETATM   34  O2  UNL     1      -0.343  51.576 -15.344  1.00  0.00    -0.388 OA
HETATM   35  H31 UNL     1      -1.095  51.005 -15.110  1.00  0.00     0.210 HD
ENDBRANCH  32  34
BRANCH  32  36
HETATM   36  C20 UNL     1       1.394  52.011 -16.923  1.00  0.00     0.201 C 
BRANCH  36  37
HETATM   37  O3  UNL     1       1.360  53.238 -16.199  1.00  0.00    -0.398 OA
HETATM   38  H34 UNL     1       0.803  53.027 -15.418  1.00  0.00     0.209 HD
ENDBRANCH  36  37
ENDBRANCH  32  36
ENDBRANCH   9  32
TORSDOF 13
ENDMDL
MODEL 6
REMARK minimizedAffinity -8.94800377
REMARK  13 active torsions:
REMARK  status: ('A' for Active; 'I' for Inactive)
REMARK    1  A    between atoms: C2_2  and  C3_3 
REMARK    2  A    between atoms: C4_5  and  C5_6 
REMARK    3  A    between atoms: C5_6  and  C6_7 
REMARK    4  A    between atoms: C6_7  and  C7_8 
REMARK    5  A    between atoms: C7_8  and  C9_10 
REMARK    6  A    between atoms: C17_18  and  C18_19 
REMARK    7  A    between atoms: C18_19  and  O2_21 
REMARK    8  A    between atoms: C18_19  and  C20_22 
REMARK    9  A    between atoms: C20_22  and  O3_23 
REMARK   10  A    between atoms: C21_24  and  C22_25 
REMARK   11  A    between atoms: C22_25  and  C23_26 
REMARK   12  A    between atoms: C23_26  and  C24_27 
REMARK   13  A    between atoms: C24_27  and  O5_29 
ROOT
HETATM    1  C9  UNL     1      -0.224  51.256 -19.002  1.00  0.00    -0.002 C 
HETATM    2  C10 UNL     1      -0.369  52.786 -18.985  1.00  0.00     0.006 C 
HETATM    3  C11 UNL     1       0.092  53.277 -20.376  1.00  0.00     0.011 C 
HETATM    4  C12 UNL     1       0.447  52.009 -21.206  1.00  0.00    -0.032 C 
HETATM    5  C13 UNL     1       1.983  51.763 -21.023  1.00  0.00     0.016 C 
HETATM    6  C14 UNL     1       0.212  52.107 -22.751  1.00  0.00     0.004 C 
HETATM    7  C15 UNL     1       0.640  53.435 -23.370  1.00  0.00     0.007 C 
HETATM    8  C16 UNL     1       0.735  53.240 -24.876  1.00  0.00     0.009 C 
HETATM    9  C17 UNL     1      -0.627  52.988 -25.559  1.00  0.00     0.031 C 
HETATM   10  C21 UNL     1      -1.619  52.090 -24.727  1.00  0.00    -0.025 A 
HETATM   11  C25 UNL     1      -1.279  50.684 -24.267  1.00  0.00     0.021 A 
HETATM   12  C26 UNL     1      -1.199  51.782 -23.238  1.00  0.00    -0.027 A 
HETATM   13  C27 UNL     1      -2.230  51.908 -22.157  1.00  0.00     0.011 C 
HETATM   14  C28 UNL     1      -1.933  51.034 -20.947  1.00  0.00     0.011 C 
HETATM   15  C29 UNL     1      -0.442  50.905 -20.513  1.00  0.00    -0.032 C 
HETATM   16  C30 UNL     1       0.032  49.470 -20.803  1.00  0.00     0.016 C 
ENDROOT
BRANCH   1  17
HETATM   17  C7  UNL     1      -0.928  50.464 -17.862  1.00  0.00    -0.014 C 
HETATM   18  C8  UNL     1      -2.166  51.109 -17.237  1.00  0.00     0.010 C 
BRANCH  17  19
HETATM   19  C6  UNL     1       0.046  50.100 -16.707  1.00  0.00     0.008 C 
BRANCH  19  20
HETATM   20  C5  UNL     1       0.272  51.225 -15.689  1.00  0.00     0.028 C 
BRANCH  20  21
HETATM   21  C4  UNL     1       1.549  51.967 -15.980  1.00  0.00    -0.017 C 
HETATM   22  C2  UNL     1       2.727  51.830 -15.345  1.00  0.00    -0.028 C 
HETATM   23  C1  UNL     1       3.042  50.932 -14.188  1.00  0.00     0.051 C 
BRANCH  22  24
HETATM   24  C3  UNL     1       3.859  52.672 -15.829  1.00  0.00     0.265 C 
HETATM   25  O1  UNL     1       4.776  52.222 -16.506  1.00  0.00    -0.302 OA
ENDBRANCH  22  24
ENDBRANCH  20  21
ENDBRANCH  19  20
ENDBRANCH  17  19
ENDBRANCH   1  17
BRANCH  10  26
HETATM   26  C22 UNL     1      -3.101  52.439 -25.026  1.00  0.00     0.021 C 
BRANCH  26  27
HETATM   27  C23 UNL     1      -4.132  51.311 -25.117  1.00  0.00     0.111 C 
BRANCH  27  28
HETATM   28  C24 UNL     1      -5.103  51.194 -23.978  1.00  0.00     0.139 C 
HETATM   29  O4  UNL     1      -5.285  50.189 -23.309  1.00  0.00    -0.650 OA
BRANCH  28  30
HETATM   30  O5  UNL     1      -5.714  52.344 -23.650  1.00  0.00    -0.776 OA
HETATM   31  H39 UNL     1      -6.272  52.082 -22.884  1.00  0.00     0.167 HD
ENDBRANCH  28  30
ENDBRANCH  27  28
ENDBRANCH  26  27
ENDBRANCH  10  26
BRANCH   9  32
HETATM   32  C18 UNL     1      -0.433  52.611 -27.080  1.00  0.00     0.080 C 
HETATM   33  C19 UNL     1      -1.360  51.452 -27.498  1.00  0.00     0.048 C 
BRANCH  32  34
HETATM   34  O2  UNL     1       0.906  52.123 -27.300  1.00  0.00    -0.388 OA
HETATM   35  H31 UNL     1       1.027  51.326 -26.755  1.00  0.00     0.210 HD
ENDBRANCH  32  34
BRANCH  32  36
HETATM   36  C20 UNL     1      -0.635  53.773 -28.075  1.00  0.00     0.201 C 
BRANCH  36  37
HETATM   37  O3  UNL     1      -2.025  53.980 -28.321  1.00  0.00    -0.398 OA
HETATM   38  H34 UNL     1      -2.450  53.677 -27.489  1.00  0.00     0.209 HD
ENDBRANCH  36  37
ENDBRANCH  32  36
ENDBRANCH   9  32
TORSDOF 13
ENDMDL
MODEL 7
REMARK minimizedAffinity -8.44714832
REMARK  13 active torsions:
REMARK  status: ('A' for Active; 'I' for Inactive)
REMARK    1  A    between atoms: C2_2  and  C3_3 
REMARK    2  A    between atoms: C4_5  and  C5_6 
REMARK    3  A    between atoms: C5_6  and  C6_7 
REMARK    4  A    between atoms: C6_7  and  C7_8 
REMARK    5  A    between atoms: C7_8  and  C9_10 
REMARK    6  A    between atoms: C17_18  and  C18_19 
REMARK    7  A    between atoms: C18_19  and  O2_21 
REMARK    8  A    between atoms: C18_19  and  C20_22 
REMARK    9  A    between atoms: C20_22  and  O3_23 
REMARK   10  A    between atoms: C21_24  and  C22_25 
REMARK   11  A    between atoms: C22_25  and  C23_26 
REMARK   12  A    between atoms: C23_26  and  C24_27 
REMARK   13  A    between atoms: C24_27  and  O5_29 
ROOT
HETATM    1  C9  UNL     1      -5.117  49.191 -21.858  1.00  0.00    -0.002 C 
HETATM    2  C10 UNL     1      -4.164  47.987 -21.933  1.00  0.00     0.006 C 
HETATM    3  C11 UNL     1      -3.330  48.180 -23.220  1.00  0.00     0.011 C 
HETATM    4  C12 UNL     1      -3.775  49.532 -23.847  1.00  0.00    -0.032 C 
HETATM    5  C13 UNL     1      -4.900  49.202 -24.885  1.00  0.00     0.016 C 
HETATM    6  C14 UNL     1      -2.679  50.319 -24.641  1.00  0.00     0.004 C 
HETATM    7  C15 UNL     1      -1.796  49.445 -25.529  1.00  0.00     0.007 C 
HETATM    8  C16 UNL     1      -1.079  50.355 -26.516  1.00  0.00     0.009 C 
HETATM    9  C17 UNL     1      -0.047  51.297 -25.859  1.00  0.00     0.031 C 
HETATM   10  C21 UNL     1      -0.485  51.874 -24.459  1.00  0.00    -0.025 A 
HETATM   11  C25 UNL     1      -1.758  52.674 -24.254  1.00  0.00     0.021 A 
HETATM   12  C26 UNL     1      -1.775  51.233 -23.815  1.00  0.00    -0.027 A 
HETATM   13  C27 UNL     1      -1.748  50.864 -22.362  1.00  0.00     0.011 C 
HETATM   14  C28 UNL     1      -3.130  50.860 -21.724  1.00  0.00     0.011 C 
HETATM   15  C29 UNL     1      -4.309  50.318 -22.587  1.00  0.00    -0.032 C 
HETATM   16  C30 UNL     1      -5.235  51.492 -22.948  1.00  0.00     0.016 C 
ENDROOT
BRANCH   1  17
HETATM   17  C7  UNL     1      -5.840  49.440 -20.502  1.00  0.00    -0.014 C 
HETATM   18  C8  UNL     1      -5.506  48.484 -19.357  1.00  0.00     0.010 C 
BRANCH  17  19
HETATM   19  C6  UNL     1      -7.386  49.470 -20.654  1.00  0.00     0.008 C 
BRANCH  19  20
HETATM   20  C5  UNL     1      -7.994  48.179 -21.216  1.00  0.00     0.028 C 
BRANCH  20  21
HETATM   21  C4  UNL     1      -9.312  47.871 -20.557  1.00  0.00    -0.017 C 
HETATM   22  C2  UNL     1      -9.721  48.272 -19.339  1.00  0.00    -0.028 C 
HETATM   23  C1  UNL     1      -8.958  49.090 -18.343  1.00  0.00     0.051 C 
BRANCH  22  24
HETATM   24  C3  UNL     1     -11.086  47.849 -18.911  1.00  0.00     0.265 C 
HETATM   25  O1  UNL     1     -11.329  46.723 -18.493  1.00  0.00    -0.302 OA
ENDBRANCH  22  24
ENDBRANCH  20  21
ENDBRANCH  19  20
ENDBRANCH  17  19
ENDBRANCH   1  17
BRANCH  10  26
HETATM   26  C22 UNL     1       0.736  52.166 -23.548  1.00  0.00     0.021 C 
BRANCH  26  27
HETATM   27  C23 UNL     1       0.568  53.100 -22.348  1.00  0.00     0.111 C 
BRANCH  27  28
HETATM   28  C24 UNL     1       1.456  54.309 -22.307  1.00  0.00     0.139 C 
HETATM   29  O4  UNL     1       2.077  54.694 -21.329  1.00  0.00    -0.650 OA
BRANCH  28  30
HETATM   30  O5  UNL     1       1.624  54.915 -23.495  1.00  0.00    -0.776 OA
HETATM   31  H39 UNL     1       2.245  55.645 -23.279  1.00  0.00     0.167 HD
ENDBRANCH  28  30
ENDBRANCH  27  28
ENDBRANCH  26  27
ENDBRANCH  10  26
BRANCH   9  32
HETATM   32  C18 UNL     1       0.517  52.334 -26.908  1.00  0.00     0.080 C 
HETATM   33  C19 UNL     1       0.301  51.848 -28.355  1.00  0.00     0.048 C 
BRANCH  32  34
HETATM   34  O2  UNL     1       1.947  52.457 -26.760  1.00  0.00    -0.388 OA
HETATM   35  H31 UNL     1       2.342  51.583 -26.930  1.00  0.00     0.210 HD
ENDBRANCH  32  34
BRANCH  32  36
HETATM   36  C20 UNL     1      -0.051  53.764 -26.790  1.00  0.00     0.201 C 
BRANCH  36  37
HETATM   37  O3  UNL     1      -1.249  53.886 -27.553  1.00  0.00    -0.398 OA
HETATM   38  H34 UNL     1      -1.616  52.975 -27.548  1.00  0.00     0.209 HD
ENDBRANCH  36  37
ENDBRANCH  32  36
ENDBRANCH   9  32
TORSDOF 13
ENDMDL
MODEL 8
REMARK minimizedAffinity -8.41756821
REMARK  13 active torsions:
REMARK  status: ('A' for Active; 'I' for Inactive)
REMARK    1  A    between atoms: C2_2  and  C3_3 
REMARK    2  A    between atoms: C4_5  and  C5_6 
REMARK    3  A    between atoms: C5_6  and  C6_7 
REMARK    4  A    between atoms: C6_7  and  C7_8 
REMARK    5  A    between atoms: C7_8  and  C9_10 
REMARK    6  A    between atoms: C17_18  and  C18_19 
REMARK    7  A    between atoms: C18_19  and  O2_21 
REMARK    8  A    between atoms: C18_19  and  C20_22 
REMARK    9  A    between atoms: C20_22  and  O3_23 
REMARK   10  A    between atoms: C21_24  and  C22_25 
REMARK   11  A    between atoms: C22_25  and  C23_26 
REMARK   12  A    between atoms: C23_26  and  C24_27 
REMARK   13  A    between atoms: C24_27  and  O5_29 
ROOT
HETATM    1  C9  UNL     1      -3.243  50.086 -26.179  1.00  0.00    -0.002 C 
HETATM    2  C10 UNL     1      -1.838  49.564 -26.519  1.00  0.00     0.006 C 
HETATM    3  C11 UNL     1      -0.847  50.464 -25.747  1.00  0.00     0.011 C 
HETATM    4  C12 UNL     1      -1.701  51.466 -24.918  1.00  0.00    -0.032 C 
HETATM    5  C13 UNL     1      -1.857  52.758 -25.790  1.00  0.00     0.016 C 
HETATM    6  C14 UNL     1      -1.084  51.942 -23.560  1.00  0.00     0.004 C 
HETATM    7  C15 UNL     1       0.410  52.249 -23.621  1.00  0.00     0.007 C 
HETATM    8  C16 UNL     1       0.771  53.063 -22.387  1.00  0.00     0.009 C 
HETATM    9  C17 UNL     1       0.656  52.274 -21.064  1.00  0.00     0.031 C 
HETATM   10  C21 UNL     1      -0.564  51.279 -21.000  1.00  0.00    -0.025 A 
HETATM   11  C25 UNL     1      -2.005  51.719 -21.184  1.00  0.00     0.021 A 
HETATM   12  C26 UNL     1      -1.340  51.041 -22.354  1.00  0.00    -0.027 A 
HETATM   13  C27 UNL     1      -1.699  49.638 -22.741  1.00  0.00     0.011 C 
HETATM   14  C28 UNL     1      -2.914  49.565 -23.655  1.00  0.00     0.011 C 
HETATM   15  C29 UNL     1      -3.054  50.675 -24.739  1.00  0.00    -0.032 C 
HETATM   16  C30 UNL     1      -4.244  51.577 -24.369  1.00  0.00     0.016 C 
ENDROOT
BRANCH   1  17
HETATM   17  C7  UNL     1      -4.448  49.170 -26.543  1.00  0.00    -0.014 C 
HETATM   18  C8  UNL     1      -5.023  48.308 -25.417  1.00  0.00     0.010 C 
BRANCH  17  19
HETATM   19  C6  UNL     1      -4.135  48.231 -27.741  1.00  0.00     0.008 C 
BRANCH  19  20
HETATM   20  C5  UNL     1      -5.222  48.198 -28.823  1.00  0.00     0.028 C 
BRANCH  20  21
HETATM   21  C4  UNL     1      -6.224  47.109 -28.548  1.00  0.00    -0.017 C 
HETATM   22  C2  UNL     1      -7.565  47.213 -28.596  1.00  0.00    -0.028 C 
HETATM   23  C1  UNL     1      -8.376  48.434 -28.905  1.00  0.00     0.051 C 
BRANCH  22  24
HETATM   24  C3  UNL     1      -8.350  45.980 -28.298  1.00  0.00     0.265 C 
HETATM   25  O1  UNL     1      -7.822  44.899 -28.068  1.00  0.00    -0.302 OA
ENDBRANCH  22  24
ENDBRANCH  20  21
ENDBRANCH  19  20
ENDBRANCH  17  19
ENDBRANCH   1  17
BRANCH  10  26
HETATM   26  C22 UNL     1      -0.266  50.060 -20.088  1.00  0.00     0.021 C 
BRANCH  26  27
HETATM   27  C23 UNL     1      -0.794  48.679 -20.487  1.00  0.00     0.111 C 
BRANCH  27  28
HETATM   28  C24 UNL     1      -1.698  47.996 -19.502  1.00  0.00     0.139 C 
HETATM   29  O4  UNL     1      -2.616  47.246 -19.793  1.00  0.00    -0.650 OA
BRANCH  28  30
HETATM   30  O5  UNL     1      -1.357  48.179 -18.216  1.00  0.00    -0.776 OA
HETATM   31  H39 UNL     1      -2.028  47.644 -17.737  1.00  0.00     0.167 HD
ENDBRANCH  28  30
ENDBRANCH  27  28
ENDBRANCH  26  27
ENDBRANCH  10  26
BRANCH   9  32
HETATM   32  C18 UNL     1       0.862  53.225 -19.821  1.00  0.00     0.080 C 
HETATM   33  C19 UNL     1      -0.485  53.739 -19.273  1.00  0.00     0.048 C 
BRANCH  32  34
HETATM   34  O2  UNL     1       1.584  54.409 -20.220  1.00  0.00    -0.388 OA
HETATM   35  H31 UNL     1       1.053  54.871 -20.892  1.00  0.00     0.210 HD
ENDBRANCH  32  34
BRANCH  32  36
HETATM   36  C20 UNL     1       1.657  52.612 -18.649  1.00  0.00     0.201 C 
BRANCH  36  37
HETATM   37  O3  UNL     1       1.022  52.912 -17.408  1.00  0.00    -0.398 OA
HETATM   38  H34 UNL     1       0.075  53.000 -17.653  1.00  0.00     0.209 HD
ENDBRANCH  36  37
ENDBRANCH  32  36
ENDBRANCH   9  32
TORSDOF 13
ENDMDL
MODEL 9
REMARK minimizedAffinity -8.33951569
REMARK  13 active torsions:
REMARK  status: ('A' for Active; 'I' for Inactive)
REMARK    1  A    between atoms: C2_2  and  C3_3 
REMARK    2  A    between atoms: C4_5  and  C5_6 
REMARK    3  A    between atoms: C5_6  and  C6_7 
REMARK    4  A    between atoms: C6_7  and  C7_8 
REMARK    5  A    between atoms: C7_8  and  C9_10 
REMARK    6  A    between atoms: C17_18  and  C18_19 
REMARK    7  A    between atoms: C18_19  and  O2_21 
REMARK    8  A    between atoms: C18_19  and  C20_22 
REMARK    9  A    between atoms: C20_22  and  O3_23 
REMARK   10  A    between atoms: C21_24  and  C22_25 
REMARK   11  A    between atoms: C22_25  and  C23_26 
REMARK   12  A    between atoms: C23_26  and  C24_27 
REMARK   13  A    between atoms: C24_27  and  O5_29 
ROOT
HETATM    1  C9  UNL     1      -3.713  48.292 -20.415  1.00  0.00    -0.002 C 
HETATM    2  C10 UNL     1      -2.654  47.274 -20.866  1.00  0.00     0.006 C 
HETATM    3  C11 UNL     1      -2.388  47.564 -22.360  1.00  0.00     0.011 C 
HETATM    4  C12 UNL     1      -3.260  48.794 -22.742  1.00  0.00    -0.032 C 
HETATM    5  C13 UNL     1      -4.606  48.235 -23.315  1.00  0.00     0.016 C 
HETATM    6  C14 UNL     1      -2.682  49.733 -23.854  1.00  0.00     0.004 C 
HETATM    7  C15 UNL     1      -2.038  48.997 -25.027  1.00  0.00     0.007 C 
HETATM    8  C16 UNL     1      -1.898  49.983 -26.177  1.00  0.00     0.009 C 
HETATM    9  C17 UNL     1      -0.883  51.115 -25.908  1.00  0.00     0.031 C 
HETATM   10  C21 UNL     1      -0.882  51.655 -24.428  1.00  0.00    -0.025 A 
HETATM   11  C25 UNL     1      -2.116  52.226 -23.752  1.00  0.00     0.021 A 
HETATM   12  C26 UNL     1      -1.718  50.820 -23.382  1.00  0.00    -0.027 A 
HETATM   13  C27 UNL     1      -1.105  50.514 -22.049  1.00  0.00     0.011 C 
HETATM   14  C28 UNL     1      -2.140  50.289 -20.955  1.00  0.00     0.011 C 
HETATM   15  C29 UNL     1      -3.435  49.518 -21.351  1.00  0.00    -0.032 C 
HETATM   16  C30 UNL     1      -4.620  50.498 -21.318  1.00  0.00     0.016 C 
ENDROOT
BRANCH   1  17
HETATM   17  C7  UNL     1      -3.931  48.459 -18.883  1.00  0.00    -0.014 C 
HETATM   18  C8  UNL     1      -5.341  48.834 -18.424  1.00  0.00     0.010 C 
BRANCH  17  19
HETATM   19  C6  UNL     1      -2.945  49.483 -18.255  1.00  0.00     0.008 C 
BRANCH  19  20
HETATM   20  C5  UNL     1      -1.681  48.858 -17.650  1.00  0.00     0.028 C 
BRANCH  20  21
HETATM   21  C4  UNL     1      -0.547  49.848 -17.627  1.00  0.00    -0.017 C 
HETATM   22  C2  UNL     1      -0.218  50.678 -16.619  1.00  0.00    -0.028 C 
HETATM   23  C1  UNL     1      -0.911  50.833 -15.301  1.00  0.00     0.051 C 
BRANCH  22  24
HETATM   24  C3  UNL     1       0.966  51.561 -16.830  1.00  0.00     0.265 C 
HETATM   25  O1  UNL     1       1.093  52.642 -16.267  1.00  0.00    -0.302 OA
ENDBRANCH  22  24
ENDBRANCH  20  21
ENDBRANCH  19  20
ENDBRANCH  17  19
ENDBRANCH   1  17
BRANCH  10  26
HETATM   26  C22 UNL     1       0.513  52.189 -24.010  1.00  0.00     0.021 C 
BRANCH  26  27
HETATM   27  C23 UNL     1       0.614  53.209 -22.872  1.00  0.00     0.111 C 
BRANCH  27  28
HETATM   28  C24 UNL     1       1.317  54.498 -23.186  1.00  0.00     0.139 C 
HETATM   29  O4  UNL     1       1.227  55.111 -24.237  1.00  0.00    -0.650 OA
BRANCH  28  30
HETATM   30  O5  UNL     1       2.002  55.021 -22.156  1.00  0.00    -0.776 OA
HETATM   31  H39 UNL     1       2.358  55.855 -22.534  1.00  0.00     0.167 HD
ENDBRANCH  28  30
ENDBRANCH  27  28
ENDBRANCH  26  27
ENDBRANCH  10  26
BRANCH   9  32
HETATM   32  C18 UNL     1      -0.927  52.197 -27.058  1.00  0.00     0.080 C 
HETATM   33  C19 UNL     1      -2.376  52.578 -27.420  1.00  0.00     0.048 C 
BRANCH  32  34
HETATM   34  O2  UNL     1      -0.364  51.652 -28.269  1.00  0.00    -0.388 OA
HETATM   35  H31 UNL     1      -0.904  50.885 -28.531  1.00  0.00     0.210 HD
ENDBRANCH  32  34
BRANCH  32  36
HETATM   36  C20 UNL     1      -0.145  53.496 -26.768  1.00  0.00     0.201 C 
BRANCH  36  37
HETATM   37  O3  UNL     1      -0.558  54.531 -27.657  1.00  0.00    -0.398 OA
HETATM   38  H34 UNL     1      -1.488  54.295 -27.865  1.00  0.00     0.209 HD
ENDBRANCH  36  37
ENDBRANCH  32  36
ENDBRANCH   9  32
TORSDOF 13
ENDMDL
