MODEL 1
REMARK minimizedAffinity -8.57875061
REMARK CNNscore 0.730439723
REMARK CNNaffinity 6.60420609
REMARK  12 active torsions:
REMARK  status: ('A' for Active; 'I' for Inactive)
REMARK    1  A    between atoms: C19_20  and  O2_21 
REMARK    2  A    between atoms: C19_20  and  C20_22 
REMARK    3  A    between atoms: C20_22  and  C21_24 
REMARK    4  A    between atoms: C21_24  and  O4_25 
REMARK    5  A    between atoms: O4_25  and  C22_26 
REMARK    6  A    between atoms: C22_26  and  C23_28 
REMARK    7  A    between atoms: C23_28  and  C24_29 
REMARK    8  A    between atoms: C24_29  and  C25_30 
REMARK       I    between atoms: C25_30  and  N1_32 
REMARK    9  A    between atoms: N1_32  and  C26_33 
REMARK   10  A    between atoms: C26_33  and  C27_34 
REMARK   11  A    between atoms: C30_37  and  C31_38 
REMARK   12  A    between atoms: C31_38  and  O8_40 
ROOT
HETATM    1  C20 UNL     1      -6.819  47.732 -23.904  1.00  0.00     0.185 C 
HETATM    2  O3  UNL     1      -7.196  46.728 -23.291  1.00  0.00    -0.292 OA
ENDROOT
BRANCH   1   3
HETATM    3  C19 UNL     1      -6.344  49.012 -23.162  1.00  0.00     0.128 C 
HETATM    4  C14 UNL     1      -4.856  48.972 -22.685  1.00  0.00    -0.002 C 
HETATM    5  C13 UNL     1      -3.785  49.364 -23.721  1.00  0.00     0.013 C 
HETATM    6  C15 UNL     1      -4.518  47.579 -22.090  1.00  0.00     0.019 C 
HETATM    7  C16 UNL     1      -4.884  50.101 -21.623  1.00  0.00     0.002 C 
HETATM    8  C12 UNL     1      -2.408  49.602 -23.074  1.00  0.00     0.007 C 
HETATM    9  C11 UNL     1      -2.443  50.627 -21.913  1.00  0.00     0.002 C 
HETATM   10  C2  UNL     1      -1.038  50.888 -21.246  1.00  0.00    -0.016 C 
HETATM   11  C10 UNL     1      -3.555  50.279 -20.877  1.00  0.00    -0.004 C 
HETATM   12  C1  UNL     1      -0.410  49.590 -20.692  1.00  0.00     0.020 C 
HETATM   13  C3  UNL     1      -0.086  51.486 -22.325  1.00  0.00     0.022 C 
HETATM   14  C7  UNL     1      -1.204  51.876 -20.083  1.00  0.00    -0.068 C 
HETATM   15  C4  UNL     1       1.154  52.152 -21.748  1.00  0.00     0.084 C 
HETATM   16  C5  UNL     1       0.759  53.211 -20.755  1.00  0.00     0.149 C 
HETATM   17  O1  UNL     1       1.411  54.239 -20.593  1.00  0.00    -0.293 OA
HETATM   18  C6  UNL     1      -0.416  52.949 -19.894  1.00  0.00     0.053 C 
HETATM   19  C8  UNL     1      -2.321  51.589 -19.106  1.00  0.00     0.035 C 
HETATM   20  C9  UNL     1      -3.654  51.383 -19.815  1.00  0.00     0.010 C 
HETATM   21  C17 UNL     1      -6.132  49.795 -20.807  1.00  0.00     0.009 C 
HETATM   22  C18 UNL     1      -7.132  49.235 -21.833  1.00  0.00     0.047 C 
BRANCH   3  23
HETATM   23  O2  UNL     1      -6.559  50.176 -23.966  1.00  0.00    -0.381 OA
HETATM   24  H27 UNL     1      -7.512  50.231 -24.150  1.00  0.00     0.211 HD
ENDBRANCH   3  23
ENDBRANCH   1   3
BRANCH   1  25
HETATM   25  C21 UNL     1      -6.752  47.718 -25.423  1.00  0.00     0.260 C 
BRANCH  25  26
HETATM   26  O4  UNL     1      -7.751  48.571 -25.977  1.00  0.00    -0.314 OA
BRANCH  26  27
HETATM   27  C22 UNL     1      -9.011  48.067 -25.897  1.00  0.00     0.259 C 
HETATM   28  O5  UNL     1      -9.880  48.488 -25.143  1.00  0.00    -0.265 OA
BRANCH  27  29
HETATM   29  C23 UNL     1      -9.203  46.851 -26.776  1.00  0.00     0.120 C 
BRANCH  29  30
HETATM   30  C24 UNL     1     -10.298  45.891 -26.325  1.00  0.00     0.112 C 
BRANCH  30  31
HETATM   31  C25 UNL     1     -11.459  45.852 -27.295  1.00  0.00     0.218 C 
HETATM   32  O6  UNL     1     -11.449  46.419 -28.381  1.00  0.00    -0.274 OA
HETATM   33  N1  UNL     1     -12.516  45.099 -26.835  1.00  0.00    -0.357 N 
HETATM   34  H34 UNL     1     -12.539  44.839 -25.859  1.00  0.00     0.162 HD
BRANCH  33  35
HETATM   35  C26 UNL     1     -13.759  45.013 -27.572  1.00  0.00     0.161 C 
BRANCH  35  36
HETATM   36  C27 UNL     1     -14.920  45.467 -26.723  1.00  0.00    -0.040 A 
HETATM   37  C28 UNL     1     -14.719  46.322 -25.630  1.00  0.00     0.010 A 
HETATM   38  C29 UNL     1     -15.802  46.746 -24.854  1.00  0.00     0.019 A 
HETATM   39  C30 UNL     1     -17.101  46.327 -25.169  1.00  0.00     0.037 A 
HETATM   40  C32 UNL     1     -17.308  45.486 -26.267  1.00  0.00     0.019 A 
HETATM   41  C33 UNL     1     -16.224  45.062 -27.041  1.00  0.00     0.010 A 
BRANCH  39  42
HETATM   42  C31 UNL     1     -18.279  46.748 -24.373  1.00  0.00     0.176 C 
HETATM   43  O7  UNL     1     -19.192  47.451 -24.765  1.00  0.00    -0.646 OA
BRANCH  42  44
HETATM   44  O8  UNL     1     -18.260  46.267 -23.117  1.00  0.00    -0.773 OA
HETATM   45  H39 UNL     1     -19.087  46.616 -22.725  1.00  0.00     0.167 HD
ENDBRANCH  42  44
ENDBRANCH  39  42
ENDBRANCH  35  36
ENDBRANCH  33  35
ENDBRANCH  30  31
ENDBRANCH  29  30
ENDBRANCH  27  29
ENDBRANCH  26  27
ENDBRANCH  25  26
ENDBRANCH   1  25
TORSDOF 12
ENDMDL
MODEL 2
REMARK minimizedAffinity -8.23545551
REMARK CNNscore 0.579564929
REMARK CNNaffinity 6.00824881
REMARK  12 active torsions:
REMARK  status: ('A' for Active; 'I' for Inactive)
REMARK    1  A    between atoms: C19_20  and  O2_21 
REMARK    2  A    between atoms: C19_20  and  C20_22 
REMARK    3  A    between atoms: C20_22  and  C21_24 
REMARK    4  A    between atoms: C21_24  and  O4_25 
REMARK    5  A    between atoms: O4_25  and  C22_26 
REMARK    6  A    between atoms: C22_26  and  C23_28 
REMARK    7  A    between atoms: C23_28  and  C24_29 
REMARK    8  A    between atoms: C24_29  and  C25_30 
REMARK       I    between atoms: C25_30  and  N1_32 
REMARK    9  A    between atoms: N1_32  and  C26_33 
REMARK   10  A    between atoms: C26_33  and  C27_34 
REMARK   11  A    between atoms: C30_37  and  C31_38 
REMARK   12  A    between atoms: C31_38  and  O8_40 
ROOT
HETATM    1  C20 UNL     1      -8.721  48.142 -24.167  1.00  0.00     0.185 C 
HETATM    2  O3  UNL     1      -9.018  49.153 -24.811  1.00  0.00    -0.292 OA
ENDROOT
BRANCH   1   3
HETATM    3  C19 UNL     1      -7.639  48.171 -23.053  1.00  0.00     0.128 C 
HETATM    4  C14 UNL     1      -6.250  48.723 -23.512  1.00  0.00    -0.002 C 
HETATM    5  C13 UNL     1      -6.075  50.253 -23.507  1.00  0.00     0.013 C 
HETATM    6  C15 UNL     1      -5.884  48.163 -24.913  1.00  0.00     0.019 C 
HETATM    7  C16 UNL     1      -5.352  48.166 -22.377  1.00  0.00     0.002 C 
HETATM    8  C12 UNL     1      -4.601  50.672 -23.660  1.00  0.00     0.007 C 
HETATM    9  C11 UNL     1      -3.662  50.013 -22.618  1.00  0.00     0.002 C 
HETATM   10  C2  UNL     1      -2.151  50.439 -22.757  1.00  0.00    -0.016 C 
HETATM   11  C10 UNL     1      -3.860  48.467 -22.569  1.00  0.00    -0.004 C 
HETATM   12  C1  UNL     1      -1.583  50.112 -24.155  1.00  0.00     0.020 C 
HETATM   13  C3  UNL     1      -2.051  51.976 -22.521  1.00  0.00     0.022 C 
HETATM   14  C7  UNL     1      -1.314  49.690 -21.710  1.00  0.00    -0.068 C 
HETATM   15  C4  UNL     1      -0.639  52.462 -22.229  1.00  0.00     0.084 C 
HETATM   16  C5  UNL     1      -0.067  51.715 -21.054  1.00  0.00     0.149 C 
HETATM   17  O1  UNL     1       0.715  52.233 -20.261  1.00  0.00    -0.293 OA
HETATM   18  C6  UNL     1      -0.408  50.282 -20.913  1.00  0.00     0.053 C 
HETATM   19  C8  UNL     1      -1.541  48.200 -21.604  1.00  0.00     0.035 C 
HETATM   20  C9  UNL     1      -3.017  47.862 -21.437  1.00  0.00     0.010 C 
HETATM   21  C17 UNL     1      -5.783  46.711 -22.259  1.00  0.00     0.009 C 
HETATM   22  C18 UNL     1      -7.295  46.737 -22.543  1.00  0.00     0.047 C 
BRANCH   3  23
HETATM   23  O2  UNL     1      -8.096  48.912 -21.918  1.00  0.00    -0.381 OA
HETATM   24  H27 UNL     1      -8.901  48.474 -21.590  1.00  0.00     0.211 HD
ENDBRANCH   3  23
ENDBRANCH   1   3
BRANCH   1  25
HETATM   25  C21 UNL     1      -9.463  46.836 -24.412  1.00  0.00     0.260 C 
BRANCH  25  26
HETATM   26  O4  UNL     1     -10.688  47.077 -25.099  1.00  0.00    -0.314 OA
BRANCH  26  27
HETATM   27  C22 UNL     1     -11.796  46.821 -24.353  1.00  0.00     0.259 C 
HETATM   28  O5  UNL     1     -12.922  47.218 -24.627  1.00  0.00    -0.265 OA
BRANCH  27  29
HETATM   29  C23 UNL     1     -11.474  46.070 -23.080  1.00  0.00     0.120 C 
BRANCH  29  30
HETATM   30  C24 UNL     1     -11.935  46.747 -21.794  1.00  0.00     0.112 C 
BRANCH  30  31
HETATM   31  C25 UNL     1     -13.182  46.102 -21.225  1.00  0.00     0.218 C 
HETATM   32  O6  UNL     1     -13.221  44.940 -20.838  1.00  0.00    -0.274 OA
HETATM   33  N1  UNL     1     -14.255  46.963 -21.174  1.00  0.00    -0.357 N 
HETATM   34  H34 UNL     1     -14.210  47.827 -21.696  1.00  0.00     0.162 HD
BRANCH  33  35
HETATM   35  C26 UNL     1     -15.563  46.513 -20.751  1.00  0.00     0.161 C 
BRANCH  35  36
HETATM   36  C27 UNL     1     -16.499  46.397 -21.928  1.00  0.00    -0.040 A 
HETATM   37  C28 UNL     1     -17.890  46.415 -21.744  1.00  0.00     0.010 A 
HETATM   38  C29 UNL     1     -18.750  46.318 -22.841  1.00  0.00     0.019 A 
HETATM   39  C30 UNL     1     -18.231  46.210 -24.137  1.00  0.00     0.037 A 
HETATM   40  C32 UNL     1     -16.845  46.205 -24.326  1.00  0.00     0.019 A 
HETATM   41  C33 UNL     1     -15.986  46.302 -23.229  1.00  0.00     0.010 A 
BRANCH  39  42
HETATM   42  C31 UNL     1     -19.105  46.100 -25.329  1.00  0.00     0.176 C 
HETATM   43  O7  UNL     1     -18.767  45.700 -26.428  1.00  0.00    -0.646 OA
BRANCH  42  44
HETATM   44  O8  UNL     1     -20.366  46.498 -25.091  1.00  0.00    -0.773 OA
HETATM   45  H39 UNL     1     -20.816  46.364 -25.951  1.00  0.00     0.167 HD
ENDBRANCH  42  44
ENDBRANCH  39  42
ENDBRANCH  35  36
ENDBRANCH  33  35
ENDBRANCH  30  31
ENDBRANCH  29  30
ENDBRANCH  27  29
ENDBRANCH  26  27
ENDBRANCH  25  26
ENDBRANCH   1  25
TORSDOF 12
ENDMDL
MODEL 3
REMARK minimizedAffinity -8.5345602
REMARK CNNscore 0.540507972
REMARK CNNaffinity 6.05259371
REMARK  12 active torsions:
REMARK  status: ('A' for Active; 'I' for Inactive)
REMARK    1  A    between atoms: C19_20  and  O2_21 
REMARK    2  A    between atoms: C19_20  and  C20_22 
REMARK    3  A    between atoms: C20_22  and  C21_24 
REMARK    4  A    between atoms: C21_24  and  O4_25 
REMARK    5  A    between atoms: O4_25  and  C22_26 
REMARK    6  A    between atoms: C22_26  and  C23_28 
REMARK    7  A    between atoms: C23_28  and  C24_29 
REMARK    8  A    between atoms: C24_29  and  C25_30 
REMARK       I    between atoms: C25_30  and  N1_32 
REMARK    9  A    between atoms: N1_32  and  C26_33 
REMARK   10  A    between atoms: C26_33  and  C27_34 
REMARK   11  A    between atoms: C30_37  and  C31_38 
REMARK   12  A    between atoms: C31_38  and  O8_40 
ROOT
HETATM    1  C20 UNL     1      -9.812  46.945 -28.083  1.00  0.00     0.185 C 
HETATM    2  O3  UNL     1      -9.330  46.265 -27.170  1.00  0.00    -0.292 OA
ENDROOT
BRANCH   1   3
HETATM    3  C19 UNL     1     -11.307  46.830 -28.484  1.00  0.00     0.128 C 
HETATM    4  C14 UNL     1     -12.247  46.312 -27.347  1.00  0.00    -0.002 C 
HETATM    5  C13 UNL     1     -12.759  47.358 -26.338  1.00  0.00     0.013 C 
HETATM    6  C15 UNL     1     -11.573  45.140 -26.584  1.00  0.00     0.019 C 
HETATM    7  C16 UNL     1     -13.470  45.869 -28.191  1.00  0.00     0.002 C 
HETATM    8  C12 UNL     1     -13.911  46.817 -25.472  1.00  0.00     0.007 C 
HETATM    9  C11 UNL     1     -15.086  46.239 -26.300  1.00  0.00     0.002 C 
HETATM   10  C2  UNL     1     -16.277  45.689 -25.426  1.00  0.00    -0.016 C 
HETATM   11  C10 UNL     1     -14.585  45.215 -27.364  1.00  0.00    -0.004 C 
HETATM   12  C1  UNL     1     -15.818  44.582 -24.451  1.00  0.00     0.020 C 
HETATM   13  C3  UNL     1     -16.867  46.872 -24.601  1.00  0.00     0.022 C 
HETATM   14  C7  UNL     1     -17.354  45.101 -26.349  1.00  0.00    -0.068 C 
HETATM   15  C4  UNL     1     -18.248  46.592 -24.028  1.00  0.00     0.084 C 
HETATM   16  C5  UNL     1     -19.197  46.198 -25.129  1.00  0.00     0.149 C 
HETATM   17  O1  UNL     1     -20.392  46.480 -25.102  1.00  0.00    -0.293 OA
HETATM   18  C6  UNL     1     -18.666  45.372 -26.236  1.00  0.00     0.053 C 
HETATM   19  C8  UNL     1     -16.877  44.157 -27.428  1.00  0.00     0.035 C 
HETATM   20  C9  UNL     1     -15.751  44.765 -28.255  1.00  0.00     0.010 C 
HETATM   21  C17 UNL     1     -12.851  45.066 -29.327  1.00  0.00     0.009 C 
HETATM   22  C18 UNL     1     -11.522  45.783 -29.621  1.00  0.00     0.047 C 
BRANCH   3  23
HETATM   23  O2  UNL     1     -11.799  48.080 -28.978  1.00  0.00    -0.381 OA
HETATM   24  H27 UNL     1     -11.263  48.317 -29.755  1.00  0.00     0.211 HD
ENDBRANCH   3  23
ENDBRANCH   1   3
BRANCH   1  25
HETATM   25  C21 UNL     1      -8.951  47.970 -28.806  1.00  0.00     0.260 C 
BRANCH  25  26
HETATM   26  O4  UNL     1      -9.217  47.950 -30.206  1.00  0.00    -0.314 OA
BRANCH  26  27
HETATM   27  C22 UNL     1      -8.324  47.219 -30.925  1.00  0.00     0.259 C 
HETATM   28  O5  UNL     1      -8.556  46.113 -31.399  1.00  0.00    -0.265 OA
BRANCH  27  29
HETATM   29  C23 UNL     1      -6.963  47.875 -30.994  1.00  0.00     0.120 C 
BRANCH  29  30
HETATM   30  C24 UNL     1      -5.894  47.245 -30.110  1.00  0.00     0.112 C 
BRANCH  30  31
HETATM   31  C25 UNL     1      -4.986  48.283 -29.484  1.00  0.00     0.218 C 
HETATM   32  O6  UNL     1      -4.554  49.255 -30.094  1.00  0.00    -0.274 OA
HETATM   33  N1  UNL     1      -4.713  48.028 -28.159  1.00  0.00    -0.357 N 
HETATM   34  H34 UNL     1      -4.926  47.113 -27.787  1.00  0.00     0.162 HD
BRANCH  33  35
HETATM   35  C26 UNL     1      -3.788  48.848 -27.408  1.00  0.00     0.161 C 
BRANCH  35  36
HETATM   36  C27 UNL     1      -3.973  48.648 -25.925  1.00  0.00    -0.040 A 
HETATM   37  C28 UNL     1      -5.237  48.358 -25.391  1.00  0.00     0.010 A 
HETATM   38  C29 UNL     1      -5.398  48.164 -24.016  1.00  0.00     0.019 A 
HETATM   39  C30 UNL     1      -4.295  48.248 -23.158  1.00  0.00     0.037 A 
HETATM   40  C32 UNL     1      -3.029  48.523 -23.688  1.00  0.00     0.019 A 
HETATM   41  C33 UNL     1      -2.870  48.718 -25.062  1.00  0.00     0.010 A 
BRANCH  39  42
HETATM   42  C31 UNL     1      -4.418  48.053 -21.694  1.00  0.00     0.176 C 
HETATM   43  O7  UNL     1      -4.071  47.066 -21.073  1.00  0.00    -0.646 OA
BRANCH  42  44
HETATM   44  O8  UNL     1      -4.974  49.108 -21.072  1.00  0.00    -0.773 OA
HETATM   45  H39 UNL     1      -4.982  48.840 -20.129  1.00  0.00     0.167 HD
ENDBRANCH  42  44
ENDBRANCH  39  42
ENDBRANCH  35  36
ENDBRANCH  33  35
ENDBRANCH  30  31
ENDBRANCH  29  30
ENDBRANCH  27  29
ENDBRANCH  26  27
ENDBRANCH  25  26
ENDBRANCH   1  25
TORSDOF 12
ENDMDL
MODEL 4
REMARK minimizedAffinity -9.41538811
REMARK CNNscore 0.448078126
REMARK CNNaffinity 6.21262503
REMARK  12 active torsions:
REMARK  status: ('A' for Active; 'I' for Inactive)
REMARK    1  A    between atoms: C19_20  and  O2_21 
REMARK    2  A    between atoms: C19_20  and  C20_22 
REMARK    3  A    between atoms: C20_22  and  C21_24 
REMARK    4  A    between atoms: C21_24  and  O4_25 
REMARK    5  A    between atoms: O4_25  and  C22_26 
REMARK    6  A    between atoms: C22_26  and  C23_28 
REMARK    7  A    between atoms: C23_28  and  C24_29 
REMARK    8  A    between atoms: C24_29  and  C25_30 
REMARK       I    between atoms: C25_30  and  N1_32 
REMARK    9  A    between atoms: N1_32  and  C26_33 
REMARK   10  A    between atoms: C26_33  and  C27_34 
REMARK   11  A    between atoms: C30_37  and  C31_38 
REMARK   12  A    between atoms: C31_38  and  O8_40 
ROOT
HETATM    1  C20 UNL     1      -6.662  48.074 -24.146  1.00  0.00     0.185 C 
HETATM    2  O3  UNL     1      -6.119  47.766 -25.212  1.00  0.00    -0.292 OA
ENDROOT
BRANCH   1   3
HETATM    3  C19 UNL     1      -6.192  49.298 -23.313  1.00  0.00     0.128 C 
HETATM    4  C14 UNL     1      -4.710  49.218 -22.822  1.00  0.00    -0.002 C 
HETATM    5  C13 UNL     1      -3.624  49.673 -23.816  1.00  0.00     0.013 C 
HETATM    6  C15 UNL     1      -4.385  47.786 -22.318  1.00  0.00     0.019 C 
HETATM    7  C16 UNL     1      -4.746  50.273 -21.686  1.00  0.00     0.002 C 
HETATM    8  C12 UNL     1      -2.254  49.859 -23.137  1.00  0.00     0.007 C 
HETATM    9  C11 UNL     1      -2.299  50.804 -21.910  1.00  0.00     0.002 C 
HETATM   10  C2  UNL     1      -0.901  51.011 -21.209  1.00  0.00    -0.016 C 
HETATM   11  C10 UNL     1      -3.426  50.392 -20.914  1.00  0.00    -0.004 C 
HETATM   12  C1  UNL     1      -0.286  49.675 -20.737  1.00  0.00     0.020 C 
HETATM   13  C3  UNL     1       0.066  51.676 -22.234  1.00  0.00     0.022 C 
HETATM   14  C7  UNL     1      -1.078  51.920 -19.984  1.00  0.00    -0.068 C 
HETATM   15  C4  UNL     1       1.302  52.295 -21.598  1.00  0.00     0.084 C 
HETATM   16  C5  UNL     1       0.900  53.287 -20.540  1.00  0.00     0.149 C 
HETATM   17  O1  UNL     1       1.555  54.298 -20.300  1.00  0.00    -0.293 OA
HETATM   18  C6  UNL     1      -0.287  52.973 -19.714  1.00  0.00     0.053 C 
HETATM   19  C8  UNL     1      -2.208  51.573 -19.043  1.00  0.00     0.035 C 
HETATM   20  C9  UNL     1      -3.533  51.422 -19.780  1.00  0.00     0.010 C 
HETATM   21  C17 UNL     1      -6.006  49.918 -20.908  1.00  0.00     0.009 C 
HETATM   22  C18 UNL     1      -6.995  49.434 -21.982  1.00  0.00     0.047 C 
BRANCH   3  23
HETATM   23  O2  UNL     1      -6.390  50.515 -24.039  1.00  0.00    -0.381 OA
HETATM   24  H27 UNL     1      -7.342  50.587 -24.231  1.00  0.00     0.211 HD
ENDBRANCH   3  23
ENDBRANCH   1   3
BRANCH   1  25
HETATM   25  C21 UNL     1      -7.863  47.285 -23.647  1.00  0.00     0.260 C 
BRANCH  25  26
HETATM   26  O4  UNL     1      -8.446  46.533 -24.708  1.00  0.00    -0.314 OA
BRANCH  26  27
HETATM   27  C22 UNL     1      -9.562  47.102 -25.237  1.00  0.00     0.259 C 
HETATM   28  O5  UNL     1      -9.810  48.302 -25.201  1.00  0.00    -0.265 OA
BRANCH  27  29
HETATM   29  C23 UNL     1     -10.525  46.078 -25.793  1.00  0.00     0.120 C 
BRANCH  29  30
HETATM   30  C24 UNL     1     -11.537  45.530 -24.793  1.00  0.00     0.112 C 
BRANCH  30  31
HETATM   31  C25 UNL     1     -12.567  46.566 -24.396  1.00  0.00     0.218 C 
HETATM   32  O6  UNL     1     -12.850  47.534 -25.092  1.00  0.00    -0.274 OA
HETATM   33  N1  UNL     1     -13.162  46.294 -23.185  1.00  0.00    -0.357 N 
HETATM   34  H34 UNL     1     -12.737  45.606 -22.579  1.00  0.00     0.162 HD
BRANCH  33  35
HETATM   35  C26 UNL     1     -14.104  47.213 -22.584  1.00  0.00     0.161 C 
BRANCH  35  36
HETATM   36  C27 UNL     1     -15.514  46.896 -23.014  1.00  0.00    -0.040 A 
HETATM   37  C28 UNL     1     -15.912  47.062 -24.349  1.00  0.00     0.010 A 
HETATM   38  C29 UNL     1     -17.218  46.756 -24.742  1.00  0.00     0.019 A 
HETATM   39  C30 UNL     1     -18.141  46.273 -23.806  1.00  0.00     0.037 A 
HETATM   40  C32 UNL     1     -17.745  46.093 -22.476  1.00  0.00     0.019 A 
HETATM   41  C33 UNL     1     -16.439  46.399 -22.085  1.00  0.00     0.010 A 
BRANCH  39  42
HETATM   42  C31 UNL     1     -19.537  45.940 -24.176  1.00  0.00     0.176 C 
HETATM   43  O7  UNL     1     -20.181  44.995 -23.759  1.00  0.00    -0.646 OA
BRANCH  42  44
HETATM   44  O8  UNL     1     -20.066  46.809 -25.055  1.00  0.00    -0.773 OA
HETATM   45  H39 UNL     1     -20.975  46.469 -25.196  1.00  0.00     0.167 HD
ENDBRANCH  42  44
ENDBRANCH  39  42
ENDBRANCH  35  36
ENDBRANCH  33  35
ENDBRANCH  30  31
ENDBRANCH  29  30
ENDBRANCH  27  29
ENDBRANCH  26  27
ENDBRANCH  25  26
ENDBRANCH   1  25
TORSDOF 12
ENDMDL
MODEL 5
REMARK minimizedAffinity -9.08055019
REMARK CNNscore 0.422683537
REMARK CNNaffinity 6.45912886
REMARK  12 active torsions:
REMARK  status: ('A' for Active; 'I' for Inactive)
REMARK    1  A    between atoms: C19_20  and  O2_21 
REMARK    2  A    between atoms: C19_20  and  C20_22 
REMARK    3  A    between atoms: C20_22  and  C21_24 
REMARK    4  A    between atoms: C21_24  and  O4_25 
REMARK    5  A    between atoms: O4_25  and  C22_26 
REMARK    6  A    between atoms: C22_26  and  C23_28 
REMARK    7  A    between atoms: C23_28  and  C24_29 
REMARK    8  A    between atoms: C24_29  and  C25_30 
REMARK       I    between atoms: C25_30  and  N1_32 
REMARK    9  A    between atoms: N1_32  and  C26_33 
REMARK   10  A    between atoms: C26_33  and  C27_34 
REMARK   11  A    between atoms: C30_37  and  C31_38 
REMARK   12  A    between atoms: C31_38  and  O8_40 
ROOT
HETATM    1  C20 UNL     1      -6.730  48.054 -24.159  1.00  0.00     0.185 C 
HETATM    2  O3  UNL     1      -7.465  47.185 -23.678  1.00  0.00    -0.292 OA
ENDROOT
BRANCH   1   3
HETATM    3  C19 UNL     1      -6.253  49.274 -23.325  1.00  0.00     0.128 C 
HETATM    4  C14 UNL     1      -4.768  49.190 -22.843  1.00  0.00    -0.002 C 
HETATM    5  C13 UNL     1      -3.688  49.647 -23.841  1.00  0.00     0.013 C 
HETATM    6  C15 UNL     1      -4.443  47.756 -22.346  1.00  0.00     0.019 C 
HETATM    7  C16 UNL     1      -4.797  50.240 -21.702  1.00  0.00     0.002 C 
HETATM    8  C12 UNL     1      -2.314  49.828 -23.170  1.00  0.00     0.007 C 
HETATM    9  C11 UNL     1      -2.350  50.769 -21.939  1.00  0.00     0.002 C 
HETATM   10  C2  UNL     1      -0.948  50.971 -21.245  1.00  0.00    -0.016 C 
HETATM   11  C10 UNL     1      -3.472  50.355 -20.938  1.00  0.00    -0.004 C 
HETATM   12  C1  UNL     1      -0.332  49.633 -20.782  1.00  0.00     0.020 C 
HETATM   13  C3  UNL     1       0.015  51.638 -22.273  1.00  0.00     0.022 C 
HETATM   14  C7  UNL     1      -1.115  51.876 -20.016  1.00  0.00    -0.068 C 
HETATM   15  C4  UNL     1       1.256  52.253 -21.643  1.00  0.00     0.084 C 
HETATM   16  C5  UNL     1       0.861  53.241 -20.579  1.00  0.00     0.149 C 
HETATM   17  O1  UNL     1       1.519  54.251 -20.340  1.00  0.00    -0.293 OA
HETATM   18  C6  UNL     1      -0.322  52.927 -19.747  1.00  0.00     0.053 C 
HETATM   19  C8  UNL     1      -2.241  51.527 -19.070  1.00  0.00     0.035 C 
HETATM   20  C9  UNL     1      -3.570  51.381 -19.800  1.00  0.00     0.010 C 
HETATM   21  C17 UNL     1      -6.052  49.885 -20.918  1.00  0.00     0.009 C 
HETATM   22  C18 UNL     1      -7.048  49.407 -21.989  1.00  0.00     0.047 C 
BRANCH   3  23
HETATM   23  O2  UNL     1      -6.454  50.493 -24.046  1.00  0.00    -0.381 OA
HETATM   24  H27 UNL     1      -7.406  50.568 -24.231  1.00  0.00     0.211 HD
ENDBRANCH   3  23
ENDBRANCH   1   3
BRANCH   1  25
HETATM   25  C21 UNL     1      -6.219  47.915 -25.585  1.00  0.00     0.260 C 
BRANCH  25  26
HETATM   26  O4  UNL     1      -7.307  47.777 -26.496  1.00  0.00    -0.314 OA
BRANCH  26  27
HETATM   27  C22 UNL     1      -6.923  47.662 -27.796  1.00  0.00     0.259 C 
HETATM   28  O5  UNL     1      -5.795  47.352 -28.160  1.00  0.00    -0.265 OA
BRANCH  27  29
HETATM   29  C23 UNL     1      -8.020  48.057 -28.759  1.00  0.00     0.120 C 
BRANCH  29  30
HETATM   30  C24 UNL     1      -9.099  47.003 -28.981  1.00  0.00     0.112 C 
BRANCH  30  31
HETATM   31  C25 UNL     1     -10.487  47.606 -29.021  1.00  0.00     0.218 C 
HETATM   32  O6  UNL     1     -10.971  48.116 -30.025  1.00  0.00    -0.274 OA
HETATM   33  N1  UNL     1     -11.150  47.506 -27.819  1.00  0.00    -0.357 N 
HETATM   34  H34 UNL     1     -10.621  47.268 -26.991  1.00  0.00     0.162 HD
BRANCH  33  35
HETATM   35  C26 UNL     1     -12.452  48.106 -27.622  1.00  0.00     0.161 C 
BRANCH  35  36
HETATM   36  C27 UNL     1     -13.533  47.054 -27.607  1.00  0.00    -0.040 A 
HETATM   37  C28 UNL     1     -13.813  46.295 -28.753  1.00  0.00     0.010 A 
HETATM   38  C29 UNL     1     -14.809  45.316 -28.728  1.00  0.00     0.019 A 
HETATM   39  C30 UNL     1     -15.533  45.077 -27.553  1.00  0.00     0.037 A 
HETATM   40  C32 UNL     1     -15.248  45.822 -26.404  1.00  0.00     0.019 A 
HETATM   41  C33 UNL     1     -14.252  46.801 -26.431  1.00  0.00     0.010 A 
BRANCH  39  42
HETATM   42  C31 UNL     1     -16.601  44.052 -27.481  1.00  0.00     0.176 C 
HETATM   43  O7  UNL     1     -16.474  42.916 -27.063  1.00  0.00    -0.646 OA
BRANCH  42  44
HETATM   44  O8  UNL     1     -17.785  44.497 -27.937  1.00  0.00    -0.773 OA
HETATM   45  H39 UNL     1     -18.380  43.728 -27.821  1.00  0.00     0.167 HD
ENDBRANCH  42  44
ENDBRANCH  39  42
ENDBRANCH  35  36
ENDBRANCH  33  35
ENDBRANCH  30  31
ENDBRANCH  29  30
ENDBRANCH  27  29
ENDBRANCH  26  27
ENDBRANCH  25  26
ENDBRANCH   1  25
TORSDOF 12
ENDMDL
MODEL 6
REMARK minimizedAffinity -8.66520596
REMARK CNNscore 0.385114014
REMARK CNNaffinity 6.96732187
REMARK  12 active torsions:
REMARK  status: ('A' for Active; 'I' for Inactive)
REMARK    1  A    between atoms: C19_20  and  O2_21 
REMARK    2  A    between atoms: C19_20  and  C20_22 
REMARK    3  A    between atoms: C20_22  and  C21_24 
REMARK    4  A    between atoms: C21_24  and  O4_25 
REMARK    5  A    between atoms: O4_25  and  C22_26 
REMARK    6  A    between atoms: C22_26  and  C23_28 
REMARK    7  A    between atoms: C23_28  and  C24_29 
REMARK    8  A    between atoms: C24_29  and  C25_30 
REMARK       I    between atoms: C25_30  and  N1_32 
REMARK    9  A    between atoms: N1_32  and  C26_33 
REMARK   10  A    between atoms: C26_33  and  C27_34 
REMARK   11  A    between atoms: C30_37  and  C31_38 
REMARK   12  A    between atoms: C31_38  and  O8_40 
ROOT
HETATM    1  C20 UNL     1      -2.916  50.565 -13.257  1.00  0.00     0.185 C 
HETATM    2  O3  UNL     1      -3.562  49.585 -12.869  1.00  0.00    -0.292 OA
ENDROOT
BRANCH   1   3
HETATM    3  C19 UNL     1      -2.730  51.824 -12.367  1.00  0.00     0.128 C 
HETATM    4  C14 UNL     1      -1.322  51.943 -11.696  1.00  0.00    -0.002 C 
HETATM    5  C13 UNL     1      -0.200  52.569 -12.545  1.00  0.00     0.013 C 
HETATM    6  C15 UNL     1      -0.861  50.560 -11.162  1.00  0.00     0.019 C 
HETATM    7  C16 UNL     1      -1.648  52.957 -10.568  1.00  0.00     0.002 C 
HETATM    8  C12 UNL     1       1.036  52.931 -11.702  1.00  0.00     0.007 C 
HETATM    9  C11 UNL     1       0.708  53.833 -10.485  1.00  0.00     0.002 C 
HETATM   10  C2  UNL     1       1.966  54.219  -9.616  1.00  0.00    -0.016 C 
HETATM   11  C10 UNL     1      -0.462  53.244  -9.638  1.00  0.00    -0.004 C 
HETATM   12  C1  UNL     1       2.703  52.974  -9.077  1.00  0.00     0.020 C 
HETATM   13  C3  UNL     1       2.946  55.037 -10.509  1.00  0.00     0.022 C 
HETATM   14  C7  UNL     1       1.513  55.067  -8.417  1.00  0.00    -0.068 C 
HETATM   15  C4  UNL     1       3.994  55.810  -9.723  1.00  0.00     0.084 C 
HETATM   16  C5  UNL     1       3.328  56.711  -8.718  1.00  0.00     0.149 C 
HETATM   17  O1  UNL     1       3.798  57.799  -8.395  1.00  0.00    -0.293 OA
HETATM   18  C6  UNL     1       2.106  56.215  -8.047  1.00  0.00     0.053 C 
HETATM   19  C8  UNL     1       0.338  54.543  -7.626  1.00  0.00     0.035 C 
HETATM   20  C9  UNL     1      -0.852  54.224  -8.522  1.00  0.00     0.010 C 
HETATM   21  C17 UNL     1      -2.929  52.411  -9.954  1.00  0.00     0.009 C 
HETATM   22  C18 UNL     1      -3.700  51.816 -11.145  1.00  0.00     0.047 C 
BRANCH   3  23
HETATM   23  O2  UNL     1      -3.010  53.016 -13.106  1.00  0.00    -0.381 OA
HETATM   24  H27 UNL     1      -3.931  52.958 -13.414  1.00  0.00     0.211 HD
ENDBRANCH   3  23
ENDBRANCH   1   3
BRANCH   1  25
HETATM   25  C21 UNL     1      -2.226  50.536 -14.612  1.00  0.00     0.260 C 
BRANCH  25  26
HETATM   26  O4  UNL     1      -3.109  50.996 -15.633  1.00  0.00    -0.314 OA
BRANCH  26  27
HETATM   27  C22 UNL     1      -2.620  50.839 -16.892  1.00  0.00     0.259 C 
HETATM   28  O5  UNL     1      -2.847  51.603 -17.823  1.00  0.00    -0.265 OA
BRANCH  27  29
HETATM   29  C23 UNL     1      -1.839  49.554 -17.054  1.00  0.00     0.120 C 
BRANCH  29  30
HETATM   30  C24 UNL     1      -0.759  49.583 -18.128  1.00  0.00     0.112 C 
BRANCH  30  31
HETATM   31  C25 UNL     1      -1.254  49.036 -19.451  1.00  0.00     0.218 C 
HETATM   32  O6  UNL     1      -1.248  47.843 -19.730  1.00  0.00    -0.274 OA
HETATM   33  N1  UNL     1      -1.725  50.017 -20.294  1.00  0.00    -0.357 N 
HETATM   34  H34 UNL     1      -1.508  50.982 -20.086  1.00  0.00     0.162 HD
BRANCH  33  35
HETATM   35  C26 UNL     1      -2.154  49.712 -21.642  1.00  0.00     0.161 C 
BRANCH  35  36
HETATM   36  C27 UNL     1      -1.484  50.623 -22.640  1.00  0.00    -0.040 A 
HETATM   37  C28 UNL     1      -0.448  51.482 -22.245  1.00  0.00     0.010 A 
HETATM   38  C29 UNL     1       0.175  52.315 -23.179  1.00  0.00     0.019 A 
HETATM   39  C30 UNL     1      -0.226  52.294 -24.520  1.00  0.00     0.037 A 
HETATM   40  C32 UNL     1      -1.250  51.429 -24.921  1.00  0.00     0.019 A 
HETATM   41  C33 UNL     1      -1.871  50.597 -23.987  1.00  0.00     0.010 A 
BRANCH  39  42
HETATM   42  C31 UNL     1       0.402  53.164 -25.544  1.00  0.00     0.176 C 
HETATM   43  O7  UNL     1       1.353  52.870 -26.244  1.00  0.00    -0.646 OA
BRANCH  42  44
HETATM   44  O8  UNL     1      -0.191  54.366 -25.643  1.00  0.00    -0.773 OA
HETATM   45  H39 UNL     1       0.319  54.816 -26.349  1.00  0.00     0.167 HD
ENDBRANCH  42  44
ENDBRANCH  39  42
ENDBRANCH  35  36
ENDBRANCH  33  35
ENDBRANCH  30  31
ENDBRANCH  29  30
ENDBRANCH  27  29
ENDBRANCH  26  27
ENDBRANCH  25  26
ENDBRANCH   1  25
TORSDOF 12
ENDMDL
MODEL 7
REMARK minimizedAffinity -8.23532963
REMARK CNNscore 0.369147509
REMARK CNNaffinity 6.01115084
REMARK  12 active torsions:
REMARK  status: ('A' for Active; 'I' for Inactive)
REMARK    1  A    between atoms: C19_20  and  O2_21 
REMARK    2  A    between atoms: C19_20  and  C20_22 
REMARK    3  A    between atoms: C20_22  and  C21_24 
REMARK    4  A    between atoms: C21_24  and  O4_25 
REMARK    5  A    between atoms: O4_25  and  C22_26 
REMARK    6  A    between atoms: C22_26  and  C23_28 
REMARK    7  A    between atoms: C23_28  and  C24_29 
REMARK    8  A    between atoms: C24_29  and  C25_30 
REMARK       I    between atoms: C25_30  and  N1_32 
REMARK    9  A    between atoms: N1_32  and  C26_33 
REMARK   10  A    between atoms: C26_33  and  C27_34 
REMARK   11  A    between atoms: C30_37  and  C31_38 
REMARK   12  A    between atoms: C31_38  and  O8_40 
ROOT
HETATM    1  C20 UNL     1      -7.273  48.446 -23.182  1.00  0.00     0.185 C 
HETATM    2  O3  UNL     1      -7.804  47.466 -22.649  1.00  0.00    -0.292 OA
ENDROOT
BRANCH   1   3
HETATM    3  C19 UNL     1      -6.630  49.583 -22.342  1.00  0.00     0.128 C 
HETATM    4  C14 UNL     1      -5.079  49.473 -22.179  1.00  0.00    -0.002 C 
HETATM    5  C13 UNL     1      -4.219  50.044 -23.324  1.00  0.00     0.013 C 
HETATM    6  C15 UNL     1      -4.668  48.001 -21.906  1.00  0.00     0.019 C 
HETATM    7  C16 UNL     1      -4.870  50.403 -20.957  1.00  0.00     0.002 C 
HETATM    8  C12 UNL     1      -2.737  50.177 -22.928  1.00  0.00     0.007 C 
HETATM    9  C11 UNL     1      -2.518  50.989 -21.626  1.00  0.00     0.002 C 
HETATM   10  C2  UNL     1      -1.004  51.141 -21.213  1.00  0.00    -0.016 C 
HETATM   11  C10 UNL     1      -3.417  50.460 -20.467  1.00  0.00    -0.004 C 
HETATM   12  C1  UNL     1      -0.315  49.772 -21.021  1.00  0.00     0.020 C 
HETATM   13  C3  UNL     1      -0.264  51.922 -22.341  1.00  0.00     0.022 C 
HETATM   14  C7  UNL     1      -0.914  51.915 -19.890  1.00  0.00    -0.068 C 
HETATM   15  C4  UNL     1       1.082  52.488 -21.914  1.00  0.00     0.084 C 
HETATM   16  C5  UNL     1       0.916  53.359 -20.698  1.00  0.00     0.149 C 
HETATM   17  O1  UNL     1       1.614  54.349 -20.496  1.00  0.00    -0.293 OA
HETATM   18  C6  UNL     1      -0.077  52.945 -19.681  1.00  0.00     0.053 C 
HETATM   19  C8  UNL     1      -1.828  51.457 -18.777  1.00  0.00     0.035 C 
HETATM   20  C9  UNL     1      -3.278  51.365 -19.235  1.00  0.00     0.010 C 
HETATM   21  C17 UNL     1      -5.943  49.953 -19.976  1.00  0.00     0.009 C 
HETATM   22  C18 UNL     1      -7.138  49.570 -20.866  1.00  0.00     0.047 C 
BRANCH   3  23
HETATM   23  O2  UNL     1      -6.965  50.866 -22.880  1.00  0.00    -0.381 OA
HETATM   24  H27 UNL     1      -7.935  50.945 -22.861  1.00  0.00     0.211 HD
ENDBRANCH   3  23
ENDBRANCH   1   3
BRANCH   1  25
HETATM   25  C21 UNL     1      -7.183  48.534 -24.697  1.00  0.00     0.260 C 
BRANCH  25  26
HETATM   26  O4  UNL     1      -8.226  47.777 -25.307  1.00  0.00    -0.314 OA
BRANCH  26  27
HETATM   27  C22 UNL     1      -9.171  48.538 -25.920  1.00  0.00     0.259 C 
HETATM   28  O5  UNL     1      -9.558  49.626 -25.509  1.00  0.00    -0.265 OA
BRANCH  27  29
HETATM   29  C23 UNL     1      -9.775  47.851 -27.124  1.00  0.00     0.120 C 
BRANCH  29  30
HETATM   30  C24 UNL     1     -10.952  46.931 -26.822  1.00  0.00     0.112 C 
BRANCH  30  31
HETATM   31  C25 UNL     1     -10.939  45.684 -27.682  1.00  0.00     0.218 C 
HETATM   32  O6  UNL     1     -11.937  45.008 -27.903  1.00  0.00    -0.274 OA
HETATM   33  N1  UNL     1      -9.694  45.404 -28.199  1.00  0.00    -0.357 N 
HETATM   34  H34 UNL     1      -8.889  45.875 -27.811  1.00  0.00     0.162 HD
BRANCH  33  35
HETATM   35  C26 UNL     1      -9.450  44.203 -28.968  1.00  0.00     0.161 C 
BRANCH  35  36
HETATM   36  C27 UNL     1      -9.511  44.489 -30.447  1.00  0.00    -0.040 A 
HETATM   37  C28 UNL     1     -10.586  44.032 -31.224  1.00  0.00     0.010 A 
HETATM   38  C29 UNL     1     -10.640  44.310 -32.592  1.00  0.00     0.019 A 
HETATM   39  C30 UNL     1      -9.623  45.056 -33.200  1.00  0.00     0.037 A 
HETATM   40  C32 UNL     1      -8.555  45.525 -32.428  1.00  0.00     0.019 A 
HETATM   41  C33 UNL     1      -8.502  45.246 -31.060  1.00  0.00     0.010 A 
BRANCH  39  42
HETATM   42  C31 UNL     1      -9.635  45.371 -34.649  1.00  0.00     0.176 C 
HETATM   43  O7  UNL     1     -10.428  46.101 -35.214  1.00  0.00    -0.646 OA
BRANCH  42  44
HETATM   44  O8  UNL     1      -8.651  44.756 -35.326  1.00  0.00    -0.773 OA
HETATM   45  H39 UNL     1      -8.781  45.060 -36.249  1.00  0.00     0.167 HD
ENDBRANCH  42  44
ENDBRANCH  39  42
ENDBRANCH  35  36
ENDBRANCH  33  35
ENDBRANCH  30  31
ENDBRANCH  29  30
ENDBRANCH  27  29
ENDBRANCH  26  27
ENDBRANCH  25  26
ENDBRANCH   1  25
TORSDOF 12
ENDMDL
MODEL 8
REMARK minimizedAffinity -9.26471043
REMARK CNNscore 0.364233583
REMARK CNNaffinity 6.45350885
REMARK  12 active torsions:
REMARK  status: ('A' for Active; 'I' for Inactive)
REMARK    1  A    between atoms: C19_20  and  O2_21 
REMARK    2  A    between atoms: C19_20  and  C20_22 
REMARK    3  A    between atoms: C20_22  and  C21_24 
REMARK    4  A    between atoms: C21_24  and  O4_25 
REMARK    5  A    between atoms: O4_25  and  C22_26 
REMARK    6  A    between atoms: C22_26  and  C23_28 
REMARK    7  A    between atoms: C23_28  and  C24_29 
REMARK    8  A    between atoms: C24_29  and  C25_30 
REMARK       I    between atoms: C25_30  and  N1_32 
REMARK    9  A    between atoms: N1_32  and  C26_33 
REMARK   10  A    between atoms: C26_33  and  C27_34 
REMARK   11  A    between atoms: C30_37  and  C31_38 
REMARK   12  A    between atoms: C31_38  and  O8_40 
ROOT
HETATM    1  C20 UNL     1      -6.951  48.273 -23.471  1.00  0.00     0.185 C 
HETATM    2  O3  UNL     1      -7.744  47.460 -22.985  1.00  0.00    -0.292 OA
ENDROOT
BRANCH   1   3
HETATM    3  C19 UNL     1      -6.383  49.456 -22.641  1.00  0.00     0.128 C 
HETATM    4  C14 UNL     1      -4.849  49.369 -22.350  1.00  0.00    -0.002 C 
HETATM    5  C13 UNL     1      -3.904  49.889 -23.449  1.00  0.00     0.013 C 
HETATM    6  C15 UNL     1      -4.455  47.916 -21.971  1.00  0.00     0.019 C 
HETATM    7  C16 UNL     1      -4.744  50.360 -21.162  1.00  0.00     0.002 C 
HETATM    8  C12 UNL     1      -2.459  50.056 -22.943  1.00  0.00     0.007 C 
HETATM    9  C11 UNL     1      -2.349  50.933 -21.670  1.00  0.00     0.002 C 
HETATM   10  C2  UNL     1      -0.874  51.119 -21.146  1.00  0.00    -0.016 C 
HETATM   11  C10 UNL     1      -3.336  50.455 -20.562  1.00  0.00    -0.004 C 
HETATM   12  C1  UNL     1      -0.195  49.768 -20.831  1.00  0.00     0.020 C 
HETATM   13  C3  UNL     1      -0.050  51.849 -22.249  1.00  0.00     0.022 C 
HETATM   14  C7  UNL     1      -0.895  51.959 -19.860  1.00  0.00    -0.068 C 
HETATM   15  C4  UNL     1       1.255  52.449 -21.745  1.00  0.00     0.084 C 
HETATM   16  C5  UNL     1       0.987  53.378 -20.591  1.00  0.00     0.149 C 
HETATM   17  O1  UNL     1       1.662  54.382 -20.383  1.00  0.00    -0.293 OA
HETATM   18  C6  UNL     1      -0.082  53.006 -19.637  1.00  0.00     0.053 C 
HETATM   19  C8  UNL     1      -1.892  51.548 -18.802  1.00  0.00     0.035 C 
HETATM   20  C9  UNL     1      -3.300  51.421 -19.369  1.00  0.00     0.010 C 
HETATM   21  C17 UNL     1      -5.890  49.950 -20.249  1.00  0.00     0.009 C 
HETATM   22  C18 UNL     1      -7.008  49.512 -21.212  1.00  0.00     0.047 C 
BRANCH   3  23
HETATM   23  O2  UNL     1      -6.680  50.708 -23.268  1.00  0.00    -0.381 OA
HETATM   24  H27 UNL     1      -7.649  50.779 -23.331  1.00  0.00     0.211 HD
ENDBRANCH   3  23
ENDBRANCH   1   3
BRANCH   1  25
HETATM   25  C21 UNL     1      -6.458  48.097 -24.900  1.00  0.00     0.260 C 
BRANCH  25  26
HETATM   26  O4  UNL     1      -7.234  47.113 -25.580  1.00  0.00    -0.314 OA
BRANCH  26  27
HETATM   27  C22 UNL     1      -7.751  47.542 -26.762  1.00  0.00     0.259 C 
HETATM   28  O5  UNL     1      -8.758  48.232 -26.867  1.00  0.00    -0.265 OA
BRANCH  27  29
HETATM   29  C23 UNL     1      -7.002  46.991 -27.954  1.00  0.00     0.120 C 
BRANCH  29  30
HETATM   30  C24 UNL     1      -5.955  47.925 -28.550  1.00  0.00     0.112 C 
BRANCH  30  31
HETATM   31  C25 UNL     1      -5.779  47.712 -30.039  1.00  0.00     0.218 C 
HETATM   32  O6  UNL     1      -4.951  48.314 -30.712  1.00  0.00    -0.274 OA
HETATM   33  N1  UNL     1      -6.634  46.761 -30.548  1.00  0.00    -0.357 N 
HETATM   34  H34 UNL     1      -7.420  46.463 -29.987  1.00  0.00     0.162 HD
BRANCH  33  35
HETATM   35  C26 UNL     1      -6.690  46.479 -31.967  1.00  0.00     0.161 C 
BRANCH  35  36
HETATM   36  C27 UNL     1      -5.967  45.196 -32.289  1.00  0.00    -0.040 A 
HETATM   37  C28 UNL     1      -4.566  45.142 -32.290  1.00  0.00     0.010 A 
HETATM   38  C29 UNL     1      -3.903  43.946 -32.580  1.00  0.00     0.019 A 
HETATM   39  C30 UNL     1      -4.634  42.786 -32.866  1.00  0.00     0.037 A 
HETATM   40  C32 UNL     1      -6.033  42.832 -32.854  1.00  0.00     0.019 A 
HETATM   41  C33 UNL     1      -6.694  44.028 -32.564  1.00  0.00     0.010 A 
BRANCH  39  42
HETATM   42  C31 UNL     1      -3.975  41.498 -33.184  1.00  0.00     0.176 C 
HETATM   43  O7  UNL     1      -2.940  41.360 -33.809  1.00  0.00    -0.646 OA
BRANCH  42  44
HETATM   44  O8  UNL     1      -4.644  40.436 -32.703  1.00  0.00    -0.773 OA
HETATM   45  H39 UNL     1      -4.095  39.673 -32.980  1.00  0.00     0.167 HD
ENDBRANCH  42  44
ENDBRANCH  39  42
ENDBRANCH  35  36
ENDBRANCH  33  35
ENDBRANCH  30  31
ENDBRANCH  29  30
ENDBRANCH  27  29
ENDBRANCH  26  27
ENDBRANCH  25  26
ENDBRANCH   1  25
TORSDOF 12
ENDMDL
MODEL 9
REMARK minimizedAffinity -9.65449905
REMARK CNNscore 0.358289719
REMARK CNNaffinity 6.51828384
REMARK  12 active torsions:
REMARK  status: ('A' for Active; 'I' for Inactive)
REMARK    1  A    between atoms: C19_20  and  O2_21 
REMARK    2  A    between atoms: C19_20  and  C20_22 
REMARK    3  A    between atoms: C20_22  and  C21_24 
REMARK    4  A    between atoms: C21_24  and  O4_25 
REMARK    5  A    between atoms: O4_25  and  C22_26 
REMARK    6  A    between atoms: C22_26  and  C23_28 
REMARK    7  A    between atoms: C23_28  and  C24_29 
REMARK    8  A    between atoms: C24_29  and  C25_30 
REMARK       I    between atoms: C25_30  and  N1_32 
REMARK    9  A    between atoms: N1_32  and  C26_33 
REMARK   10  A    between atoms: C26_33  and  C27_34 
REMARK   11  A    between atoms: C30_37  and  C31_38 
REMARK   12  A    between atoms: C31_38  and  O8_40 
ROOT
HETATM    1  C20 UNL     1      -2.154  49.953 -18.176  1.00  0.00     0.185 C 
HETATM    2  O3  UNL     1      -1.930  48.775 -18.470  1.00  0.00    -0.292 OA
ENDROOT
BRANCH   1   3
HETATM    3  C19 UNL     1      -1.745  51.122 -19.113  1.00  0.00     0.128 C 
HETATM    4  C14 UNL     1      -1.596  50.726 -20.618  1.00  0.00    -0.002 C 
HETATM    5  C13 UNL     1      -2.885  50.706 -21.462  1.00  0.00     0.013 C 
HETATM    6  C15 UNL     1      -0.871  49.359 -20.746  1.00  0.00     0.019 C 
HETATM    7  C16 UNL     1      -0.746  51.919 -21.127  1.00  0.00     0.002 C 
HETATM    8  C12 UNL     1      -2.593  50.623 -22.971  1.00  0.00     0.007 C 
HETATM    9  C11 UNL     1      -1.630  51.728 -23.474  1.00  0.00     0.002 C 
HETATM   10  C2  UNL     1      -1.327  51.660 -25.020  1.00  0.00    -0.016 C 
HETATM   11  C10 UNL     1      -0.339  51.800 -22.602  1.00  0.00    -0.004 C 
HETATM   12  C1  UNL     1      -0.720  50.301 -25.433  1.00  0.00     0.020 C 
HETATM   13  C3  UNL     1      -2.666  51.867 -25.790  1.00  0.00     0.022 C 
HETATM   14  C7  UNL     1      -0.329  52.766 -25.391  1.00  0.00    -0.068 C 
HETATM   15  C4  UNL     1      -2.481  52.223 -27.258  1.00  0.00     0.084 C 
HETATM   16  C5  UNL     1      -1.609  53.443 -27.389  1.00  0.00     0.149 C 
HETATM   17  O1  UNL     1      -1.756  54.265 -28.290  1.00  0.00    -0.293 OA
HETATM   18  C6  UNL     1      -0.487  53.597 -26.436  1.00  0.00     0.053 C 
HETATM   19  C8  UNL     1       0.896  52.892 -24.515  1.00  0.00     0.035 C 
HETATM   20  C9  UNL     1       0.529  52.988 -23.039  1.00  0.00     0.010 C 
HETATM   21  C17 UNL     1       0.355  52.046 -20.084  1.00  0.00     0.009 C 
HETATM   22  C18 UNL     1      -0.332  51.681 -18.757  1.00  0.00     0.047 C 
BRANCH   3  23
HETATM   23  O2  UNL     1      -2.661  52.215 -18.995  1.00  0.00    -0.381 OA
HETATM   24  H27 UNL     1      -2.644  52.510 -18.068  1.00  0.00     0.211 HD
ENDBRANCH   3  23
ENDBRANCH   1   3
BRANCH   1  25
HETATM   25  C21 UNL     1      -2.902  50.290 -16.895  1.00  0.00     0.260 C 
BRANCH  25  26
HETATM   26  O4  UNL     1      -1.987  50.566 -15.837  1.00  0.00    -0.314 OA
BRANCH  26  27
HETATM   27  C22 UNL     1      -2.550  51.203 -14.776  1.00  0.00     0.259 C 
HETATM   28  O5  UNL     1      -3.592  51.846 -14.828  1.00  0.00    -0.265 OA
BRANCH  27  29
HETATM   29  C23 UNL     1      -1.695  51.119 -13.532  1.00  0.00     0.120 C 
BRANCH  29  30
HETATM   30  C24 UNL     1      -0.530  52.101 -13.478  1.00  0.00     0.112 C 
BRANCH  30  31
HETATM   31  C25 UNL     1      -0.332  52.678 -12.092  1.00  0.00     0.218 C 
HETATM   32  O6  UNL     1      -0.923  52.265 -11.100  1.00  0.00    -0.274 OA
HETATM   33  N1  UNL     1       0.591  53.699 -12.063  1.00  0.00    -0.357 N 
HETATM   34  H34 UNL     1       0.876  54.120 -12.936  1.00  0.00     0.162 HD
BRANCH  33  35
HETATM   35  C26 UNL     1       0.852  54.446 -10.851  1.00  0.00     0.161 C 
BRANCH  35  36
HETATM   36  C27 UNL     1       2.316  54.393 -10.492  1.00  0.00    -0.040 A 
HETATM   37  C28 UNL     1       3.105  55.551 -10.524  1.00  0.00     0.010 A 
HETATM   38  C29 UNL     1       4.458  55.496 -10.180  1.00  0.00     0.019 A 
HETATM   39  C30 UNL     1       5.038  54.282  -9.790  1.00  0.00     0.037 A 
HETATM   40  C32 UNL     1       4.251  53.126  -9.743  1.00  0.00     0.019 A 
HETATM   41  C33 UNL     1       2.898  53.183 -10.088  1.00  0.00     0.010 A 
BRANCH  39  42
HETATM   42  C31 UNL     1       6.469  54.175  -9.421  1.00  0.00     0.176 C 
HETATM   43  O7  UNL     1       7.061  53.147  -9.146  1.00  0.00    -0.646 OA
BRANCH  42  44
HETATM   44  O8  UNL     1       7.097  55.363  -9.412  1.00  0.00    -0.773 OA
HETATM   45  H39 UNL     1       8.017  55.135  -9.162  1.00  0.00     0.167 HD
ENDBRANCH  42  44
ENDBRANCH  39  42
ENDBRANCH  35  36
ENDBRANCH  33  35
ENDBRANCH  30  31
ENDBRANCH  29  30
ENDBRANCH  27  29
ENDBRANCH  26  27
ENDBRANCH  25  26
ENDBRANCH   1  25
TORSDOF 12
ENDMDL
