MODEL 1
REMARK minimizedAffinity -6.66681623
REMARK CNNscore 0.500932336
REMARK CNNaffinity 6.32847261
REMARK  11 active torsions:
REMARK  status: ('A' for Active; 'I' for Inactive)
REMARK    1  A    between atoms: C2_2  and  C3_3 
REMARK    2  A    between atoms: C2_2  and  C4_5 
REMARK    3  A    between atoms: C3_3  and  O1_4 
REMARK    4  A    between atoms: C13_14  and  C14_15 
REMARK    5  A    between atoms: C14_15  and  C16_17 
REMARK    6  A    between atoms: C16_17  and  C17_18 
REMARK    7  A    between atoms: C17_18  and  C18_19 
REMARK    8  A    between atoms: C27_28  and  C28_29 
REMARK    9  A    between atoms: C28_29  and  C29_30 
REMARK   10  A    between atoms: C29_30  and  C30_31 
REMARK   11  A    between atoms: C30_31  and  O3_33 
ROOT
HETATM    1  C4  UNL     1       6.889  55.251  -7.201  1.00  0.00     0.025 C 
HETATM    2  C5  UNL     1       7.096  55.229  -8.727  1.00  0.00     0.010 C 
HETATM    3  C6  UNL     1       5.841  55.106  -9.592  1.00  0.00     0.007 C 
HETATM    4  C7  UNL     1       4.514  54.806  -8.863  1.00  0.00     0.004 C 
HETATM    5  C8  UNL     1       4.323  55.798  -7.693  1.00  0.00    -0.027 A 
HETATM    6  C9  UNL     1       3.240  56.857  -7.896  1.00  0.00     0.011 C 
HETATM    7  C10 UNL     1       1.877  56.317  -8.396  1.00  0.00     0.011 C 
HETATM    8  C11 UNL     1       1.943  54.908  -9.010  1.00  0.00    -0.032 C 
HETATM    9  C12 UNL     1       1.802  53.867  -7.867  1.00  0.00     0.016 C 
HETATM   10  C13 UNL     1       0.876  54.594 -10.108  1.00  0.00    -0.002 C 
HETATM   11  C22 UNL     1       1.533  53.444 -10.915  1.00  0.00     0.006 C 
HETATM   12  C23 UNL     1       3.044  53.462 -10.580  1.00  0.00     0.011 C 
HETATM   13  C24 UNL     1       3.278  54.792  -9.834  1.00  0.00    -0.032 C 
HETATM   14  C25 UNL     1       3.430  55.878 -10.957  1.00  0.00     0.016 C 
HETATM   15  C26 UNL     1       4.447  55.319  -6.259  1.00  0.00     0.022 A 
HETATM   16  C27 UNL     1       5.612  56.064  -6.855  1.00  0.00    -0.024 A 
ENDROOT
BRANCH  10  17
HETATM   17  C14 UNL     1      -0.623  54.413  -9.707  1.00  0.00    -0.014 C 
HETATM   18  C15 UNL     1      -1.441  55.550 -10.350  1.00  0.00     0.010 C 
BRANCH  17  19
HETATM   19  C16 UNL     1      -1.264  53.049 -10.067  1.00  0.00     0.008 C 
BRANCH  19  20
HETATM   20  C17 UNL     1      -1.950  52.303  -8.906  1.00  0.00     0.028 C 
BRANCH  20  21
HETATM   21  C18 UNL     1      -2.999  51.322  -9.352  1.00  0.00    -0.025 C 
HETATM   22  C19 UNL     1      -3.995  51.517 -10.241  1.00  0.00    -0.091 C 
HETATM   23  C20 UNL     1      -4.966  50.405 -10.554  1.00  0.00     0.042 C 
HETATM   24  C21 UNL     1      -4.258  52.786 -11.006  1.00  0.00     0.042 C 
ENDBRANCH  20  21
ENDBRANCH  19  20
ENDBRANCH  17  19
ENDBRANCH  10  17
BRANCH  16  25
HETATM   25  C28 UNL     1       5.897  57.491  -6.393  1.00  0.00     0.021 C 
BRANCH  25  26
HETATM   26  C29 UNL     1       6.367  57.566  -4.940  1.00  0.00     0.111 C 
BRANCH  26  27
HETATM   27  C30 UNL     1       7.692  58.266  -4.834  1.00  0.00     0.139 C 
HETATM   28  O2  UNL     1       8.796  57.827  -5.112  1.00  0.00    -0.650 OA
BRANCH  27  29
HETATM   29  O3  UNL     1       7.559  59.523  -4.362  1.00  0.00    -0.776 OA
HETATM   30  H48 UNL     1       8.481  59.853  -4.325  1.00  0.00     0.167 HD
ENDBRANCH  27  29
ENDBRANCH  26  27
ENDBRANCH  25  26
ENDBRANCH  16  25
BRANCH   1  31
HETATM   31  C2  UNL     1       7.080  53.889  -6.509  1.00  0.00    -0.061 C 
HETATM   32  C1  UNL     1       7.420  53.734  -5.214  1.00  0.00     0.017 C 
BRANCH  31  33
HETATM   33  C3  UNL     1       6.760  52.668  -7.339  1.00  0.00     0.198 C 
BRANCH  33  34
HETATM   34  O1  UNL     1       7.386  51.526  -6.785  1.00  0.00    -0.397 OA
HETATM   35  H5  UNL     1       7.153  50.774  -7.354  1.00  0.00     0.209 HD
ENDBRANCH  33  34
ENDBRANCH  31  33
ENDBRANCH   1  31
TORSDOF 11
ENDMDL
MODEL 2
REMARK minimizedAffinity -6.24126911
REMARK CNNscore 0.4207865
REMARK CNNaffinity 6.07702875
REMARK  11 active torsions:
REMARK  status: ('A' for Active; 'I' for Inactive)
REMARK    1  A    between atoms: C2_2  and  C3_3 
REMARK    2  A    between atoms: C2_2  and  C4_5 
REMARK    3  A    between atoms: C3_3  and  O1_4 
REMARK    4  A    between atoms: C13_14  and  C14_15 
REMARK    5  A    between atoms: C14_15  and  C16_17 
REMARK    6  A    between atoms: C16_17  and  C17_18 
REMARK    7  A    between atoms: C17_18  and  C18_19 
REMARK    8  A    between atoms: C27_28  and  C28_29 
REMARK    9  A    between atoms: C28_29  and  C29_30 
REMARK   10  A    between atoms: C29_30  and  C30_31 
REMARK   11  A    between atoms: C30_31  and  O3_33 
ROOT
HETATM    1  C4  UNL     1     -11.922  45.856 -39.116  1.00  0.00     0.025 C 
HETATM    2  C5  UNL     1     -12.192  44.349 -38.948  1.00  0.00     0.010 C 
HETATM    3  C6  UNL     1     -11.692  43.699 -37.657  1.00  0.00     0.007 C 
HETATM    4  C7  UNL     1     -10.789  44.554 -36.745  1.00  0.00     0.004 C 
HETATM    5  C8  UNL     1     -11.451  45.927 -36.489  1.00  0.00    -0.027 A 
HETATM    6  C9  UNL     1     -12.002  46.141 -35.080  1.00  0.00     0.011 C 
HETATM    7  C10 UNL     1     -11.032  45.769 -33.931  1.00  0.00     0.011 C 
HETATM    8  C11 UNL     1      -9.866  44.861 -34.358  1.00  0.00    -0.032 C 
HETATM    9  C12 UNL     1      -8.712  45.758 -34.882  1.00  0.00     0.016 C 
HETATM   10  C13 UNL     1      -9.301  43.914 -33.251  1.00  0.00    -0.002 C 
HETATM   11  C22 UNL     1      -8.633  42.778 -34.070  1.00  0.00     0.006 C 
HETATM   12  C23 UNL     1      -9.212  42.854 -35.503  1.00  0.00     0.011 C 
HETATM   13  C24 UNL     1     -10.409  43.822 -35.406  1.00  0.00    -0.032 C 
HETATM   14  C25 UNL     1     -11.606  42.953 -34.881  1.00  0.00     0.016 C 
HETATM   15  C26 UNL     1     -10.873  47.182 -37.116  1.00  0.00     0.022 A 
HETATM   16  C27 UNL     1     -12.098  46.577 -37.752  1.00  0.00    -0.024 A 
ENDROOT
BRANCH  10  17
HETATM   17  C14 UNL     1      -8.480  44.509 -32.063  1.00  0.00    -0.014 C 
HETATM   18  C15 UNL     1      -8.588  43.547 -30.864  1.00  0.00     0.010 C 
BRANCH  17  19
HETATM   19  C16 UNL     1      -6.987  44.809 -32.350  1.00  0.00     0.008 C 
BRANCH  19  20
HETATM   20  C17 UNL     1      -6.454  46.148 -31.803  1.00  0.00     0.028 C 
BRANCH  20  21
HETATM   21  C18 UNL     1      -5.092  46.516 -32.324  1.00  0.00    -0.025 C 
HETATM   22  C19 UNL     1      -4.791  47.269 -33.402  1.00  0.00    -0.091 C 
HETATM   23  C20 UNL     1      -3.351  47.523 -33.777  1.00  0.00     0.042 C 
HETATM   24  C21 UNL     1      -5.782  47.930 -34.321  1.00  0.00     0.042 C 
ENDBRANCH  20  21
ENDBRANCH  19  20
ENDBRANCH  17  19
ENDBRANCH  10  17
BRANCH  16  25
HETATM   25  C28 UNL     1     -13.442  47.285 -37.597  1.00  0.00     0.021 C 
BRANCH  25  26
HETATM   26  C29 UNL     1     -13.435  48.708 -38.155  1.00  0.00     0.111 C 
BRANCH  26  27
HETATM   27  C30 UNL     1     -14.151  48.777 -39.474  1.00  0.00     0.139 C 
HETATM   28  O2  UNL     1     -13.877  49.471 -40.440  1.00  0.00    -0.650 OA
BRANCH  27  29
HETATM   29  O3  UNL     1     -15.215  47.948 -39.513  1.00  0.00    -0.776 OA
HETATM   30  H48 UNL     1     -15.594  48.103 -40.403  1.00  0.00     0.167 HD
ENDBRANCH  27  29
ENDBRANCH  26  27
ENDBRANCH  25  26
ENDBRANCH  16  25
BRANCH   1  31
HETATM   31  C2  UNL     1     -10.672  46.194 -39.949  1.00  0.00    -0.061 C 
HETATM   32  C1  UNL     1     -10.262  47.446 -40.232  1.00  0.00     0.017 C 
BRANCH  31  33
HETATM   33  C3  UNL     1      -9.819  45.023 -40.376  1.00  0.00     0.198 C 
BRANCH  33  34
HETATM   34  O1  UNL     1      -8.686  44.916 -39.535  1.00  0.00    -0.397 OA
HETATM   35  H5  UNL     1      -8.171  44.155 -39.851  1.00  0.00     0.209 HD
ENDBRANCH  33  34
ENDBRANCH  31  33
ENDBRANCH   1  31
TORSDOF 11
ENDMDL
MODEL 3
REMARK minimizedAffinity -6.42073965
REMARK CNNscore 0.391679943
REMARK CNNaffinity 6.51616907
REMARK  11 active torsions:
REMARK  status: ('A' for Active; 'I' for Inactive)
REMARK    1  A    between atoms: C2_2  and  C3_3 
REMARK    2  A    between atoms: C2_2  and  C4_5 
REMARK    3  A    between atoms: C3_3  and  O1_4 
REMARK    4  A    between atoms: C13_14  and  C14_15 
REMARK    5  A    between atoms: C14_15  and  C16_17 
REMARK    6  A    between atoms: C16_17  and  C17_18 
REMARK    7  A    between atoms: C17_18  and  C18_19 
REMARK    8  A    between atoms: C27_28  and  C28_29 
REMARK    9  A    between atoms: C28_29  and  C29_30 
REMARK   10  A    between atoms: C29_30  and  C30_31 
REMARK   11  A    between atoms: C30_31  and  O3_33 
ROOT
HETATM    1  C4  UNL     1      -2.536  50.386 -10.087  1.00  0.00     0.025 C 
HETATM    2  C5  UNL     1      -3.393  51.606  -9.701  1.00  0.00     0.010 C 
HETATM    3  C6  UNL     1      -2.656  52.933  -9.509  1.00  0.00     0.007 C 
HETATM    4  C7  UNL     1      -1.114  52.886  -9.512  1.00  0.00     0.004 C 
HETATM    5  C8  UNL     1      -0.615  52.116 -10.756  1.00  0.00    -0.027 A 
HETATM    6  C9  UNL     1       0.038  52.970 -11.841  1.00  0.00     0.011 C 
HETATM    7  C10 UNL     1       1.111  53.967 -11.338  1.00  0.00     0.011 C 
HETATM    8  C11 UNL     1       1.050  54.250  -9.827  1.00  0.00    -0.032 C 
HETATM    9  C12 UNL     1       1.882  53.167  -9.090  1.00  0.00     0.016 C 
HETATM   10  C13 UNL     1       1.554  55.659  -9.379  1.00  0.00    -0.002 C 
HETATM   11  C22 UNL     1       0.840  55.870  -8.017  1.00  0.00     0.006 C 
HETATM   12  C23 UNL     1      -0.335  54.865  -7.964  1.00  0.00     0.011 C 
HETATM   13  C24 UNL     1      -0.462  54.312  -9.399  1.00  0.00    -0.032 C 
HETATM   14  C25 UNL     1      -1.304  55.380 -10.182  1.00  0.00     0.016 C 
HETATM   15  C26 UNL     1       0.007  50.741 -10.603  1.00  0.00     0.022 A 
HETATM   16  C27 UNL     1      -1.421  50.819 -11.077  1.00  0.00    -0.024 A 
ENDROOT
BRANCH  10  17
HETATM   17  C14 UNL     1       3.078  55.996  -9.440  1.00  0.00    -0.014 C 
HETATM   18  C15 UNL     1       3.447  56.330 -10.898  1.00  0.00     0.010 C 
BRANCH  17  19
HETATM   19  C16 UNL     1       3.560  57.140  -8.512  1.00  0.00     0.008 C 
BRANCH  19  20
HETATM   20  C17 UNL     1       4.021  56.713  -7.104  1.00  0.00     0.028 C 
BRANCH  20  21
HETATM   21  C18 UNL     1       5.402  56.117  -7.073  1.00  0.00    -0.025 C 
HETATM   22  C19 UNL     1       6.492  56.580  -6.428  1.00  0.00    -0.091 C 
HETATM   23  C20 UNL     1       7.806  55.844  -6.525  1.00  0.00     0.042 C 
HETATM   24  C21 UNL     1       6.550  57.813  -5.568  1.00  0.00     0.042 C 
ENDBRANCH  20  21
ENDBRANCH  19  20
ENDBRANCH  17  19
ENDBRANCH  10  17
BRANCH  16  25
HETATM   25  C28 UNL     1      -1.737  50.503 -12.538  1.00  0.00     0.021 C 
BRANCH  25  26
HETATM   26  C29 UNL     1      -3.204  50.740 -12.896  1.00  0.00     0.111 C 
BRANCH  26  27
HETATM   27  C30 UNL     1      -3.340  51.790 -13.962  1.00  0.00     0.139 C 
HETATM   28  O2  UNL     1      -3.192  51.658 -15.166  1.00  0.00    -0.650 OA
BRANCH  27  29
HETATM   29  O3  UNL     1      -3.659  52.995 -13.444  1.00  0.00    -0.776 OA
HETATM   30  H48 UNL     1      -3.697  53.579 -14.230  1.00  0.00     0.167 HD
ENDBRANCH  27  29
ENDBRANCH  26  27
ENDBRANCH  25  26
ENDBRANCH  16  25
BRANCH   1  31
HETATM   31  C2  UNL     1      -2.134  49.486  -8.905  1.00  0.00    -0.061 C 
HETATM   32  C1  UNL     1      -1.982  49.916  -7.637  1.00  0.00     0.017 C 
BRANCH  31  33
HETATM   33  C3  UNL     1      -2.007  48.011  -9.204  1.00  0.00     0.198 C 
BRANCH  33  34
HETATM   34  O1  UNL     1      -2.770  47.681 -10.351  1.00  0.00    -0.397 OA
HETATM   35  H5  UNL     1      -2.658  46.727 -10.498  1.00  0.00     0.209 HD
ENDBRANCH  33  34
ENDBRANCH  31  33
ENDBRANCH   1  31
TORSDOF 11
ENDMDL
MODEL 4
REMARK minimizedAffinity -6.65550613
REMARK CNNscore 0.38008371
REMARK CNNaffinity 5.76390982
REMARK  11 active torsions:
REMARK  status: ('A' for Active; 'I' for Inactive)
REMARK    1  A    between atoms: C2_2  and  C3_3 
REMARK    2  A    between atoms: C2_2  and  C4_5 
REMARK    3  A    between atoms: C3_3  and  O1_4 
REMARK    4  A    between atoms: C13_14  and  C14_15 
REMARK    5  A    between atoms: C14_15  and  C16_17 
REMARK    6  A    between atoms: C16_17  and  C17_18 
REMARK    7  A    between atoms: C17_18  and  C18_19 
REMARK    8  A    between atoms: C27_28  and  C28_29 
REMARK    9  A    between atoms: C28_29  and  C29_30 
REMARK   10  A    between atoms: C29_30  and  C30_31 
REMARK   11  A    between atoms: C30_31  and  O3_33 
ROOT
HETATM    1  C4  UNL     1     -18.749  45.999 -20.676  1.00  0.00     0.025 C 
HETATM    2  C5  UNL     1     -18.813  47.176 -19.686  1.00  0.00     0.010 C 
HETATM    3  C6  UNL     1     -17.482  47.677 -19.122  1.00  0.00     0.007 C 
HETATM    4  C7  UNL     1     -16.228  46.833 -19.431  1.00  0.00     0.004 C 
HETATM    5  C8  UNL     1     -16.149  46.545 -20.947  1.00  0.00    -0.027 A 
HETATM    6  C9  UNL     1     -15.056  47.296 -21.705  1.00  0.00     0.011 C 
HETATM    7  C10 UNL     1     -13.650  47.244 -21.056  1.00  0.00     0.011 C 
HETATM    8  C11 UNL     1     -13.655  46.830 -19.574  1.00  0.00    -0.032 C 
HETATM    9  C12 UNL     1     -13.617  45.280 -19.497  1.00  0.00     0.016 C 
HETATM   10  C13 UNL     1     -12.489  47.403 -18.706  1.00  0.00    -0.002 C 
HETATM   11  C22 UNL     1     -13.064  47.344 -17.266  1.00  0.00     0.006 C 
HETATM   12  C23 UNL     1     -14.600  47.203 -17.399  1.00  0.00     0.011 C 
HETATM   13  C24 UNL     1     -14.906  47.485 -18.884  1.00  0.00    -0.032 C 
HETATM   14  C25 UNL     1     -14.957  49.049 -19.008  1.00  0.00     0.016 C 
HETATM   15  C26 UNL     1     -16.405  45.144 -21.472  1.00  0.00     0.022 A 
HETATM   16  C27 UNL     1     -17.512  46.158 -21.601  1.00  0.00    -0.024 A 
ENDROOT
BRANCH  10  17
HETATM   17  C14 UNL     1     -11.034  46.874 -18.910  1.00  0.00    -0.014 C 
HETATM   18  C15 UNL     1     -10.421  47.589 -20.130  1.00  0.00     0.010 C 
BRANCH  17  19
HETATM   19  C16 UNL     1     -10.081  47.017 -17.696  1.00  0.00     0.008 C 
BRANCH  19  20
HETATM   20  C17 UNL     1      -9.432  48.403 -17.512  1.00  0.00     0.028 C 
BRANCH  20  21
HETATM   21  C18 UNL     1      -7.997  48.464 -17.958  1.00  0.00    -0.025 C 
HETATM   22  C19 UNL     1      -6.969  47.684 -17.564  1.00  0.00    -0.091 C 
HETATM   23  C20 UNL     1      -5.585  47.906 -18.122  1.00  0.00     0.042 C 
HETATM   24  C21 UNL     1      -7.053  46.546 -16.583  1.00  0.00     0.042 C 
ENDBRANCH  20  21
ENDBRANCH  19  20
ENDBRANCH  17  19
ENDBRANCH  10  17
BRANCH  16  25
HETATM   25  C28 UNL     1     -17.843  46.724 -22.980  1.00  0.00     0.021 C 
BRANCH  25  26
HETATM   26  C29 UNL     1     -19.141  46.163 -23.561  1.00  0.00     0.111 C 
BRANCH  26  27
HETATM   27  C30 UNL     1     -19.013  45.920 -25.038  1.00  0.00     0.139 C 
HETATM   28  O2  UNL     1     -19.904  45.692 -25.840  1.00  0.00    -0.650 OA
BRANCH  27  29
HETATM   29  O3  UNL     1     -17.728  45.972 -25.448  1.00  0.00    -0.776 OA
HETATM   30  H48 UNL     1     -17.785  45.781 -26.407  1.00  0.00     0.167 HD
ENDBRANCH  27  29
ENDBRANCH  26  27
ENDBRANCH  25  26
ENDBRANCH  16  25
BRANCH   1  31
HETATM   31  C2  UNL     1     -18.999  44.617 -20.046  1.00  0.00    -0.061 C 
HETATM   32  C1  UNL     1     -18.928  44.357 -18.726  1.00  0.00     0.017 C 
BRANCH  31  33
HETATM   33  C3  UNL     1     -19.451  43.527 -20.990  1.00  0.00     0.198 C 
BRANCH  33  34
HETATM   34  O1  UNL     1     -20.703  43.864 -21.558  1.00  0.00    -0.397 OA
HETATM   35  H5  UNL     1     -20.949  43.134 -22.150  1.00  0.00     0.209 HD
ENDBRANCH  33  34
ENDBRANCH  31  33
ENDBRANCH   1  31
TORSDOF 11
ENDMDL
MODEL 5
REMARK minimizedAffinity -7.36358213
REMARK CNNscore 0.35488382
REMARK CNNaffinity 6.21328211
REMARK  11 active torsions:
REMARK  status: ('A' for Active; 'I' for Inactive)
REMARK    1  A    between atoms: C2_2  and  C3_3 
REMARK    2  A    between atoms: C2_2  and  C4_5 
REMARK    3  A    between atoms: C3_3  and  O1_4 
REMARK    4  A    between atoms: C13_14  and  C14_15 
REMARK    5  A    between atoms: C14_15  and  C16_17 
REMARK    6  A    between atoms: C16_17  and  C17_18 
REMARK    7  A    between atoms: C17_18  and  C18_19 
REMARK    8  A    between atoms: C27_28  and  C28_29 
REMARK    9  A    between atoms: C28_29  and  C29_30 
REMARK   10  A    between atoms: C29_30  and  C30_31 
REMARK   11  A    between atoms: C30_31  and  O3_33 
ROOT
HETATM    1  C4  UNL     1      -2.981  49.735 -24.028  1.00  0.00     0.025 C 
HETATM    2  C5  UNL     1      -2.198  48.821 -23.068  1.00  0.00     0.010 C 
HETATM    3  C6  UNL     1      -2.974  48.235 -21.887  1.00  0.00     0.007 C 
HETATM    4  C7  UNL     1      -4.400  48.774 -21.649  1.00  0.00     0.004 C 
HETATM    5  C8  UNL     1      -5.209  48.717 -22.965  1.00  0.00    -0.027 A 
HETATM    6  C9  UNL     1      -6.301  47.651 -23.022  1.00  0.00     0.011 C 
HETATM    7  C10 UNL     1      -7.240  47.603 -21.791  1.00  0.00     0.011 C 
HETATM    8  C11 UNL     1      -6.684  48.316 -20.545  1.00  0.00    -0.032 C 
HETATM    9  C12 UNL     1      -7.065  49.818 -20.629  1.00  0.00     0.016 C 
HETATM   10  C13 UNL     1      -7.165  47.753 -19.170  1.00  0.00    -0.002 C 
HETATM   11  C22 UNL     1      -6.047  48.211 -18.195  1.00  0.00     0.006 C 
HETATM   12  C23 UNL     1      -4.816  48.575 -19.059  1.00  0.00     0.011 C 
HETATM   13  C24 UNL     1      -5.138  48.040 -20.470  1.00  0.00    -0.032 C 
HETATM   14  C25 UNL     1      -4.763  46.516 -20.432  1.00  0.00     0.016 C 
HETATM   15  C26 UNL     1      -5.566  49.997 -23.696  1.00  0.00     0.022 A 
HETATM   16  C27 UNL     1      -4.417  49.179 -24.228  1.00  0.00    -0.024 A 
ENDROOT
BRANCH  10  17
HETATM   17  C14 UNL     1      -8.641  47.975 -18.711  1.00  0.00    -0.014 C 
HETATM   18  C15 UNL     1      -8.736  49.348 -18.017  1.00  0.00     0.010 C 
BRANCH  17  19
HETATM   19  C16 UNL     1      -9.720  47.882 -19.819  1.00  0.00     0.008 C 
BRANCH  19  20
HETATM   20  C17 UNL     1     -11.178  48.064 -19.353  1.00  0.00     0.028 C 
BRANCH  20  21
HETATM   21  C18 UNL     1     -12.197  47.581 -20.349  1.00  0.00    -0.025 C 
HETATM   22  C19 UNL     1     -13.485  47.963 -20.471  1.00  0.00    -0.091 C 
HETATM   23  C20 UNL     1     -14.364  47.353 -21.535  1.00  0.00     0.042 C 
HETATM   24  C21 UNL     1     -14.183  48.993 -19.625  1.00  0.00     0.042 C 
ENDBRANCH  20  21
ENDBRANCH  19  20
ENDBRANCH  17  19
ENDBRANCH  10  17
BRANCH  16  25
HETATM   25  C28 UNL     1      -4.601  48.397 -25.527  1.00  0.00     0.021 C 
BRANCH  25  26
HETATM   26  C29 UNL     1      -3.340  48.368 -26.390  1.00  0.00     0.111 C 
BRANCH  26  27
HETATM   27  C30 UNL     1      -3.580  49.018 -27.723  1.00  0.00     0.139 C 
HETATM   28  O2  UNL     1      -3.288  50.151 -28.068  1.00  0.00    -0.650 OA
BRANCH  27  29
HETATM   29  O3  UNL     1      -4.203  48.185 -28.583  1.00  0.00    -0.776 OA
HETATM   30  H48 UNL     1      -4.313  48.729 -29.390  1.00  0.00     0.167 HD
ENDBRANCH  27  29
ENDBRANCH  26  27
ENDBRANCH  25  26
ENDBRANCH  16  25
BRANCH   1  31
HETATM   31  C2  UNL     1      -2.828  51.241 -23.749  1.00  0.00    -0.061 C 
HETATM   32  C1  UNL     1      -2.400  51.759 -22.581  1.00  0.00     0.017 C 
BRANCH  31  33
HETATM   33  C3  UNL     1      -3.088  52.164 -24.916  1.00  0.00     0.198 C 
BRANCH  33  34
HETATM   34  O1  UNL     1      -1.963  52.995 -25.137  1.00  0.00    -0.397 OA
HETATM   35  H5  UNL     1      -2.180  53.569 -25.890  1.00  0.00     0.209 HD
ENDBRANCH  33  34
ENDBRANCH  31  33
ENDBRANCH   1  31
TORSDOF 11
ENDMDL
MODEL 6
REMARK minimizedAffinity -7.04402351
REMARK CNNscore 0.344705641
REMARK CNNaffinity 5.58957052
REMARK  11 active torsions:
REMARK  status: ('A' for Active; 'I' for Inactive)
REMARK    1  A    between atoms: C2_2  and  C3_3 
REMARK    2  A    between atoms: C2_2  and  C4_5 
REMARK    3  A    between atoms: C3_3  and  O1_4 
REMARK    4  A    between atoms: C13_14  and  C14_15 
REMARK    5  A    between atoms: C14_15  and  C16_17 
REMARK    6  A    between atoms: C16_17  and  C17_18 
REMARK    7  A    between atoms: C17_18  and  C18_19 
REMARK    8  A    between atoms: C27_28  and  C28_29 
REMARK    9  A    between atoms: C28_29  and  C29_30 
REMARK   10  A    between atoms: C29_30  and  C30_31 
REMARK   11  A    between atoms: C30_31  and  O3_33 
ROOT
HETATM    1  C4  UNL     1     -18.802  46.051 -20.741  1.00  0.00     0.025 C 
HETATM    2  C5  UNL     1     -18.877  47.213 -19.734  1.00  0.00     0.010 C 
HETATM    3  C6  UNL     1     -17.553  47.694 -19.137  1.00  0.00     0.007 C 
HETATM    4  C7  UNL     1     -16.300  46.844 -19.433  1.00  0.00     0.004 C 
HETATM    5  C8  UNL     1     -16.194  46.579 -20.952  1.00  0.00    -0.027 A 
HETATM    6  C9  UNL     1     -15.079  47.334 -21.676  1.00  0.00     0.011 C 
HETATM    7  C10 UNL     1     -13.687  47.260 -21.000  1.00  0.00     0.011 C 
HETATM    8  C11 UNL     1     -13.725  46.823 -19.525  1.00  0.00    -0.032 C 
HETATM    9  C12 UNL     1     -13.701  45.272 -19.473  1.00  0.00     0.016 C 
HETATM   10  C13 UNL     1     -12.573  47.372 -18.625  1.00  0.00    -0.002 C 
HETATM   11  C22 UNL     1     -13.177  47.295 -17.198  1.00  0.00     0.006 C 
HETATM   12  C23 UNL     1     -14.710  47.169 -17.363  1.00  0.00     0.011 C 
HETATM   13  C24 UNL     1     -14.985  47.477 -18.850  1.00  0.00    -0.032 C 
HETATM   14  C25 UNL     1     -15.021  49.043 -18.950  1.00  0.00     0.016 C 
HETATM   15  C26 UNL     1     -16.449  45.190 -21.504  1.00  0.00     0.022 A 
HETATM   16  C27 UNL     1     -17.546  46.214 -21.640  1.00  0.00    -0.024 A 
ENDROOT
BRANCH  10  17
HETATM   17  C14 UNL     1     -11.117  46.835 -18.808  1.00  0.00    -0.014 C 
HETATM   18  C15 UNL     1     -11.168  45.583 -19.705  1.00  0.00     0.010 C 
BRANCH  17  19
HETATM   19  C16 UNL     1     -10.088  47.840 -19.384  1.00  0.00     0.008 C 
BRANCH  19  20
HETATM   20  C17 UNL     1      -8.927  47.225 -20.189  1.00  0.00     0.028 C 
BRANCH  20  21
HETATM   21  C18 UNL     1      -8.488  48.064 -21.358  1.00  0.00    -0.025 C 
HETATM   22  C19 UNL     1      -7.644  49.116 -21.355  1.00  0.00    -0.091 C 
HETATM   23  C20 UNL     1      -7.330  49.846 -22.639  1.00  0.00     0.042 C 
HETATM   24  C21 UNL     1      -6.932  49.672 -20.152  1.00  0.00     0.042 C 
ENDBRANCH  20  21
ENDBRANCH  19  20
ENDBRANCH  17  19
ENDBRANCH  10  17
BRANCH  16  25
HETATM   25  C28 UNL     1     -17.844  46.805 -23.016  1.00  0.00     0.021 C 
BRANCH  25  26
HETATM   26  C29 UNL     1     -17.927  45.746 -24.115  1.00  0.00     0.111 C 
BRANCH  26  27
HETATM   27  C30 UNL     1     -18.882  46.162 -25.198  1.00  0.00     0.139 C 
HETATM   28  O2  UNL     1     -19.830  46.925 -25.109  1.00  0.00    -0.650 OA
BRANCH  27  29
HETATM   29  O3  UNL     1     -18.593  45.573 -26.377  1.00  0.00    -0.776 OA
HETATM   30  H48 UNL     1     -19.289  45.910 -26.978  1.00  0.00     0.167 HD
ENDBRANCH  27  29
ENDBRANCH  26  27
ENDBRANCH  25  26
ENDBRANCH  16  25
BRANCH   1  31
HETATM   31  C2  UNL     1     -19.076  44.661 -20.139  1.00  0.00    -0.061 C 
HETATM   32  C1  UNL     1     -19.101  43.515 -20.848  1.00  0.00     0.017 C 
BRANCH  31  33
HETATM   33  C3  UNL     1     -19.222  44.603 -18.637  1.00  0.00     0.198 C 
BRANCH  33  34
HETATM   34  O1  UNL     1     -20.591  44.514 -18.285  1.00  0.00    -0.397 OA
HETATM   35  H5  UNL     1     -20.631  44.483 -17.315  1.00  0.00     0.209 HD
ENDBRANCH  33  34
ENDBRANCH  31  33
ENDBRANCH   1  31
TORSDOF 11
ENDMDL
MODEL 7
REMARK minimizedAffinity -6.4175725
REMARK CNNscore 0.258858383
REMARK CNNaffinity 6.20358515
REMARK  11 active torsions:
REMARK  status: ('A' for Active; 'I' for Inactive)
REMARK    1  A    between atoms: C2_2  and  C3_3 
REMARK    2  A    between atoms: C2_2  and  C4_5 
REMARK    3  A    between atoms: C3_3  and  O1_4 
REMARK    4  A    between atoms: C13_14  and  C14_15 
REMARK    5  A    between atoms: C14_15  and  C16_17 
REMARK    6  A    between atoms: C16_17  and  C17_18 
REMARK    7  A    between atoms: C17_18  and  C18_19 
REMARK    8  A    between atoms: C27_28  and  C28_29 
REMARK    9  A    between atoms: C28_29  and  C29_30 
REMARK   10  A    between atoms: C29_30  and  C30_31 
REMARK   11  A    between atoms: C30_31  and  O3_33 
ROOT
HETATM    1  C4  UNL     1      -8.186  46.910 -19.438  1.00  0.00     0.025 C 
HETATM    2  C5  UNL     1      -8.465  48.425 -19.422  1.00  0.00     0.010 C 
HETATM    3  C6  UNL     1      -7.596  49.295 -20.332  1.00  0.00     0.007 C 
HETATM    4  C7  UNL     1      -6.395  48.611 -21.018  1.00  0.00     0.004 C 
HETATM    5  C8  UNL     1      -6.859  47.314 -21.718  1.00  0.00    -0.027 A 
HETATM    6  C9  UNL     1      -6.892  47.365 -23.245  1.00  0.00     0.011 C 
HETATM    7  C10 UNL     1      -5.614  47.931 -23.913  1.00  0.00     0.011 C 
HETATM    8  C11 UNL     1      -4.709  48.736 -22.964  1.00  0.00    -0.032 C 
HETATM    9  C12 UNL     1      -3.752  47.748 -22.245  1.00  0.00     0.016 C 
HETATM   10  C13 UNL     1      -3.858  49.863 -23.630  1.00  0.00    -0.002 C 
HETATM   11  C22 UNL     1      -3.565  50.824 -22.448  1.00  0.00     0.006 C 
HETATM   12  C23 UNL     1      -4.586  50.494 -21.334  1.00  0.00     0.011 C 
HETATM   13  C24 UNL     1      -5.628  49.571 -21.999  1.00  0.00    -0.032 C 
HETATM   14  C25 UNL     1      -6.623  50.533 -22.739  1.00  0.00     0.016 C 
HETATM   15  C26 UNL     1      -6.459  45.961 -21.162  1.00  0.00     0.022 A 
HETATM   16  C27 UNL     1      -7.856  46.451 -20.884  1.00  0.00    -0.024 A 
ENDROOT
BRANCH  10  17
HETATM   17  C14 UNL     1      -2.655  49.487 -24.553  1.00  0.00    -0.014 C 
HETATM   18  C15 UNL     1      -3.211  48.968 -25.894  1.00  0.00     0.010 C 
BRANCH  17  19
HETATM   19  C16 UNL     1      -1.626  50.614 -24.824  1.00  0.00     0.008 C 
BRANCH  19  20
HETATM   20  C17 UNL     1      -1.094  50.705 -26.267  1.00  0.00     0.028 C 
BRANCH  20  21
HETATM   21  C18 UNL     1       0.403  50.815 -26.357  1.00  0.00    -0.025 C 
HETATM   22  C19 UNL     1       1.132  51.580 -27.195  1.00  0.00    -0.091 C 
HETATM   23  C20 UNL     1       2.639  51.547 -27.141  1.00  0.00     0.042 C 
HETATM   24  C21 UNL     1       0.582  52.523 -28.230  1.00  0.00     0.042 C 
ENDBRANCH  20  21
ENDBRANCH  19  20
ENDBRANCH  17  19
ENDBRANCH  10  17
BRANCH  16  25
HETATM   25  C28 UNL     1      -9.031  45.796 -21.607  1.00  0.00     0.021 C 
BRANCH  25  26
HETATM   26  C29 UNL     1     -10.249  46.712 -21.719  1.00  0.00     0.111 C 
BRANCH  26  27
HETATM   27  C30 UNL     1     -11.016  46.443 -22.982  1.00  0.00     0.139 C 
HETATM   28  O2  UNL     1     -12.101  46.894 -23.311  1.00  0.00    -0.650 OA
BRANCH  27  29
HETATM   29  O3  UNL     1     -10.362  45.586 -23.794  1.00  0.00    -0.776 OA
HETATM   30  H48 UNL     1     -10.968  45.485 -24.557  1.00  0.00     0.167 HD
ENDBRANCH  27  29
ENDBRANCH  26  27
ENDBRANCH  25  26
ENDBRANCH  16  25
BRANCH   1  31
HETATM   31  C2  UNL     1      -7.273  46.414 -18.302  1.00  0.00    -0.061 C 
HETATM   32  C1  UNL     1      -6.451  47.206 -17.585  1.00  0.00     0.017 C 
BRANCH  31  33
HETATM   33  C3  UNL     1      -7.407  44.957 -17.928  1.00  0.00     0.198 C 
BRANCH  33  34
HETATM   34  O1  UNL     1      -6.681  44.692 -16.742  1.00  0.00    -0.397 OA
HETATM   35  H5  UNL     1      -6.796  43.747 -16.547  1.00  0.00     0.209 HD
ENDBRANCH  33  34
ENDBRANCH  31  33
ENDBRANCH   1  31
TORSDOF 11
ENDMDL
MODEL 8
REMARK minimizedAffinity -6.89801025
REMARK CNNscore 0.233332649
REMARK CNNaffinity 6.20735598
REMARK  11 active torsions:
REMARK  status: ('A' for Active; 'I' for Inactive)
REMARK    1  A    between atoms: C2_2  and  C3_3 
REMARK    2  A    between atoms: C2_2  and  C4_5 
REMARK    3  A    between atoms: C3_3  and  O1_4 
REMARK    4  A    between atoms: C13_14  and  C14_15 
REMARK    5  A    between atoms: C14_15  and  C16_17 
REMARK    6  A    between atoms: C16_17  and  C17_18 
REMARK    7  A    between atoms: C17_18  and  C18_19 
REMARK    8  A    between atoms: C27_28  and  C28_29 
REMARK    9  A    between atoms: C28_29  and  C29_30 
REMARK   10  A    between atoms: C29_30  and  C30_31 
REMARK   11  A    between atoms: C30_31  and  O3_33 
ROOT
HETATM    1  C4  UNL     1      -7.224  48.084 -22.084  1.00  0.00     0.025 C 
HETATM    2  C5  UNL     1      -6.215  46.979 -22.446  1.00  0.00     0.010 C 
HETATM    3  C6  UNL     1      -4.842  47.052 -21.776  1.00  0.00     0.007 C 
HETATM    4  C7  UNL     1      -4.524  48.327 -20.967  1.00  0.00     0.004 C 
HETATM    5  C8  UNL     1      -5.674  48.622 -19.978  1.00  0.00    -0.027 A 
HETATM    6  C9  UNL     1      -5.357  48.370 -18.504  1.00  0.00     0.011 C 
HETATM    7  C10 UNL     1      -4.024  48.979 -18.004  1.00  0.00     0.011 C 
HETATM    8  C11 UNL     1      -3.042  49.358 -19.127  1.00  0.00    -0.032 C 
HETATM    9  C12 UNL     1      -3.379  50.793 -19.610  1.00  0.00     0.016 C 
HETATM   10  C13 UNL     1      -1.527  49.298 -18.753  1.00  0.00    -0.002 C 
HETATM   11  C22 UNL     1      -0.833  49.123 -20.130  1.00  0.00     0.006 C 
HETATM   12  C23 UNL     1      -1.917  48.639 -21.123  1.00  0.00     0.011 C 
HETATM   13  C24 UNL     1      -3.128  48.257 -20.247  1.00  0.00    -0.032 C 
HETATM   14  C25 UNL     1      -2.830  46.803 -19.737  1.00  0.00     0.016 C 
HETATM   15  C26 UNL     1      -6.596  49.804 -20.211  1.00  0.00     0.022 A 
HETATM   16  C27 UNL     1      -7.103  48.432 -20.575  1.00  0.00    -0.024 A 
ENDROOT
BRANCH  10  17
HETATM   17  C14 UNL     1      -0.922  50.364 -17.784  1.00  0.00    -0.014 C 
HETATM   18  C15 UNL     1      -0.549  49.667 -16.462  1.00  0.00     0.010 C 
BRANCH  17  19
HETATM   19  C16 UNL     1       0.304  51.149 -18.316  1.00  0.00     0.008 C 
BRANCH  19  20
HETATM   20  C17 UNL     1       0.678  52.422 -17.532  1.00  0.00     0.028 C 
BRANCH  20  21
HETATM   21  C18 UNL     1       2.153  52.570 -17.284  1.00  0.00    -0.025 C 
HETATM   22  C19 UNL     1       2.851  52.217 -16.184  1.00  0.00    -0.091 C 
HETATM   23  C20 UNL     1       4.339  52.456 -16.115  1.00  0.00     0.042 C 
HETATM   24  C21 UNL     1       2.283  51.567 -14.952  1.00  0.00     0.042 C 
ENDBRANCH  20  21
ENDBRANCH  19  20
ENDBRANCH  17  19
ENDBRANCH  10  17
BRANCH  16  25
HETATM   25  C28 UNL     1      -8.174  47.780 -19.703  1.00  0.00     0.021 C 
BRANCH  25  26
HETATM   26  C29 UNL     1      -8.954  48.789 -18.861  1.00  0.00     0.111 C 
BRANCH  26  27
HETATM   27  C30 UNL     1      -9.969  48.102 -17.992  1.00  0.00     0.139 C 
HETATM   28  O2  UNL     1     -10.847  47.327 -18.335  1.00  0.00    -0.650 OA
BRANCH  27  29
HETATM   29  O3  UNL     1      -9.830  48.438 -16.693  1.00  0.00    -0.776 OA
HETATM   30  H48 UNL     1     -10.551  47.945 -16.250  1.00  0.00     0.167 HD
ENDBRANCH  27  29
ENDBRANCH  26  27
ENDBRANCH  25  26
ENDBRANCH  16  25
BRANCH   1  31
HETATM   31  C2  UNL     1      -7.286  49.251 -23.085  1.00  0.00    -0.061 C 
HETATM   32  C1  UNL     1      -8.288  49.449 -23.964  1.00  0.00     0.017 C 
BRANCH  31  33
HETATM   33  C3  UNL     1      -6.183  50.278 -22.980  1.00  0.00     0.198 C 
BRANCH  33  34
HETATM   34  O1  UNL     1      -5.961  50.883 -24.241  1.00  0.00    -0.397 OA
HETATM   35  H5  UNL     1      -5.244  51.528 -24.121  1.00  0.00     0.209 HD
ENDBRANCH  33  34
ENDBRANCH  31  33
ENDBRANCH   1  31
TORSDOF 11
ENDMDL
MODEL 9
REMARK minimizedAffinity -6.68188
REMARK CNNscore 0.228732407
REMARK CNNaffinity 5.72013283
REMARK  11 active torsions:
REMARK  status: ('A' for Active; 'I' for Inactive)
REMARK    1  A    between atoms: C2_2  and  C3_3 
REMARK    2  A    between atoms: C2_2  and  C4_5 
REMARK    3  A    between atoms: C3_3  and  O1_4 
REMARK    4  A    between atoms: C13_14  and  C14_15 
REMARK    5  A    between atoms: C14_15  and  C16_17 
REMARK    6  A    between atoms: C16_17  and  C17_18 
REMARK    7  A    between atoms: C17_18  and  C18_19 
REMARK    8  A    between atoms: C27_28  and  C28_29 
REMARK    9  A    between atoms: C28_29  and  C29_30 
REMARK   10  A    between atoms: C29_30  and  C30_31 
REMARK   11  A    between atoms: C30_31  and  O3_33 
ROOT
HETATM    1  C4  UNL     1      -7.426  48.066 -29.014  1.00  0.00     0.025 C 
HETATM    2  C5  UNL     1      -8.270  48.620 -30.177  1.00  0.00     0.010 C 
HETATM    3  C6  UNL     1      -8.762  47.610 -31.214  1.00  0.00     0.007 C 
HETATM    4  C7  UNL     1      -8.200  46.176 -31.118  1.00  0.00     0.004 C 
HETATM    5  C8  UNL     1      -8.351  45.650 -29.672  1.00  0.00    -0.027 A 
HETATM    6  C9  UNL     1      -9.413  44.570 -29.471  1.00  0.00     0.011 C 
HETATM    7  C10 UNL     1      -9.364  43.401 -30.485  1.00  0.00     0.011 C 
HETATM    8  C11 UNL     1      -8.563  43.707 -31.763  1.00  0.00    -0.032 C 
HETATM    9  C12 UNL     1      -7.070  43.381 -31.496  1.00  0.00     0.016 C 
HETATM   10  C13 UNL     1      -9.020  42.947 -33.049  1.00  0.00    -0.002 C 
HETATM   11  C22 UNL     1      -8.496  43.853 -34.195  1.00  0.00     0.006 C 
HETATM   12  C23 UNL     1      -8.204  45.240 -33.576  1.00  0.00     0.011 C 
HETATM   13  C24 UNL     1      -8.841  45.200 -32.171  1.00  0.00    -0.032 C 
HETATM   14  C25 UNL     1     -10.359  45.530 -32.394  1.00  0.00     0.016 C 
HETATM   15  C26 UNL     1      -7.127  45.474 -28.793  1.00  0.00     0.022 A 
HETATM   16  C27 UNL     1      -7.988  46.690 -28.566  1.00  0.00    -0.024 A 
ENDROOT
BRANCH  10  17
HETATM   17  C14 UNL     1      -8.756  41.413 -33.181  1.00  0.00    -0.014 C 
HETATM   18  C15 UNL     1      -8.580  41.074 -34.674  1.00  0.00     0.010 C 
BRANCH  17  19
HETATM   19  C16 UNL     1      -7.551  40.858 -32.381  1.00  0.00     0.008 C 
BRANCH  19  20
HETATM   20  C17 UNL     1      -6.508  40.071 -33.198  1.00  0.00     0.028 C 
BRANCH  20  21
HETATM   21  C18 UNL     1      -5.122  40.649 -33.128  1.00  0.00    -0.025 C 
HETATM   22  C19 UNL     1      -4.413  41.232 -34.118  1.00  0.00    -0.091 C 
HETATM   23  C20 UNL     1      -3.019  41.747 -33.856  1.00  0.00     0.042 C 
HETATM   24  C21 UNL     1      -4.885  41.446 -35.531  1.00  0.00     0.042 C 
ENDBRANCH  20  21
ENDBRANCH  19  20
ENDBRANCH  17  19
ENDBRANCH  10  17
BRANCH  16  25
HETATM   25  C28 UNL     1      -8.864  46.757 -27.317  1.00  0.00     0.021 C 
BRANCH  25  26
HETATM   26  C29 UNL     1      -9.797  47.967 -27.307  1.00  0.00     0.111 C 
BRANCH  26  27
HETATM   27  C30 UNL     1      -9.555  48.829 -26.100  1.00  0.00     0.139 C 
HETATM   28  O2  UNL     1      -9.555  48.493 -24.928  1.00  0.00    -0.650 OA
BRANCH  27  29
HETATM   29  O3  UNL     1      -9.325  50.115 -26.439  1.00  0.00    -0.776 OA
HETATM   30  H48 UNL     1      -9.204  50.561 -25.575  1.00  0.00     0.167 HD
ENDBRANCH  27  29
ENDBRANCH  26  27
ENDBRANCH  25  26
ENDBRANCH  16  25
BRANCH   1  31
HETATM   31  C2  UNL     1      -5.904  48.190 -29.209  1.00  0.00    -0.061 C 
HETATM   32  C1  UNL     1      -4.994  48.013 -28.231  1.00  0.00     0.017 C 
BRANCH  31  33
HETATM   33  C3  UNL     1      -5.432  48.427 -30.624  1.00  0.00     0.198 C 
BRANCH  33  34
HETATM   34  O1  UNL     1      -4.684  49.628 -30.691  1.00  0.00    -0.397 OA
HETATM   35  H5  UNL     1      -4.408  49.736 -31.617  1.00  0.00     0.209 HD
ENDBRANCH  33  34
ENDBRANCH  31  33
ENDBRANCH   1  31
TORSDOF 11
ENDMDL
