MODEL 1
REMARK minimizedAffinity -6.54970169
REMARK CNNscore 0.390844017
REMARK CNNaffinity 6.41849327
REMARK  6 active torsions:
REMARK  status: ('A' for Active; 'I' for Inactive)
REMARK    1  A    between atoms: C9_10  and  C10_11 
REMARK    2  A    between atoms: C11_13  and  O3_14 
REMARK    3  A    between atoms: C12_15  and  C13_16 
REMARK    4  A    between atoms: C14_18  and  O5_19 
REMARK    5  A    between atoms: C16_21  and  C17_22 
REMARK    6  A    between atoms: C17_22  and  C18_23 
ROOT
HETATM    1  C1  UNL     1      -0.401  12.254  16.645  1.00  0.00     0.043 C 
HETATM    2  C2  UNL     1      -1.400  11.174  16.286  1.00  0.00    -0.087 C 
HETATM    3  C3  UNL     1      -1.620  10.165  17.155  1.00  0.00    -0.024 C 
HETATM    4  C4  UNL     1      -2.522   8.952  17.154  1.00  0.00     0.030 C 
HETATM    5  C5  UNL     1      -3.796   8.977  16.313  1.00  0.00     0.042 C 
HETATM    6  C6  UNL     1      -3.841   8.150  14.984  1.00  0.00     0.069 C 
HETATM    7  C7  UNL     1      -4.908   8.857  14.098  1.00  0.00     0.047 C 
HETATM    8  O1  UNL     1      -4.475   6.888  15.410  1.00  0.00    -0.338 OA
HETATM    9  C8  UNL     1      -4.573   5.966  14.399  1.00  0.00     0.095 A 
HETATM   10  C9  UNL     1      -5.792   5.339  14.133  1.00  0.00     0.070 A 
HETATM   11  C11 UNL     1      -5.895   4.473  13.039  1.00  0.00     0.097 A 
HETATM   12  C12 UNL     1      -4.777   4.250  12.227  1.00  0.00     0.069 A 
HETATM   13  C14 UNL     1      -3.543   4.863  12.533  1.00  0.00     0.091 A 
HETATM   14  C15 UNL     1      -3.417   5.687  13.657  1.00  0.00     0.015 A 
HETATM   15  C16 UNL     1      -2.171   6.343  14.219  1.00  0.00     0.032 C 
HETATM   16  C21 UNL     1      -2.415   7.890  14.259  1.00  0.00     0.034 C 
HETATM   17  C22 UNL     1      -2.335   8.555  12.888  1.00  0.00     0.006 A 
HETATM   18  C23 UNL     1      -1.861  10.005  12.765  1.00  0.00    -0.001 A 
HETATM   19  C24 UNL     1      -1.112  10.777  13.824  1.00  0.00     0.010 C 
HETATM   20  C25 UNL     1      -2.011  11.362  14.912  1.00  0.00     0.034 C 
HETATM   21  C26 UNL     1      -1.124   8.911  12.006  1.00  0.00    -0.039 A 
HETATM   22  C27 UNL     1      -1.346   8.858  10.509  1.00  0.00     0.015 C 
HETATM   23  C28 UNL     1       0.307   8.604  12.372  1.00  0.00     0.015 C 
ENDROOT
BRANCH  15  24
HETATM   24  C17 UNL     1      -0.791   5.896  13.708  1.00  0.00     0.014 C 
BRANCH  24  25
HETATM   25  C18 UNL     1      -0.808   4.933  12.494  1.00  0.00    -0.022 C 
HETATM   26  C19 UNL     1      -0.269   3.543  12.845  1.00  0.00     0.009 C 
HETATM   27  C20 UNL     1       0.029   5.532  11.359  1.00  0.00     0.009 C 
ENDBRANCH  24  25
ENDBRANCH  15  24
BRANCH  13  28
HETATM   28  O5  UNL     1      -2.453   4.686  11.724  1.00  0.00    -0.359 OA
HETATM   29  H15 UNL     1      -2.691   4.074  10.990  1.00  0.00     0.217 HD
ENDBRANCH  13  28
BRANCH  10  30
HETATM   30  C10 UNL     1      -6.957   5.624  14.991  1.00  0.00     0.275 C 
HETATM   31  O2  UNL     1      -7.446   4.734  15.684  1.00  0.00    -0.301 OA
ENDBRANCH  10  30
BRANCH  12  32
HETATM   32  C13 UNL     1      -4.909   3.365  11.050  1.00  0.00     0.275 C 
HETATM   33  O4  UNL     1      -4.272   2.315  10.984  1.00  0.00    -0.301 OA
ENDBRANCH  12  32
BRANCH  11  34
HETATM   34  O3  UNL     1      -7.076   3.847  12.724  1.00  0.00    -0.359 OA
HETATM   35  H13 UNL     1      -7.762   4.114  13.381  1.00  0.00     0.217 HD
ENDBRANCH  11  34
TORSDOF 6
ENDMDL
MODEL 2
REMARK minimizedAffinity -8.08645821
REMARK CNNscore 0.299708396
REMARK CNNaffinity 6.03296804
REMARK  6 active torsions:
REMARK  status: ('A' for Active; 'I' for Inactive)
REMARK    1  A    between atoms: C9_10  and  C10_11 
REMARK    2  A    between atoms: C11_13  and  O3_14 
REMARK    3  A    between atoms: C12_15  and  C13_16 
REMARK    4  A    between atoms: C14_18  and  O5_19 
REMARK    5  A    between atoms: C16_21  and  C17_22 
REMARK    6  A    between atoms: C17_22  and  C18_23 
ROOT
HETATM    1  C1  UNL     1      -4.748   7.996  13.907  1.00  0.00     0.043 C 
HETATM    2  C2  UNL     1      -3.240   8.125  13.974  1.00  0.00    -0.087 C 
HETATM    3  C3  UNL     1      -2.661   9.285  13.596  1.00  0.00    -0.024 C 
HETATM    4  C4  UNL     1      -1.233   9.778  13.538  1.00  0.00     0.030 C 
HETATM    5  C5  UNL     1      -0.194   9.150  14.464  1.00  0.00     0.042 C 
HETATM    6  C6  UNL     1       0.856   8.159  13.857  1.00  0.00     0.069 C 
HETATM    7  C7  UNL     1       1.294   7.250  15.042  1.00  0.00     0.047 C 
HETATM    8  O1  UNL     1       2.016   9.035  13.600  1.00  0.00    -0.338 OA
HETATM    9  C8  UNL     1       3.065   8.379  13.005  1.00  0.00     0.095 A 
HETATM   10  C9  UNL     1       4.352   8.486  13.536  1.00  0.00     0.070 A 
HETATM   11  C11 UNL     1       5.391   7.737  12.972  1.00  0.00     0.097 A 
HETATM   12  C12 UNL     1       5.123   6.891  11.889  1.00  0.00     0.069 A 
HETATM   13  C14 UNL     1       3.823   6.824  11.344  1.00  0.00     0.091 A 
HETATM   14  C15 UNL     1       2.792   7.612  11.866  1.00  0.00     0.015 A 
HETATM   15  C16 UNL     1       1.370   7.771  11.362  1.00  0.00     0.032 C 
HETATM   16  C21 UNL     1       0.398   7.365  12.520  1.00  0.00     0.034 C 
HETATM   17  C22 UNL     1       0.314   5.858  12.745  1.00  0.00     0.006 A 
HETATM   18  C23 UNL     1      -0.980   5.232  13.271  1.00  0.00    -0.001 A 
HETATM   19  C24 UNL     1      -2.338   5.890  13.271  1.00  0.00     0.010 C 
HETATM   20  C25 UNL     1      -2.554   6.855  14.436  1.00  0.00     0.034 C 
HETATM   21  C26 UNL     1      -0.404   4.756  11.945  1.00  0.00    -0.039 A 
HETATM   22  C27 UNL     1       0.254   3.391  11.943  1.00  0.00     0.015 C 
HETATM   23  C28 UNL     1      -1.185   5.003  10.678  1.00  0.00     0.015 C 
ENDROOT
BRANCH  15  24
HETATM   24  C17 UNL     1       1.005   7.243   9.964  1.00  0.00     0.014 C 
BRANCH  24  25
HETATM   25  C18 UNL     1       0.802   8.324   8.873  1.00  0.00    -0.022 C 
HETATM   26  C19 UNL     1      -0.652   8.800   8.787  1.00  0.00     0.009 C 
HETATM   27  C20 UNL     1       1.235   7.762   7.515  1.00  0.00     0.009 C 
ENDBRANCH  24  25
ENDBRANCH  15  24
BRANCH  13  28
HETATM   28  O5  UNL     1       3.539   5.970  10.312  1.00  0.00    -0.359 OA
HETATM   29  H15 UNL     1       4.362   5.500  10.046  1.00  0.00     0.217 HD
ENDBRANCH  13  28
BRANCH  10  30
HETATM   30  C10 UNL     1       4.590   9.363  14.697  1.00  0.00     0.275 C 
HETATM   31  O2  UNL     1       4.972   8.886  15.763  1.00  0.00    -0.301 OA
ENDBRANCH  10  30
BRANCH  12  32
HETATM   32  C13 UNL     1       6.220   6.073  11.328  1.00  0.00     0.275 C 
HETATM   33  O4  UNL     1       7.091   6.590  10.631  1.00  0.00    -0.301 OA
ENDBRANCH  12  32
BRANCH  11  34
HETATM   34  O3  UNL     1       6.671   7.791  13.467  1.00  0.00    -0.359 OA
HETATM   35  H13 UNL     1       6.690   8.420  14.227  1.00  0.00     0.217 HD
ENDBRANCH  11  34
TORSDOF 6
ENDMDL
MODEL 3
REMARK minimizedAffinity -5.04210997
REMARK CNNscore 0.293657929
REMARK CNNaffinity 5.42172956
REMARK  6 active torsions:
REMARK  status: ('A' for Active; 'I' for Inactive)
REMARK    1  A    between atoms: C9_10  and  C10_11 
REMARK    2  A    between atoms: C11_13  and  O3_14 
REMARK    3  A    between atoms: C12_15  and  C13_16 
REMARK    4  A    between atoms: C14_18  and  O5_19 
REMARK    5  A    between atoms: C16_21  and  C17_22 
REMARK    6  A    between atoms: C17_22  and  C18_23 
ROOT
HETATM    1  C1  UNL     1       3.512  17.777  15.818  1.00  0.00     0.043 C 
HETATM    2  C2  UNL     1       3.851  16.843  16.961  1.00  0.00    -0.087 C 
HETATM    3  C3  UNL     1       5.041  16.206  16.960  1.00  0.00    -0.024 C 
HETATM    4  C4  UNL     1       5.718  15.239  17.904  1.00  0.00     0.030 C 
HETATM    5  C5  UNL     1       5.320  15.240  19.378  1.00  0.00     0.042 C 
HETATM    6  C6  UNL     1       4.433  14.069  19.922  1.00  0.00     0.069 C 
HETATM    7  C7  UNL     1       3.698  14.656  21.163  1.00  0.00     0.047 C 
HETATM    8  O1  UNL     1       5.433  13.137  20.476  1.00  0.00    -0.338 OA
HETATM    9  C8  UNL     1       4.878  11.985  20.973  1.00  0.00     0.095 A 
HETATM   10  C9  UNL     1       5.205  11.543  22.257  1.00  0.00     0.070 A 
HETATM   11  C11 UNL     1       4.558  10.419  22.782  1.00  0.00     0.097 A 
HETATM   12  C12 UNL     1       3.593   9.756  22.014  1.00  0.00     0.069 A 
HETATM   13  C14 UNL     1       3.302  10.195  20.705  1.00  0.00     0.091 A 
HETATM   14  C15 UNL     1       3.984  11.285  20.152  1.00  0.00     0.015 A 
HETATM   15  C16 UNL     1       3.904  11.840  18.743  1.00  0.00     0.032 C 
HETATM   16  C21 UNL     1       3.471  13.342  18.839  1.00  0.00     0.034 C 
HETATM   17  C22 UNL     1       1.992  13.530  19.163  1.00  0.00     0.006 A 
HETATM   18  C23 UNL     1       1.243  14.760  18.644  1.00  0.00    -0.001 A 
HETATM   19  C24 UNL     1       1.707  15.667  17.531  1.00  0.00     0.010 C 
HETATM   20  C25 UNL     1       2.731  16.711  17.973  1.00  0.00     0.034 C 
HETATM   21  C26 UNL     1       0.737  13.370  18.286  1.00  0.00    -0.039 A 
HETATM   22  C27 UNL     1      -0.520  12.904  18.992  1.00  0.00     0.015 C 
HETATM   23  C28 UNL     1       0.765  12.931  16.843  1.00  0.00     0.015 C 
ENDROOT
BRANCH  15  24
HETATM   24  C17 UNL     1       3.212  11.012  17.647  1.00  0.00     0.014 C 
BRANCH  24  25
HETATM   25  C18 UNL     1       3.874  11.069  16.248  1.00  0.00    -0.022 C 
HETATM   26  C19 UNL     1       3.667   9.777  15.452  1.00  0.00     0.009 C 
HETATM   27  C20 UNL     1       5.374  11.336  16.406  1.00  0.00     0.009 C 
ENDBRANCH  24  25
ENDBRANCH  15  24
BRANCH  13  28
HETATM   28  O5  UNL     1       2.332   9.582  19.959  1.00  0.00    -0.359 OA
HETATM   29  H15 UNL     1       1.957   8.830  20.473  1.00  0.00     0.217 HD
ENDBRANCH  13  28
BRANCH  10  30
HETATM   30  C10 UNL     1       6.203  12.286  23.049  1.00  0.00     0.275 C 
HETATM   31  O2  UNL     1       7.283  11.768  23.323  1.00  0.00    -0.301 OA
ENDBRANCH  10  30
BRANCH  12  32
HETATM   32  C13 UNL     1       2.887   8.594  22.594  1.00  0.00     0.275 C 
HETATM   33  O4  UNL     1       1.798   8.238  22.149  1.00  0.00    -0.301 OA
ENDBRANCH  12  32
BRANCH  11  34
HETATM   34  O3  UNL     1       4.829   9.955  24.045  1.00  0.00    -0.359 OA
HETATM   35  H13 UNL     1       5.518  10.532  24.454  1.00  0.00     0.217 HD
ENDBRANCH  11  34
TORSDOF 6
ENDMDL
MODEL 4
REMARK minimizedAffinity -5.46777344
REMARK CNNscore 0.269450039
REMARK CNNaffinity 5.53405905
REMARK  6 active torsions:
REMARK  status: ('A' for Active; 'I' for Inactive)
REMARK    1  A    between atoms: C9_10  and  C10_11 
REMARK    2  A    between atoms: C11_13  and  O3_14 
REMARK    3  A    between atoms: C12_15  and  C13_16 
REMARK    4  A    between atoms: C14_18  and  O5_19 
REMARK    5  A    between atoms: C16_21  and  C17_22 
REMARK    6  A    between atoms: C17_22  and  C18_23 
ROOT
HETATM    1  C1  UNL     1      -0.848  17.146   7.137  1.00  0.00     0.043 C 
HETATM    2  C2  UNL     1      -0.006  16.978   5.890  1.00  0.00    -0.087 C 
HETATM    3  C3  UNL     1       0.178  18.037   5.072  1.00  0.00    -0.024 C 
HETATM    4  C4  UNL     1       0.941  18.252   3.785  1.00  0.00     0.030 C 
HETATM    5  C5  UNL     1       2.134  17.353   3.471  1.00  0.00     0.042 C 
HETATM    6  C6  UNL     1       1.975  16.242   2.378  1.00  0.00     0.069 C 
HETATM    7  C7  UNL     1       3.031  15.158   2.739  1.00  0.00     0.047 C 
HETATM    8  O1  UNL     1       2.503  16.901   1.168  1.00  0.00    -0.338 OA
HETATM    9  C8  UNL     1       2.414  16.118   0.045  1.00  0.00     0.095 A 
HETATM   10  C9  UNL     1       3.532  15.926  -0.770  1.00  0.00     0.070 A 
HETATM   11  C11 UNL     1       3.447  15.050  -1.857  1.00  0.00     0.097 A 
HETATM   12  C12 UNL     1       2.245  14.377  -2.109  1.00  0.00     0.069 A 
HETATM   13  C14 UNL     1       1.115  14.611  -1.297  1.00  0.00     0.091 A 
HETATM   14  C15 UNL     1       1.176  15.528  -0.242  1.00  0.00     0.015 A 
HETATM   15  C16 UNL     1       0.061  16.002   0.670  1.00  0.00     0.032 C 
HETATM   16  C21 UNL     1       0.472  15.681   2.146  1.00  0.00     0.034 C 
HETATM   17  C22 UNL     1       0.347  14.203   2.506  1.00  0.00     0.006 A 
HETATM   18  C23 UNL     1       0.022  13.787   3.942  1.00  0.00    -0.001 A 
HETATM   19  C24 UNL     1      -0.546  14.689   5.011  1.00  0.00     0.010 C 
HETATM   20  C25 UNL     1       0.501  15.563   5.700  1.00  0.00     0.034 C 
HETATM   21  C26 UNL     1      -0.890  13.338   2.810  1.00  0.00    -0.039 A 
HETATM   22  C27 UNL     1      -0.805  11.880   2.409  1.00  0.00     0.015 C 
HETATM   23  C28 UNL     1      -2.309  13.849   2.769  1.00  0.00     0.015 C 
ENDROOT
BRANCH  15  24
HETATM   24  C17 UNL     1      -1.399  15.688   0.297  1.00  0.00     0.014 C 
BRANCH  24  25
HETATM   25  C18 UNL     1      -2.438  16.762   0.704  1.00  0.00    -0.022 C 
HETATM   26  C19 UNL     1      -3.738  16.649  -0.097  1.00  0.00     0.009 C 
HETATM   27  C20 UNL     1      -1.835  18.156   0.501  1.00  0.00     0.009 C 
ENDBRANCH  24  25
ENDBRANCH  15  24
BRANCH  13  28
HETATM   28  O5  UNL     1      -0.053  13.929  -1.507  1.00  0.00    -0.359 OA
HETATM   29  H15 UNL     1       0.054  13.338  -2.288  1.00  0.00     0.217 HD
ENDBRANCH  13  28
BRANCH  10  30
HETATM   30  C10 UNL     1       4.790  16.628  -0.454  1.00  0.00     0.275 C 
HETATM   31  O2  UNL     1       5.821  15.988  -0.257  1.00  0.00    -0.301 OA
ENDBRANCH  10  30
BRANCH  12  32
HETATM   32  C13 UNL     1       2.180  13.423  -3.236  1.00  0.00     0.275 C 
HETATM   33  O4  UNL     1       3.170  12.771  -3.562  1.00  0.00    -0.301 OA
ENDBRANCH  12  32
BRANCH  11  34
HETATM   34  O3  UNL     1       4.522  14.812  -2.678  1.00  0.00    -0.359 OA
HETATM   35  H13 UNL     1       5.286  15.351  -2.363  1.00  0.00     0.217 HD
ENDBRANCH  11  34
TORSDOF 6
ENDMDL
MODEL 5
REMARK minimizedAffinity -6.42933655
REMARK CNNscore 0.265055299
REMARK CNNaffinity 5.21415758
REMARK  6 active torsions:
REMARK  status: ('A' for Active; 'I' for Inactive)
REMARK    1  A    between atoms: C9_10  and  C10_11 
REMARK    2  A    between atoms: C11_13  and  O3_14 
REMARK    3  A    between atoms: C12_15  and  C13_16 
REMARK    4  A    between atoms: C14_18  and  O5_19 
REMARK    5  A    between atoms: C16_21  and  C17_22 
REMARK    6  A    between atoms: C17_22  and  C18_23 
ROOT
HETATM    1  C1  UNL     1     -14.753  -5.856   7.484  1.00  0.00     0.043 C 
HETATM    2  C2  UNL     1     -14.976  -4.947   8.675  1.00  0.00    -0.087 C 
HETATM    3  C3  UNL     1     -13.951  -4.196   9.132  1.00  0.00    -0.024 C 
HETATM    4  C4  UNL     1     -13.799  -3.193  10.252  1.00  0.00     0.030 C 
HETATM    5  C5  UNL     1     -15.033  -2.446  10.751  1.00  0.00     0.042 C 
HETATM    6  C6  UNL     1     -15.654  -2.850  12.131  1.00  0.00     0.069 C 
HETATM    7  C7  UNL     1     -17.149  -2.423  12.047  1.00  0.00     0.047 C 
HETATM    8  O1  UNL     1     -15.034  -1.886  13.059  1.00  0.00    -0.338 OA
HETATM    9  C8  UNL     1     -15.398  -2.087  14.367  1.00  0.00     0.095 A 
HETATM   10  C9  UNL     1     -15.869  -1.022  15.138  1.00  0.00     0.070 A 
HETATM   11  C11 UNL     1     -16.324  -1.264  16.439  1.00  0.00     0.097 A 
HETATM   12  C12 UNL     1     -16.302  -2.569  16.946  1.00  0.00     0.069 A 
HETATM   13  C14 UNL     1     -15.789  -3.627  16.165  1.00  0.00     0.091 A 
HETATM   14  C15 UNL     1     -15.281  -3.384  14.885  1.00  0.00     0.015 A 
HETATM   15  C16 UNL     1     -14.590  -4.347  13.938  1.00  0.00     0.032 C 
HETATM   16  C21 UNL     1     -15.406  -4.381  12.602  1.00  0.00     0.034 C 
HETATM   17  C22 UNL     1     -16.709  -5.171  12.704  1.00  0.00     0.006 A 
HETATM   18  C23 UNL     1     -17.266  -5.893  11.475  1.00  0.00    -0.001 A 
HETATM   19  C24 UNL     1     -16.491  -6.219  10.221  1.00  0.00     0.010 C 
HETATM   20  C25 UNL     1     -16.376  -5.048   9.247  1.00  0.00     0.034 C 
HETATM   21  C26 UNL     1     -16.970  -6.688  12.738  1.00  0.00    -0.039 A 
HETATM   22  C27 UNL     1     -18.167  -7.144  13.547  1.00  0.00     0.015 C 
HETATM   23  C28 UNL     1     -15.883  -7.734  12.707  1.00  0.00     0.015 C 
ENDROOT
BRANCH  15  24
HETATM   24  C17 UNL     1     -14.116  -5.710  14.468  1.00  0.00     0.014 C 
BRANCH  24  25
HETATM   25  C18 UNL     1     -12.581  -5.882  14.593  1.00  0.00    -0.022 C 
HETATM   26  C19 UNL     1     -12.149  -6.248  16.016  1.00  0.00     0.009 C 
HETATM   27  C20 UNL     1     -11.889  -4.582  14.169  1.00  0.00     0.009 C 
ENDBRANCH  24  25
ENDBRANCH  15  24
BRANCH  13  28
HETATM   28  O5  UNL     1     -15.800  -4.913  16.634  1.00  0.00    -0.359 OA
HETATM   29  H15 UNL     1     -16.169  -4.921  17.547  1.00  0.00     0.217 HD
ENDBRANCH  13  28
BRANCH  10  30
HETATM   30  C10 UNL     1     -15.907   0.333  14.558  1.00  0.00     0.275 C 
HETATM   31  O2  UNL     1     -15.314   1.258  15.110  1.00  0.00    -0.301 OA
ENDBRANCH  10  30
BRANCH  12  32
HETATM   32  C13 UNL     1     -16.823  -2.819  18.307  1.00  0.00     0.275 C 
HETATM   33  O4  UNL     1     -16.223  -2.396  19.293  1.00  0.00    -0.301 OA
ENDBRANCH  12  32
BRANCH  11  34
HETATM   34  O3  UNL     1     -16.814  -0.255  17.231  1.00  0.00    -0.359 OA
HETATM   35  H13 UNL     1     -16.769   0.592  16.728  1.00  0.00     0.217 HD
ENDBRANCH  11  34
TORSDOF 6
ENDMDL
MODEL 6
REMARK minimizedAffinity -5.38986397
REMARK CNNscore 0.230498537
REMARK CNNaffinity 5.35573626
REMARK  6 active torsions:
REMARK  status: ('A' for Active; 'I' for Inactive)
REMARK    1  A    between atoms: C9_10  and  C10_11 
REMARK    2  A    between atoms: C11_13  and  O3_14 
REMARK    3  A    between atoms: C12_15  and  C13_16 
REMARK    4  A    between atoms: C14_18  and  O5_19 
REMARK    5  A    between atoms: C16_21  and  C17_22 
REMARK    6  A    between atoms: C17_22  and  C18_23 
ROOT
HETATM    1  C1  UNL     1      -2.373  17.431   7.297  1.00  0.00     0.043 C 
HETATM    2  C2  UNL     1      -1.099  17.159   6.524  1.00  0.00    -0.087 C 
HETATM    3  C3  UNL     1      -0.388  18.199   6.039  1.00  0.00    -0.024 C 
HETATM    4  C4  UNL     1       0.899  18.319   5.256  1.00  0.00     0.030 C 
HETATM    5  C5  UNL     1       1.932  17.198   5.350  1.00  0.00     0.042 C 
HETATM    6  C6  UNL     1       2.098  16.221   4.137  1.00  0.00     0.069 C 
HETATM    7  C7  UNL     1       2.674  14.909   4.745  1.00  0.00     0.047 C 
HETATM    8  O1  UNL     1       3.220  16.820   3.391  1.00  0.00    -0.338 OA
HETATM    9  C8  UNL     1       3.517  16.147   2.232  1.00  0.00     0.095 A 
HETATM   10  C9  UNL     1       4.832  15.764   1.958  1.00  0.00     0.070 A 
HETATM   11  C11 UNL     1       5.100  14.997   0.818  1.00  0.00     0.097 A 
HETATM   12  C12 UNL     1       4.047  14.625  -0.026  1.00  0.00     0.069 A 
HETATM   13  C14 UNL     1       2.731  15.052   0.247  1.00  0.00     0.091 A 
HETATM   14  C15 UNL     1       2.462  15.866   1.353  1.00  0.00     0.015 A 
HETATM   15  C16 UNL     1       1.155  16.518   1.758  1.00  0.00     0.032 C 
HETATM   16  C21 UNL     1       0.791  16.023   3.198  1.00  0.00     0.034 C 
HETATM   17  C22 UNL     1       0.267  14.590   3.235  1.00  0.00     0.006 A 
HETATM   18  C23 UNL     1      -0.738  14.168   4.310  1.00  0.00    -0.001 A 
HETATM   19  C24 UNL     1      -1.565  15.105   5.156  1.00  0.00     0.010 C 
HETATM   20  C25 UNL     1      -0.811  15.680   6.354  1.00  0.00     0.034 C 
HETATM   21  C26 UNL     1      -1.101  14.004   2.841  1.00  0.00    -0.039 A 
HETATM   22  C27 UNL     1      -1.094  12.591   2.295  1.00  0.00     0.015 C 
HETATM   23  C28 UNL     1      -2.237  14.818   2.273  1.00  0.00     0.015 C 
ENDROOT
BRANCH  15  24
HETATM   24  C17 UNL     1      -0.007  16.559   0.751  1.00  0.00     0.014 C 
BRANCH  24  25
HETATM   25  C18 UNL     1      -0.414  17.971   0.257  1.00  0.00    -0.022 C 
HETATM   26  C19 UNL     1      -1.590  18.549   1.048  1.00  0.00     0.009 C 
HETATM   27  C20 UNL     1      -0.784  17.901  -1.228  1.00  0.00     0.009 C 
ENDBRANCH  24  25
ENDBRANCH  15  24
BRANCH  13  28
HETATM   28  O5  UNL     1       1.688  14.661  -0.548  1.00  0.00    -0.359 OA
HETATM   29  H15 UNL     1       2.033  14.111  -1.288  1.00  0.00     0.217 HD
ENDBRANCH  13  28
BRANCH  10  30
HETATM   30  C10 UNL     1       5.909  16.147   2.889  1.00  0.00     0.275 C 
HETATM   31  O2  UNL     1       7.084  16.088   2.532  1.00  0.00    -0.301 OA
ENDBRANCH  10  30
BRANCH  12  32
HETATM   32  C13 UNL     1       4.337  13.781  -1.205  1.00  0.00     0.275 C 
HETATM   33  O4  UNL     1       5.040  14.205  -2.120  1.00  0.00    -0.301 OA
ENDBRANCH  12  32
BRANCH  11  34
HETATM   34  O3  UNL     1       6.371  14.579   0.514  1.00  0.00    -0.359 OA
HETATM   35  H13 UNL     1       6.990  14.914   1.206  1.00  0.00     0.217 HD
ENDBRANCH  11  34
TORSDOF 6
ENDMDL
MODEL 7
REMARK minimizedAffinity -6.37162495
REMARK CNNscore 0.218918532
REMARK CNNaffinity 4.9385314
REMARK  6 active torsions:
REMARK  status: ('A' for Active; 'I' for Inactive)
REMARK    1  A    between atoms: C9_10  and  C10_11 
REMARK    2  A    between atoms: C11_13  and  O3_14 
REMARK    3  A    between atoms: C12_15  and  C13_16 
REMARK    4  A    between atoms: C14_18  and  O5_19 
REMARK    5  A    between atoms: C16_21  and  C17_22 
REMARK    6  A    between atoms: C17_22  and  C18_23 
ROOT
HETATM    1  C1  UNL     1       7.756  15.198  23.775  1.00  0.00     0.043 C 
HETATM    2  C2  UNL     1       7.368  14.521  22.477  1.00  0.00    -0.087 C 
HETATM    3  C3  UNL     1       7.003  15.280  21.422  1.00  0.00    -0.024 C 
HETATM    4  C4  UNL     1       6.576  14.976  20.004  1.00  0.00     0.030 C 
HETATM    5  C5  UNL     1       7.028  13.668  19.359  1.00  0.00     0.042 C 
HETATM    6  C6  UNL     1       5.984  12.513  19.183  1.00  0.00     0.069 C 
HETATM    7  C7  UNL     1       6.827  11.205  19.135  1.00  0.00     0.047 C 
HETATM    8  O1  UNL     1       5.511  12.713  17.800  1.00  0.00    -0.338 OA
HETATM    9  C8  UNL     1       4.529  11.827  17.434  1.00  0.00     0.095 A 
HETATM   10  C9  UNL     1       4.641  11.106  16.242  1.00  0.00     0.070 A 
HETATM   11  C11 UNL     1       3.677  10.140  15.932  1.00  0.00     0.097 A 
HETATM   12  C12 UNL     1       2.619   9.910  16.820  1.00  0.00     0.069 A 
HETATM   13  C14 UNL     1       2.503  10.673  18.001  1.00  0.00     0.091 A 
HETATM   14  C15 UNL     1       3.431  11.679  18.291  1.00  0.00     0.015 A 
HETATM   15  C16 UNL     1       3.425  12.676  19.434  1.00  0.00     0.032 C 
HETATM   16  C21 UNL     1       4.756  12.496  20.240  1.00  0.00     0.034 C 
HETATM   17  C22 UNL     1       4.771  11.250  21.122  1.00  0.00     0.006 A 
HETATM   18  C23 UNL     1       5.576  11.241  22.423  1.00  0.00    -0.001 A 
HETATM   19  C24 UNL     1       6.097  12.461  23.143  1.00  0.00     0.010 C 
HETATM   20  C25 UNL     1       7.400  13.008  22.563  1.00  0.00     0.034 C 
HETATM   21  C26 UNL     1       4.081  10.955  22.466  1.00  0.00    -0.039 A 
HETATM   22  C27 UNL     1       3.673   9.517  22.710  1.00  0.00     0.015 C 
HETATM   23  C28 UNL     1       3.172  11.924  23.180  1.00  0.00     0.015 C 
ENDROOT
BRANCH  15  24
HETATM   24  C17 UNL     1       2.150  12.845  20.277  1.00  0.00     0.014 C 
BRANCH  24  25
HETATM   25  C18 UNL     1       1.197  13.981  19.827  1.00  0.00    -0.022 C 
HETATM   26  C19 UNL     1       1.184  15.155  20.810  1.00  0.00     0.009 C 
HETATM   27  C20 UNL     1      -0.223  13.424  19.679  1.00  0.00     0.009 C 
ENDBRANCH  24  25
ENDBRANCH  15  24
BRANCH  13  28
HETATM   28  O5  UNL     1       1.498  10.430  18.897  1.00  0.00    -0.359 OA
HETATM   29  H15 UNL     1       0.921   9.711  18.549  1.00  0.00     0.217 HD
ENDBRANCH  13  28
BRANCH  10  30
HETATM   30  C10 UNL     1       5.786  11.354  15.348  1.00  0.00     0.275 C 
HETATM   31  O2  UNL     1       6.439  10.412  14.905  1.00  0.00    -0.301 OA
ENDBRANCH  10  30
BRANCH  12  32
HETATM   32  C13 UNL     1       1.630   8.859  16.501  1.00  0.00     0.275 C 
HETATM   33  O4  UNL     1       1.909   7.671  16.653  1.00  0.00    -0.301 OA
ENDBRANCH  12  32
BRANCH  11  34
HETATM   34  O3  UNL     1       3.750   9.392  14.783  1.00  0.00    -0.359 OA
HETATM   35  H13 UNL     1       4.551   9.668  14.276  1.00  0.00     0.217 HD
ENDBRANCH  11  34
TORSDOF 6
ENDMDL
MODEL 8
REMARK minimizedAffinity -5.74237776
REMARK CNNscore 0.212970421
REMARK CNNaffinity 5.21798944
REMARK  6 active torsions:
REMARK  status: ('A' for Active; 'I' for Inactive)
REMARK    1  A    between atoms: C9_10  and  C10_11 
REMARK    2  A    between atoms: C11_13  and  O3_14 
REMARK    3  A    between atoms: C12_15  and  C13_16 
REMARK    4  A    between atoms: C14_18  and  O5_19 
REMARK    5  A    between atoms: C16_21  and  C17_22 
REMARK    6  A    between atoms: C17_22  and  C18_23 
ROOT
HETATM    1  C1  UNL     1      -0.157  10.750  19.218  1.00  0.00     0.043 C 
HETATM    2  C2  UNL     1       1.161  11.184  19.824  1.00  0.00    -0.087 C 
HETATM    3  C3  UNL     1       1.536  10.677  21.018  1.00  0.00    -0.024 C 
HETATM    4  C4  UNL     1       2.748  10.856  21.903  1.00  0.00     0.030 C 
HETATM    5  C5  UNL     1       4.070  11.286  21.272  1.00  0.00     0.042 C 
HETATM    6  C6  UNL     1       4.563  12.757  21.482  1.00  0.00     0.069 C 
HETATM    7  C7  UNL     1       5.494  13.053  20.270  1.00  0.00     0.047 C 
HETATM    8  O1  UNL     1       5.471  12.632  22.638  1.00  0.00    -0.338 OA
HETATM    9  C8  UNL     1       5.995  13.834  23.044  1.00  0.00     0.095 A 
HETATM   10  C9  UNL     1       7.371  13.975  23.233  1.00  0.00     0.070 A 
HETATM   11  C11 UNL     1       7.895  15.231  23.556  1.00  0.00     0.097 A 
HETATM   12  C12 UNL     1       7.033  16.327  23.683  1.00  0.00     0.069 A 
HETATM   13  C14 UNL     1       5.641  16.158  23.525  1.00  0.00     0.091 A 
HETATM   14  C15 UNL     1       5.104  14.895  23.257  1.00  0.00     0.015 A 
HETATM   15  C16 UNL     1       3.648  14.481  23.163  1.00  0.00     0.032 C 
HETATM   16  C21 UNL     1       3.409  13.865  21.744  1.00  0.00     0.034 C 
HETATM   17  C22 UNL     1       3.346  14.906  20.630  1.00  0.00     0.006 A 
HETATM   18  C23 UNL     1       2.486  14.653  19.390  1.00  0.00    -0.001 A 
HETATM   19  C24 UNL     1       1.387  13.624  19.278  1.00  0.00     0.010 C 
HETATM   20  C25 UNL     1       1.892  12.213  18.985  1.00  0.00     0.034 C 
HETATM   21  C26 UNL     1       2.235  15.895  20.232  1.00  0.00    -0.039 A 
HETATM   22  C27 UNL     1       2.690  17.215  19.645  1.00  0.00     0.015 C 
HETATM   23  C28 UNL     1       0.923  16.030  20.964  1.00  0.00     0.015 C 
ENDROOT
BRANCH  15  24
HETATM   24  C17 UNL     1       2.559  15.446  23.666  1.00  0.00     0.014 C 
BRANCH  24  25
HETATM   25  C18 UNL     1       2.354  15.481  25.201  1.00  0.00    -0.022 C 
HETATM   26  C19 UNL     1       1.646  14.227  25.724  1.00  0.00     0.009 C 
HETATM   27  C20 UNL     1       1.538  16.721  25.576  1.00  0.00     0.009 C 
ENDBRANCH  24  25
ENDBRANCH  15  24
BRANCH  13  28
HETATM   28  O5  UNL     1       4.792  17.228  23.606  1.00  0.00    -0.359 OA
HETATM   29  H15 UNL     1       5.311  18.039  23.813  1.00  0.00     0.217 HD
ENDBRANCH  13  28
BRANCH  10  30
HETATM   30  C10 UNL     1       8.252  12.805  23.059  1.00  0.00     0.275 C 
HETATM   31  O2  UNL     1       9.410  12.955  22.677  1.00  0.00    -0.301 OA
ENDBRANCH  10  30
BRANCH  12  32
HETATM   32  C13 UNL     1       7.602  17.658  23.985  1.00  0.00     0.275 C 
HETATM   33  O4  UNL     1       8.645  17.760  24.628  1.00  0.00    -0.301 OA
ENDBRANCH  12  32
BRANCH  11  34
HETATM   34  O3  UNL     1       9.243  15.427  23.734  1.00  0.00    -0.359 OA
HETATM   35  H13 UNL     1       9.708  14.567  23.602  1.00  0.00     0.217 HD
ENDBRANCH  11  34
TORSDOF 6
ENDMDL
MODEL 9
REMARK minimizedAffinity -6.94385099
REMARK CNNscore 0.207420617
REMARK CNNaffinity 5.5601058
REMARK  6 active torsions:
REMARK  status: ('A' for Active; 'I' for Inactive)
REMARK    1  A    between atoms: C9_10  and  C10_11 
REMARK    2  A    between atoms: C11_13  and  O3_14 
REMARK    3  A    between atoms: C12_15  and  C13_16 
REMARK    4  A    between atoms: C14_18  and  O5_19 
REMARK    5  A    between atoms: C16_21  and  C17_22 
REMARK    6  A    between atoms: C17_22  and  C18_23 
ROOT
HETATM    1  C1  UNL     1      -5.785   6.986  13.214  1.00  0.00     0.043 C 
HETATM    2  C2  UNL     1      -4.409   7.392  13.697  1.00  0.00    -0.087 C 
HETATM    3  C3  UNL     1      -4.013   8.675  13.559  1.00  0.00    -0.024 C 
HETATM    4  C4  UNL     1      -2.758   9.434  13.922  1.00  0.00     0.030 C 
HETATM    5  C5  UNL     1      -1.880   8.915  15.058  1.00  0.00     0.042 C 
HETATM    6  C6  UNL     1      -0.522   8.218  14.704  1.00  0.00     0.069 C 
HETATM    7  C7  UNL     1      -0.218   7.280  15.908  1.00  0.00     0.047 C 
HETATM    8  O1  UNL     1       0.449   9.321  14.825  1.00  0.00    -0.338 OA
HETATM    9  C8  UNL     1       1.730   8.949  14.502  1.00  0.00     0.095 A 
HETATM   10  C9  UNL     1       2.786   9.238  15.368  1.00  0.00     0.070 A 
HETATM   11  C11 UNL     1       4.070   8.769  15.067  1.00  0.00     0.097 A 
HETATM   12  C12 UNL     1       4.274   8.016  13.904  1.00  0.00     0.069 A 
HETATM   13  C14 UNL     1       3.201   7.765  13.022  1.00  0.00     0.091 A 
HETATM   14  C15 UNL     1       1.927   8.278  13.288  1.00  0.00     0.015 A 
HETATM   15  C16 UNL     1       0.681   8.220  12.426  1.00  0.00     0.032 C 
HETATM   16  C21 UNL     1      -0.445   7.508  13.249  1.00  0.00     0.034 C 
HETATM   17  C22 UNL     1      -0.259   5.996  13.354  1.00  0.00     0.006 A 
HETATM   18  C23 UNL     1      -1.479   5.080  13.469  1.00  0.00    -0.001 A 
HETATM   19  C24 UNL     1      -2.901   5.463  13.138  1.00  0.00     0.010 C 
HETATM   20  C25 UNL     1      -3.608   6.231  14.253  1.00  0.00     0.034 C 
HETATM   21  C26 UNL     1      -0.497   4.875  12.326  1.00  0.00    -0.039 A 
HETATM   22  C27 UNL     1       0.416   3.670  12.424  1.00  0.00     0.015 C 
HETATM   23  C28 UNL     1      -0.962   5.111  10.911  1.00  0.00     0.015 C 
ENDROOT
BRANCH  15  24
HETATM   24  C17 UNL     1       0.806   7.793  10.953  1.00  0.00     0.014 C 
BRANCH  24  25
HETATM   25  C18 UNL     1      -0.429   8.089  10.065  1.00  0.00    -0.022 C 
HETATM   26  C19 UNL     1      -0.040   8.641   8.690  1.00  0.00     0.009 C 
HETATM   27  C20 UNL     1      -1.339   9.093  10.778  1.00  0.00     0.009 C 
ENDBRANCH  24  25
ENDBRANCH  15  24
BRANCH  13  28
HETATM   28  O5  UNL     1       3.379   6.996  11.904  1.00  0.00    -0.359 OA
HETATM   29  H15 UNL     1       4.324   6.724  11.846  1.00  0.00     0.217 HD
ENDBRANCH  13  28
BRANCH  10  30
HETATM   30  C10 UNL     1       2.526  10.007  16.599  1.00  0.00     0.275 C 
HETATM   31  O2  UNL     1       2.607   9.460  17.697  1.00  0.00    -0.301 OA
ENDBRANCH  10  30
BRANCH  12  32
HETATM   32  C13 UNL     1       5.626   7.491  13.617  1.00  0.00     0.275 C 
HETATM   33  O4  UNL     1       6.563   8.259  13.406  1.00  0.00    -0.301 OA
ENDBRANCH  12  32
BRANCH  11  34
HETATM   34  O3  UNL     1       5.139   9.010  15.894  1.00  0.00    -0.359 OA
HETATM   35  H13 UNL     1       4.828   9.541  16.666  1.00  0.00     0.217 HD
ENDBRANCH  11  34
TORSDOF 6
ENDMDL
