MODEL 1
REMARK minimizedAffinity -8.37107086
REMARK CNNscore 0.617059469
REMARK CNNaffinity 6.71412468
REMARK  10 active torsions:
REMARK  status: ('A' for Active; 'I' for Inactive)
REMARK    1  A    between atoms: O1_2  and  C2_3 
REMARK    2  A    between atoms: C4_5  and  O2_6 
REMARK    3  A    between atoms: O2_6  and  C5_7 
REMARK    4  A    between atoms: C8_10  and  C9_11 
REMARK    5  A    between atoms: N1_12  and  C10_14 
REMARK    6  A    between atoms: C10_14  and  C11_15 
REMARK    7  A    between atoms: C21_27  and  C22_28 
REMARK    8  A    between atoms: C28_36  and  O5_37 
REMARK    9  A    between atoms: C32_41  and  O6_42 
REMARK   10  A    between atoms: C36_47  and  O8_48 
ROOT
HETATM    1  C5  UNL     1       0.388  55.282  -7.411  1.00  0.00     0.127 C 
HETATM    2  C6  UNL     1      -0.366  55.918  -8.588  1.00  0.00     0.033 C 
HETATM    3  C7  UNL     1      -0.401  55.214  -9.948  1.00  0.00     0.021 C 
HETATM    4  C8  UNL     1       0.402  53.890 -10.120  1.00  0.00     0.026 C 
HETATM    5  C16 UNL     1      -0.267  53.082 -11.316  1.00  0.00     0.009 C 
HETATM    6  C17 UNL     1       0.632  52.743 -12.520  1.00  0.00     0.007 C 
HETATM    7  C18 UNL     1      -0.200  52.219 -13.696  1.00  0.00     0.013 C 
HETATM    8  C19 UNL     1      -1.025  50.952 -13.345  1.00  0.00    -0.005 C 
HETATM    9  C20 UNL     1      -0.072  49.735 -13.259  1.00  0.00     0.019 C 
HETATM   10  C21 UNL     1      -2.176  50.696 -14.369  1.00  0.00     0.028 C 
HETATM   11  C26 UNL     1      -3.263  51.710 -13.972  1.00  0.00     0.013 C 
HETATM   12  C27 UNL     1      -3.084  51.968 -12.469  1.00  0.00     0.040 C 
HETATM   13  C28 UNL     1      -1.842  51.161 -12.031  1.00  0.00     0.070 C 
HETATM   14  C29 UNL     1      -1.019  51.796 -10.872  1.00  0.00     0.026 C 
HETATM   15  C30 UNL     1      -1.853  52.077  -9.611  1.00  0.00     0.011 C 
HETATM   16  C31 UNL     1      -1.040  52.625  -8.432  1.00  0.00     0.039 C 
HETATM   17  C32 UNL     1       0.381  53.097  -8.793  1.00  0.00     0.073 C 
HETATM   18  C33 UNL     1       1.009  53.908  -7.652  1.00  0.00     0.071 C 
ENDROOT
BRANCH   1  19
HETATM   19  O2  UNL     1      -0.567  55.169  -6.343  1.00  0.00    -0.356 OA
BRANCH  19  20
HETATM   20  C4  UNL     1      -0.216  55.891  -5.156  1.00  0.00     0.263 C 
HETATM   21  C3  UNL     1       1.316  55.984  -5.124  1.00  0.00     0.095 C 
HETATM   22  C2  UNL     1       1.832  57.093  -4.200  1.00  0.00     0.156 C 
HETATM   23  C36 UNL     1       0.741  57.463  -3.180  1.00  0.00     0.175 C 
HETATM   24  C34 UNL     1      -0.525  57.933  -3.928  1.00  0.00     0.151 C 
HETATM   25  O7  UNL     1      -0.803  57.179  -5.124  1.00  0.00    -0.354 OA
HETATM   26  C35 UNL     1      -1.762  57.878  -3.025  1.00  0.00     0.042 C 
BRANCH  22  27
HETATM   27  O1  UNL     1       2.171  58.209  -5.037  1.00  0.00    -0.388 OA
HETATM   28  C1  UNL     1       3.528  58.617  -4.908  1.00  0.00     0.202 C 
ENDBRANCH  22  27
BRANCH  23  29
HETATM   29  O8  UNL     1       1.209  58.432  -2.244  1.00  0.00    -0.390 OA
HETATM   30  H50 UNL     1       0.574  58.495  -1.509  1.00  0.00     0.210 HD
ENDBRANCH  23  29
ENDBRANCH  19  20
ENDBRANCH   1  19
BRANCH  17  31
HETATM   31  O6  UNL     1       1.196  51.918  -8.946  1.00  0.00    -0.389 OA
HETATM   32  H42 UNL     1       1.243  51.472  -8.075  1.00  0.00     0.210 HD
ENDBRANCH  17  31
BRANCH   4  33
HETATM   33  C9  UNL     1       1.872  54.194 -10.447  1.00  0.00     0.069 C 
HETATM   34  N1  UNL     1       2.271  55.352 -10.842  1.00  0.00    -0.397 N 
ATOM     35  H1  UNL     1       1.638  56.144 -10.949  1.00  0.00     0.159 HD
BRANCH  34  36
HETATM   36  C10 UNL     1       3.711  55.445 -11.125  1.00  0.00     0.158 C 
BRANCH  36  37
HETATM   37  C11 UNL     1       4.497  55.625  -9.857  1.00  0.00    -0.025 A 
HETATM   38  C12 UNL     1       5.771  55.061  -9.720  1.00  0.00     0.011 A 
HETATM   39  C13 UNL     1       6.487  55.250  -8.545  1.00  0.00     0.018 A 
HETATM   40  C14 UNL     1       5.898  55.989  -7.529  1.00  0.00     0.087 A 
HETATM   41  N2  UNL     1       4.675  56.553  -7.626  1.00  0.00    -0.375 N 
HETATM   42  C15 UNL     1       4.011  56.368  -8.789  1.00  0.00     0.096 A 
ATOM     43  H2  UNL     1       4.273  57.092  -6.860  1.00  0.00     0.164 HD
ENDBRANCH  36  37
ENDBRANCH  34  36
ENDBRANCH   4  33
BRANCH  13  44
HETATM   44  O5  UNL     1      -2.316  49.873 -11.604  1.00  0.00    -0.389 OA
HETATM   45  H36 UNL     1      -2.929  49.981 -10.856  1.00  0.00     0.210 HD
ENDBRANCH  13  44
BRANCH  10  46
HETATM   46  C22 UNL     1      -1.804  50.689 -15.827  1.00  0.00    -0.045 A 
HETATM   47  C23 UNL     1      -0.605  50.713 -16.403  1.00  0.00     0.087 A 
HETATM   48  C24 UNL     1      -0.818  50.788 -17.849  1.00  0.00     0.283 A 
HETATM   49  O3  UNL     1       0.074  50.847 -18.681  1.00  0.00    -0.260 OA
HETATM   50  O4  UNL     1      -2.151  50.805 -18.107  1.00  0.00    -0.314 OA
HETATM   51  C25 UNL     1      -2.866  50.723 -16.871  1.00  0.00     0.213 A 
ENDBRANCH  10  46
TORSDOF 10
ENDMDL
MODEL 2
REMARK minimizedAffinity -8.44833469
REMARK CNNscore 0.406749159
REMARK CNNaffinity 6.06356287
REMARK  10 active torsions:
REMARK  status: ('A' for Active; 'I' for Inactive)
REMARK    1  A    between atoms: O1_2  and  C2_3 
REMARK    2  A    between atoms: C4_5  and  O2_6 
REMARK    3  A    between atoms: O2_6  and  C5_7 
REMARK    4  A    between atoms: C8_10  and  C9_11 
REMARK    5  A    between atoms: N1_12  and  C10_14 
REMARK    6  A    between atoms: C10_14  and  C11_15 
REMARK    7  A    between atoms: C21_27  and  C22_28 
REMARK    8  A    between atoms: C28_36  and  O5_37 
REMARK    9  A    between atoms: C32_41  and  O6_42 
REMARK   10  A    between atoms: C36_47  and  O8_48 
ROOT
HETATM    1  C5  UNL     1      -7.751  47.873 -26.073  1.00  0.00     0.127 C 
HETATM    2  C6  UNL     1      -8.829  48.919 -25.756  1.00  0.00     0.033 C 
HETATM    3  C7  UNL     1     -10.312  48.542 -25.838  1.00  0.00     0.021 C 
HETATM    4  C8  UNL     1     -10.689  47.108 -26.317  1.00  0.00     0.026 C 
HETATM    5  C16 UNL     1     -12.134  46.780 -25.737  1.00  0.00     0.009 C 
HETATM    6  C17 UNL     1     -13.238  46.451 -26.760  1.00  0.00     0.007 C 
HETATM    7  C18 UNL     1     -14.617  46.430 -26.090  1.00  0.00     0.013 C 
HETATM    8  C19 UNL     1     -14.718  45.405 -24.930  1.00  0.00    -0.005 C 
HETATM    9  C20 UNL     1     -14.800  43.976 -25.523  1.00  0.00     0.019 C 
HETATM   10  C21 UNL     1     -15.933  45.695 -23.991  1.00  0.00     0.028 C 
HETATM   11  C26 UNL     1     -15.459  46.873 -23.121  1.00  0.00     0.013 C 
HETATM   12  C27 UNL     1     -13.930  46.762 -23.039  1.00  0.00     0.040 C 
HETATM   13  C28 UNL     1     -13.530  45.566 -23.931  1.00  0.00     0.070 C 
HETATM   14  C29 UNL     1     -12.140  45.697 -24.623  1.00  0.00     0.026 C 
HETATM   15  C30 UNL     1     -10.986  45.942 -23.636  1.00  0.00     0.011 C 
HETATM   16  C31 UNL     1      -9.602  45.989 -24.293  1.00  0.00     0.039 C 
HETATM   17  C32 UNL     1      -9.620  46.104 -25.829  1.00  0.00     0.073 C 
HETATM   18  C33 UNL     1      -8.233  46.458 -26.381  1.00  0.00     0.071 C 
ENDROOT
BRANCH   1  19
HETATM   19  O2  UNL     1      -6.897  47.822 -24.917  1.00  0.00    -0.356 OA
BRANCH  19  20
HETATM   20  C4  UNL     1      -5.764  48.698 -24.979  1.00  0.00     0.263 C 
HETATM   21  C3  UNL     1      -5.890  49.678 -23.805  1.00  0.00     0.095 C 
HETATM   22  C2  UNL     1      -4.565  50.363 -23.449  1.00  0.00     0.156 C 
HETATM   23  C36 UNL     1      -3.609  50.291 -24.653  1.00  0.00     0.175 C 
HETATM   24  C34 UNL     1      -3.365  48.813 -25.028  1.00  0.00     0.151 C 
HETATM   25  O7  UNL     1      -4.540  47.987 -24.919  1.00  0.00    -0.354 OA
HETATM   26  C35 UNL     1      -2.812  48.680 -26.451  1.00  0.00     0.042 C 
BRANCH  22  27
HETATM   27  O1  UNL     1      -4.031  49.674 -22.310  1.00  0.00    -0.388 OA
HETATM   28  C1  UNL     1      -3.736  50.537 -21.217  1.00  0.00     0.202 C 
ENDBRANCH  22  27
BRANCH  23  29
HETATM   29  O8  UNL     1      -2.394  50.993 -24.397  1.00  0.00    -0.390 OA
HETATM   30  H50 UNL     1      -1.904  51.093 -25.232  1.00  0.00     0.210 HD
ENDBRANCH  23  29
ENDBRANCH  19  20
ENDBRANCH   1  19
BRANCH  17  31
HETATM   31  O6  UNL     1      -9.940  44.798 -26.350  1.00  0.00    -0.389 OA
HETATM   32  H42 UNL     1      -9.211  44.192 -26.106  1.00  0.00     0.210 HD
ENDBRANCH  17  31
BRANCH   4  33
HETATM   33  C9  UNL     1     -10.710  47.044 -27.851  1.00  0.00     0.069 C 
HETATM   34  N1  UNL     1     -10.742  48.098 -28.591  1.00  0.00    -0.397 N 
ATOM     35  H1  UNL     1     -10.743  49.041 -28.203  1.00  0.00     0.159 HD
BRANCH  34  36
HETATM   36  C10 UNL     1     -10.777  47.835 -30.037  1.00  0.00     0.158 C 
BRANCH  36  37
HETATM   37  C11 UNL     1      -9.408  47.964 -30.639  1.00  0.00    -0.025 A 
HETATM   38  C12 UNL     1      -9.089  47.311 -31.836  1.00  0.00     0.011 A 
HETATM   39  C13 UNL     1      -7.820  47.453 -32.384  1.00  0.00     0.018 A 
HETATM   40  C14 UNL     1      -6.897  48.236 -31.707  1.00  0.00     0.087 A 
HETATM   41  N2  UNL     1      -7.168  48.886 -30.555  1.00  0.00    -0.375 N 
HETATM   42  C15 UNL     1      -8.417  48.744 -30.057  1.00  0.00     0.096 A 
ATOM     43  H2  UNL     1      -6.466  49.456 -30.084  1.00  0.00     0.164 HD
ENDBRANCH  36  37
ENDBRANCH  34  36
ENDBRANCH   4  33
BRANCH  13  44
HETATM   44  O5  UNL     1     -13.512  44.406 -23.083  1.00  0.00    -0.389 OA
HETATM   45  H36 UNL     1     -12.860  44.530 -22.372  1.00  0.00     0.210 HD
ENDBRANCH  13  44
BRANCH  10  46
HETATM   46  C22 UNL     1     -17.274  45.877 -24.646  1.00  0.00    -0.045 A 
HETATM   47  C23 UNL     1     -18.384  46.443 -24.178  1.00  0.00     0.087 A 
HETATM   48  C24 UNL     1     -19.424  46.267 -25.192  1.00  0.00     0.283 A 
HETATM   49  O3  UNL     1     -20.578  46.650 -25.077  1.00  0.00    -0.260 OA
HETATM   50  O4  UNL     1     -18.908  45.598 -26.254  1.00  0.00    -0.314 OA
HETATM   51  C25 UNL     1     -17.526  45.323 -26.005  1.00  0.00     0.213 A 
ENDBRANCH  10  46
TORSDOF 10
ENDMDL
MODEL 3
REMARK minimizedAffinity -9.16285324
REMARK CNNscore 0.346146435
REMARK CNNaffinity 7.04130173
REMARK  10 active torsions:
REMARK  status: ('A' for Active; 'I' for Inactive)
REMARK    1  A    between atoms: O1_2  and  C2_3 
REMARK    2  A    between atoms: C4_5  and  O2_6 
REMARK    3  A    between atoms: O2_6  and  C5_7 
REMARK    4  A    between atoms: C8_10  and  C9_11 
REMARK    5  A    between atoms: N1_12  and  C10_14 
REMARK    6  A    between atoms: C10_14  and  C11_15 
REMARK    7  A    between atoms: C21_27  and  C22_28 
REMARK    8  A    between atoms: C28_36  and  O5_37 
REMARK    9  A    between atoms: C32_41  and  O6_42 
REMARK   10  A    between atoms: C36_47  and  O8_48 
ROOT
HETATM    1  C5  UNL     1      -3.369  50.128 -21.371  1.00  0.00     0.127 C 
HETATM    2  C6  UNL     1      -4.491  50.998 -20.788  1.00  0.00     0.033 C 
HETATM    3  C7  UNL     1      -5.897  50.417 -20.606  1.00  0.00     0.021 C 
HETATM    4  C8  UNL     1      -6.168  48.962 -21.093  1.00  0.00     0.026 C 
HETATM    5  C16 UNL     1      -7.413  48.411 -20.269  1.00  0.00     0.009 C 
HETATM    6  C17 UNL     1      -8.644  47.965 -21.079  1.00  0.00     0.007 C 
HETATM    7  C18 UNL     1      -9.848  47.724 -20.159  1.00  0.00     0.013 C 
HETATM    8  C19 UNL     1      -9.580  46.654 -19.069  1.00  0.00    -0.005 C 
HETATM    9  C20 UNL     1      -9.588  45.250 -19.723  1.00  0.00     0.019 C 
HETATM   10  C21 UNL     1     -10.610  46.734 -17.898  1.00  0.00     0.028 C 
HETATM   11  C26 UNL     1     -10.133  47.936 -17.062  1.00  0.00     0.013 C 
HETATM   12  C27 UNL     1      -8.618  48.041 -17.283  1.00  0.00     0.040 C 
HETATM   13  C28 UNL     1      -8.248  46.947 -18.308  1.00  0.00     0.070 C 
HETATM   14  C29 UNL     1      -7.054  47.299 -19.245  1.00  0.00     0.026 C 
HETATM   15  C30 UNL     1      -5.769  47.670 -18.485  1.00  0.00     0.011 C 
HETATM   16  C31 UNL     1      -4.562  47.937 -19.391  1.00  0.00     0.039 C 
HETATM   17  C32 UNL     1      -4.901  48.103 -20.885  1.00  0.00     0.073 C 
HETATM   18  C33 UNL     1      -3.710  48.671 -21.669  1.00  0.00     0.071 C 
ENDROOT
BRANCH   1  19
HETATM   19  O2  UNL     1      -2.303  50.157 -20.406  1.00  0.00    -0.356 OA
BRANCH  19  20
HETATM   20  C4  UNL     1      -1.475  51.326 -20.474  1.00  0.00     0.263 C 
HETATM   21  C3  UNL     1      -1.331  51.858 -19.041  1.00  0.00     0.095 C 
HETATM   22  C2  UNL     1      -0.133  52.798 -18.867  1.00  0.00     0.156 C 
HETATM   23  C36 UNL     1       0.283  53.361 -20.238  1.00  0.00     0.175 C 
HETATM   24  C34 UNL     1       0.649  52.195 -21.183  1.00  0.00     0.151 C 
HETATM   25  O7  UNL     1      -0.208  51.047 -21.042  1.00  0.00    -0.354 OA
HETATM   26  C35 UNL     1       0.628  52.637 -22.650  1.00  0.00     0.042 C 
BRANCH  22  27
HETATM   27  O1  UNL     1       0.921  52.028 -18.272  1.00  0.00    -0.388 OA
HETATM   28  C1  UNL     1       1.292  52.487 -16.977  1.00  0.00     0.202 C 
ENDBRANCH  22  27
BRANCH  23  29
HETATM   29  O8  UNL     1       1.340  54.310 -20.113  1.00  0.00    -0.390 OA
HETATM   30  H50 UNL     1       1.443  54.783 -20.957  1.00  0.00     0.210 HD
ENDBRANCH  23  29
ENDBRANCH  19  20
ENDBRANCH   1  19
BRANCH  17  31
HETATM   31  O6  UNL     1      -5.142  46.785 -21.416  1.00  0.00    -0.389 OA
HETATM   32  H42 UNL     1      -4.306  46.280 -21.355  1.00  0.00     0.210 HD
ENDBRANCH  17  31
BRANCH   4  33
HETATM   33  C9  UNL     1      -6.486  48.951 -22.596  1.00  0.00     0.069 C 
HETATM   34  N1  UNL     1      -6.223  47.944 -23.355  1.00  0.00    -0.397 N 
ATOM     35  H1  UNL     1      -5.799  47.086 -23.002  1.00  0.00     0.159 HD
BRANCH  34  36
HETATM   36  C10 UNL     1      -6.583  48.127 -24.769  1.00  0.00     0.158 C 
BRANCH  36  37
HETATM   37  C11 UNL     1      -5.354  48.262 -25.622  1.00  0.00    -0.025 A 
HETATM   38  C12 UNL     1      -4.106  48.519 -25.041  1.00  0.00     0.011 A 
HETATM   39  C13 UNL     1      -2.979  48.628 -25.845  1.00  0.00     0.018 A 
HETATM   40  C14 UNL     1      -3.135  48.491 -27.217  1.00  0.00     0.087 A 
HETATM   41  N2  UNL     1      -4.320  48.237 -27.813  1.00  0.00    -0.375 N 
HETATM   42  C15 UNL     1      -5.396  48.118 -27.002  1.00  0.00     0.096 A 
ATOM     43  H2  UNL     1      -4.400  48.141 -28.825  1.00  0.00     0.164 HD
ENDBRANCH  36  37
ENDBRANCH  34  36
ENDBRANCH   4  33
BRANCH  13  44
HETATM   44  O5  UNL     1      -7.909  45.772 -17.555  1.00  0.00    -0.389 OA
HETATM   45  H36 UNL     1      -7.150  45.962 -16.976  1.00  0.00     0.210 HD
ENDBRANCH  13  44
BRANCH  10  46
HETATM   46  C22 UNL     1     -12.067  46.747 -18.269  1.00  0.00    -0.045 A 
HETATM   47  C23 UNL     1     -12.683  47.334 -19.292  1.00  0.00     0.087 A 
HETATM   48  C24 UNL     1     -14.119  47.106 -19.126  1.00  0.00     0.283 A 
HETATM   49  O3  UNL     1     -14.982  47.528 -19.880  1.00  0.00    -0.260 OA
HETATM   50  O4  UNL     1     -14.332  46.378 -18.000  1.00  0.00    -0.314 OA
HETATM   51  C25 UNL     1     -13.070  46.081 -17.392  1.00  0.00     0.213 A 
ENDBRANCH  10  46
TORSDOF 10
ENDMDL
MODEL 4
REMARK minimizedAffinity -8.18970108
REMARK CNNscore 0.332200587
REMARK CNNaffinity 6.13068247
REMARK  10 active torsions:
REMARK  status: ('A' for Active; 'I' for Inactive)
REMARK    1  A    between atoms: O1_2  and  C2_3 
REMARK    2  A    between atoms: C4_5  and  O2_6 
REMARK    3  A    between atoms: O2_6  and  C5_7 
REMARK    4  A    between atoms: C8_10  and  C9_11 
REMARK    5  A    between atoms: N1_12  and  C10_14 
REMARK    6  A    between atoms: C10_14  and  C11_15 
REMARK    7  A    between atoms: C21_27  and  C22_28 
REMARK    8  A    between atoms: C28_36  and  O5_37 
REMARK    9  A    between atoms: C32_41  and  O6_42 
REMARK   10  A    between atoms: C36_47  and  O8_48 
ROOT
HETATM    1  C5  UNL     1      -6.185  48.471 -24.804  1.00  0.00     0.127 C 
HETATM    2  C6  UNL     1      -7.289  49.221 -24.044  1.00  0.00     0.033 C 
HETATM    3  C7  UNL     1      -8.762  48.891 -24.308  1.00  0.00     0.021 C 
HETATM    4  C8  UNL     1      -9.102  47.840 -25.406  1.00  0.00     0.026 C 
HETATM    5  C16 UNL     1     -10.537  47.243 -25.062  1.00  0.00     0.009 C 
HETATM    6  C17 UNL     1     -11.635  47.405 -26.131  1.00  0.00     0.007 C 
HETATM    7  C18 UNL     1     -13.011  47.040 -25.562  1.00  0.00     0.013 C 
HETATM    8  C19 UNL     1     -13.083  45.589 -25.019  1.00  0.00    -0.005 C 
HETATM    9  C20 UNL     1     -13.129  44.602 -26.212  1.00  0.00     0.019 C 
HETATM   10  C21 UNL     1     -14.302  45.376 -24.066  1.00  0.00     0.028 C 
HETATM   11  C26 UNL     1     -13.857  46.020 -22.741  1.00  0.00     0.013 C 
HETATM   12  C27 UNL     1     -12.326  45.921 -22.705  1.00  0.00     0.040 C 
HETATM   13  C28 UNL     1     -11.897  45.292 -24.049  1.00  0.00     0.070 C 
HETATM   14  C29 UNL     1     -10.513  45.765 -24.585  1.00  0.00     0.026 C 
HETATM   15  C30 UNL     1      -9.363  45.547 -23.587  1.00  0.00     0.011 C 
HETATM   16  C31 UNL     1      -7.982  45.929 -24.131  1.00  0.00     0.039 C 
HETATM   17  C32 UNL     1      -8.007  46.750 -25.435  1.00  0.00     0.073 C 
HETATM   18  C33 UNL     1      -6.631  47.355 -25.743  1.00  0.00     0.071 C 
ENDROOT
BRANCH   1  19
HETATM   19  O2  UNL     1      -5.328  47.906 -23.798  1.00  0.00    -0.356 OA
BRANCH  19  20
HETATM   20  C4  UNL     1      -4.080  48.592 -23.628  1.00  0.00     0.263 C 
HETATM   21  C3  UNL     1      -3.543  48.899 -25.033  1.00  0.00     0.095 C 
HETATM   22  C2  UNL     1      -2.486  50.009 -25.042  1.00  0.00     0.156 C 
HETATM   23  C36 UNL     1      -1.877  50.153 -23.636  1.00  0.00     0.175 C 
HETATM   24  C34 UNL     1      -2.995  50.486 -22.624  1.00  0.00     0.151 C 
HETATM   25  O7  UNL     1      -4.226  49.779 -22.870  1.00  0.00    -0.354 OA
HETATM   26  C35 UNL     1      -2.552  50.198 -21.186  1.00  0.00     0.042 C 
BRANCH  22  27
HETATM   27  O1  UNL     1      -3.147  51.213 -25.456  1.00  0.00    -0.388 OA
HETATM   28  C1  UNL     1      -2.682  51.710 -26.707  1.00  0.00     0.202 C 
ENDBRANCH  22  27
BRANCH  23  29
HETATM   29  O8  UNL     1      -0.825  51.116 -23.619  1.00  0.00    -0.390 OA
HETATM   30  H50 UNL     1      -0.341  51.041 -22.778  1.00  0.00     0.210 HD
ENDBRANCH  23  29
ENDBRANCH  19  20
ENDBRANCH   1  19
BRANCH  17  31
HETATM   31  O6  UNL     1      -8.295  45.833 -26.510  1.00  0.00    -0.389 OA
HETATM   32  H42 UNL     1      -7.550  45.201 -26.571  1.00  0.00     0.210 HD
ENDBRANCH  17  31
BRANCH   4  33
HETATM   33  C9  UNL     1      -9.126  48.501 -26.792  1.00  0.00     0.069 C 
HETATM   34  N1  UNL     1      -9.006  47.831 -27.885  1.00  0.00    -0.397 N 
ATOM     35  H1  UNL     1      -8.900  46.817 -27.898  1.00  0.00     0.159 HD
BRANCH  34  36
HETATM   36  C10 UNL     1      -9.033  48.641 -29.111  1.00  0.00     0.158 C 
BRANCH  36  37
HETATM   37  C11 UNL     1      -9.711  47.901 -30.229  1.00  0.00    -0.025 A 
HETATM   38  C12 UNL     1      -9.011  47.570 -31.395  1.00  0.00     0.011 A 
HETATM   39  C13 UNL     1      -9.651  46.874 -32.412  1.00  0.00     0.018 A 
HETATM   40  C14 UNL     1     -10.987  46.540 -32.239  1.00  0.00     0.087 A 
HETATM   41  N2  UNL     1     -11.693  46.836 -31.127  1.00  0.00    -0.375 N 
HETATM   42  C15 UNL     1     -11.037  47.498 -30.147  1.00  0.00     0.096 A 
ATOM     43  H2  UNL     1     -12.674  46.575 -31.031  1.00  0.00     0.164 HD
ENDBRANCH  36  37
ENDBRANCH  34  36
ENDBRANCH   4  33
BRANCH  13  44
HETATM   44  O5  UNL     1     -11.847  43.871 -23.842  1.00  0.00    -0.389 OA
HETATM   45  H36 UNL     1     -11.196  43.663 -23.150  1.00  0.00     0.210 HD
ENDBRANCH  13  44
BRANCH  10  46
HETATM   46  C22 UNL     1     -15.650  45.811 -24.572  1.00  0.00    -0.045 A 
HETATM   47  C23 UNL     1     -16.419  46.828 -24.191  1.00  0.00     0.087 A 
HETATM   48  C24 UNL     1     -17.668  46.738 -24.948  1.00  0.00     0.283 A 
HETATM   49  O3  UNL     1     -18.610  47.507 -24.828  1.00  0.00    -0.260 OA
HETATM   50  O4  UNL     1     -17.616  45.663 -25.775  1.00  0.00    -0.314 OA
HETATM   51  C25 UNL     1     -16.349  45.016 -25.620  1.00  0.00     0.213 A 
ENDBRANCH  10  46
TORSDOF 10
ENDMDL
MODEL 5
REMARK minimizedAffinity -7.7702713
REMARK CNNscore 0.297424883
REMARK CNNaffinity 6.65472364
REMARK  10 active torsions:
REMARK  status: ('A' for Active; 'I' for Inactive)
REMARK    1  A    between atoms: O1_2  and  C2_3 
REMARK    2  A    between atoms: C4_5  and  O2_6 
REMARK    3  A    between atoms: O2_6  and  C5_7 
REMARK    4  A    between atoms: C8_10  and  C9_11 
REMARK    5  A    between atoms: N1_12  and  C10_14 
REMARK    6  A    between atoms: C10_14  and  C11_15 
REMARK    7  A    between atoms: C21_27  and  C22_28 
REMARK    8  A    between atoms: C28_36  and  O5_37 
REMARK    9  A    between atoms: C32_41  and  O6_42 
REMARK   10  A    between atoms: C36_47  and  O8_48 
ROOT
HETATM    1  C5  UNL     1      -3.711  49.636 -11.770  1.00  0.00     0.127 C 
HETATM    2  C6  UNL     1      -2.948  49.301 -10.480  1.00  0.00     0.033 C 
HETATM    3  C7  UNL     1      -1.694  50.098 -10.102  1.00  0.00     0.021 C 
HETATM    4  C8  UNL     1      -1.183  51.190 -11.087  1.00  0.00     0.026 C 
HETATM    5  C16 UNL     1      -0.329  52.231 -10.238  1.00  0.00     0.009 C 
HETATM    6  C17 UNL     1       1.141  52.430 -10.652  1.00  0.00     0.007 C 
HETATM    7  C18 UNL     1       1.904  53.235  -9.593  1.00  0.00     0.013 C 
HETATM    8  C19 UNL     1       1.289  54.634  -9.329  1.00  0.00    -0.005 C 
HETATM    9  C20 UNL     1       1.621  55.568 -10.519  1.00  0.00     0.019 C 
HETATM   10  C21 UNL     1       1.780  55.248  -7.979  1.00  0.00     0.028 C 
HETATM   11  C26 UNL     1       0.957  54.507  -6.910  1.00  0.00     0.013 C 
HETATM   12  C27 UNL     1      -0.358  54.095  -7.587  1.00  0.00     0.040 C 
HETATM   13  C28 UNL     1      -0.246  54.532  -9.064  1.00  0.00     0.070 C 
HETATM   14  C29 UNL     1      -1.000  53.623 -10.079  1.00  0.00     0.026 C 
HETATM   15  C30 UNL     1      -2.496  53.459  -9.760  1.00  0.00     0.011 C 
HETATM   16  C31 UNL     1      -3.270  52.636 -10.796  1.00  0.00     0.039 C 
HETATM   17  C32 UNL     1      -2.387  51.857 -11.790  1.00  0.00     0.073 C 
HETATM   18  C33 UNL     1      -3.208  50.828 -12.579  1.00  0.00     0.071 C 
ENDROOT
BRANCH   1  19
HETATM   19  O2  UNL     1      -5.067  49.897 -11.370  1.00  0.00    -0.356 OA
BRANCH  19  20
HETATM   20  C4  UNL     1      -5.538  49.072 -10.297  1.00  0.00     0.263 C 
HETATM   21  C3  UNL     1      -6.872  49.666  -9.825  1.00  0.00     0.095 C 
HETATM   22  C2  UNL     1      -7.723  48.673  -9.025  1.00  0.00     0.156 C 
HETATM   23  C36 UNL     1      -6.823  47.553  -8.472  1.00  0.00     0.175 C 
HETATM   24  C34 UNL     1      -6.118  46.834  -9.643  1.00  0.00     0.151 C 
HETATM   25  O7  UNL     1      -5.695  47.722 -10.695  1.00  0.00    -0.354 OA
HETATM   26  C35 UNL     1      -4.899  46.042  -9.160  1.00  0.00     0.042 C 
BRANCH  22  27
HETATM   27  O1  UNL     1      -8.716  48.155  -9.922  1.00  0.00    -0.388 OA
HETATM   28  C1  UNL     1      -8.964  49.004 -11.038  1.00  0.00     0.202 C 
ENDBRANCH  22  27
BRANCH  23  29
HETATM   29  O8  UNL     1      -7.560  46.653  -7.646  1.00  0.00    -0.390 OA
HETATM   30  H50 UNL     1      -6.935  46.083  -7.164  1.00  0.00     0.210 HD
ENDBRANCH  23  29
ENDBRANCH  19  20
ENDBRANCH   1  19
BRANCH  17  31
HETATM   31  O6  UNL     1      -1.893  52.806 -12.756  1.00  0.00    -0.389 OA
HETATM   32  H42 UNL     1      -2.661  53.155 -13.251  1.00  0.00     0.210 HD
ENDBRANCH  17  31
BRANCH   4  33
HETATM   33  C9  UNL     1      -0.308  50.559 -12.180  1.00  0.00     0.069 C 
HETATM   34  N1  UNL     1      -0.036  51.159 -13.286  1.00  0.00    -0.397 N 
ATOM     35  H1  UNL     1      -0.376  52.097 -13.500  1.00  0.00     0.159 HD
BRANCH  34  36
HETATM   36  C10 UNL     1       0.801  50.387 -14.217  1.00  0.00     0.158 C 
BRANCH  36  37
HETATM   37  C11 UNL     1       1.661  51.298 -15.046  1.00  0.00    -0.025 A 
HETATM   38  C12 UNL     1       1.250  51.705 -16.320  1.00  0.00     0.011 A 
HETATM   39  C13 UNL     1       2.054  52.558 -17.066  1.00  0.00     0.018 A 
HETATM   40  C14 UNL     1       3.260  52.969 -16.519  1.00  0.00     0.087 A 
HETATM   41  N2  UNL     1       3.688  52.603 -15.292  1.00  0.00    -0.375 N 
HETATM   42  C15 UNL     1       2.875  51.788 -14.582  1.00  0.00     0.096 A 
ATOM     43  H2  UNL     1       4.581  52.925 -14.919  1.00  0.00     0.164 HD
ENDBRANCH  36  37
ENDBRANCH  34  36
ENDBRANCH   4  33
BRANCH  13  44
HETATM   44  O5  UNL     1      -0.791  55.859  -9.144  1.00  0.00    -0.389 OA
HETATM   45  H36 UNL     1      -1.724  55.848  -8.865  1.00  0.00     0.210 HD
ENDBRANCH  13  44
BRANCH  10  46
HETATM   46  C22 UNL     1       3.265  55.277  -7.741  1.00  0.00    -0.045 A 
HETATM   47  C23 UNL     1       4.251  55.667  -8.544  1.00  0.00     0.087 A 
HETATM   48  C24 UNL     1       5.511  55.398  -7.849  1.00  0.00     0.283 A 
HETATM   49  O3  UNL     1       6.620  55.617  -8.312  1.00  0.00    -0.260 OA
HETATM   50  O4  UNL     1       5.247  54.853  -6.635  1.00  0.00    -0.314 OA
HETATM   51  C25 UNL     1       3.830  54.755  -6.465  1.00  0.00     0.213 A 
ENDBRANCH  10  46
TORSDOF 10
ENDMDL
MODEL 6
REMARK minimizedAffinity -10.0735264
REMARK CNNscore 0.213889778
REMARK CNNaffinity 7.30582952
REMARK  10 active torsions:
REMARK  status: ('A' for Active; 'I' for Inactive)
REMARK    1  A    between atoms: O1_2  and  C2_3 
REMARK    2  A    between atoms: C4_5  and  O2_6 
REMARK    3  A    between atoms: O2_6  and  C5_7 
REMARK    4  A    between atoms: C8_10  and  C9_11 
REMARK    5  A    between atoms: N1_12  and  C10_14 
REMARK    6  A    between atoms: C10_14  and  C11_15 
REMARK    7  A    between atoms: C21_27  and  C22_28 
REMARK    8  A    between atoms: C28_36  and  O5_37 
REMARK    9  A    between atoms: C32_41  and  O6_42 
REMARK   10  A    between atoms: C36_47  and  O8_48 
ROOT
HETATM    1  C5  UNL     1      -2.660  49.576 -21.509  1.00  0.00     0.127 C 
HETATM    2  C6  UNL     1      -1.480  48.669 -21.130  1.00  0.00     0.033 C 
HETATM    3  C7  UNL     1      -0.640  48.983 -19.887  1.00  0.00     0.021 C 
HETATM    4  C8  UNL     1      -0.967  50.271 -19.075  1.00  0.00     0.026 C 
HETATM    5  C16 UNL     1      -0.431  50.045 -17.593  1.00  0.00     0.009 C 
HETATM    6  C17 UNL     1       0.612  51.049 -17.068  1.00  0.00     0.007 C 
HETATM    7  C18 UNL     1       1.234  50.556 -15.756  1.00  0.00     0.013 C 
HETATM    8  C19 UNL     1       0.189  50.323 -14.633  1.00  0.00    -0.005 C 
HETATM    9  C20 UNL     1      -0.285  51.692 -14.089  1.00  0.00     0.019 C 
HETATM   10  C21 UNL     1       0.748  49.423 -13.485  1.00  0.00     0.028 C 
HETATM   11  C26 UNL     1       0.684  47.998 -14.062  1.00  0.00     0.013 C 
HETATM   12  C27 UNL     1      -0.462  47.996 -15.083  1.00  0.00     0.040 C 
HETATM   13  C28 UNL     1      -0.996  49.444 -15.143  1.00  0.00     0.070 C 
HETATM   14  C29 UNL     1      -1.553  49.883 -16.530  1.00  0.00     0.026 C 
HETATM   15  C30 UNL     1      -2.662  48.960 -17.064  1.00  0.00     0.011 C 
HETATM   16  C31 UNL     1      -3.279  49.425 -18.388  1.00  0.00     0.039 C 
HETATM   17  C32 UNL     1      -2.490  50.533 -19.113  1.00  0.00     0.073 C 
HETATM   18  C33 UNL     1      -2.984  50.721 -20.554  1.00  0.00     0.071 C 
ENDROOT
BRANCH   1  19
HETATM   19  O2  UNL     1      -3.808  48.714 -21.594  1.00  0.00    -0.356 OA
BRANCH  19  20
HETATM   20  C4  UNL     1      -4.234  48.425 -22.932  1.00  0.00     0.263 C 
HETATM   21  C3  UNL     1      -5.726  48.074 -22.862  1.00  0.00     0.095 C 
HETATM   22  C2  UNL     1      -6.435  48.193 -24.216  1.00  0.00     0.156 C 
HETATM   23  C36 UNL     1      -5.396  48.122 -25.350  1.00  0.00     0.175 C 
HETATM   24  C34 UNL     1      -4.371  49.264 -25.179  1.00  0.00     0.151 C 
HETATM   25  O7  UNL     1      -4.008  49.515 -23.808  1.00  0.00    -0.354 OA
HETATM   26  C35 UNL     1      -3.090  48.988 -25.974  1.00  0.00     0.042 C 
BRANCH  22  27
HETATM   27  O1  UNL     1      -7.130  49.449 -24.216  1.00  0.00    -0.388 OA
HETATM   28  C1  UNL     1      -7.554  49.858 -22.920  1.00  0.00     0.202 C 
ENDBRANCH  22  27
BRANCH  23  29
HETATM   29  O8  UNL     1      -6.021  48.141 -26.632  1.00  0.00    -0.390 OA
HETATM   30  H50 UNL     1      -5.364  47.900 -27.308  1.00  0.00     0.210 HD
ENDBRANCH  23  29
ENDBRANCH  19  20
ENDBRANCH   1  19
BRANCH  17  31
HETATM   31  O6  UNL     1      -2.764  51.771 -18.427  1.00  0.00    -0.389 OA
HETATM   32  H42 UNL     1      -3.718  51.966 -18.534  1.00  0.00     0.210 HD
ENDBRANCH  17  31
BRANCH   4  33
HETATM   33  C9  UNL     1      -0.278  51.491 -19.704  1.00  0.00     0.069 C 
HETATM   34  N1  UNL     1       0.354  51.432 -20.824  1.00  0.00    -0.397 N 
ATOM     35  H1  UNL     1       0.424  50.573 -21.370  1.00  0.00     0.159 HD
BRANCH  34  36
HETATM   36  C10 UNL     1       0.964  52.698 -21.255  1.00  0.00     0.158 C 
BRANCH  36  37
HETATM   37  C11 UNL     1       0.648  52.983 -22.696  1.00  0.00    -0.025 A 
HETATM   38  C12 UNL     1      -0.131  52.094 -23.446  1.00  0.00     0.011 A 
HETATM   39  C13 UNL     1      -0.424  52.382 -24.773  1.00  0.00     0.018 A 
HETATM   40  C14 UNL     1       0.088  53.549 -25.320  1.00  0.00     0.087 A 
HETATM   41  N2  UNL     1       0.837  54.434 -24.627  1.00  0.00    -0.375 N 
HETATM   42  C15 UNL     1       1.089  54.136 -23.333  1.00  0.00     0.096 A 
ATOM     43  H2  UNL     1       1.196  55.284 -25.060  1.00  0.00     0.164 HD
ENDBRANCH  36  37
ENDBRANCH  34  36
ENDBRANCH   4  33
BRANCH  13  44
HETATM   44  O5  UNL     1      -2.054  49.535 -14.175  1.00  0.00    -0.389 OA
HETATM   45  H36 UNL     1      -2.760  48.905 -14.401  1.00  0.00     0.210 HD
ENDBRANCH  13  44
BRANCH  10  46
HETATM   46  C22 UNL     1       2.073  49.818 -12.891  1.00  0.00    -0.045 A 
HETATM   47  C23 UNL     1       3.289  49.324 -13.109  1.00  0.00     0.087 A 
HETATM   48  C24 UNL     1       4.207  50.010 -12.200  1.00  0.00     0.283 A 
HETATM   49  O3  UNL     1       5.405  49.783 -12.121  1.00  0.00    -0.260 OA
HETATM   50  O4  UNL     1       3.516  50.909 -11.455  1.00  0.00    -0.314 OA
HETATM   51  C25 UNL     1       2.138  50.874 -11.843  1.00  0.00     0.213 A 
ENDBRANCH  10  46
TORSDOF 10
ENDMDL
MODEL 7
REMARK minimizedAffinity -9.92958927
REMARK CNNscore 0.211926758
REMARK CNNaffinity 7.52558279
REMARK  10 active torsions:
REMARK  status: ('A' for Active; 'I' for Inactive)
REMARK    1  A    between atoms: O1_2  and  C2_3 
REMARK    2  A    between atoms: C4_5  and  O2_6 
REMARK    3  A    between atoms: O2_6  and  C5_7 
REMARK    4  A    between atoms: C8_10  and  C9_11 
REMARK    5  A    between atoms: N1_12  and  C10_14 
REMARK    6  A    between atoms: C10_14  and  C11_15 
REMARK    7  A    between atoms: C21_27  and  C22_28 
REMARK    8  A    between atoms: C28_36  and  O5_37 
REMARK    9  A    between atoms: C32_41  and  O6_42 
REMARK   10  A    between atoms: C36_47  and  O8_48 
ROOT
HETATM    1  C5  UNL     1      -2.310  50.298 -22.582  1.00  0.00     0.127 C 
HETATM    2  C6  UNL     1      -1.549  49.043 -22.131  1.00  0.00     0.033 C 
HETATM    3  C7  UNL     1      -0.972  48.963 -20.714  1.00  0.00     0.021 C 
HETATM    4  C8  UNL     1      -1.113  50.203 -19.783  1.00  0.00     0.026 C 
HETATM    5  C16 UNL     1      -1.025  49.682 -18.282  1.00  0.00     0.009 C 
HETATM    6  C17 UNL     1       0.101  50.263 -17.406  1.00  0.00     0.007 C 
HETATM    7  C18 UNL     1       0.236  49.478 -16.096  1.00  0.00     0.013 C 
HETATM    8  C19 UNL     1      -1.066  49.466 -15.253  1.00  0.00    -0.005 C 
HETATM    9  C20 UNL     1      -1.258  50.856 -14.596  1.00  0.00     0.019 C 
HETATM   10  C21 UNL     1      -1.063  48.332 -14.179  1.00  0.00     0.028 C 
HETATM   11  C26 UNL     1      -1.381  47.057 -14.982  1.00  0.00     0.013 C 
HETATM   12  C27 UNL     1      -2.210  47.505 -16.194  1.00  0.00     0.040 C 
HETATM   13  C28 UNL     1      -2.294  49.045 -16.122  1.00  0.00     0.070 C 
HETATM   14  C29 UNL     1      -2.365  49.766 -17.500  1.00  0.00     0.026 C 
HETATM   15  C30 UNL     1      -3.527  49.282 -18.384  1.00  0.00     0.011 C 
HETATM   16  C31 UNL     1      -3.662  50.040 -19.709  1.00  0.00     0.039 C 
HETATM   17  C32 UNL     1      -2.451  50.920 -20.076  1.00  0.00     0.073 C 
HETATM   18  C33 UNL     1      -2.521  51.389 -21.535  1.00  0.00     0.071 C 
ENDROOT
BRANCH   1  19
HETATM   19  O2  UNL     1      -3.598  49.841 -23.029  1.00  0.00    -0.356 OA
BRANCH  19  20
HETATM   20  C4  UNL     1      -3.796  49.925 -24.446  1.00  0.00     0.263 C 
HETATM   21  C3  UNL     1      -2.875  51.039 -24.963  1.00  0.00     0.095 C 
HETATM   22  C2  UNL     1      -2.615  50.951 -26.472  1.00  0.00     0.156 C 
HETATM   23  C36 UNL     1      -3.725  50.119 -27.138  1.00  0.00     0.175 C 
HETATM   24  C34 UNL     1      -3.752  48.706 -26.516  1.00  0.00     0.151 C 
HETATM   25  O7  UNL     1      -3.521  48.696 -25.094  1.00  0.00    -0.354 OA
HETATM   26  C35 UNL     1      -5.081  47.997 -26.794  1.00  0.00     0.042 C 
BRANCH  22  27
HETATM   27  O1  UNL     1      -1.327  50.343 -26.640  1.00  0.00    -0.388 OA
HETATM   28  C1  UNL     1      -0.388  51.184 -27.300  1.00  0.00     0.202 C 
ENDBRANCH  22  27
BRANCH  23  29
HETATM   29  O8  UNL     1      -3.571  50.085 -28.556  1.00  0.00    -0.390 OA
HETATM   30  H50 UNL     1      -4.383  49.724 -28.954  1.00  0.00     0.210 HD
ENDBRANCH  23  29
ENDBRANCH  19  20
ENDBRANCH   1  19
BRANCH  17  31
HETATM   31  O6  UNL     1      -2.527  52.109 -19.265  1.00  0.00    -0.389 OA
HETATM   32  H42 UNL     1      -3.336  52.595 -19.524  1.00  0.00     0.210 HD
ENDBRANCH  17  31
BRANCH   4  33
HETATM   33  C9  UNL     1       0.014  51.210 -20.058  1.00  0.00     0.069 C 
HETATM   34  N1  UNL     1       0.004  52.409 -19.589  1.00  0.00    -0.397 N 
ATOM     35  H1  UNL     1      -0.747  52.761 -18.996  1.00  0.00     0.159 HD
BRANCH  34  36
HETATM   36  C10 UNL     1       1.160  53.232 -19.976  1.00  0.00     0.158 C 
BRANCH  36  37
HETATM   37  C11 UNL     1       1.132  53.540 -21.445  1.00  0.00    -0.025 A 
HETATM   38  C12 UNL     1       0.563  52.640 -22.354  1.00  0.00     0.011 A 
HETATM   39  C13 UNL     1       0.535  52.949 -23.708  1.00  0.00     0.018 A 
HETATM   40  C14 UNL     1       1.093  54.150 -24.119  1.00  0.00     0.087 A 
HETATM   41  N2  UNL     1       1.645  55.047 -23.273  1.00  0.00    -0.375 N 
HETATM   42  C15 UNL     1       1.641  54.726 -21.959  1.00  0.00     0.096 A 
ATOM     43  H2  UNL     1       2.046  55.922 -23.608  1.00  0.00     0.164 HD
ENDBRANCH  36  37
ENDBRANCH  34  36
ENDBRANCH   4  33
BRANCH  13  44
HETATM   44  O5  UNL     1      -3.482  49.359 -15.378  1.00  0.00    -0.389 OA
HETATM   45  H36 UNL     1      -4.261  49.000 -15.837  1.00  0.00     0.210 HD
ENDBRANCH  13  44
BRANCH  10  46
HETATM   46  C22 UNL     1       0.140  48.244 -13.281  1.00  0.00    -0.045 A 
HETATM   47  C23 UNL     1       1.374  47.821 -13.544  1.00  0.00     0.087 A 
HETATM   48  C24 UNL     1       2.124  47.859 -12.288  1.00  0.00     0.283 A 
HETATM   49  O3  UNL     1       3.290  47.514 -12.165  1.00  0.00    -0.260 OA
HETATM   50  O4  UNL     1       1.317  48.311 -11.295  1.00  0.00    -0.314 OA
HETATM   51  C25 UNL     1       0.027  48.606 -11.841  1.00  0.00     0.213 A 
ENDBRANCH  10  46
TORSDOF 10
ENDMDL
MODEL 8
REMARK minimizedAffinity -7.88358307
REMARK CNNscore 0.195124999
REMARK CNNaffinity 6.14467621
REMARK  10 active torsions:
REMARK  status: ('A' for Active; 'I' for Inactive)
REMARK    1  A    between atoms: O1_2  and  C2_3 
REMARK    2  A    between atoms: C4_5  and  O2_6 
REMARK    3  A    between atoms: O2_6  and  C5_7 
REMARK    4  A    between atoms: C8_10  and  C9_11 
REMARK    5  A    between atoms: N1_12  and  C10_14 
REMARK    6  A    between atoms: C10_14  and  C11_15 
REMARK    7  A    between atoms: C21_27  and  C22_28 
REMARK    8  A    between atoms: C28_36  and  O5_37 
REMARK    9  A    between atoms: C32_41  and  O6_42 
REMARK   10  A    between atoms: C36_47  and  O8_48 
ROOT
HETATM    1  C5  UNL     1      -8.143  47.300 -26.516  1.00  0.00     0.127 C 
HETATM    2  C6  UNL     1      -8.385  45.789 -26.646  1.00  0.00     0.033 C 
HETATM    3  C7  UNL     1      -9.022  45.221 -27.918  1.00  0.00     0.021 C 
HETATM    4  C8  UNL     1      -9.479  46.215 -29.028  1.00  0.00     0.026 C 
HETATM    5  C16 UNL     1      -9.504  45.412 -30.401  1.00  0.00     0.009 C 
HETATM    6  C17 UNL     1     -10.850  45.346 -31.147  1.00  0.00     0.007 C 
HETATM    7  C18 UNL     1     -10.794  44.325 -32.290  1.00  0.00     0.013 C 
HETATM    8  C19 UNL     1      -9.686  44.632 -33.331  1.00  0.00    -0.005 C 
HETATM    9  C20 UNL     1     -10.127  45.833 -34.203  1.00  0.00     0.019 C 
HETATM   10  C21 UNL     1      -9.346  43.390 -34.215  1.00  0.00     0.028 C 
HETATM   11  C26 UNL     1      -8.471  42.511 -33.304  1.00  0.00     0.013 C 
HETATM   12  C27 UNL     1      -7.770  43.465 -32.327  1.00  0.00     0.040 C 
HETATM   13  C28 UNL     1      -8.311  44.879 -32.632  1.00  0.00     0.070 C 
HETATM   14  C29 UNL     1      -8.393  45.832 -31.403  1.00  0.00     0.026 C 
HETATM   15  C30 UNL     1      -7.052  46.001 -30.670  1.00  0.00     0.011 C 
HETATM   16  C31 UNL     1      -7.096  47.001 -29.509  1.00  0.00     0.039 C 
HETATM   17  C32 UNL     1      -8.513  47.420 -29.071  1.00  0.00     0.073 C 
HETATM   18  C33 UNL     1      -8.489  48.161 -27.728  1.00  0.00     0.071 C 
ENDROOT
BRANCH   1  19
HETATM   19  O2  UNL     1      -6.742  47.454 -26.232  1.00  0.00    -0.356 OA
BRANCH  19  20
HETATM   20  C4  UNL     1      -6.452  47.881 -24.895  1.00  0.00     0.263 C 
HETATM   21  C3  UNL     1      -5.090  48.589 -24.936  1.00  0.00     0.095 C 
HETATM   22  C2  UNL     1      -4.847  49.495 -23.724  1.00  0.00     0.156 C 
HETATM   23  C36 UNL     1      -5.768  49.067 -22.568  1.00  0.00     0.175 C 
HETATM   24  C34 UNL     1      -7.241  49.161 -23.022  1.00  0.00     0.151 C 
HETATM   25  O7  UNL     1      -7.455  48.739 -24.382  1.00  0.00    -0.354 OA
HETATM   26  C35 UNL     1      -8.161  48.339 -22.112  1.00  0.00     0.042 C 
BRANCH  22  27
HETATM   27  O1  UNL     1      -5.121  50.840 -24.145  1.00  0.00    -0.388 OA
HETATM   28  C1  UNL     1      -4.035  51.445 -24.837  1.00  0.00     0.202 C 
ENDBRANCH  22  27
BRANCH  23  29
HETATM   29  O8  UNL     1      -5.514  49.828 -21.389  1.00  0.00    -0.390 OA
HETATM   30  H50 UNL     1      -5.966  49.407 -20.637  1.00  0.00     0.210 HD
ENDBRANCH  23  29
ENDBRANCH  19  20
ENDBRANCH   1  19
BRANCH  17  31
HETATM   31  O6  UNL     1      -8.997  48.367 -30.045  1.00  0.00    -0.389 OA
HETATM   32  H42 UNL     1      -8.426  49.160 -30.001  1.00  0.00     0.210 HD
ENDBRANCH  17  31
BRANCH   4  33
HETATM   33  C9  UNL     1     -10.879  46.762 -28.713  1.00  0.00     0.069 C 
HETATM   34  N1  UNL     1     -11.068  47.899 -28.139  1.00  0.00    -0.397 N 
ATOM     35  H1  UNL     1     -10.300  48.513 -27.869  1.00  0.00     0.159 HD
BRANCH  34  36
HETATM   36  C10 UNL     1     -12.478  48.244 -27.904  1.00  0.00     0.158 C 
BRANCH  36  37
HETATM   37  C11 UNL     1     -13.149  47.206 -27.050  1.00  0.00    -0.025 A 
HETATM   38  C12 UNL     1     -14.153  46.386 -27.580  1.00  0.00     0.011 A 
HETATM   39  C13 UNL     1     -14.753  45.423 -26.778  1.00  0.00     0.018 A 
HETATM   40  C14 UNL     1     -14.340  45.318 -25.458  1.00  0.00     0.087 A 
HETATM   41  N2  UNL     1     -13.373  46.086 -24.913  1.00  0.00    -0.375 N 
HETATM   42  C15 UNL     1     -12.794  47.001 -25.723  1.00  0.00     0.096 A 
ATOM     43  H2  UNL     1     -13.092  45.982 -23.939  1.00  0.00     0.164 HD
ENDBRANCH  36  37
ENDBRANCH  34  36
ENDBRANCH   4  33
BRANCH  13  44
HETATM   44  O5  UNL     1      -7.426  45.459 -33.604  1.00  0.00    -0.389 OA
HETATM   45  H36 UNL     1      -6.527  45.515 -33.237  1.00  0.00     0.210 HD
ENDBRANCH  13  44
BRANCH  10  46
HETATM   46  C22 UNL     1     -10.500  42.684 -34.874  1.00  0.00    -0.045 A 
HETATM   47  C23 UNL     1     -11.806  42.782 -34.641  1.00  0.00     0.087 A 
HETATM   48  C24 UNL     1     -12.476  41.804 -35.501  1.00  0.00     0.283 A 
HETATM   49  O3  UNL     1     -13.682  41.612 -35.526  1.00  0.00    -0.260 OA
HETATM   50  O4  UNL     1     -11.548  41.142 -36.237  1.00  0.00    -0.314 OA
HETATM   51  C25 UNL     1     -10.249  41.653 -35.919  1.00  0.00     0.213 A 
ENDBRANCH  10  46
TORSDOF 10
ENDMDL
MODEL 9
REMARK minimizedAffinity -9.46727467
REMARK CNNscore 0.193902314
REMARK CNNaffinity 7.14065981
REMARK  10 active torsions:
REMARK  status: ('A' for Active; 'I' for Inactive)
REMARK    1  A    between atoms: O1_2  and  C2_3 
REMARK    2  A    between atoms: C4_5  and  O2_6 
REMARK    3  A    between atoms: O2_6  and  C5_7 
REMARK    4  A    between atoms: C8_10  and  C9_11 
REMARK    5  A    between atoms: N1_12  and  C10_14 
REMARK    6  A    between atoms: C10_14  and  C11_15 
REMARK    7  A    between atoms: C21_27  and  C22_28 
REMARK    8  A    between atoms: C28_36  and  O5_37 
REMARK    9  A    between atoms: C32_41  and  O6_42 
REMARK   10  A    between atoms: C36_47  and  O8_48 
ROOT
HETATM    1  C5  UNL     1      -2.128  51.370 -22.915  1.00  0.00     0.127 C 
HETATM    2  C6  UNL     1      -2.107  50.082 -23.750  1.00  0.00     0.033 C 
HETATM    3  C7  UNL     1      -2.810  48.822 -23.234  1.00  0.00     0.021 C 
HETATM    4  C8  UNL     1      -3.472  48.865 -21.825  1.00  0.00     0.026 C 
HETATM    5  C16 UNL     1      -4.602  47.745 -21.798  1.00  0.00     0.009 C 
HETATM    6  C17 UNL     1      -4.471  46.647 -20.726  1.00  0.00     0.007 C 
HETATM    7  C18 UNL     1      -5.455  45.501 -20.991  1.00  0.00     0.013 C 
HETATM    8  C19 UNL     1      -6.936  45.962 -21.024  1.00  0.00    -0.005 C 
HETATM    9  C20 UNL     1      -7.408  46.256 -19.579  1.00  0.00     0.019 C 
HETATM   10  C21 UNL     1      -7.864  44.915 -21.718  1.00  0.00     0.028 C 
HETATM   11  C26 UNL     1      -7.600  45.119 -23.220  1.00  0.00     0.013 C 
HETATM   12  C27 UNL     1      -7.176  46.584 -23.389  1.00  0.00     0.040 C 
HETATM   13  C28 UNL     1      -7.121  47.190 -21.970  1.00  0.00     0.070 C 
HETATM   14  C29 UNL     1      -6.051  48.305 -21.771  1.00  0.00     0.026 C 
HETATM   15  C30 UNL     1      -6.190  49.470 -22.764  1.00  0.00     0.011 C 
HETATM   16  C31 UNL     1      -5.197  50.614 -22.528  1.00  0.00     0.039 C 
HETATM   17  C32 UNL     1      -4.042  50.278 -21.565  1.00  0.00     0.073 C 
HETATM   18  C33 UNL     1      -2.937  51.341 -21.622  1.00  0.00     0.071 C 
ENDROOT
BRANCH   1  19
HETATM   19  O2  UNL     1      -2.673  52.388 -23.771  1.00  0.00    -0.356 OA
BRANCH  19  20
HETATM   20  C4  UNL     1      -2.136  52.394 -25.101  1.00  0.00     0.263 C 
HETATM   21  C3  UNL     1      -0.679  52.863 -24.994  1.00  0.00     0.095 C 
HETATM   22  C2  UNL     1       0.164  52.490 -26.219  1.00  0.00     0.156 C 
HETATM   23  C36 UNL     1      -0.763  52.221 -27.419  1.00  0.00     0.175 C 
HETATM   24  C34 UNL     1      -1.737  51.075 -27.069  1.00  0.00     0.151 C 
HETATM   25  O7  UNL     1      -2.216  51.119 -25.711  1.00  0.00    -0.354 OA
HETATM   26  C35 UNL     1      -2.948  51.064 -28.008  1.00  0.00     0.042 C 
BRANCH  22  27
HETATM   27  O1  UNL     1       0.922  51.324 -25.867  1.00  0.00    -0.388 OA
HETATM   28  C1  UNL     1       2.281  51.389 -26.282  1.00  0.00     0.202 C 
ENDBRANCH  22  27
BRANCH  23  29
HETATM   29  O8  UNL     1      -0.016  51.956 -28.605  1.00  0.00    -0.390 OA
HETATM   30  H50 UNL     1      -0.617  51.985 -29.370  1.00  0.00     0.210 HD
ENDBRANCH  23  29
ENDBRANCH  19  20
ENDBRANCH   1  19
BRANCH  17  31
HETATM   31  O6  UNL     1      -4.577  50.323 -20.227  1.00  0.00    -0.389 OA
HETATM   32  H42 UNL     1      -4.855  51.244 -20.047  1.00  0.00     0.210 HD
ENDBRANCH  17  31
BRANCH   4  33
HETATM   33  C9  UNL     1      -2.428  48.586 -20.734  1.00  0.00     0.069 C 
HETATM   34  N1  UNL     1      -2.096  49.460 -19.848  1.00  0.00    -0.397 N 
ATOM     35  H1  UNL     1      -2.516  50.388 -19.809  1.00  0.00     0.159 HD
BRANCH  34  36
HETATM   36  C10 UNL     1      -1.066  49.015 -18.898  1.00  0.00     0.158 C 
BRANCH  36  37
HETATM   37  C11 UNL     1      -0.329  50.188 -18.318  1.00  0.00    -0.025 A 
HETATM   38  C12 UNL     1       0.296  50.092 -17.069  1.00  0.00     0.011 A 
HETATM   39  C13 UNL     1       0.984  51.184 -16.555  1.00  0.00     0.018 A 
HETATM   40  C14 UNL     1       1.014  52.353 -17.302  1.00  0.00     0.087 A 
HETATM   41  N2  UNL     1       0.429  52.482 -18.512  1.00  0.00    -0.375 N 
HETATM   42  C15 UNL     1      -0.217  51.396 -18.995  1.00  0.00     0.096 A 
ATOM     43  H2  UNL     1       0.471  53.355 -19.036  1.00  0.00     0.164 HD
ENDBRANCH  36  37
ENDBRANCH  34  36
ENDBRANCH   4  33
BRANCH  13  44
HETATM   44  O5  UNL     1      -8.419  47.749 -21.710  1.00  0.00    -0.389 OA
HETATM   45  H36 UNL     1      -8.616  48.441 -22.365  1.00  0.00     0.210 HD
ENDBRANCH  13  44
BRANCH  10  46
HETATM   46  C22 UNL     1      -7.771  43.494 -21.235  1.00  0.00    -0.045 A 
HETATM   47  C23 UNL     1      -8.199  42.946 -20.100  1.00  0.00     0.087 A 
HETATM   48  C24 UNL     1      -7.766  41.548 -20.100  1.00  0.00     0.283 A 
HETATM   49  O3  UNL     1      -7.973  40.757 -19.193  1.00  0.00    -0.260 OA
HETATM   50  O4  UNL     1      -7.086  41.288 -21.245  1.00  0.00    -0.314 OA
HETATM   51  C25 UNL     1      -7.055  42.471 -22.048  1.00  0.00     0.213 A 
ENDBRANCH  10  46
TORSDOF 10
ENDMDL
