MODEL 1
REMARK minimizedAffinity -7.78323364
REMARK  13 active torsions:
REMARK  status: ('A' for Active; 'I' for Inactive)
REMARK    1  A    between atoms: C2_2  and  C3_3 
REMARK    2  A    between atoms: C3_3  and  C4_4 
REMARK    3  A    between atoms: C4_4  and  C5_5 
REMARK    4  A    between atoms: C5_5  and  C6_6 
REMARK    5  A    between atoms: C6_6  and  C7_7 
REMARK    6  A    between atoms: C7_7  and  C8_8 
REMARK    7  A    between atoms: C8_8  and  C9_9 
REMARK    8  A    between atoms: C9_9  and  C10_10 
REMARK    9  A    between atoms: C10_10  and  C11_11 
REMARK   10  A    between atoms: C11_11  and  C12_12 
REMARK   11  A    between atoms: C12_12  and  C13_13 
REMARK   12  A    between atoms: C13_13  and  O2_15 
REMARK   13  A    between atoms: O2_15  and  C14_16 
ROOT
HETATM    1  C14 UNL     1       4.976  -6.740  28.508  1.00  0.00     0.140 C 
HETATM    2  C15 UNL     1       5.653  -6.810  27.121  1.00  0.00     0.034 C 
HETATM    3  C16 UNL     1       7.106  -6.344  27.322  1.00  0.00     0.008 C 
HETATM    4  C17 UNL     1       7.250  -6.231  28.837  1.00  0.00     0.001 C 
HETATM    5  C18 UNL     1       8.388  -5.384  29.414  1.00  0.00    -0.004 C 
HETATM    6  C19 UNL     1       9.767  -5.869  28.926  1.00  0.00     0.010 C 
HETATM    7  C20 UNL     1      10.934  -5.072  29.528  1.00  0.00     0.035 C 
HETATM    8  C21 UNL     1      10.449  -4.107  30.582  1.00  0.00    -0.068 C 
HETATM    9  C22 UNL     1      10.721  -2.795  30.455  1.00  0.00     0.053 C 
HETATM   10  C23 UNL     1      10.046  -1.787  31.302  1.00  0.00     0.149 C 
HETATM   11  O3  UNL     1      10.393  -0.612  31.246  1.00  0.00    -0.293 OA
HETATM   12  C24 UNL     1       8.869  -2.249  32.120  1.00  0.00     0.084 C 
HETATM   13  C25 UNL     1       9.169  -3.615  32.717  1.00  0.00     0.022 C 
HETATM   14  C26 UNL     1       9.542  -4.702  31.667  1.00  0.00    -0.016 C 
HETATM   15  C27 UNL     1      10.350  -5.769  32.462  1.00  0.00     0.020 C 
HETATM   16  C28 UNL     1       8.323  -5.449  30.978  1.00  0.00     0.002 C 
HETATM   17  C29 UNL     1       6.912  -5.114  31.524  1.00  0.00     0.007 C 
HETATM   18  C30 UNL     1       5.782  -5.890  30.820  1.00  0.00     0.012 C 
HETATM   19  C31 UNL     1       5.860  -5.746  29.294  1.00  0.00    -0.013 C 
HETATM   20  C32 UNL     1       5.520  -4.286  28.897  1.00  0.00     0.018 C 
ENDROOT
BRANCH   1  21
HETATM   21  O2  UNL     1       3.621  -6.290  28.428  1.00  0.00    -0.315 OA
BRANCH  21  22
HETATM   22  C13 UNL     1       2.698  -7.257  28.169  1.00  0.00     0.259 C 
HETATM   23  O1  UNL     1       1.513  -7.203  28.466  1.00  0.00    -0.265 OA
BRANCH  22  24
HETATM   24  C12 UNL     1       3.350  -8.429  27.476  1.00  0.00     0.111 C 
BRANCH  24  25
HETATM   25  C11 UNL     1       2.406  -9.102  26.483  1.00  0.00     0.010 C 
BRANCH  25  26
HETATM   26  C10 UNL     1       2.946 -10.398  25.866  1.00  0.00     0.000 C 
BRANCH  26  27
HETATM   27  C9  UNL     1       2.333 -10.798  24.519  1.00  0.00     0.000 C 
BRANCH  27  28
HETATM   28  C8  UNL     1       2.574  -9.821  23.363  1.00  0.00     0.000 C 
BRANCH  28  29
HETATM   29  C7  UNL     1       1.323  -9.136  22.803  1.00  0.00     0.000 C 
BRANCH  29  30
HETATM   30  C6  UNL     1       1.341  -9.000  21.279  1.00  0.00     0.000 C 
BRANCH  30  31
HETATM   31  C5  UNL     1       1.319  -7.543  20.802  1.00  0.00     0.000 C 
BRANCH  31  32
HETATM   32  C4  UNL     1      -0.021  -7.133  20.184  1.00  0.00     0.000 C 
BRANCH  32  33
HETATM   33  C3  UNL     1      -0.797  -6.200  21.118  1.00  0.00    -0.000 C 
BRANCH  33  34
HETATM   34  C2  UNL     1      -1.879  -6.919  21.928  1.00  0.00    -0.005 C 
HETATM   35  C1  UNL     1      -1.582  -6.975  23.419  1.00  0.00     0.005 C 
ENDBRANCH  33  34
ENDBRANCH  32  33
ENDBRANCH  31  32
ENDBRANCH  30  31
ENDBRANCH  29  30
ENDBRANCH  28  29
ENDBRANCH  27  28
ENDBRANCH  26  27
ENDBRANCH  25  26
ENDBRANCH  24  25
ENDBRANCH  22  24
ENDBRANCH  21  22
ENDBRANCH   1  21
TORSDOF 13
ENDMDL
MODEL 2
REMARK minimizedAffinity -7.67364931
REMARK  13 active torsions:
REMARK  status: ('A' for Active; 'I' for Inactive)
REMARK    1  A    between atoms: C2_2  and  C3_3 
REMARK    2  A    between atoms: C3_3  and  C4_4 
REMARK    3  A    between atoms: C4_4  and  C5_5 
REMARK    4  A    between atoms: C5_5  and  C6_6 
REMARK    5  A    between atoms: C6_6  and  C7_7 
REMARK    6  A    between atoms: C7_7  and  C8_8 
REMARK    7  A    between atoms: C8_8  and  C9_9 
REMARK    8  A    between atoms: C9_9  and  C10_10 
REMARK    9  A    between atoms: C10_10  and  C11_11 
REMARK   10  A    between atoms: C11_11  and  C12_12 
REMARK   11  A    between atoms: C12_12  and  C13_13 
REMARK   12  A    between atoms: C13_13  and  O2_15 
REMARK   13  A    between atoms: O2_15  and  C14_16 
ROOT
HETATM    1  C14 UNL     1       6.867  -7.021  29.181  1.00  0.00     0.140 C 
HETATM    2  C15 UNL     1       6.099  -5.713  29.478  1.00  0.00     0.034 C 
HETATM    3  C16 UNL     1       4.681  -5.902  28.909  1.00  0.00     0.008 C 
HETATM    4  C17 UNL     1       4.640  -7.373  28.505  1.00  0.00     0.001 C 
HETATM    5  C18 UNL     1       3.576  -7.839  27.508  1.00  0.00    -0.004 C 
HETATM    6  C19 UNL     1       2.150  -7.532  28.005  1.00  0.00     0.010 C 
HETATM    7  C20 UNL     1       1.057  -8.034  27.051  1.00  0.00     0.035 C 
HETATM    8  C21 UNL     1       1.646  -8.855  25.929  1.00  0.00    -0.068 C 
HETATM    9  C22 UNL     1       1.419  -8.493  24.653  1.00  0.00     0.053 C 
HETATM   10  C23 UNL     1       2.186  -9.092  23.539  1.00  0.00     0.149 C 
HETATM   11  O3  UNL     1       1.881  -8.831  22.379  1.00  0.00    -0.293 OA
HETATM   12  C24 UNL     1       3.394  -9.916  23.897  1.00  0.00     0.084 C 
HETATM   13  C25 UNL     1       3.081 -10.780  25.108  1.00  0.00     0.022 C 
HETATM   14  C26 UNL     1       2.598  -9.981  26.354  1.00  0.00    -0.016 C 
HETATM   15  C27 UNL     1       1.803 -11.010  27.208  1.00  0.00     0.020 C 
HETATM   16  C28 UNL     1       3.740  -9.380  27.278  1.00  0.00     0.002 C 
HETATM   17  C29 UNL     1       5.195  -9.772  26.918  1.00  0.00     0.007 C 
HETATM   18  C30 UNL     1       6.246  -9.168  27.869  1.00  0.00     0.012 C 
HETATM   19  C31 UNL     1       6.075  -7.650  28.013  1.00  0.00    -0.013 C 
HETATM   20  C32 UNL     1       6.445  -6.961  26.674  1.00  0.00     0.018 C 
ENDROOT
BRANCH   1  21
HETATM   21  O2  UNL     1       8.230  -6.779  28.824  1.00  0.00    -0.315 OA
BRANCH  21  22
HETATM   22  C13 UNL     1       9.147  -7.573  29.443  1.00  0.00     0.259 C 
HETATM   23  O1  UNL     1       9.126  -8.796  29.465  1.00  0.00    -0.265 OA
BRANCH  22  24
HETATM   24  C12 UNL     1      10.194  -6.726  30.125  1.00  0.00     0.111 C 
BRANCH  24  25
HETATM   25  C11 UNL     1       9.649  -5.360  30.531  1.00  0.00     0.010 C 
BRANCH  25  26
HETATM   26  C10 UNL     1       8.895  -5.344  31.866  1.00  0.00     0.000 C 
BRANCH  26  27
HETATM   27  C9  UNL     1       9.743  -5.630  33.111  1.00  0.00     0.000 C 
BRANCH  27  28
HETATM   28  C8  UNL     1       9.144  -5.168  34.443  1.00  0.00     0.000 C 
BRANCH  28  29
HETATM   29  C7  UNL     1       9.643  -3.814  34.960  1.00  0.00     0.000 C 
BRANCH  29  30
HETATM   30  C6  UNL     1      11.090  -3.854  35.456  1.00  0.00     0.000 C 
BRANCH  30  31
HETATM   31  C5  UNL     1      12.071  -3.139  34.518  1.00  0.00     0.000 C 
BRANCH  31  32
HETATM   32  C4  UNL     1      11.383  -2.159  33.563  1.00  0.00     0.000 C 
BRANCH  32  33
HETATM   33  C3  UNL     1      11.674  -2.515  32.102  1.00  0.00    -0.000 C 
BRANCH  33  34
HETATM   34  C2  UNL     1      10.647  -1.939  31.123  1.00  0.00    -0.005 C 
HETATM   35  C1  UNL     1       9.273  -1.728  31.742  1.00  0.00     0.005 C 
ENDBRANCH  33  34
ENDBRANCH  32  33
ENDBRANCH  31  32
ENDBRANCH  30  31
ENDBRANCH  29  30
ENDBRANCH  28  29
ENDBRANCH  27  28
ENDBRANCH  26  27
ENDBRANCH  25  26
ENDBRANCH  24  25
ENDBRANCH  22  24
ENDBRANCH  21  22
ENDBRANCH   1  21
TORSDOF 13
ENDMDL
MODEL 3
REMARK minimizedAffinity -7.6069169
REMARK  13 active torsions:
REMARK  status: ('A' for Active; 'I' for Inactive)
REMARK    1  A    between atoms: C2_2  and  C3_3 
REMARK    2  A    between atoms: C3_3  and  C4_4 
REMARK    3  A    between atoms: C4_4  and  C5_5 
REMARK    4  A    between atoms: C5_5  and  C6_6 
REMARK    5  A    between atoms: C6_6  and  C7_7 
REMARK    6  A    between atoms: C7_7  and  C8_8 
REMARK    7  A    between atoms: C8_8  and  C9_9 
REMARK    8  A    between atoms: C9_9  and  C10_10 
REMARK    9  A    between atoms: C10_10  and  C11_11 
REMARK   10  A    between atoms: C11_11  and  C12_12 
REMARK   11  A    between atoms: C12_12  and  C13_13 
REMARK   12  A    between atoms: C13_13  and  O2_15 
REMARK   13  A    between atoms: O2_15  and  C14_16 
ROOT
HETATM    1  C14 UNL     1       7.144  -7.242  28.937  1.00  0.00     0.140 C 
HETATM    2  C15 UNL     1       6.443  -5.905  29.267  1.00  0.00     0.034 C 
HETATM    3  C16 UNL     1       4.992  -6.041  28.771  1.00  0.00     0.008 C 
HETATM    4  C17 UNL     1       4.874  -7.510  28.376  1.00  0.00     0.001 C 
HETATM    5  C18 UNL     1       3.744  -7.938  27.436  1.00  0.00    -0.004 C 
HETATM    6  C19 UNL     1       2.358  -7.574  28.003  1.00  0.00     0.010 C 
HETATM    7  C20 UNL     1       1.200  -8.036  27.108  1.00  0.00     0.035 C 
HETATM    8  C21 UNL     1       1.699  -8.882  25.961  1.00  0.00    -0.068 C 
HETATM    9  C22 UNL     1       1.421  -8.515  24.697  1.00  0.00     0.053 C 
HETATM   10  C23 UNL     1       2.107  -9.145  23.547  1.00  0.00     0.149 C 
HETATM   11  O3  UNL     1       1.755  -8.875  22.404  1.00  0.00    -0.293 OA
HETATM   12  C24 UNL     1       3.300 -10.014  23.848  1.00  0.00     0.084 C 
HETATM   13  C25 UNL     1       3.015 -10.862  25.077  1.00  0.00     0.022 C 
HETATM   14  C26 UNL     1       2.627 -10.042  26.342  1.00  0.00    -0.016 C 
HETATM   15  C27 UNL     1       1.837 -11.038  27.240  1.00  0.00     0.020 C 
HETATM   16  C28 UNL     1       3.836  -9.484  27.205  1.00  0.00     0.002 C 
HETATM   17  C29 UNL     1       5.255  -9.932  26.774  1.00  0.00     0.007 C 
HETATM   18  C30 UNL     1       6.376  -9.367  27.668  1.00  0.00     0.012 C 
HETATM   19  C31 UNL     1       6.270  -7.843  27.814  1.00  0.00    -0.013 C 
HETATM   20  C32 UNL     1       6.599  -7.172  26.455  1.00  0.00     0.018 C 
ENDROOT
BRANCH   1  21
HETATM   21  O2  UNL     1       8.495  -7.054  28.511  1.00  0.00    -0.315 OA
BRANCH  21  22
HETATM   22  C13 UNL     1       9.282  -6.335  29.358  1.00  0.00     0.259 C 
HETATM   23  O1  UNL     1       9.635  -6.694  30.473  1.00  0.00    -0.265 OA
BRANCH  22  24
HETATM   24  C12 UNL     1       9.645  -5.009  28.735  1.00  0.00     0.111 C 
BRANCH  24  25
HETATM   25  C11 UNL     1      11.077  -4.596  29.064  1.00  0.00     0.010 C 
BRANCH  25  26
HETATM   26  C10 UNL     1      11.280  -4.076  30.492  1.00  0.00     0.000 C 
BRANCH  26  27
HETATM   27  C9  UNL     1      10.845  -2.626  30.739  1.00  0.00     0.000 C 
BRANCH  27  28
HETATM   28  C8  UNL     1       9.676  -2.441  31.713  1.00  0.00     0.000 C 
BRANCH  28  29
HETATM   29  C7  UNL     1       8.435  -3.293  31.427  1.00  0.00     0.000 C 
BRANCH  29  30
HETATM   30  C6  UNL     1       8.006  -4.153  32.619  1.00  0.00     0.000 C 
BRANCH  30  31
HETATM   31  C5  UNL     1       9.189  -4.743  33.395  1.00  0.00     0.000 C 
BRANCH  31  32
HETATM   32  C4  UNL     1       8.998  -4.691  34.914  1.00  0.00     0.000 C 
BRANCH  32  33
HETATM   33  C3  UNL     1      10.143  -3.932  35.590  1.00  0.00    -0.000 C 
BRANCH  33  34
HETATM   34  C2  UNL     1      11.304  -3.621  34.643  1.00  0.00    -0.005 C 
HETATM   35  C1  UNL     1      12.384  -2.754  35.273  1.00  0.00     0.005 C 
ENDBRANCH  33  34
ENDBRANCH  32  33
ENDBRANCH  31  32
ENDBRANCH  30  31
ENDBRANCH  29  30
ENDBRANCH  28  29
ENDBRANCH  27  28
ENDBRANCH  26  27
ENDBRANCH  25  26
ENDBRANCH  24  25
ENDBRANCH  22  24
ENDBRANCH  21  22
ENDBRANCH   1  21
TORSDOF 13
ENDMDL
MODEL 4
REMARK minimizedAffinity -7.58494854
REMARK  13 active torsions:
REMARK  status: ('A' for Active; 'I' for Inactive)
REMARK    1  A    between atoms: C2_2  and  C3_3 
REMARK    2  A    between atoms: C3_3  and  C4_4 
REMARK    3  A    between atoms: C4_4  and  C5_5 
REMARK    4  A    between atoms: C5_5  and  C6_6 
REMARK    5  A    between atoms: C6_6  and  C7_7 
REMARK    6  A    between atoms: C7_7  and  C8_8 
REMARK    7  A    between atoms: C8_8  and  C9_9 
REMARK    8  A    between atoms: C9_9  and  C10_10 
REMARK    9  A    between atoms: C10_10  and  C11_11 
REMARK   10  A    between atoms: C11_11  and  C12_12 
REMARK   11  A    between atoms: C12_12  and  C13_13 
REMARK   12  A    between atoms: C13_13  and  O2_15 
REMARK   13  A    between atoms: O2_15  and  C14_16 
ROOT
HETATM    1  C14 UNL     1      10.485  -6.707  27.856  1.00  0.00     0.140 C 
HETATM    2  C15 UNL     1       9.903  -7.910  28.632  1.00  0.00     0.034 C 
HETATM    3  C16 UNL     1       9.466  -7.371  30.006  1.00  0.00     0.008 C 
HETATM    4  C17 UNL     1       9.622  -5.859  29.875  1.00  0.00     0.001 C 
HETATM    5  C18 UNL     1       9.711  -5.008  31.144  1.00  0.00    -0.004 C 
HETATM    6  C19 UNL     1       8.477  -5.196  32.048  1.00  0.00     0.010 C 
HETATM    7  C20 UNL     1       8.511  -4.317  33.306  1.00  0.00     0.035 C 
HETATM    8  C21 UNL     1       9.677  -3.357  33.271  1.00  0.00    -0.068 C 
HETATM    9  C22 UNL     1      10.573  -3.367  34.273  1.00  0.00     0.053 C 
HETATM   10  C23 UNL     1      11.862  -2.650  34.155  1.00  0.00     0.149 C 
HETATM   11  O3  UNL     1      12.611  -2.579  35.124  1.00  0.00    -0.293 OA
HETATM   12  C24 UNL     1      12.243  -2.135  32.793  1.00  0.00     0.084 C 
HETATM   13  C25 UNL     1      11.019  -1.544  32.111  1.00  0.00     0.022 C 
HETATM   14  C26 UNL     1       9.819  -2.528  31.988  1.00  0.00    -0.016 C 
HETATM   15  C27 UNL     1       8.566  -1.618  31.840  1.00  0.00     0.020 C 
HETATM   16  C28 UNL     1       9.847  -3.502  30.735  1.00  0.00     0.002 C 
HETATM   17  C29 UNL     1      10.983  -3.271  29.708  1.00  0.00     0.007 C 
HETATM   18  C30 UNL     1      10.935  -4.241  28.511  1.00  0.00     0.012 C 
HETATM   19  C31 UNL     1      10.859  -5.703  28.969  1.00  0.00    -0.013 C 
HETATM   20  C32 UNL     1      12.202  -6.105  29.632  1.00  0.00     0.018 C 
ENDROOT
BRANCH   1  21
HETATM   21  O2  UNL     1      11.621  -7.069  27.068  1.00  0.00    -0.315 OA
BRANCH  21  22
HETATM   22  C13 UNL     1      11.409  -7.120  25.724  1.00  0.00     0.259 C 
HETATM   23  O1  UNL     1      12.267  -7.337  24.879  1.00  0.00    -0.265 OA
BRANCH  22  24
HETATM   24  C12 UNL     1       9.957  -6.848  25.414  1.00  0.00     0.111 C 
BRANCH  24  25
HETATM   25  C11 UNL     1       9.184  -8.132  25.125  1.00  0.00     0.010 C 
BRANCH  25  26
HETATM   26  C10 UNL     1       7.659  -7.983  25.166  1.00  0.00     0.000 C 
BRANCH  26  27
HETATM   27  C9  UNL     1       6.880  -9.240  25.572  1.00  0.00     0.000 C 
BRANCH  27  28
HETATM   28  C8  UNL     1       5.438  -9.007  26.036  1.00  0.00     0.000 C 
BRANCH  28  29
HETATM   29  C7  UNL     1       5.270  -8.642  27.515  1.00  0.00     0.000 C 
BRANCH  29  30
HETATM   30  C6  UNL     1       3.985  -7.861  27.801  1.00  0.00     0.000 C 
BRANCH  30  31
HETATM   31  C5  UNL     1       4.238  -6.505  28.469  1.00  0.00     0.000 C 
BRANCH  31  32
HETATM   32  C4  UNL     1       5.636  -5.947  28.188  1.00  0.00     0.000 C 
BRANCH  32  33
HETATM   33  C3  UNL     1       6.131  -5.083  29.352  1.00  0.00    -0.000 C 
BRANCH  33  34
HETATM   34  C2  UNL     1       4.998  -4.403  30.125  1.00  0.00    -0.005 C 
HETATM   35  C1  UNL     1       5.448  -3.177  30.905  1.00  0.00     0.005 C 
ENDBRANCH  33  34
ENDBRANCH  32  33
ENDBRANCH  31  32
ENDBRANCH  30  31
ENDBRANCH  29  30
ENDBRANCH  28  29
ENDBRANCH  27  28
ENDBRANCH  26  27
ENDBRANCH  25  26
ENDBRANCH  24  25
ENDBRANCH  22  24
ENDBRANCH  21  22
ENDBRANCH   1  21
TORSDOF 13
ENDMDL
MODEL 5
REMARK minimizedAffinity -7.46454954
REMARK  13 active torsions:
REMARK  status: ('A' for Active; 'I' for Inactive)
REMARK    1  A    between atoms: C2_2  and  C3_3 
REMARK    2  A    between atoms: C3_3  and  C4_4 
REMARK    3  A    between atoms: C4_4  and  C5_5 
REMARK    4  A    between atoms: C5_5  and  C6_6 
REMARK    5  A    between atoms: C6_6  and  C7_7 
REMARK    6  A    between atoms: C7_7  and  C8_8 
REMARK    7  A    between atoms: C8_8  and  C9_9 
REMARK    8  A    between atoms: C9_9  and  C10_10 
REMARK    9  A    between atoms: C10_10  and  C11_11 
REMARK   10  A    between atoms: C11_11  and  C12_12 
REMARK   11  A    between atoms: C12_12  and  C13_13 
REMARK   12  A    between atoms: C13_13  and  O2_15 
REMARK   13  A    between atoms: O2_15  and  C14_16 
ROOT
HETATM    1  C14 UNL     1       8.005  -7.698  28.490  1.00  0.00     0.140 C 
HETATM    2  C15 UNL     1       9.397  -8.304  28.201  1.00  0.00     0.034 C 
HETATM    3  C16 UNL     1      10.385  -7.596  29.145  1.00  0.00     0.008 C 
HETATM    4  C17 UNL     1       9.488  -6.776  30.068  1.00  0.00     0.001 C 
HETATM    5  C18 UNL     1      10.095  -5.607  30.848  1.00  0.00    -0.004 C 
HETATM    6  C19 UNL     1      11.266  -6.059  31.742  1.00  0.00     0.010 C 
HETATM    7  C20 UNL     1      11.863  -4.917  32.576  1.00  0.00     0.035 C 
HETATM    8  C21 UNL     1      11.048  -3.654  32.437  1.00  0.00    -0.068 C 
HETATM    9  C22 UNL     1      11.643  -2.526  32.007  1.00  0.00     0.053 C 
HETATM   10  C23 UNL     1      10.846  -1.349  31.597  1.00  0.00     0.149 C 
HETATM   11  O3  UNL     1      11.412  -0.297  31.318  1.00  0.00    -0.293 OA
HETATM   12  C24 UNL     1       9.363  -1.543  31.430  1.00  0.00     0.084 C 
HETATM   13  C25 UNL     1       8.834  -2.420  32.553  1.00  0.00     0.022 C 
HETATM   14  C26 UNL     1       9.539  -3.804  32.668  1.00  0.00    -0.016 C 
HETATM   15  C27 UNL     1       9.303  -4.255  34.139  1.00  0.00     0.020 C 
HETATM   16  C28 UNL     1       8.976  -4.950  31.726  1.00  0.00     0.002 C 
HETATM   17  C29 UNL     1       7.708  -4.606  30.905  1.00  0.00     0.007 C 
HETATM   18  C30 UNL     1       7.209  -5.771  30.029  1.00  0.00     0.012 C 
HETATM   19  C31 UNL     1       8.331  -6.339  29.149  1.00  0.00    -0.013 C 
HETATM   20  C32 UNL     1       8.719  -5.294  28.071  1.00  0.00     0.018 C 
ENDROOT
BRANCH   1  21
HETATM   21  O2  UNL     1       7.228  -7.535  27.301  1.00  0.00    -0.315 OA
BRANCH  21  22
HETATM   22  C13 UNL     1       6.171  -8.384  27.172  1.00  0.00     0.259 C 
HETATM   23  O1  UNL     1       6.175  -9.429  26.536  1.00  0.00    -0.265 OA
BRANCH  22  24
HETATM   24  C12 UNL     1       4.972  -7.840  27.911  1.00  0.00     0.111 C 
BRANCH  24  25
HETATM   25  C11 UNL     1       3.687  -8.567  27.527  1.00  0.00     0.010 C 
BRANCH  25  26
HETATM   26  C10 UNL     1       2.412  -7.726  27.661  1.00  0.00     0.000 C 
BRANCH  26  27
HETATM   27  C9  UNL     1       1.390  -7.883  26.529  1.00  0.00     0.000 C 
BRANCH  27  28
HETATM   28  C8  UNL     1       1.941  -8.435  25.210  1.00  0.00     0.000 C 
BRANCH  28  29
HETATM   29  C7  UNL     1       1.647  -9.914  24.937  1.00  0.00     0.000 C 
BRANCH  29  30
HETATM   30  C6  UNL     1       1.307 -10.201  23.473  1.00  0.00     0.000 C 
BRANCH  30  31
HETATM   31  C5  UNL     1       1.646  -9.038  22.533  1.00  0.00     0.000 C 
BRANCH  31  32
HETATM   32  C4  UNL     1       0.541  -8.746  21.514  1.00  0.00     0.000 C 
BRANCH  32  33
HETATM   33  C3  UNL     1       0.990  -7.692  20.498  1.00  0.00    -0.000 C 
BRANCH  33  34
HETATM   34  C2  UNL     1       0.018  -6.515  20.377  1.00  0.00    -0.005 C 
HETATM   35  C1  UNL     1      -1.039  -6.489  21.471  1.00  0.00     0.005 C 
ENDBRANCH  33  34
ENDBRANCH  32  33
ENDBRANCH  31  32
ENDBRANCH  30  31
ENDBRANCH  29  30
ENDBRANCH  28  29
ENDBRANCH  27  28
ENDBRANCH  26  27
ENDBRANCH  25  26
ENDBRANCH  24  25
ENDBRANCH  22  24
ENDBRANCH  21  22
ENDBRANCH   1  21
TORSDOF 13
ENDMDL
MODEL 6
REMARK minimizedAffinity -7.38384104
REMARK  13 active torsions:
REMARK  status: ('A' for Active; 'I' for Inactive)
REMARK    1  A    between atoms: C2_2  and  C3_3 
REMARK    2  A    between atoms: C3_3  and  C4_4 
REMARK    3  A    between atoms: C4_4  and  C5_5 
REMARK    4  A    between atoms: C5_5  and  C6_6 
REMARK    5  A    between atoms: C6_6  and  C7_7 
REMARK    6  A    between atoms: C7_7  and  C8_8 
REMARK    7  A    between atoms: C8_8  and  C9_9 
REMARK    8  A    between atoms: C9_9  and  C10_10 
REMARK    9  A    between atoms: C10_10  and  C11_11 
REMARK   10  A    between atoms: C11_11  and  C12_12 
REMARK   11  A    between atoms: C12_12  and  C13_13 
REMARK   12  A    between atoms: C13_13  and  O2_15 
REMARK   13  A    between atoms: O2_15  and  C14_16 
ROOT
HETATM    1  C14 UNL     1       7.720  -7.871  28.711  1.00  0.00     0.140 C 
HETATM    2  C15 UNL     1       9.073  -8.402  28.184  1.00  0.00     0.034 C 
HETATM    3  C16 UNL     1      10.167  -7.677  28.987  1.00  0.00     0.008 C 
HETATM    4  C17 UNL     1       9.395  -6.928  30.069  1.00  0.00     0.001 C 
HETATM    5  C18 UNL     1      10.069  -5.755  30.786  1.00  0.00    -0.004 C 
HETATM    6  C19 UNL     1      11.385  -6.179  31.467  1.00  0.00     0.010 C 
HETATM    7  C20 UNL     1      12.059  -5.035  32.239  1.00  0.00     0.035 C 
HETATM    8  C21 UNL     1      11.181  -3.808  32.275  1.00  0.00    -0.068 C 
HETATM    9  C22 UNL     1      11.653  -2.641  31.799  1.00  0.00     0.053 C 
HETATM   10  C23 UNL     1      10.753  -1.491  31.562  1.00  0.00     0.149 C 
HETATM   11  O3  UNL     1      11.224  -0.405  31.237  1.00  0.00    -0.293 OA
HETATM   12  C24 UNL     1       9.271  -1.749  31.624  1.00  0.00     0.084 C 
HETATM   13  C25 UNL     1       8.965  -2.683  32.784  1.00  0.00     0.022 C 
HETATM   14  C26 UNL     1       9.735  -4.035  32.736  1.00  0.00    -0.016 C 
HETATM   15  C27 UNL     1       9.755  -4.539  34.208  1.00  0.00     0.020 C 
HETATM   16  C28 UNL     1       9.078  -5.177  31.852  1.00  0.00     0.002 C 
HETATM   17  C29 UNL     1       7.682  -4.869  31.255  1.00  0.00     0.007 C 
HETATM   18  C30 UNL     1       7.100  -6.030  30.425  1.00  0.00     0.012 C 
HETATM   19  C31 UNL     1       8.090  -6.518  29.360  1.00  0.00    -0.013 C 
HETATM   20  C32 UNL     1       8.258  -5.424  28.274  1.00  0.00     0.018 C 
ENDROOT
BRANCH   1  21
HETATM   21  O2  UNL     1       6.758  -7.709  27.666  1.00  0.00    -0.315 OA
BRANCH  21  22
HETATM   22  C13 UNL     1       5.813  -8.686  27.584  1.00  0.00     0.259 C 
HETATM   23  O1  UNL     1       6.036  -9.874  27.394  1.00  0.00    -0.265 OA
BRANCH  22  24
HETATM   24  C12 UNL     1       4.434  -8.092  27.738  1.00  0.00     0.111 C 
BRANCH  24  25
HETATM   25  C11 UNL     1       3.355  -8.992  27.142  1.00  0.00     0.010 C 
BRANCH  25  26
HETATM   26  C10 UNL     1       1.917  -8.569  27.469  1.00  0.00     0.000 C 
BRANCH  26  27
HETATM   27  C9  UNL     1       1.037  -8.220  26.263  1.00  0.00     0.000 C 
BRANCH  27  28
HETATM   28  C8  UNL     1      -0.189  -9.115  26.055  1.00  0.00     0.000 C 
BRANCH  28  29
HETATM   29  C7  UNL     1      -1.539  -8.392  26.026  1.00  0.00     0.000 C 
BRANCH  29  30
HETATM   30  C6  UNL     1      -2.115  -8.245  24.616  1.00  0.00     0.000 C 
BRANCH  30  31
HETATM   31  C5  UNL     1      -1.406  -7.173  23.781  1.00  0.00     0.000 C 
BRANCH  31  32
HETATM   32  C4  UNL     1      -1.025  -7.657  22.379  1.00  0.00     0.000 C 
BRANCH  32  33
HETATM   33  C3  UNL     1      -0.977  -6.493  21.386  1.00  0.00    -0.000 C 
BRANCH  33  34
HETATM   34  C2  UNL     1       0.069  -6.680  20.284  1.00  0.00    -0.005 C 
HETATM   35  C1  UNL     1       1.128  -7.717  20.625  1.00  0.00     0.005 C 
ENDBRANCH  33  34
ENDBRANCH  32  33
ENDBRANCH  31  32
ENDBRANCH  30  31
ENDBRANCH  29  30
ENDBRANCH  28  29
ENDBRANCH  27  28
ENDBRANCH  26  27
ENDBRANCH  25  26
ENDBRANCH  24  25
ENDBRANCH  22  24
ENDBRANCH  21  22
ENDBRANCH   1  21
TORSDOF 13
ENDMDL
MODEL 7
REMARK minimizedAffinity -7.37124586
REMARK  13 active torsions:
REMARK  status: ('A' for Active; 'I' for Inactive)
REMARK    1  A    between atoms: C2_2  and  C3_3 
REMARK    2  A    between atoms: C3_3  and  C4_4 
REMARK    3  A    between atoms: C4_4  and  C5_5 
REMARK    4  A    between atoms: C5_5  and  C6_6 
REMARK    5  A    between atoms: C6_6  and  C7_7 
REMARK    6  A    between atoms: C7_7  and  C8_8 
REMARK    7  A    between atoms: C8_8  and  C9_9 
REMARK    8  A    between atoms: C9_9  and  C10_10 
REMARK    9  A    between atoms: C10_10  and  C11_11 
REMARK   10  A    between atoms: C11_11  and  C12_12 
REMARK   11  A    between atoms: C12_12  and  C13_13 
REMARK   12  A    between atoms: C13_13  and  O2_15 
REMARK   13  A    between atoms: O2_15  and  C14_16 
ROOT
HETATM    1  C14 UNL     1      10.163  -6.499  27.578  1.00  0.00     0.140 C 
HETATM    2  C15 UNL     1       9.368  -7.668  28.204  1.00  0.00     0.034 C 
HETATM    3  C16 UNL     1       8.916  -7.191  29.595  1.00  0.00     0.008 C 
HETATM    4  C17 UNL     1       9.289  -5.712  29.617  1.00  0.00     0.001 C 
HETATM    5  C18 UNL     1       9.407  -4.995  30.965  1.00  0.00    -0.004 C 
HETATM    6  C19 UNL     1       8.099  -5.079  31.776  1.00  0.00     0.010 C 
HETATM    7  C20 UNL     1       8.169  -4.325  33.111  1.00  0.00     0.035 C 
HETATM    8  C21 UNL     1       9.456  -3.545  33.232  1.00  0.00    -0.068 C 
HETATM    9  C22 UNL     1      10.271  -3.770  34.278  1.00  0.00     0.053 C 
HETATM   10  C23 UNL     1      11.653  -3.240  34.301  1.00  0.00     0.149 C 
HETATM   11  O3  UNL     1      12.336  -3.361  35.313  1.00  0.00    -0.293 OA
HETATM   12  C24 UNL     1      12.194  -2.671  33.017  1.00  0.00     0.084 C 
HETATM   13  C25 UNL     1      11.115  -1.852  32.327  1.00  0.00     0.022 C 
HETATM   14  C26 UNL     1       9.801  -2.638  32.044  1.00  0.00    -0.016 C 
HETATM   15  C27 UNL     1       8.700  -1.547  31.913  1.00  0.00     0.020 C 
HETATM   16  C28 UNL     1       9.780  -3.495  30.708  1.00  0.00     0.002 C 
HETATM   17  C29 UNL     1      11.005  -3.343  29.773  1.00  0.00     0.007 C 
HETATM   18  C30 UNL     1      10.906  -4.190  28.489  1.00  0.00     0.012 C 
HETATM   19  C31 UNL     1      10.595  -5.659  28.801  1.00  0.00    -0.013 C 
HETATM   20  C32 UNL     1      11.821  -6.307  29.497  1.00  0.00     0.018 C 
ENDROOT
BRANCH   1  21
HETATM   21  O2  UNL     1      11.290  -6.953  26.825  1.00  0.00    -0.315 OA
BRANCH  21  22
HETATM   22  C13 UNL     1      10.998  -7.738  25.751  1.00  0.00     0.259 C 
HETATM   23  O1  UNL     1      10.160  -7.487  24.897  1.00  0.00    -0.265 OA
BRANCH  22  24
HETATM   24  C12 UNL     1      11.847  -8.986  25.772  1.00  0.00     0.111 C 
BRANCH  24  25
HETATM   25  C11 UNL     1      11.723  -9.740  27.093  1.00  0.00     0.010 C 
BRANCH  25  26
HETATM   26  C10 UNL     1      13.026 -10.377  27.590  1.00  0.00     0.000 C 
BRANCH  26  27
HETATM   27  C9  UNL     1      12.863 -11.513  28.607  1.00  0.00     0.000 C 
BRANCH  27  28
HETATM   28  C8  UNL     1      11.718 -11.346  29.612  1.00  0.00     0.000 C 
BRANCH  28  29
HETATM   29  C7  UNL     1      12.001 -11.857  31.029  1.00  0.00     0.000 C 
BRANCH  29  30
HETATM   30  C6  UNL     1      13.450 -11.638  31.470  1.00  0.00     0.000 C 
BRANCH  30  31
HETATM   31  C5  UNL     1      13.570 -11.059  32.885  1.00  0.00     0.000 C 
BRANCH  31  32
HETATM   32  C4  UNL     1      14.979 -11.191  33.471  1.00  0.00     0.000 C 
BRANCH  32  33
HETATM   33  C3  UNL     1      16.047 -10.893  32.415  1.00  0.00    -0.000 C 
BRANCH  33  34
HETATM   34  C2  UNL     1      17.175  -9.995  32.933  1.00  0.00    -0.005 C 
HETATM   35  C1  UNL     1      17.023  -9.617  34.398  1.00  0.00     0.005 C 
ENDBRANCH  33  34
ENDBRANCH  32  33
ENDBRANCH  31  32
ENDBRANCH  30  31
ENDBRANCH  29  30
ENDBRANCH  28  29
ENDBRANCH  27  28
ENDBRANCH  26  27
ENDBRANCH  25  26
ENDBRANCH  24  25
ENDBRANCH  22  24
ENDBRANCH  21  22
ENDBRANCH   1  21
TORSDOF 13
ENDMDL
MODEL 8
REMARK minimizedAffinity -7.32658768
REMARK  13 active torsions:
REMARK  status: ('A' for Active; 'I' for Inactive)
REMARK    1  A    between atoms: C2_2  and  C3_3 
REMARK    2  A    between atoms: C3_3  and  C4_4 
REMARK    3  A    between atoms: C4_4  and  C5_5 
REMARK    4  A    between atoms: C5_5  and  C6_6 
REMARK    5  A    between atoms: C6_6  and  C7_7 
REMARK    6  A    between atoms: C7_7  and  C8_8 
REMARK    7  A    between atoms: C8_8  and  C9_9 
REMARK    8  A    between atoms: C9_9  and  C10_10 
REMARK    9  A    between atoms: C10_10  and  C11_11 
REMARK   10  A    between atoms: C11_11  and  C12_12 
REMARK   11  A    between atoms: C12_12  and  C13_13 
REMARK   12  A    between atoms: C13_13  and  O2_15 
REMARK   13  A    between atoms: O2_15  and  C14_16 
ROOT
HETATM    1  C14 UNL     1       9.089  -7.774  28.142  1.00  0.00     0.140 C 
HETATM    2  C15 UNL     1      10.555  -8.261  28.102  1.00  0.00     0.034 C 
HETATM    3  C16 UNL     1      11.304  -7.475  29.192  1.00  0.00     0.008 C 
HETATM    4  C17 UNL     1      10.199  -6.736  29.939  1.00  0.00     0.001 C 
HETATM    5  C18 UNL     1      10.565  -5.521  30.797  1.00  0.00    -0.004 C 
HETATM    6  C19 UNL     1      11.598  -5.877  31.883  1.00  0.00     0.010 C 
HETATM    7  C20 UNL     1      11.948  -4.692  32.794  1.00  0.00     0.035 C 
HETATM    8  C21 UNL     1      11.068  -3.500  32.502  1.00  0.00    -0.068 C 
HETATM    9  C22 UNL     1      11.632  -2.326  32.167  1.00  0.00     0.053 C 
HETATM   10  C23 UNL     1      10.824  -1.218  31.613  1.00  0.00     0.149 C 
HETATM   11  O3  UNL     1      11.340  -0.121  31.423  1.00  0.00    -0.293 OA
HETATM   12  C24 UNL     1       9.412  -1.534  31.197  1.00  0.00     0.084 C 
HETATM   13  C25 UNL     1       8.773  -2.455  32.225  1.00  0.00     0.022 C 
HETATM   14  C26 UNL     1       9.559  -3.776  32.474  1.00  0.00    -0.016 C 
HETATM   15  C27 UNL     1       9.113  -4.248  33.888  1.00  0.00     0.020 C 
HETATM   16  C28 UNL     1       9.262  -4.962  31.463  1.00  0.00     0.002 C 
HETATM   17  C29 UNL     1       8.129  -4.723  30.435  1.00  0.00     0.007 C 
HETATM   18  C30 UNL     1       7.885  -5.924  29.499  1.00  0.00     0.012 C 
HETATM   19  C31 UNL     1       9.183  -6.394  28.831  1.00  0.00    -0.013 C 
HETATM   20  C32 UNL     1       9.662  -5.317  27.823  1.00  0.00     0.018 C 
ENDROOT
BRANCH   1  21
HETATM   21  O2  UNL     1       8.516  -7.673  26.836  1.00  0.00    -0.315 OA
BRANCH  21  22
HETATM   22  C13 UNL     1       7.767  -8.740  26.441  1.00  0.00     0.259 C 
HETATM   23  O1  UNL     1       8.209  -9.827  26.096  1.00  0.00    -0.265 OA
BRANCH  22  24
HETATM   24  C12 UNL     1       6.300  -8.386  26.468  1.00  0.00     0.111 C 
BRANCH  24  25
HETATM   25  C11 UNL     1       5.451  -9.512  27.051  1.00  0.00     0.010 C 
BRANCH  25  26
HETATM   26  C10 UNL     1       4.327 -10.008  26.133  1.00  0.00     0.000 C 
BRANCH  26  27
HETATM   27  C9  UNL     1       3.391 -11.060  26.738  1.00  0.00     0.000 C 
BRANCH  27  28
HETATM   28  C8  UNL     1       1.973 -10.578  27.062  1.00  0.00     0.000 C 
BRANCH  28  29
HETATM   29  C7  UNL     1       1.395  -9.529  26.107  1.00  0.00     0.000 C 
BRANCH  29  30
HETATM   30  C6  UNL     1       1.720  -8.092  26.521  1.00  0.00     0.000 C 
BRANCH  30  31
HETATM   31  C5  UNL     1       1.781  -7.900  28.041  1.00  0.00     0.000 C 
BRANCH  31  32
HETATM   32  C4  UNL     1       2.329  -6.530  28.453  1.00  0.00     0.000 C 
BRANCH  32  33
HETATM   33  C3  UNL     1       3.859  -6.539  28.506  1.00  0.00    -0.000 C 
BRANCH  33  34
HETATM   34  C2  UNL     1       4.460  -5.173  28.849  1.00  0.00    -0.005 C 
HETATM   35  C1  UNL     1       4.362  -4.822  30.325  1.00  0.00     0.005 C 
ENDBRANCH  33  34
ENDBRANCH  32  33
ENDBRANCH  31  32
ENDBRANCH  30  31
ENDBRANCH  29  30
ENDBRANCH  28  29
ENDBRANCH  27  28
ENDBRANCH  26  27
ENDBRANCH  25  26
ENDBRANCH  24  25
ENDBRANCH  22  24
ENDBRANCH  21  22
ENDBRANCH   1  21
TORSDOF 13
ENDMDL
MODEL 9
REMARK minimizedAffinity -7.29307127
REMARK  13 active torsions:
REMARK  status: ('A' for Active; 'I' for Inactive)
REMARK    1  A    between atoms: C2_2  and  C3_3 
REMARK    2  A    between atoms: C3_3  and  C4_4 
REMARK    3  A    between atoms: C4_4  and  C5_5 
REMARK    4  A    between atoms: C5_5  and  C6_6 
REMARK    5  A    between atoms: C6_6  and  C7_7 
REMARK    6  A    between atoms: C7_7  and  C8_8 
REMARK    7  A    between atoms: C8_8  and  C9_9 
REMARK    8  A    between atoms: C9_9  and  C10_10 
REMARK    9  A    between atoms: C10_10  and  C11_11 
REMARK   10  A    between atoms: C11_11  and  C12_12 
REMARK   11  A    between atoms: C12_12  and  C13_13 
REMARK   12  A    between atoms: C13_13  and  O2_15 
REMARK   13  A    between atoms: O2_15  and  C14_16 
ROOT
HETATM    1  C14 UNL     1       4.837  -6.454  28.604  1.00  0.00     0.140 C 
HETATM    2  C15 UNL     1       4.487  -6.057  30.056  1.00  0.00     0.034 C 
HETATM    3  C16 UNL     1       5.790  -5.540  30.691  1.00  0.00     0.008 C 
HETATM    4  C17 UNL     1       6.767  -5.468  29.522  1.00  0.00     0.001 C 
HETATM    5  C18 UNL     1       8.270  -5.426  29.811  1.00  0.00    -0.004 C 
HETATM    6  C19 UNL     1       8.648  -4.231  30.708  1.00  0.00     0.010 C 
HETATM    7  C20 UNL     1      10.156  -4.130  30.974  1.00  0.00     0.035 C 
HETATM    8  C21 UNL     1      10.925  -5.139  30.155  1.00  0.00    -0.068 C 
HETATM    9  C22 UNL     1      11.726  -6.025  30.775  1.00  0.00     0.053 C 
HETATM   10  C23 UNL     1      12.279  -7.193  30.054  1.00  0.00     0.149 C 
HETATM   11  O3  UNL     1      13.097  -7.920  30.609  1.00  0.00    -0.293 OA
HETATM   12  C24 UNL     1      11.713  -7.496  28.693  1.00  0.00     0.084 C 
HETATM   13  C25 UNL     1      11.510  -6.199  27.925  1.00  0.00     0.022 C 
HETATM   14  C26 UNL     1      10.608  -5.160  28.654  1.00  0.00    -0.016 C 
HETATM   15  C27 UNL     1      11.003  -3.785  28.042  1.00  0.00     0.020 C 
HETATM   16  C28 UNL     1       9.044  -5.337  28.451  1.00  0.00     0.002 C 
HETATM   17  C29 UNL     1       8.598  -6.428  27.446  1.00  0.00     0.007 C 
HETATM   18  C30 UNL     1       7.068  -6.529  27.288  1.00  0.00     0.012 C 
HETATM   19  C31 UNL     1       6.366  -6.671  28.645  1.00  0.00    -0.013 C 
HETATM   20  C32 UNL     1       6.700  -8.057  29.255  1.00  0.00     0.018 C 
ENDROOT
BRANCH   1  21
HETATM   21  O2  UNL     1       4.148  -7.634  28.184  1.00  0.00    -0.315 OA
BRANCH  21  22
HETATM   22  C13 UNL     1       2.854  -7.451  27.800  1.00  0.00     0.259 C 
HETATM   23  O1  UNL     1       2.248  -6.389  27.834  1.00  0.00    -0.265 OA
BRANCH  22  24
HETATM   24  C12 UNL     1       2.257  -8.759  27.341  1.00  0.00     0.111 C 
BRANCH  24  25
HETATM   25  C11 UNL     1       0.733  -8.702  27.285  1.00  0.00     0.010 C 
BRANCH  25  26
HETATM   26  C10 UNL     1       0.151  -8.524  25.877  1.00  0.00     0.000 C 
BRANCH  26  27
HETATM   27  C9  UNL     1       1.176  -8.438  24.741  1.00  0.00     0.000 C 
BRANCH  27  28
HETATM   28  C8  UNL     1       0.689  -8.914  23.368  1.00  0.00     0.000 C 
BRANCH  28  29
HETATM   29  C7  UNL     1      -0.819  -9.163  23.251  1.00  0.00     0.000 C 
BRANCH  29  30
HETATM   30  C6  UNL     1      -1.478  -8.358  22.129  1.00  0.00     0.000 C 
BRANCH  30  31
HETATM   31  C5  UNL     1      -1.347  -6.842  22.315  1.00  0.00     0.000 C 
BRANCH  31  32
HETATM   32  C4  UNL     1      -0.927  -6.113  21.035  1.00  0.00     0.000 C 
BRANCH  32  33
HETATM   33  C3  UNL     1       0.145  -6.901  20.277  1.00  0.00    -0.000 C 
BRANCH  33  34
HETATM   34  C2  UNL     1      -0.150  -7.037  18.780  1.00  0.00    -0.005 C 
HETATM   35  C1  UNL     1      -1.581  -7.458  18.482  1.00  0.00     0.005 C 
ENDBRANCH  33  34
ENDBRANCH  32  33
ENDBRANCH  31  32
ENDBRANCH  30  31
ENDBRANCH  29  30
ENDBRANCH  28  29
ENDBRANCH  27  28
ENDBRANCH  26  27
ENDBRANCH  25  26
ENDBRANCH  24  25
ENDBRANCH  22  24
ENDBRANCH  21  22
ENDBRANCH   1  21
TORSDOF 13
ENDMDL
