MODEL 1
REMARK minimizedAffinity -7.06960106
REMARK CNNscore 0.531718135
REMARK CNNaffinity 5.9761219
REMARK  8 active torsions:
REMARK  status: ('A' for Active; 'I' for Inactive)
REMARK    1  A    between atoms: C4_4  and  C5_5 
REMARK    2  A    between atoms: C5_5  and  C6_6 
REMARK    3  A    between atoms: C6_6  and  C7_7 
REMARK    4  A    between atoms: C7_7  and  C9_9 
REMARK    5  A    between atoms: C18_18  and  C20_20 
REMARK    6  A    between atoms: C20_20  and  O2_22 
REMARK    7  A    between atoms: C21_23  and  O3_24 
REMARK    8  A    between atoms: C23_26  and  O4_27 
ROOT
HETATM    1  C9  UNL     1      -4.651 -12.085   2.913  1.00  0.00    -0.002 C 
HETATM    2  C10 UNL     1      -3.158 -11.844   3.223  1.00  0.00     0.006 C 
HETATM    3  C11 UNL     1      -3.084 -11.223   4.632  1.00  0.00     0.011 C 
HETATM    4  C12 UNL     1      -4.511 -11.308   5.209  1.00  0.00    -0.032 C 
HETATM    5  C13 UNL     1      -4.647 -12.699   5.902  1.00  0.00     0.016 C 
HETATM    6  C14 UNL     1      -4.870 -10.188   6.217  1.00  0.00     0.004 C 
HETATM    7  C15 UNL     1      -4.017 -10.217   7.501  1.00  0.00     0.007 C 
HETATM    8  C16 UNL     1      -4.785 -10.576   8.766  1.00  0.00     0.007 C 
HETATM    9  C17 UNL     1      -5.907  -9.555   8.993  1.00  0.00     0.018 C 
HETATM   10  C18 UNL     1      -6.517  -9.537  10.434  1.00  0.00     0.072 C 
HETATM   11  C19 UNL     1      -5.509  -8.872  11.410  1.00  0.00     0.030 C 
HETATM   12  C21 UNL     1      -7.813  -8.690  10.409  1.00  0.00     0.139 C 
HETATM   13  C22 UNL     1      -8.876  -9.188   9.415  1.00  0.00     0.065 C 
HETATM   14  C23 UNL     1      -8.329 -10.093   8.309  1.00  0.00     0.130 C 
HETATM   15  C24 UNL     1      -6.940  -9.685   7.862  1.00  0.00    -0.001 A 
HETATM   16  C25 UNL     1      -6.888  -8.667   6.747  1.00  0.00     0.024 A 
HETATM   17  C26 UNL     1      -6.405 -10.075   6.449  1.00  0.00    -0.025 A 
HETATM   18  C27 UNL     1      -7.332 -10.954   5.583  1.00  0.00     0.011 C 
HETATM   19  C28 UNL     1      -6.816 -11.520   4.249  1.00  0.00     0.011 C 
HETATM   20  C29 UNL     1      -5.378 -11.132   3.915  1.00  0.00    -0.032 C 
HETATM   21  C30 UNL     1      -5.404  -9.683   3.353  1.00  0.00     0.016 C 
ENDROOT
BRANCH   1  22
HETATM   22  C7  UNL     1      -5.094 -12.050   1.419  1.00  0.00    -0.014 C 
HETATM   23  C8  UNL     1      -5.073 -13.469   0.835  1.00  0.00     0.010 C 
BRANCH  22  24
HETATM   24  C6  UNL     1      -4.368 -11.035   0.501  1.00  0.00     0.008 C 
BRANCH  24  25
HETATM   25  C5  UNL     1      -5.071 -10.621  -0.808  1.00  0.00     0.028 C 
BRANCH  25  26
HETATM   26  C4  UNL     1      -6.428 -10.007  -0.583  1.00  0.00    -0.025 C 
HETATM   27  C2  UNL     1      -7.216  -9.372  -1.472  1.00  0.00    -0.091 C 
HETATM   28  C1  UNL     1      -6.875  -9.117  -2.913  1.00  0.00     0.042 C 
HETATM   29  C3  UNL     1      -8.566  -8.849  -1.058  1.00  0.00     0.042 C 
ENDBRANCH  25  26
ENDBRANCH  24  25
ENDBRANCH  22  24
ENDBRANCH   1  22
BRANCH  14  30
HETATM   30  O4  UNL     1      -8.289 -11.448   8.749  1.00  0.00    -0.395 OA
HETATM   31  H39 UNL     1      -9.208 -11.755   8.822  1.00  0.00     0.210 HD
ENDBRANCH  14  30
BRANCH  10  32
HETATM   32  C20 UNL     1      -6.760 -10.921  11.042  1.00  0.00     0.151 C 
HETATM   33  O1  UNL     1      -7.681 -11.684  10.796  1.00  0.00    -0.649 OA
BRANCH  32  34
HETATM   34  O2  UNL     1      -5.758 -11.368  11.829  1.00  0.00    -0.776 OA
HETATM   35  H33 UNL     1      -6.080 -12.258  12.085  1.00  0.00     0.167 HD
ENDBRANCH  32  34
ENDBRANCH  10  32
BRANCH  12  36
HETATM   36  O3  UNL     1      -7.494  -7.326  10.067  1.00  0.00    -0.394 OA
HETATM   37  H35 UNL     1      -8.283  -6.789  10.248  1.00  0.00     0.210 HD
ENDBRANCH  12  36
TORSDOF 8
ENDMDL
MODEL 2
REMARK minimizedAffinity -8.64402866
REMARK CNNscore 0.509442687
REMARK CNNaffinity 6.4794445
REMARK  8 active torsions:
REMARK  status: ('A' for Active; 'I' for Inactive)
REMARK    1  A    between atoms: C4_4  and  C5_5 
REMARK    2  A    between atoms: C5_5  and  C6_6 
REMARK    3  A    between atoms: C6_6  and  C7_7 
REMARK    4  A    between atoms: C7_7  and  C9_9 
REMARK    5  A    between atoms: C18_18  and  C20_20 
REMARK    6  A    between atoms: C20_20  and  O2_22 
REMARK    7  A    between atoms: C21_23  and  O3_24 
REMARK    8  A    between atoms: C23_26  and  O4_27 
ROOT
HETATM    1  C9  UNL     1      -6.927   6.614  14.842  1.00  0.00    -0.002 C 
HETATM    2  C10 UNL     1      -6.703   5.277  14.102  1.00  0.00     0.006 C 
HETATM    3  C11 UNL     1      -5.203   5.201  13.753  1.00  0.00     0.011 C 
HETATM    4  C12 UNL     1      -4.538   6.386  14.480  1.00  0.00    -0.032 C 
HETATM    5  C13 UNL     1      -4.161   5.897  15.912  1.00  0.00     0.016 C 
HETATM    6  C14 UNL     1      -3.279   6.952  13.777  1.00  0.00     0.004 C 
HETATM    7  C15 UNL     1      -2.112   5.947  13.695  1.00  0.00     0.007 C 
HETATM    8  C16 UNL     1      -0.897   6.316  14.534  1.00  0.00     0.007 C 
HETATM    9  C17 UNL     1      -0.352   7.675  14.080  1.00  0.00     0.018 C 
HETATM   10  C18 UNL     1       1.104   8.005  14.548  1.00  0.00     0.072 C 
HETATM   11  C19 UNL     1       2.112   7.158  13.724  1.00  0.00     0.030 C 
HETATM   12  C21 UNL     1       1.381   9.505  14.275  1.00  0.00     0.139 C 
HETATM   13  C22 UNL     1       0.398  10.466  14.965  1.00  0.00     0.065 C 
HETATM   14  C23 UNL     1      -0.924   9.820  15.384  1.00  0.00     0.130 C 
HETATM   15  C24 UNL     1      -1.389   8.763  14.401  1.00  0.00    -0.001 A 
HETATM   16  C25 UNL     1      -2.251   9.265  13.266  1.00  0.00     0.024 A 
HETATM   17  C26 UNL     1      -2.895   8.364  14.306  1.00  0.00    -0.025 A 
HETATM   18  C27 UNL     1      -3.849   9.043  15.310  1.00  0.00     0.011 C 
HETATM   19  C28 UNL     1      -5.316   8.585  15.395  1.00  0.00     0.011 C 
HETATM   20  C29 UNL     1      -5.679   7.459  14.431  1.00  0.00    -0.032 C 
HETATM   21  C30 UNL     1      -5.902   8.095  13.031  1.00  0.00     0.016 C 
ENDROOT
BRANCH   1  22
HETATM   22  C7  UNL     1      -8.332   7.278  14.724  1.00  0.00    -0.014 C 
HETATM   23  C8  UNL     1      -8.855   7.646  16.120  1.00  0.00     0.010 C 
BRANCH  22  24
HETATM   24  C6  UNL     1      -9.393   6.520  13.889  1.00  0.00     0.008 C 
BRANCH  24  25
HETATM   25  C5  UNL     1     -10.735   7.231  13.616  1.00  0.00     0.028 C 
BRANCH  25  26
HETATM   26  C4  UNL     1     -11.922   6.480  14.160  1.00  0.00    -0.025 C 
HETATM   27  C2  UNL     1     -13.229   6.683  13.901  1.00  0.00    -0.091 C 
HETATM   28  C1  UNL     1     -13.784   7.755  13.006  1.00  0.00     0.042 C 
HETATM   29  C3  UNL     1     -14.278   5.800  14.525  1.00  0.00     0.042 C 
ENDBRANCH  25  26
ENDBRANCH  24  25
ENDBRANCH  22  24
ENDBRANCH   1  22
BRANCH  14  30
HETATM   30  O4  UNL     1      -0.800   9.223  16.672  1.00  0.00    -0.395 OA
HETATM   31  H39 UNL     1      -0.718   9.946  17.318  1.00  0.00     0.210 HD
ENDBRANCH  14  30
BRANCH  10  32
HETATM   32  C20 UNL     1       1.410   7.631  16.000  1.00  0.00     0.151 C 
HETATM   33  O1  UNL     1       2.250   8.134  16.731  1.00  0.00    -0.649 OA
BRANCH  32  34
HETATM   34  O2  UNL     1       0.551   6.741  16.539  1.00  0.00    -0.776 OA
HETATM   35  H33 UNL     1       0.886   6.662  17.458  1.00  0.00     0.167 HD
ENDBRANCH  32  34
ENDBRANCH  10  32
BRANCH  12  36
HETATM   36  O3  UNL     1       1.324   9.757  12.856  1.00  0.00    -0.394 OA
HETATM   37  H35 UNL     1       1.688  10.645  12.704  1.00  0.00     0.210 HD
ENDBRANCH  12  36
TORSDOF 8
ENDMDL
MODEL 3
REMARK minimizedAffinity -9.58973598
REMARK CNNscore 0.413369268
REMARK CNNaffinity 6.87600899
REMARK  8 active torsions:
REMARK  status: ('A' for Active; 'I' for Inactive)
REMARK    1  A    between atoms: C4_4  and  C5_5 
REMARK    2  A    between atoms: C5_5  and  C6_6 
REMARK    3  A    between atoms: C6_6  and  C7_7 
REMARK    4  A    between atoms: C7_7  and  C9_9 
REMARK    5  A    between atoms: C18_18  and  C20_20 
REMARK    6  A    between atoms: C20_20  and  O2_22 
REMARK    7  A    between atoms: C21_23  and  O3_24 
REMARK    8  A    between atoms: C23_26  and  O4_27 
ROOT
HETATM    1  C9  UNL     1      -6.816   7.032  14.167  1.00  0.00    -0.002 C 
HETATM    2  C10 UNL     1      -6.880   8.353  14.966  1.00  0.00     0.006 C 
HETATM    3  C11 UNL     1      -5.435   8.875  15.090  1.00  0.00     0.011 C 
HETATM    4  C12 UNL     1      -4.577   7.970  14.183  1.00  0.00    -0.032 C 
HETATM    5  C13 UNL     1      -4.608   8.591  12.752  1.00  0.00     0.016 C 
HETATM    6  C14 UNL     1      -3.109   7.798  14.643  1.00  0.00     0.004 C 
HETATM    7  C15 UNL     1      -2.298   9.110  14.626  1.00  0.00     0.007 C 
HETATM    8  C16 UNL     1      -1.185   9.154  13.587  1.00  0.00     0.007 C 
HETATM    9  C17 UNL     1      -0.192   8.015  13.848  1.00  0.00     0.018 C 
HETATM   10  C18 UNL     1       1.197   8.160  13.143  1.00  0.00     0.072 C 
HETATM   11  C19 UNL     1       2.029   9.252  13.868  1.00  0.00     0.030 C 
HETATM   12  C21 UNL     1       1.948   6.810  13.255  1.00  0.00     0.139 C 
HETATM   13  C22 UNL     1       1.196   5.614  12.649  1.00  0.00     0.065 C 
HETATM   14  C23 UNL     1      -0.309   5.835  12.484  1.00  0.00     0.130 C 
HETATM   15  C24 UNL     1      -0.897   6.670  13.604  1.00  0.00    -0.001 A 
HETATM   16  C25 UNL     1      -1.369   5.898  14.813  1.00  0.00     0.024 A 
HETATM   17  C26 UNL     1      -2.415   6.586  13.955  1.00  0.00    -0.025 A 
HETATM   18  C27 UNL     1      -3.278   5.676  13.056  1.00  0.00     0.011 C 
HETATM   19  C28 UNL     1      -4.807   5.665  13.229  1.00  0.00     0.011 C 
HETATM   20  C29 UNL     1      -5.323   6.599  14.320  1.00  0.00    -0.032 C 
HETATM   21  C30 UNL     1      -5.110   5.887  15.685  1.00  0.00     0.016 C 
ENDROOT
BRANCH   1  22
HETATM   22  C7  UNL     1      -7.919   5.967  14.444  1.00  0.00    -0.014 C 
HETATM   23  C8  UNL     1      -7.524   5.109  15.655  1.00  0.00     0.010 C 
BRANCH  22  24
HETATM   24  C6  UNL     1      -8.367   5.099  13.242  1.00  0.00     0.008 C 
BRANCH  24  25
HETATM   25  C5  UNL     1      -7.708   3.715  13.069  1.00  0.00     0.028 C 
BRANCH  25  26
HETATM   26  C4  UNL     1      -6.497   3.745  12.174  1.00  0.00    -0.025 C 
HETATM   27  C2  UNL     1      -5.918   2.721  11.517  1.00  0.00    -0.091 C 
HETATM   28  C1  UNL     1      -6.367   1.287  11.568  1.00  0.00     0.042 C 
HETATM   29  C3  UNL     1      -4.718   2.958  10.638  1.00  0.00     0.042 C 
ENDBRANCH  25  26
ENDBRANCH  24  25
ENDBRANCH  22  24
ENDBRANCH   1  22
BRANCH  14  30
HETATM   30  O4  UNL     1      -0.585   6.476  11.242  1.00  0.00    -0.395 OA
HETATM   31  H39 UNL     1      -0.400   5.831  10.537  1.00  0.00     0.210 HD
ENDBRANCH  14  30
BRANCH  10  32
HETATM   32  C20 UNL     1       1.130   8.649  11.694  1.00  0.00     0.151 C 
HETATM   33  O1  UNL     1       1.926   8.412  10.798  1.00  0.00    -0.649 OA
BRANCH  32  34
HETATM   34  O2  UNL     1      -0.010   9.296  11.376  1.00  0.00    -0.776 OA
HETATM   35  H33 UNL     1       0.123   9.492  10.424  1.00  0.00     0.167 HD
ENDBRANCH  32  34
ENDBRANCH  10  32
BRANCH  12  36
HETATM   36  O3  UNL     1       2.207   6.513  14.642  1.00  0.00    -0.394 OA
HETATM   37  H35 UNL     1       2.838   5.775  14.669  1.00  0.00     0.210 HD
ENDBRANCH  12  36
TORSDOF 8
ENDMDL
MODEL 4
REMARK minimizedAffinity -8.06107521
REMARK CNNscore 0.362419307
REMARK CNNaffinity 6.11975241
REMARK  8 active torsions:
REMARK  status: ('A' for Active; 'I' for Inactive)
REMARK    1  A    between atoms: C4_4  and  C5_5 
REMARK    2  A    between atoms: C5_5  and  C6_6 
REMARK    3  A    between atoms: C6_6  and  C7_7 
REMARK    4  A    between atoms: C7_7  and  C9_9 
REMARK    5  A    between atoms: C18_18  and  C20_20 
REMARK    6  A    between atoms: C20_20  and  O2_22 
REMARK    7  A    between atoms: C21_23  and  O3_24 
REMARK    8  A    between atoms: C23_26  and  O4_27 
ROOT
HETATM    1  C9  UNL     1      -0.167   6.266  11.957  1.00  0.00    -0.002 C 
HETATM    2  C10 UNL     1      -0.124   6.780  10.502  1.00  0.00     0.006 C 
HETATM    3  C11 UNL     1       1.174   7.598  10.350  1.00  0.00     0.011 C 
HETATM    4  C12 UNL     1       1.972   7.371  11.649  1.00  0.00    -0.032 C 
HETATM    5  C13 UNL     1       2.835   6.088  11.443  1.00  0.00     0.016 C 
HETATM    6  C14 UNL     1       2.887   8.551  12.061  1.00  0.00     0.004 C 
HETATM    7  C15 UNL     1       4.017   8.838  11.051  1.00  0.00     0.007 C 
HETATM    8  C16 UNL     1       5.419   8.544  11.567  1.00  0.00     0.007 C 
HETATM    9  C17 UNL     1       5.698   9.398  12.811  1.00  0.00     0.018 C 
HETATM   10  C18 UNL     1       7.205   9.522  13.215  1.00  0.00     0.072 C 
HETATM   11  C19 UNL     1       7.928  10.469  12.219  1.00  0.00     0.030 C 
HETATM   12  C21 UNL     1       7.284  10.142  14.632  1.00  0.00     0.139 C 
HETATM   13  C22 UNL     1       6.534   9.348  15.714  1.00  0.00     0.065 C 
HETATM   14  C23 UNL     1       5.469   8.394  15.170  1.00  0.00     0.130 C 
HETATM   15  C24 UNL     1       4.766   8.948  13.947  1.00  0.00    -0.001 A 
HETATM   16  C25 UNL     1       3.546   9.794  14.226  1.00  0.00     0.024 A 
HETATM   17  C26 UNL     1       3.341   8.452  13.546  1.00  0.00    -0.025 A 
HETATM   18  C27 UNL     1       2.739   7.325  14.412  1.00  0.00     0.011 C 
HETATM   19  C28 UNL     1       1.415   6.665  13.988  1.00  0.00     0.011 C 
HETATM   20  C29 UNL     1       0.819   7.224  12.700  1.00  0.00    -0.032 C 
HETATM   21  C30 UNL     1       0.103   8.557  13.056  1.00  0.00     0.016 C 
ENDROOT
BRANCH   1  22
HETATM   22  C7  UNL     1      -1.567   6.020  12.596  1.00  0.00    -0.014 C 
HETATM   23  C8  UNL     1      -1.406   5.614  14.067  1.00  0.00     0.010 C 
BRANCH  22  24
HETATM   24  C6  UNL     1      -2.523   5.068  11.834  1.00  0.00     0.008 C 
BRANCH  24  25
HETATM   25  C5  UNL     1      -3.792   4.587  12.566  1.00  0.00     0.028 C 
BRANCH  25  26
HETATM   26  C4  UNL     1      -4.356   3.312  11.997  1.00  0.00    -0.025 C 
HETATM   27  C2  UNL     1      -5.640   2.906  11.966  1.00  0.00    -0.091 C 
HETATM   28  C1  UNL     1      -6.807   3.661  12.538  1.00  0.00     0.042 C 
HETATM   29  C3  UNL     1      -6.013   1.598  11.319  1.00  0.00     0.042 C 
ENDBRANCH  25  26
ENDBRANCH  24  25
ENDBRANCH  22  24
ENDBRANCH   1  22
BRANCH  14  30
HETATM   30  O4  UNL     1       6.052   7.138  14.832  1.00  0.00    -0.395 OA
HETATM   31  H39 UNL     1       6.302   6.703  15.665  1.00  0.00     0.210 HD
ENDBRANCH  14  30
BRANCH  10  32
HETATM   32  C20 UNL     1       8.000   8.217  13.126  1.00  0.00     0.151 C 
HETATM   33  O1  UNL     1       8.832   7.804  13.920  1.00  0.00    -0.649 OA
BRANCH  32  34
HETATM   34  O2  UNL     1       7.620   7.399  12.122  1.00  0.00    -0.776 OA
HETATM   35  H33 UNL     1       8.208   6.625  12.253  1.00  0.00     0.167 HD
ENDBRANCH  32  34
ENDBRANCH  10  32
BRANCH  12  36
HETATM   36  O3  UNL     1       6.741  11.478  14.607  1.00  0.00    -0.394 OA
HETATM   37  H35 UNL     1       6.980  11.904  15.447  1.00  0.00     0.210 HD
ENDBRANCH  12  36
TORSDOF 8
ENDMDL
MODEL 5
REMARK minimizedAffinity -7.24154282
REMARK CNNscore 0.354159594
REMARK CNNaffinity 6.08074522
REMARK  8 active torsions:
REMARK  status: ('A' for Active; 'I' for Inactive)
REMARK    1  A    between atoms: C4_4  and  C5_5 
REMARK    2  A    between atoms: C5_5  and  C6_6 
REMARK    3  A    between atoms: C6_6  and  C7_7 
REMARK    4  A    between atoms: C7_7  and  C9_9 
REMARK    5  A    between atoms: C18_18  and  C20_20 
REMARK    6  A    between atoms: C20_20  and  O2_22 
REMARK    7  A    between atoms: C21_23  and  O3_24 
REMARK    8  A    between atoms: C23_26  and  O4_27 
ROOT
HETATM    1  C9  UNL     1      -1.388   6.819  12.430  1.00  0.00    -0.002 C 
HETATM    2  C10 UNL     1      -1.870   8.219  12.871  1.00  0.00     0.006 C 
HETATM    3  C11 UNL     1      -0.613   9.096  13.038  1.00  0.00     0.011 C 
HETATM    4  C12 UNL     1       0.562   8.263  12.488  1.00  0.00    -0.032 C 
HETATM    5  C13 UNL     1       0.651   8.546  10.956  1.00  0.00     0.016 C 
HETATM    6  C14 UNL     1       1.930   8.558  13.150  1.00  0.00     0.004 C 
HETATM    7  C15 UNL     1       2.434   9.997  12.913  1.00  0.00     0.007 C 
HETATM    8  C16 UNL     1       3.676  10.098  12.038  1.00  0.00     0.007 C 
HETATM    9  C17 UNL     1       4.827   9.318  12.686  1.00  0.00     0.018 C 
HETATM   10  C18 UNL     1       6.255   9.652  12.140  1.00  0.00     0.072 C 
HETATM   11  C19 UNL     1       6.696  11.042  12.674  1.00  0.00     0.030 C 
HETATM   12  C21 UNL     1       7.245   8.584  12.666  1.00  0.00     0.139 C 
HETATM   13  C22 UNL     1       6.881   7.140  12.282  1.00  0.00     0.065 C 
HETATM   14  C23 UNL     1       5.416   6.943  11.888  1.00  0.00     0.130 C 
HETATM   15  C24 UNL     1       4.478   7.821  12.691  1.00  0.00    -0.001 A 
HETATM   16  C25 UNL     1       3.977   7.225  13.986  1.00  0.00     0.024 A 
HETATM   17  C26 UNL     1       2.975   7.440  12.867  1.00  0.00    -0.025 A 
HETATM   18  C27 UNL     1       2.496   6.178  12.118  1.00  0.00     0.011 C 
HETATM   19  C28 UNL     1       0.998   5.826  12.102  1.00  0.00     0.011 C 
HETATM   20  C29 UNL     1       0.113   6.809  12.863  1.00  0.00    -0.032 C 
HETATM   21  C30 UNL     1       0.231   6.471  14.375  1.00  0.00     0.016 C 
ENDROOT
BRANCH   1  22
HETATM   22  C7  UNL     1      -2.270   5.595  12.822  1.00  0.00    -0.014 C 
HETATM   23  C8  UNL     1      -2.161   4.507  11.745  1.00  0.00     0.010 C 
BRANCH  22  24
HETATM   24  C6  UNL     1      -3.743   5.890  13.199  1.00  0.00     0.008 C 
BRANCH  24  25
HETATM   25  C5  UNL     1      -4.815   4.872  12.761  1.00  0.00     0.028 C 
BRANCH  25  26
HETATM   26  C4  UNL     1      -6.068   4.936  13.594  1.00  0.00    -0.025 C 
HETATM   27  C2  UNL     1      -6.303   5.680  14.693  1.00  0.00    -0.091 C 
HETATM   28  C1  UNL     1      -5.317   6.607  15.346  1.00  0.00     0.042 C 
HETATM   29  C3  UNL     1      -7.644   5.629  15.377  1.00  0.00     0.042 C 
ENDBRANCH  25  26
ENDBRANCH  24  25
ENDBRANCH  22  24
ENDBRANCH   1  22
BRANCH  14  30
HETATM   30  O4  UNL     1       5.231   7.223  10.503  1.00  0.00    -0.395 OA
HETATM   31  H39 UNL     1       5.669   6.513  10.004  1.00  0.00     0.210 HD
ENDBRANCH  14  30
BRANCH  10  32
HETATM   32  C20 UNL     1       6.340   9.798  10.619  1.00  0.00     0.151 C 
HETATM   33  O1  UNL     1       5.409   9.877   9.831  1.00  0.00    -0.649 OA
BRANCH  32  34
HETATM   34  O2  UNL     1       7.589   9.993  10.146  1.00  0.00    -0.776 OA
HETATM   35  H33 UNL     1       7.430  10.096   9.183  1.00  0.00     0.167 HD
ENDBRANCH  32  34
ENDBRANCH  10  32
BRANCH  12  36
HETATM   36  O3  UNL     1       7.314   8.655  14.105  1.00  0.00    -0.394 OA
HETATM   37  H35 UNL     1       8.074   8.118  14.386  1.00  0.00     0.210 HD
ENDBRANCH  12  36
TORSDOF 8
ENDMDL
MODEL 6
REMARK minimizedAffinity -7.43241262
REMARK CNNscore 0.354068547
REMARK CNNaffinity 6.10466909
REMARK  8 active torsions:
REMARK  status: ('A' for Active; 'I' for Inactive)
REMARK    1  A    between atoms: C4_4  and  C5_5 
REMARK    2  A    between atoms: C5_5  and  C6_6 
REMARK    3  A    between atoms: C6_6  and  C7_7 
REMARK    4  A    between atoms: C7_7  and  C9_9 
REMARK    5  A    between atoms: C18_18  and  C20_20 
REMARK    6  A    between atoms: C20_20  and  O2_22 
REMARK    7  A    between atoms: C21_23  and  O3_24 
REMARK    8  A    between atoms: C23_26  and  O4_27 
ROOT
HETATM    1  C9  UNL     1      -2.456  13.479  18.499  1.00  0.00    -0.002 C 
HETATM    2  C10 UNL     1      -1.208  13.316  19.394  1.00  0.00     0.006 C 
HETATM    3  C11 UNL     1      -0.376  12.162  18.802  1.00  0.00     0.011 C 
HETATM    4  C12 UNL     1      -1.036  11.811  17.453  1.00  0.00    -0.032 C 
HETATM    5  C13 UNL     1      -0.397  12.737  16.372  1.00  0.00     0.016 C 
HETATM    6  C14 UNL     1      -0.885  10.331  17.024  1.00  0.00     0.004 C 
HETATM    7  C15 UNL     1       0.577   9.907  16.771  1.00  0.00     0.007 C 
HETATM    8  C16 UNL     1       0.902   9.586  15.318  1.00  0.00     0.007 C 
HETATM    9  C17 UNL     1       0.010   8.436  14.834  1.00  0.00     0.018 C 
HETATM   10  C18 UNL     1       0.486   7.722  13.526  1.00  0.00     0.072 C 
HETATM   11  C19 UNL     1       1.717   6.831  13.846  1.00  0.00     0.030 C 
HETATM   12  C21 UNL     1      -0.661   6.815  13.015  1.00  0.00     0.139 C 
HETATM   13  C22 UNL     1      -1.979   7.557  12.736  1.00  0.00     0.065 C 
HETATM   14  C23 UNL     1      -2.100   8.912  13.438  1.00  0.00     0.130 C 
HETATM   15  C24 UNL     1      -1.452   8.913  14.808  1.00  0.00    -0.001 A 
HETATM   16  C25 UNL     1      -2.345   8.492  15.951  1.00  0.00     0.024 A 
HETATM   17  C26 UNL     1      -1.887   9.939  15.900  1.00  0.00    -0.025 A 
HETATM   18  C27 UNL     1      -2.943  10.982  15.479  1.00  0.00     0.011 C 
HETATM   19  C28 UNL     1      -3.305  12.129  16.439  1.00  0.00     0.011 C 
HETATM   20  C29 UNL     1      -2.544  12.105  17.762  1.00  0.00    -0.032 C 
HETATM   21  C30 UNL     1      -3.228  11.050  18.676  1.00  0.00     0.016 C 
ENDROOT
BRANCH   1  22
HETATM   22  C7  UNL     1      -3.751  14.039  19.160  1.00  0.00    -0.014 C 
HETATM   23  C8  UNL     1      -3.392  15.160  20.145  1.00  0.00     0.010 C 
BRANCH  22  24
HETATM   24  C6  UNL     1      -4.716  13.003  19.790  1.00  0.00     0.008 C 
BRANCH  24  25
HETATM   25  C5  UNL     1      -5.564  13.451  20.997  1.00  0.00     0.028 C 
BRANCH  25  26
HETATM   26  C4  UNL     1      -7.046  13.334  20.754  1.00  0.00    -0.025 C 
HETATM   27  C2  UNL     1      -8.030  13.163  21.658  1.00  0.00    -0.091 C 
HETATM   28  C1  UNL     1      -7.836  13.025  23.142  1.00  0.00     0.042 C 
HETATM   29  C3  UNL     1      -9.469  13.097  21.218  1.00  0.00     0.042 C 
ENDBRANCH  25  26
ENDBRANCH  24  25
ENDBRANCH  22  24
ENDBRANCH   1  22
BRANCH  14  30
HETATM   30  O4  UNL     1      -1.503   9.937  12.648  1.00  0.00    -0.395 OA
HETATM   31  H39 UNL     1      -2.068  10.065  11.867  1.00  0.00     0.210 HD
ENDBRANCH  14  30
BRANCH  10  32
HETATM   32  C20 UNL     1       0.989   8.665  12.430  1.00  0.00     0.151 C 
HETATM   33  O1  UNL     1       0.799   8.566  11.227  1.00  0.00    -0.649 OA
BRANCH  32  34
HETATM   34  O2  UNL     1       1.588   9.784  12.888  1.00  0.00    -0.776 OA
HETATM   35  H33 UNL     1       1.800  10.259  12.057  1.00  0.00     0.167 HD
ENDBRANCH  32  34
ENDBRANCH  10  32
BRANCH  12  36
HETATM   36  O3  UNL     1      -0.932   5.784  13.986  1.00  0.00    -0.394 OA
HETATM   37  H35 UNL     1      -1.508   5.128  13.560  1.00  0.00     0.210 HD
ENDBRANCH  12  36
TORSDOF 8
ENDMDL
MODEL 7
REMARK minimizedAffinity -8.11828995
REMARK CNNscore 0.28837961
REMARK CNNaffinity 5.983109
REMARK  8 active torsions:
REMARK  status: ('A' for Active; 'I' for Inactive)
REMARK    1  A    between atoms: C4_4  and  C5_5 
REMARK    2  A    between atoms: C5_5  and  C6_6 
REMARK    3  A    between atoms: C6_6  and  C7_7 
REMARK    4  A    between atoms: C7_7  and  C9_9 
REMARK    5  A    between atoms: C18_18  and  C20_20 
REMARK    6  A    between atoms: C20_20  and  O2_22 
REMARK    7  A    between atoms: C21_23  and  O3_24 
REMARK    8  A    between atoms: C23_26  and  O4_27 
ROOT
HETATM    1  C9  UNL     1      -1.106  11.056  18.115  1.00  0.00    -0.002 C 
HETATM    2  C10 UNL     1      -2.341  11.655  17.408  1.00  0.00     0.006 C 
HETATM    3  C11 UNL     1      -2.281  11.203  15.935  1.00  0.00     0.011 C 
HETATM    4  C12 UNL     1      -1.135  10.175  15.853  1.00  0.00    -0.032 C 
HETATM    5  C13 UNL     1      -1.743   8.778  16.187  1.00  0.00     0.016 C 
HETATM    6  C14 UNL     1      -0.417  10.114  14.482  1.00  0.00     0.004 C 
HETATM    7  C15 UNL     1      -1.329   9.652  13.327  1.00  0.00     0.007 C 
HETATM    8  C16 UNL     1      -0.969   8.294  12.738  1.00  0.00     0.007 C 
HETATM    9  C17 UNL     1       0.464   8.335  12.192  1.00  0.00     0.018 C 
HETATM   10  C18 UNL     1       0.840   7.179  11.207  1.00  0.00     0.072 C 
HETATM   11  C19 UNL     1       0.151   7.427   9.838  1.00  0.00     0.030 C 
HETATM   12  C21 UNL     1       2.375   7.191  10.998  1.00  0.00     0.139 C 
HETATM   13  C22 UNL     1       3.192   7.038  12.292  1.00  0.00     0.065 C 
HETATM   14  C23 UNL     1       2.420   7.381  13.568  1.00  0.00     0.130 C 
HETATM   15  C24 UNL     1       1.442   8.521  13.364  1.00  0.00    -0.001 A 
HETATM   16  C25 UNL     1       1.999   9.906  13.596  1.00  0.00     0.024 A 
HETATM   17  C26 UNL     1       0.956   9.385  14.569  1.00  0.00    -0.025 A 
HETATM   18  C27 UNL     1       1.462   8.964  15.964  1.00  0.00     0.011 C 
HETATM   19  C28 UNL     1       0.901   9.657  17.218  1.00  0.00     0.011 C 
HETATM   20  C29 UNL     1      -0.141  10.733  16.929  1.00  0.00    -0.032 C 
HETATM   21  C30 UNL     1       0.620  12.017  16.494  1.00  0.00     0.016 C 
ENDROOT
BRANCH   1  22
HETATM   22  C7  UNL     1      -0.527  11.830  19.337  1.00  0.00    -0.014 C 
HETATM   23  C8  UNL     1      -0.784  13.334  19.173  1.00  0.00     0.010 C 
BRANCH  22  24
HETATM   24  C6  UNL     1       0.945  11.532  19.718  1.00  0.00     0.008 C 
BRANCH  24  25
HETATM   25  C5  UNL     1       1.208  10.422  20.756  1.00  0.00     0.028 C 
BRANCH  25  26
HETATM   26  C4  UNL     1       2.465  10.646  21.555  1.00  0.00    -0.025 C 
HETATM   27  C2  UNL     1       3.056   9.814  22.435  1.00  0.00    -0.091 C 
HETATM   28  C1  UNL     1       2.545   8.456  22.829  1.00  0.00     0.042 C 
HETATM   29  C3  UNL     1       4.338  10.210  23.118  1.00  0.00     0.042 C 
ENDBRANCH  25  26
ENDBRANCH  24  25
ENDBRANCH  22  24
ENDBRANCH   1  22
BRANCH  14  30
HETATM   30  O4  UNL     1       1.703   6.242  14.037  1.00  0.00    -0.395 OA
HETATM   31  H39 UNL     1       2.359   5.604  14.365  1.00  0.00     0.210 HD
ENDBRANCH  14  30
BRANCH  10  32
HETATM   32  C20 UNL     1       0.339   5.794  11.626  1.00  0.00     0.151 C 
HETATM   33  O1  UNL     1      -0.554   5.541  12.420  1.00  0.00    -0.649 OA
BRANCH  32  34
HETATM   34  O2  UNL     1       0.871   4.773  10.922  1.00  0.00    -0.776 OA
HETATM   35  H33 UNL     1       0.410   3.997  11.306  1.00  0.00     0.167 HD
ENDBRANCH  32  34
ENDBRANCH  10  32
BRANCH  12  36
HETATM   36  O3  UNL     1       2.768   8.428  10.369  1.00  0.00    -0.394 OA
HETATM   37  H35 UNL     1       3.689   8.325  10.078  1.00  0.00     0.210 HD
ENDBRANCH  12  36
TORSDOF 8
ENDMDL
MODEL 8
REMARK minimizedAffinity -9.29521179
REMARK CNNscore 0.281390399
REMARK CNNaffinity 6.53271818
REMARK  8 active torsions:
REMARK  status: ('A' for Active; 'I' for Inactive)
REMARK    1  A    between atoms: C4_4  and  C5_5 
REMARK    2  A    between atoms: C5_5  and  C6_6 
REMARK    3  A    between atoms: C6_6  and  C7_7 
REMARK    4  A    between atoms: C7_7  and  C9_9 
REMARK    5  A    between atoms: C18_18  and  C20_20 
REMARK    6  A    between atoms: C20_20  and  O2_22 
REMARK    7  A    between atoms: C21_23  and  O3_24 
REMARK    8  A    between atoms: C23_26  and  O4_27 
ROOT
HETATM    1  C9  UNL     1      -4.797   5.855  14.283  1.00  0.00    -0.002 C 
HETATM    2  C10 UNL     1      -4.507   4.980  13.044  1.00  0.00     0.006 C 
HETATM    3  C11 UNL     1      -3.078   5.319  12.577  1.00  0.00     0.011 C 
HETATM    4  C12 UNL     1      -2.477   6.224  13.672  1.00  0.00    -0.032 C 
HETATM    5  C13 UNL     1      -1.834   5.289  14.742  1.00  0.00     0.016 C 
HETATM    6  C14 UNL     1      -1.421   7.238  13.166  1.00  0.00     0.004 C 
HETATM    7  C15 UNL     1      -0.155   6.574  12.586  1.00  0.00     0.007 C 
HETATM    8  C16 UNL     1       1.110   6.797  13.404  1.00  0.00     0.007 C 
HETATM    9  C17 UNL     1       1.396   8.300  13.507  1.00  0.00     0.018 C 
HETATM   10  C18 UNL     1       2.848   8.677  13.952  1.00  0.00     0.072 C 
HETATM   11  C19 UNL     1       3.829   8.418  12.777  1.00  0.00     0.030 C 
HETATM   12  C21 UNL     1       2.880  10.187  14.298  1.00  0.00     0.139 C 
HETATM   13  C22 UNL     1       1.889  10.606  15.397  1.00  0.00     0.065 C 
HETATM   14  C23 UNL     1       0.740   9.620  15.617  1.00  0.00     0.130 C 
HETATM   15  C24 UNL     1       0.281   8.968  14.328  1.00  0.00    -0.001 A 
HETATM   16  C25 UNL     1      -0.795   9.709  13.571  1.00  0.00     0.024 A 
HETATM   17  C26 UNL     1      -1.155   8.374  14.196  1.00  0.00    -0.025 A 
HETATM   18  C27 UNL     1      -2.036   8.420  15.462  1.00  0.00     0.011 C 
HETATM   19  C28 UNL     1      -3.400   7.708  15.467  1.00  0.00     0.011 C 
HETATM   20  C29 UNL     1      -3.746   7.004  14.158  1.00  0.00    -0.032 C 
HETATM   21  C30 UNL     1      -4.253   8.087  13.164  1.00  0.00     0.016 C 
ENDROOT
BRANCH   1  22
HETATM   22  C7  UNL     1      -6.280   6.248  14.559  1.00  0.00    -0.014 C 
HETATM   23  C8  UNL     1      -6.338   7.364  15.611  1.00  0.00     0.010 C 
BRANCH  22  24
HETATM   24  C6  UNL     1      -7.257   5.091  14.887  1.00  0.00     0.008 C 
BRANCH  24  25
HETATM   25  C5  UNL     1      -7.579   4.082  13.766  1.00  0.00     0.028 C 
BRANCH  25  26
HETATM   26  C4  UNL     1      -8.062   4.739  12.500  1.00  0.00    -0.025 C 
HETATM   27  C2  UNL     1      -8.971   5.724  12.364  1.00  0.00    -0.091 C 
HETATM   28  C1  UNL     1      -9.731   6.370  13.489  1.00  0.00     0.042 C 
HETATM   29  C3  UNL     1      -9.303   6.275  11.002  1.00  0.00     0.042 C 
ENDBRANCH  25  26
ENDBRANCH  24  25
ENDBRANCH  22  24
ENDBRANCH   1  22
BRANCH  14  30
HETATM   30  O4  UNL     1       1.127   8.599  16.533  1.00  0.00    -0.395 OA
HETATM   31  H39 UNL     1       1.206   9.013  17.409  1.00  0.00     0.210 HD
ENDBRANCH  14  30
BRANCH  10  32
HETATM   32  C20 UNL     1       3.409   7.826  15.094  1.00  0.00     0.151 C 
HETATM   33  O1  UNL     1       4.308   8.124  15.865  1.00  0.00    -0.649 OA
BRANCH  32  34
HETATM   34  O2  UNL     1       2.723   6.688  15.330  1.00  0.00    -0.776 OA
HETATM   35  H33 UNL     1       3.204   6.313  16.098  1.00  0.00     0.167 HD
ENDBRANCH  32  34
ENDBRANCH  10  32
BRANCH  12  36
HETATM   36  O3  UNL     1       2.584  10.960  13.118  1.00  0.00    -0.394 OA
HETATM   37  H35 UNL     1       2.801  11.887  13.316  1.00  0.00     0.210 HD
ENDBRANCH  12  36
TORSDOF 8
ENDMDL
MODEL 9
REMARK minimizedAffinity -6.79335308
REMARK CNNscore 0.21344395
REMARK CNNaffinity 5.73080826
REMARK  8 active torsions:
REMARK  status: ('A' for Active; 'I' for Inactive)
REMARK    1  A    between atoms: C4_4  and  C5_5 
REMARK    2  A    between atoms: C5_5  and  C6_6 
REMARK    3  A    between atoms: C6_6  and  C7_7 
REMARK    4  A    between atoms: C7_7  and  C9_9 
REMARK    5  A    between atoms: C18_18  and  C20_20 
REMARK    6  A    between atoms: C20_20  and  O2_22 
REMARK    7  A    between atoms: C21_23  and  O3_24 
REMARK    8  A    between atoms: C23_26  and  O4_27 
ROOT
HETATM    1  C9  UNL     1      -1.633  11.783  15.897  1.00  0.00    -0.002 C 
HETATM    2  C10 UNL     1      -2.396  13.036  16.380  1.00  0.00     0.006 C 
HETATM    3  C11 UNL     1      -1.723  13.497  17.688  1.00  0.00     0.011 C 
HETATM    4  C12 UNL     1      -0.450  12.640  17.836  1.00  0.00    -0.032 C 
HETATM    5  C13 UNL     1       0.692  13.375  17.069  1.00  0.00     0.016 C 
HETATM    6  C14 UNL     1      -0.010  12.381  19.298  1.00  0.00     0.004 C 
HETATM    7  C15 UNL     1       0.390  13.662  20.059  1.00  0.00     0.007 C 
HETATM    8  C16 UNL     1       1.868  13.752  20.416  1.00  0.00     0.007 C 
HETATM    9  C17 UNL     1       2.255  12.561  21.303  1.00  0.00     0.018 C 
HETATM   10  C18 UNL     1       3.604  12.715  22.080  1.00  0.00     0.072 C 
HETATM   11  C19 UNL     1       3.410  13.717  23.252  1.00  0.00     0.030 C 
HETATM   12  C21 UNL     1       3.993  11.336  22.669  1.00  0.00     0.139 C 
HETATM   13  C22 UNL     1       4.137  10.219  21.622  1.00  0.00     0.065 C 
HETATM   14  C23 UNL     1       3.429  10.504  20.296  1.00  0.00     0.130 C 
HETATM   15  C24 UNL     1       2.133  11.266  20.484  1.00  0.00    -0.001 A 
HETATM   16  C25 UNL     1       0.903  10.416  20.701  1.00  0.00     0.024 A 
HETATM   17  C26 UNL     1       1.004  11.206  19.408  1.00  0.00    -0.025 A 
HETATM   18  C27 UNL     1       1.317  10.401  18.130  1.00  0.00     0.011 C 
HETATM   19  C28 UNL     1       0.326  10.428  16.952  1.00  0.00     0.011 C 
HETATM   20  C29 UNL     1      -0.911  11.288  17.191  1.00  0.00    -0.032 C 
HETATM   21  C30 UNL     1      -1.893  10.462  18.068  1.00  0.00     0.016 C 
ENDROOT
BRANCH   1  22
HETATM   22  C7  UNL     1      -2.422  10.737  15.054  1.00  0.00    -0.014 C 
HETATM   23  C8  UNL     1      -3.801  10.494  15.683  1.00  0.00     0.010 C 
BRANCH  22  24
HETATM   24  C6  UNL     1      -1.692   9.410  14.729  1.00  0.00     0.008 C 
BRANCH  24  25
HETATM   25  C5  UNL     1      -1.857   8.829  13.310  1.00  0.00     0.028 C 
BRANCH  25  26
HETATM   26  C4  UNL     1      -2.517   7.475  13.299  1.00  0.00    -0.025 C 
HETATM   27  C2  UNL     1      -3.829   7.187  13.194  1.00  0.00    -0.091 C 
HETATM   28  C1  UNL     1      -4.938   8.196  13.087  1.00  0.00     0.042 C 
HETATM   29  C3  UNL     1      -4.297   5.755  13.172  1.00  0.00     0.042 C 
ENDBRANCH  25  26
ENDBRANCH  24  25
ENDBRANCH  22  24
ENDBRANCH   1  22
BRANCH  14  30
HETATM   30  O4  UNL     1       4.278  11.252  19.429  1.00  0.00    -0.395 OA
HETATM   31  H39 UNL     1       4.997  10.660  19.149  1.00  0.00     0.210 HD
ENDBRANCH  14  30
BRANCH  10  32
HETATM   32  C20 UNL     1       4.748  13.322  21.264  1.00  0.00     0.151 C 
HETATM   33  O1  UNL     1       4.669  14.212  20.431  1.00  0.00    -0.649 OA
BRANCH  32  34
HETATM   34  O2  UNL     1       5.977  12.898  21.625  1.00  0.00    -0.776 OA
HETATM   35  H33 UNL     1       6.557  13.414  21.025  1.00  0.00     0.167 HD
ENDBRANCH  32  34
ENDBRANCH  10  32
BRANCH  12  36
HETATM   36  O3  UNL     1       2.997  10.920  23.625  1.00  0.00    -0.394 OA
HETATM   37  H35 UNL     1       3.361  10.161  24.111  1.00  0.00     0.210 HD
ENDBRANCH  12  36
TORSDOF 8
ENDMDL
