MODEL 1
REMARK minimizedAffinity -7.23193121
REMARK CNNscore 0.335336864
REMARK CNNaffinity 6.53212929
REMARK  8 active torsions:
REMARK  status: ('A' for Active; 'I' for Inactive)
REMARK    1  A    between atoms: C2_2  and  C3_3 
REMARK    2  A    between atoms: C2_2  and  C9_12 
REMARK    3  A    between atoms: C3_3  and  C4_4 
REMARK    4  A    between atoms: C4_4  and  C5_5 
REMARK    5  A    between atoms: C6_6  and  C7_7 
REMARK    6  A    between atoms: C6_6  and  C8_9 
REMARK    7  A    between atoms: C7_7  and  O1_8 
REMARK    8  A    between atoms: C8_9  and  O3_11 
ROOT
HETATM    1  C9  UNL     1       1.712  54.249  -8.546  1.00  0.00    -0.002 C 
HETATM    2  C10 UNL     1       1.629  53.435  -7.234  1.00  0.00     0.006 C 
HETATM    3  C11 UNL     1       0.272  52.708  -7.270  1.00  0.00     0.006 C 
HETATM    4  C12 UNL     1      -0.306  53.029  -8.650  1.00  0.00    -0.001 C 
HETATM    5  C13 UNL     1      -1.820  52.859  -8.851  1.00  0.00    -0.000 C 
HETATM    6  C14 UNL     1      -2.173  51.381  -8.580  1.00  0.00     0.006 C 
HETATM    7  C15 UNL     1      -3.419  50.844  -9.265  1.00  0.00     0.007 C 
HETATM    8  C16 UNL     1      -3.464  51.076 -10.785  1.00  0.00     0.010 C 
HETATM    9  C17 UNL     1      -2.621  50.078 -11.659  1.00  0.00     0.018 C 
HETATM   10  C18 UNL     1      -3.173  48.643 -11.509  1.00  0.00     0.023 C 
HETATM   11  C19 UNL     1      -1.116  50.043 -11.357  1.00  0.00     0.023 C 
HETATM   12  C20 UNL     1      -2.755  50.495 -13.138  1.00  0.00     0.135 C 
HETATM   13  O4  UNL     1      -3.039  49.700 -14.036  1.00  0.00    -0.297 OA
HETATM   14  C21 UNL     1      -2.453  51.938 -13.466  1.00  0.00     0.080 C 
HETATM   15  C22 UNL     1      -3.374  52.807 -12.640  1.00  0.00     0.018 C 
HETATM   16  C23 UNL     1      -3.192  52.542 -11.151  1.00  0.00    -0.026 A 
HETATM   17  C24 UNL     1      -3.784  53.626 -10.291  1.00  0.00     0.021 A 
HETATM   18  C25 UNL     1      -2.278  53.395 -10.234  1.00  0.00    -0.028 A 
HETATM   19  C26 UNL     1      -1.481  54.577 -10.821  1.00  0.00     0.011 C 
HETATM   20  C27 UNL     1       0.000  54.656 -10.448  1.00  0.00     0.011 C 
HETATM   21  C28 UNL     1       0.220  54.443  -8.949  1.00  0.00    -0.036 C 
HETATM   22  C29 UNL     1      -0.482  55.548  -8.135  1.00  0.00     0.016 C 
ENDROOT
BRANCH   1  23
HETATM   23  C2  UNL     1       2.648  55.489  -8.538  1.00  0.00    -0.014 C 
HETATM   24  C1  UNL     1       2.072  56.540  -7.571  1.00  0.00     0.010 C 
BRANCH  23  25
HETATM   25  C3  UNL     1       2.897  56.143  -9.916  1.00  0.00     0.008 C 
BRANCH  25  26
HETATM   26  C4  UNL     1       4.238  55.739 -10.544  1.00  0.00     0.028 C 
BRANCH  26  27
HETATM   27  C5  UNL     1       4.520  54.275 -10.322  1.00  0.00    -0.011 C 
HETATM   28  C6  UNL     1       5.418  53.729  -9.474  1.00  0.00     0.035 C 
BRANCH  28  29
HETATM   29  C7  UNL     1       5.586  52.249  -9.316  1.00  0.00     0.209 C 
BRANCH  29  30
HETATM   30  O1  UNL     1       6.968  51.927  -9.201  1.00  0.00    -0.396 OA
HETATM   31  H12 UNL     1       7.434  52.388  -9.920  1.00  0.00     0.209 HD
ENDBRANCH  29  30
ENDBRANCH  28  29
BRANCH  28  32
HETATM   32  C8  UNL     1       6.302  54.585  -8.658  1.00  0.00     0.173 C 
HETATM   33  O2  UNL     1       6.046  55.065  -7.568  1.00  0.00    -0.646 OA
BRANCH  32  34
HETATM   34  O3  UNL     1       7.492  54.779  -9.249  1.00  0.00    -0.773 OA
HETATM   35  H13 UNL     1       7.969  55.361  -8.621  1.00  0.00     0.167 HD
ENDBRANCH  32  34
ENDBRANCH  28  32
ENDBRANCH  26  27
ENDBRANCH  25  26
ENDBRANCH  23  25
ENDBRANCH   1  23
TORSDOF 8
ENDMDL
MODEL 2
REMARK minimizedAffinity -7.50982618
REMARK CNNscore 0.251609445
REMARK CNNaffinity 5.91722298
REMARK  8 active torsions:
REMARK  status: ('A' for Active; 'I' for Inactive)
REMARK    1  A    between atoms: C2_2  and  C3_3 
REMARK    2  A    between atoms: C2_2  and  C9_12 
REMARK    3  A    between atoms: C3_3  and  C4_4 
REMARK    4  A    between atoms: C4_4  and  C5_5 
REMARK    5  A    between atoms: C6_6  and  C7_7 
REMARK    6  A    between atoms: C6_6  and  C8_9 
REMARK    7  A    between atoms: C7_7  and  O1_8 
REMARK    8  A    between atoms: C8_9  and  O3_11 
ROOT
HETATM    1  C9  UNL     1      -7.545  48.247 -19.270  1.00  0.00    -0.002 C 
HETATM    2  C10 UNL     1      -6.948  46.985 -18.605  1.00  0.00     0.006 C 
HETATM    3  C11 UNL     1      -5.630  46.698 -19.347  1.00  0.00     0.006 C 
HETATM    4  C12 UNL     1      -5.461  47.872 -20.312  1.00  0.00    -0.001 C 
HETATM    5  C13 UNL     1      -4.519  47.685 -21.511  1.00  0.00    -0.000 C 
HETATM    6  C14 UNL     1      -3.108  47.382 -20.966  1.00  0.00     0.006 C 
HETATM    7  C15 UNL     1      -1.938  47.743 -21.869  1.00  0.00     0.007 C 
HETATM    8  C16 UNL     1      -1.952  49.193 -22.384  1.00  0.00     0.010 C 
HETATM    9  C17 UNL     1      -1.440  50.286 -21.377  1.00  0.00     0.018 C 
HETATM   10  C18 UNL     1       0.049  50.048 -21.045  1.00  0.00     0.023 C 
HETATM   11  C19 UNL     1      -2.214  50.380 -20.054  1.00  0.00     0.023 C 
HETATM   12  C20 UNL     1      -1.571  51.667 -22.052  1.00  0.00     0.135 C 
HETATM   13  O4  UNL     1      -0.652  52.488 -22.081  1.00  0.00    -0.297 OA
HETATM   14  C21 UNL     1      -2.920  52.012 -22.635  1.00  0.00     0.080 C 
HETATM   15  C22 UNL     1      -3.277  50.950 -23.649  1.00  0.00     0.018 C 
HETATM   16  C23 UNL     1      -3.302  49.567 -23.012  1.00  0.00    -0.026 A 
HETATM   17  C24 UNL     1      -4.014  48.548 -23.861  1.00  0.00     0.021 A 
HETATM   18  C25 UNL     1      -4.595  48.886 -22.493  1.00  0.00    -0.028 A 
HETATM   19  C26 UNL     1      -5.948  49.618 -22.594  1.00  0.00     0.011 C 
HETATM   20  C27 UNL     1      -6.813  49.634 -21.333  1.00  0.00     0.011 C 
HETATM   21  C28 UNL     1      -6.904  48.248 -20.689  1.00  0.00    -0.036 C 
HETATM   22  C29 UNL     1      -7.572  47.246 -21.650  1.00  0.00     0.016 C 
ENDROOT
BRANCH   1  23
HETATM   23  C2  UNL     1      -9.082  48.438 -19.147  1.00  0.00    -0.014 C 
HETATM   24  C1  UNL     1      -9.377  49.317 -17.917  1.00  0.00     0.010 C 
BRANCH  23  25
HETATM   25  C3  UNL     1      -9.909  47.135 -19.055  1.00  0.00     0.008 C 
BRANCH  25  26
HETATM   26  C4  UNL     1     -11.241  47.208 -19.813  1.00  0.00     0.028 C 
BRANCH  26  27
HETATM   27  C5  UNL     1     -12.408  47.179 -18.860  1.00  0.00    -0.011 C 
HETATM   28  C6  UNL     1     -13.627  47.734 -19.033  1.00  0.00     0.035 C 
BRANCH  28  29
HETATM   29  C7  UNL     1     -14.724  47.609 -18.021  1.00  0.00     0.209 C 
BRANCH  29  30
HETATM   30  O1  UNL     1     -14.874  48.836 -17.314  1.00  0.00    -0.396 OA
HETATM   31  H12 UNL     1     -13.987  49.116 -17.027  1.00  0.00     0.209 HD
ENDBRANCH  29  30
ENDBRANCH  28  29
BRANCH  28  32
HETATM   32  C8  UNL     1     -13.934  48.516 -20.247  1.00  0.00     0.173 C 
HETATM   33  O2  UNL     1     -14.264  48.073 -21.333  1.00  0.00    -0.646 OA
BRANCH  32  34
HETATM   34  O3  UNL     1     -13.832  49.837 -20.028  1.00  0.00    -0.773 OA
HETATM   35  H13 UNL     1     -14.047  50.232 -20.899  1.00  0.00     0.167 HD
ENDBRANCH  32  34
ENDBRANCH  28  32
ENDBRANCH  26  27
ENDBRANCH  25  26
ENDBRANCH  23  25
ENDBRANCH   1  23
TORSDOF 8
ENDMDL
MODEL 3
REMARK minimizedAffinity -7.86613941
REMARK CNNscore 0.249730766
REMARK CNNaffinity 5.94045115
REMARK  8 active torsions:
REMARK  status: ('A' for Active; 'I' for Inactive)
REMARK    1  A    between atoms: C2_2  and  C3_3 
REMARK    2  A    between atoms: C2_2  and  C9_12 
REMARK    3  A    between atoms: C3_3  and  C4_4 
REMARK    4  A    between atoms: C4_4  and  C5_5 
REMARK    5  A    between atoms: C6_6  and  C7_7 
REMARK    6  A    between atoms: C6_6  and  C8_9 
REMARK    7  A    between atoms: C7_7  and  O1_8 
REMARK    8  A    between atoms: C8_9  and  O3_11 
ROOT
HETATM    1  C9  UNL     1      -7.210  48.385 -20.730  1.00  0.00    -0.002 C 
HETATM    2  C10 UNL     1      -7.295  47.789 -19.306  1.00  0.00     0.006 C 
HETATM    3  C11 UNL     1      -5.841  47.645 -18.819  1.00  0.00     0.006 C 
HETATM    4  C12 UNL     1      -4.995  48.281 -19.923  1.00  0.00    -0.001 C 
HETATM    5  C13 UNL     1      -3.506  47.907 -19.991  1.00  0.00    -0.000 C 
HETATM    6  C14 UNL     1      -2.848  48.329 -18.661  1.00  0.00     0.006 C 
HETATM    7  C15 UNL     1      -1.356  48.618 -18.702  1.00  0.00     0.007 C 
HETATM    8  C16 UNL     1      -0.929  49.622 -19.788  1.00  0.00     0.010 C 
HETATM    9  C17 UNL     1      -1.157  51.140 -19.450  1.00  0.00     0.018 C 
HETATM   10  C18 UNL     1      -0.294  51.550 -18.237  1.00  0.00     0.023 C 
HETATM   11  C19 UNL     1      -2.611  51.541 -19.158  1.00  0.00     0.023 C 
HETATM   12  C20 UNL     1      -0.714  51.980 -20.665  1.00  0.00     0.135 C 
HETATM   13  O4  UNL     1       0.036  52.953 -20.570  1.00  0.00    -0.297 OA
HETATM   14  C21 UNL     1      -1.298  51.597 -22.004  1.00  0.00     0.080 C 
HETATM   15  C22 UNL     1      -0.948  50.151 -22.271  1.00  0.00     0.018 C 
HETATM   16  C23 UNL     1      -1.482  49.243 -21.169  1.00  0.00    -0.026 A 
HETATM   17  C24 UNL     1      -1.502  47.793 -21.570  1.00  0.00     0.021 A 
HETATM   18  C25 UNL     1      -2.828  48.481 -21.264  1.00  0.00    -0.028 A 
HETATM   19  C26 UNL     1      -3.714  48.629 -22.518  1.00  0.00     0.011 C 
HETATM   20  C27 UNL     1      -5.198  48.909 -22.277  1.00  0.00     0.011 C 
HETATM   21  C28 UNL     1      -5.784  47.982 -21.209  1.00  0.00    -0.036 C 
HETATM   22  C29 UNL     1      -5.697  46.511 -21.660  1.00  0.00     0.016 C 
ENDROOT
BRANCH   1  23
HETATM   23  C2  UNL     1      -8.416  48.113 -21.671  1.00  0.00    -0.014 C 
HETATM   24  C1  UNL     1      -8.770  46.615 -21.606  1.00  0.00     0.010 C 
BRANCH  23  25
HETATM   25  C3  UNL     1      -8.215  48.527 -23.147  1.00  0.00     0.008 C 
BRANCH  25  26
HETATM   26  C4  UNL     1      -8.354  47.356 -24.128  1.00  0.00     0.028 C 
BRANCH  26  27
HETATM   27  C5  UNL     1      -9.764  47.254 -24.652  1.00  0.00    -0.011 C 
HETATM   28  C6  UNL     1     -10.285  47.865 -25.737  1.00  0.00     0.035 C 
BRANCH  28  29
HETATM   29  C7  UNL     1     -11.702  47.660 -26.180  1.00  0.00     0.209 C 
BRANCH  29  30
HETATM   30  O1  UNL     1     -12.085  48.698 -27.076  1.00  0.00    -0.396 OA
HETATM   31  H12 UNL     1     -11.829  49.543 -26.668  1.00  0.00     0.209 HD
ENDBRANCH  29  30
ENDBRANCH  28  29
BRANCH  28  32
HETATM   32  C8  UNL     1      -9.469  48.793 -26.545  1.00  0.00     0.173 C 
HETATM   33  O2  UNL     1      -8.766  48.503 -27.497  1.00  0.00    -0.646 OA
BRANCH  32  34
HETATM   34  O3  UNL     1      -9.596  50.063 -26.126  1.00  0.00    -0.773 OA
HETATM   35  H13 UNL     1      -9.007  50.564 -26.727  1.00  0.00     0.167 HD
ENDBRANCH  32  34
ENDBRANCH  28  32
ENDBRANCH  26  27
ENDBRANCH  25  26
ENDBRANCH  23  25
ENDBRANCH   1  23
TORSDOF 8
ENDMDL
MODEL 4
REMARK minimizedAffinity -6.96615267
REMARK CNNscore 0.234267682
REMARK CNNaffinity 6.19794989
REMARK  8 active torsions:
REMARK  status: ('A' for Active; 'I' for Inactive)
REMARK    1  A    between atoms: C2_2  and  C3_3 
REMARK    2  A    between atoms: C2_2  and  C9_12 
REMARK    3  A    between atoms: C3_3  and  C4_4 
REMARK    4  A    between atoms: C4_4  and  C5_5 
REMARK    5  A    between atoms: C6_6  and  C7_7 
REMARK    6  A    between atoms: C6_6  and  C8_9 
REMARK    7  A    between atoms: C7_7  and  O1_8 
REMARK    8  A    between atoms: C8_9  and  O3_11 
ROOT
HETATM    1  C9  UNL     1      -0.576  51.098 -14.736  1.00  0.00    -0.002 C 
HETATM    2  C10 UNL     1      -1.891  50.697 -14.028  1.00  0.00     0.006 C 
HETATM    3  C11 UNL     1      -1.608  50.798 -12.518  1.00  0.00     0.006 C 
HETATM    4  C12 UNL     1      -0.194  51.373 -12.423  1.00  0.00    -0.001 C 
HETATM    5  C13 UNL     1       0.574  51.175 -11.107  1.00  0.00    -0.000 C 
HETATM    6  C14 UNL     1      -0.232  51.853  -9.979  1.00  0.00     0.006 C 
HETATM    7  C15 UNL     1       0.556  52.311  -8.762  1.00  0.00     0.007 C 
HETATM    8  C16 UNL     1       1.770  53.199  -9.083  1.00  0.00     0.010 C 
HETATM    9  C17 UNL     1       1.457  54.711  -9.381  1.00  0.00     0.018 C 
HETATM   10  C18 UNL     1       0.853  55.385  -8.129  1.00  0.00     0.023 C 
HETATM   11  C19 UNL     1       0.514  54.970 -10.564  1.00  0.00     0.023 C 
HETATM   12  C20 UNL     1       2.782  55.423  -9.721  1.00  0.00     0.135 C 
HETATM   13  O4  UNL     1       3.128  56.483  -9.197  1.00  0.00    -0.297 OA
HETATM   14  C21 UNL     1       3.634  54.792 -10.797  1.00  0.00     0.080 C 
HETATM   15  C22 UNL     1       3.950  53.376 -10.373  1.00  0.00     0.018 C 
HETATM   16  C23 UNL     1       2.675  52.571 -10.152  1.00  0.00    -0.026 A 
HETATM   17  C24 UNL     1       2.924  51.087 -10.111  1.00  0.00     0.021 A 
HETATM   18  C25 UNL     1       2.049  51.646 -11.227  1.00  0.00    -0.028 A 
HETATM   19  C26 UNL     1       2.711  51.513 -12.613  1.00  0.00     0.011 C 
HETATM   20  C27 UNL     1       1.789  51.643 -13.827  1.00  0.00     0.011 C 
HETATM   21  C28 UNL     1       0.517  50.807 -13.665  1.00  0.00    -0.036 C 
HETATM   22  C29 UNL     1       0.861  49.310 -13.551  1.00  0.00     0.016 C 
ENDROOT
BRANCH   1  23
HETATM   23  C2  UNL     1      -0.368  50.556 -16.177  1.00  0.00    -0.014 C 
HETATM   24  C1  UNL     1       0.419  49.234 -16.102  1.00  0.00     0.010 C 
BRANCH  23  25
HETATM   25  C3  UNL     1       0.343  51.520 -17.154  1.00  0.00     0.008 C 
BRANCH  25  26
HETATM   26  C4  UNL     1      -0.387  51.669 -18.495  1.00  0.00     0.028 C 
BRANCH  26  27
HETATM   27  C5  UNL     1       0.411  52.516 -19.454  1.00  0.00    -0.011 C 
HETATM   28  C6  UNL     1       0.333  52.530 -20.801  1.00  0.00     0.035 C 
BRANCH  28  29
HETATM   29  C7  UNL     1       1.160  53.446 -21.651  1.00  0.00     0.209 C 
BRANCH  29  30
HETATM   30  O1  UNL     1       1.667  54.515 -20.859  1.00  0.00    -0.396 OA
HETATM   31  H12 UNL     1       0.922  54.878 -20.350  1.00  0.00     0.209 HD
ENDBRANCH  29  30
ENDBRANCH  28  29
BRANCH  28  32
HETATM   32  C8  UNL     1      -0.582  51.616 -21.514  1.00  0.00     0.173 C 
HETATM   33  O2  UNL     1      -0.375  50.446 -21.785  1.00  0.00    -0.646 OA
BRANCH  32  34
HETATM   34  O3  UNL     1      -1.738  52.218 -21.835  1.00  0.00    -0.773 OA
HETATM   35  H13 UNL     1      -2.240  51.519 -22.304  1.00  0.00     0.167 HD
ENDBRANCH  32  34
ENDBRANCH  28  32
ENDBRANCH  26  27
ENDBRANCH  25  26
ENDBRANCH  23  25
ENDBRANCH   1  23
TORSDOF 8
ENDMDL
MODEL 5
REMARK minimizedAffinity -7.80174923
REMARK CNNscore 0.225560352
REMARK CNNaffinity 5.38208199
REMARK  8 active torsions:
REMARK  status: ('A' for Active; 'I' for Inactive)
REMARK    1  A    between atoms: C2_2  and  C3_3 
REMARK    2  A    between atoms: C2_2  and  C9_12 
REMARK    3  A    between atoms: C3_3  and  C4_4 
REMARK    4  A    between atoms: C4_4  and  C5_5 
REMARK    5  A    between atoms: C6_6  and  C7_7 
REMARK    6  A    between atoms: C6_6  and  C8_9 
REMARK    7  A    between atoms: C7_7  and  O1_8 
REMARK    8  A    between atoms: C8_9  and  O3_11 
ROOT
HETATM    1  C9  UNL     1       4.392  66.378 -34.856  1.00  0.00    -0.002 C 
HETATM    2  C10 UNL     1       5.691  67.216 -34.878  1.00  0.00     0.006 C 
HETATM    3  C11 UNL     1       5.605  68.100 -36.136  1.00  0.00     0.006 C 
HETATM    4  C12 UNL     1       4.212  67.829 -36.708  1.00  0.00    -0.001 C 
HETATM    5  C13 UNL     1       3.964  68.177 -38.184  1.00  0.00    -0.000 C 
HETATM    6  C14 UNL     1       4.206  69.690 -38.364  1.00  0.00     0.006 C 
HETATM    7  C15 UNL     1       3.478  70.363 -39.517  1.00  0.00     0.007 C 
HETATM    8  C16 UNL     1       1.960  70.114 -39.547  1.00  0.00     0.010 C 
HETATM    9  C17 UNL     1       1.099  70.990 -38.565  1.00  0.00     0.018 C 
HETATM   10  C18 UNL     1       1.215  72.482 -38.944  1.00  0.00     0.023 C 
HETATM   11  C19 UNL     1       1.446  70.848 -37.076  1.00  0.00     0.023 C 
HETATM   12  C20 UNL     1      -0.377  70.568 -38.707  1.00  0.00     0.135 C 
HETATM   13  O4  UNL     1      -1.293  71.377 -38.867  1.00  0.00    -0.297 OA
HETATM   14  C21 UNL     1      -0.678  69.094 -38.572  1.00  0.00     0.080 C 
HETATM   15  C22 UNL     1       0.130  68.355 -39.614  1.00  0.00     0.018 C 
HETATM   16  C23 UNL     1       1.621  68.620 -39.443  1.00  0.00    -0.026 A 
HETATM   17  C24 UNL     1       2.476  67.629 -40.186  1.00  0.00     0.021 A 
HETATM   18  C25 UNL     1       2.575  67.678 -38.665  1.00  0.00    -0.028 A 
HETATM   19  C26 UNL     1       2.026  66.399 -38.000  1.00  0.00     0.011 C 
HETATM   20  C27 UNL     1       2.444  66.149 -36.550  1.00  0.00     0.011 C 
HETATM   21  C28 UNL     1       3.947  66.357 -36.349  1.00  0.00    -0.036 C 
HETATM   22  C29 UNL     1       4.752  65.358 -37.201  1.00  0.00     0.016 C 
ENDROOT
BRANCH   1  23
HETATM   23  C2  UNL     1       4.442  65.034 -34.077  1.00  0.00    -0.014 C 
HETATM   24  C1  UNL     1       4.903  65.315 -32.634  1.00  0.00     0.010 C 
BRANCH  23  25
HETATM   25  C3  UNL     1       5.340  63.939 -34.696  1.00  0.00     0.008 C 
BRANCH  25  26
HETATM   26  C4  UNL     1       5.479  62.696 -33.807  1.00  0.00     0.028 C 
BRANCH  26  27
HETATM   27  C5  UNL     1       6.125  61.562 -34.561  1.00  0.00    -0.011 C 
HETATM   28  C6  UNL     1       7.416  61.169 -34.511  1.00  0.00     0.035 C 
BRANCH  28  29
HETATM   29  C7  UNL     1       7.937  59.998 -35.287  1.00  0.00     0.209 C 
BRANCH  29  30
HETATM   30  O1  UNL     1       6.851  59.262 -35.840  1.00  0.00    -0.396 OA
HETATM   31  H12 UNL     1       6.206  59.115 -35.127  1.00  0.00     0.209 HD
ENDBRANCH  29  30
ENDBRANCH  28  29
BRANCH  28  32
HETATM   32  C8  UNL     1       8.395  61.900 -33.681  1.00  0.00     0.173 C 
HETATM   33  O2  UNL     1       8.955  62.943 -33.966  1.00  0.00    -0.646 OA
BRANCH  32  34
HETATM   34  O3  UNL     1       8.608  61.286 -32.505  1.00  0.00    -0.773 OA
HETATM   35  H13 UNL     1       9.272  61.856 -32.065  1.00  0.00     0.167 HD
ENDBRANCH  32  34
ENDBRANCH  28  32
ENDBRANCH  26  27
ENDBRANCH  25  26
ENDBRANCH  23  25
ENDBRANCH   1  23
TORSDOF 8
ENDMDL
MODEL 6
REMARK minimizedAffinity -9.07011509
REMARK CNNscore 0.213662043
REMARK CNNaffinity 6.65378046
REMARK  8 active torsions:
REMARK  status: ('A' for Active; 'I' for Inactive)
REMARK    1  A    between atoms: C2_2  and  C3_3 
REMARK    2  A    between atoms: C2_2  and  C9_12 
REMARK    3  A    between atoms: C3_3  and  C4_4 
REMARK    4  A    between atoms: C4_4  and  C5_5 
REMARK    5  A    between atoms: C6_6  and  C7_7 
REMARK    6  A    between atoms: C6_6  and  C8_9 
REMARK    7  A    between atoms: C7_7  and  O1_8 
REMARK    8  A    between atoms: C8_9  and  O3_11 
ROOT
HETATM    1  C9  UNL     1      -1.708  49.347 -19.261  1.00  0.00    -0.002 C 
HETATM    2  C10 UNL     1      -1.876  47.810 -19.224  1.00  0.00     0.006 C 
HETATM    3  C11 UNL     1      -2.878  47.466 -20.341  1.00  0.00     0.006 C 
HETATM    4  C12 UNL     1      -3.141  48.794 -21.052  1.00  0.00    -0.001 C 
HETATM    5  C13 UNL     1      -4.417  48.913 -21.901  1.00  0.00    -0.000 C 
HETATM    6  C14 UNL     1      -4.350  47.845 -23.013  1.00  0.00     0.006 C 
HETATM    7  C15 UNL     1      -5.140  48.134 -24.280  1.00  0.00     0.007 C 
HETATM    8  C16 UNL     1      -4.852  49.506 -24.914  1.00  0.00     0.010 C 
HETATM    9  C17 UNL     1      -3.541  49.605 -25.775  1.00  0.00     0.018 C 
HETATM   10  C18 UNL     1      -3.636  48.668 -26.999  1.00  0.00     0.023 C 
HETATM   11  C19 UNL     1      -2.236  49.286 -25.032  1.00  0.00     0.023 C 
HETATM   12  C20 UNL     1      -3.403  51.055 -26.285  1.00  0.00     0.135 C 
HETATM   13  O4  UNL     1      -3.178  51.332 -27.464  1.00  0.00    -0.297 OA
HETATM   14  C21 UNL     1      -3.492  52.149 -25.249  1.00  0.00     0.080 C 
HETATM   15  C22 UNL     1      -4.821  52.017 -24.541  1.00  0.00     0.018 C 
HETATM   16  C23 UNL     1      -4.965  50.646 -23.892  1.00  0.00    -0.026 A 
HETATM   17  C24 UNL     1      -6.070  50.599 -22.872  1.00  0.00     0.021 A 
HETATM   18  C25 UNL     1      -4.639  50.365 -22.403  1.00  0.00    -0.028 A 
HETATM   19  C26 UNL     1      -4.126  51.501 -21.496  1.00  0.00     0.011 C 
HETATM   20  C27 UNL     1      -2.896  51.191 -20.641  1.00  0.00     0.011 C 
HETATM   21  C28 UNL     1      -3.024  49.841 -19.931  1.00  0.00    -0.036 C 
HETATM   22  C29 UNL     1      -4.224  49.847 -18.964  1.00  0.00     0.016 C 
ENDROOT
BRANCH   1  23
HETATM   23  C2  UNL     1      -1.242  50.028 -17.944  1.00  0.00    -0.014 C 
HETATM   24  C1  UNL     1      -2.319  51.036 -17.498  1.00  0.00     0.010 C 
BRANCH  23  25
HETATM   25  C3  UNL     1       0.128  50.741 -18.013  1.00  0.00     0.008 C 
BRANCH  25  26
HETATM   26  C4  UNL     1       0.073  52.087 -18.748  1.00  0.00     0.028 C 
BRANCH  26  27
HETATM   27  C5  UNL     1       0.114  51.889 -20.242  1.00  0.00    -0.011 C 
HETATM   28  C6  UNL     1       0.720  52.673 -21.159  1.00  0.00     0.035 C 
BRANCH  28  29
HETATM   29  C7  UNL     1       0.719  52.354 -22.623  1.00  0.00     0.209 C 
BRANCH  29  30
HETATM   30  O1  UNL     1      -0.399  51.531 -22.940  1.00  0.00    -0.396 OA
HETATM   31  H12 UNL     1      -0.420  50.806 -22.292  1.00  0.00     0.209 HD
ENDBRANCH  29  30
ENDBRANCH  28  29
BRANCH  28  32
HETATM   32  C8  UNL     1       1.412  53.912 -20.754  1.00  0.00     0.173 C 
HETATM   33  O2  UNL     1       1.766  54.820 -21.486  1.00  0.00    -0.646 OA
BRANCH  32  34
HETATM   34  O3  UNL     1       1.609  53.962 -19.427  1.00  0.00    -0.773 OA
HETATM   35  H13 UNL     1       2.077  54.812 -19.295  1.00  0.00     0.167 HD
ENDBRANCH  32  34
ENDBRANCH  28  32
ENDBRANCH  26  27
ENDBRANCH  25  26
ENDBRANCH  23  25
ENDBRANCH   1  23
TORSDOF 8
ENDMDL
MODEL 7
REMARK minimizedAffinity -7.33921003
REMARK CNNscore 0.196274132
REMARK CNNaffinity 4.66065741
REMARK  8 active torsions:
REMARK  status: ('A' for Active; 'I' for Inactive)
REMARK    1  A    between atoms: C2_2  and  C3_3 
REMARK    2  A    between atoms: C2_2  and  C9_12 
REMARK    3  A    between atoms: C3_3  and  C4_4 
REMARK    4  A    between atoms: C4_4  and  C5_5 
REMARK    5  A    between atoms: C6_6  and  C7_7 
REMARK    6  A    between atoms: C6_6  and  C8_9 
REMARK    7  A    between atoms: C7_7  and  O1_8 
REMARK    8  A    between atoms: C8_9  and  O3_11 
ROOT
HETATM    1  C9  UNL     1     -13.784  44.238 -25.504  1.00  0.00    -0.002 C 
HETATM    2  C10 UNL     1     -12.856  44.841 -24.425  1.00  0.00     0.006 C 
HETATM    3  C11 UNL     1     -13.772  45.623 -23.466  1.00  0.00     0.006 C 
HETATM    4  C12 UNL     1     -15.191  45.331 -23.956  1.00  0.00    -0.001 C 
HETATM    5  C13 UNL     1     -16.309  46.296 -23.533  1.00  0.00    -0.000 C 
HETATM    6  C14 UNL     1     -16.387  46.288 -21.992  1.00  0.00     0.006 C 
HETATM    7  C15 UNL     1     -17.727  46.659 -21.377  1.00  0.00     0.007 C 
HETATM    8  C16 UNL     1     -18.923  45.858 -21.922  1.00  0.00     0.010 C 
HETATM    9  C17 UNL     1     -19.113  44.415 -21.328  1.00  0.00     0.018 C 
HETATM   10  C18 UNL     1     -19.408  44.496 -19.814  1.00  0.00     0.023 C 
HETATM   11  C19 UNL     1     -17.931  43.456 -21.532  1.00  0.00     0.023 C 
HETATM   12  C20 UNL     1     -20.324  43.759 -22.022  1.00  0.00     0.135 C 
HETATM   13  O4  UNL     1     -21.234  43.206 -21.402  1.00  0.00    -0.297 OA
HETATM   14  C21 UNL     1     -20.324  43.762 -23.533  1.00  0.00     0.080 C 
HETATM   15  C22 UNL     1     -20.227  45.197 -23.998  1.00  0.00     0.018 C 
HETATM   16  C23 UNL     1     -18.970  45.867 -23.456  1.00  0.00    -0.026 A 
HETATM   17  C24 UNL     1     -18.630  47.139 -24.185  1.00  0.00     0.021 A 
HETATM   18  C25 UNL     1     -17.646  45.976 -24.255  1.00  0.00    -0.028 A 
HETATM   19  C26 UNL     1     -17.546  45.377 -25.672  1.00  0.00     0.011 C 
HETATM   20  C27 UNL     1     -16.320  44.511 -25.963  1.00  0.00     0.011 C 
HETATM   21  C28 UNL     1     -15.028  45.174 -25.478  1.00  0.00    -0.036 C 
HETATM   22  C29 UNL     1     -14.792  46.507 -26.214  1.00  0.00     0.016 C 
ENDROOT
BRANCH   1  23
HETATM   23  C2  UNL     1     -13.133  43.905 -26.875  1.00  0.00    -0.014 C 
HETATM   24  C1  UNL     1     -12.962  42.377 -26.986  1.00  0.00     0.010 C 
BRANCH  23  25
HETATM   25  C3  UNL     1     -11.777  44.592 -27.152  1.00  0.00     0.008 C 
BRANCH  25  26
HETATM   26  C4  UNL     1     -11.828  45.581 -28.324  1.00  0.00     0.028 C 
BRANCH  26  27
HETATM   27  C5  UNL     1     -10.620  46.483 -28.324  1.00  0.00    -0.011 C 
HETATM   28  C6  UNL     1     -10.444  47.623 -27.622  1.00  0.00     0.035 C 
BRANCH  28  29
HETATM   29  C7  UNL     1      -9.178  48.422 -27.679  1.00  0.00     0.209 C 
BRANCH  29  30
HETATM   30  O1  UNL     1      -9.221  49.468 -26.714  1.00  0.00    -0.396 OA
HETATM   31  H12 UNL     1     -10.077  49.920 -26.814  1.00  0.00     0.209 HD
ENDBRANCH  29  30
ENDBRANCH  28  29
BRANCH  28  32
HETATM   32  C8  UNL     1     -11.519  48.151 -26.758  1.00  0.00     0.173 C 
HETATM   33  O2  UNL     1     -11.678  47.922 -25.573  1.00  0.00    -0.646 OA
BRANCH  32  34
HETATM   34  O3  UNL     1     -12.341  48.972 -27.432  1.00  0.00    -0.773 OA
HETATM   35  H13 UNL     1     -13.002  49.239 -26.760  1.00  0.00     0.167 HD
ENDBRANCH  32  34
ENDBRANCH  28  32
ENDBRANCH  26  27
ENDBRANCH  25  26
ENDBRANCH  23  25
ENDBRANCH   1  23
TORSDOF 8
ENDMDL
MODEL 8
REMARK minimizedAffinity -7.16162872
REMARK CNNscore 0.179663122
REMARK CNNaffinity 5.85507202
REMARK  8 active torsions:
REMARK  status: ('A' for Active; 'I' for Inactive)
REMARK    1  A    between atoms: C2_2  and  C3_3 
REMARK    2  A    between atoms: C2_2  and  C9_12 
REMARK    3  A    between atoms: C3_3  and  C4_4 
REMARK    4  A    between atoms: C4_4  and  C5_5 
REMARK    5  A    between atoms: C6_6  and  C7_7 
REMARK    6  A    between atoms: C6_6  and  C8_9 
REMARK    7  A    between atoms: C7_7  and  O1_8 
REMARK    8  A    between atoms: C8_9  and  O3_11 
ROOT
HETATM    1  C9  UNL     1      -6.780  49.037 -20.561  1.00  0.00    -0.002 C 
HETATM    2  C10 UNL     1      -7.002  48.427 -19.158  1.00  0.00     0.006 C 
HETATM    3  C11 UNL     1      -5.598  48.167 -18.581  1.00  0.00     0.006 C 
HETATM    4  C12 UNL     1      -4.636  48.756 -19.614  1.00  0.00    -0.001 C 
HETATM    5  C13 UNL     1      -3.178  48.273 -19.593  1.00  0.00    -0.000 C 
HETATM    6  C14 UNL     1      -2.580  48.624 -18.214  1.00  0.00     0.006 C 
HETATM    7  C15 UNL     1      -1.071  48.801 -18.153  1.00  0.00     0.007 C 
HETATM    8  C16 UNL     1      -0.501  49.787 -19.187  1.00  0.00     0.010 C 
HETATM    9  C17 UNL     1      -0.639  51.313 -18.833  1.00  0.00     0.018 C 
HETATM   10  C18 UNL     1       0.169  51.638 -17.558  1.00  0.00     0.023 C 
HETATM   11  C19 UNL     1      -2.075  51.816 -18.628  1.00  0.00     0.023 C 
HETATM   12  C20 UNL     1      -0.056  52.136 -20.000  1.00  0.00     0.135 C 
HETATM   13  O4  UNL     1       0.755  53.049 -19.836  1.00  0.00    -0.297 OA
HETATM   14  C21 UNL     1      -0.577  51.819 -21.381  1.00  0.00     0.080 C 
HETATM   15  C22 UNL     1      -0.317  50.355 -21.655  1.00  0.00     0.018 C 
HETATM   16  C23 UNL     1      -0.987  49.473 -20.609  1.00  0.00    -0.026 A 
HETATM   17  C24 UNL     1      -1.087  48.035 -21.040  1.00  0.00     0.021 A 
HETATM   18  C25 UNL     1      -2.377  48.815 -20.808  1.00  0.00    -0.028 A 
HETATM   19  C26 UNL     1      -3.164  49.049 -22.112  1.00  0.00     0.011 C 
HETATM   20  C27 UNL     1      -4.637  49.434 -21.962  1.00  0.00     0.011 C 
HETATM   21  C28 UNL     1      -5.359  48.537 -20.955  1.00  0.00    -0.036 C 
HETATM   22  C29 UNL     1      -5.349  47.071 -21.430  1.00  0.00     0.016 C 
ENDROOT
BRANCH   1  23
HETATM   23  C2  UNL     1      -7.938  48.871 -21.584  1.00  0.00    -0.014 C 
HETATM   24  C1  UNL     1      -8.484  47.434 -21.487  1.00  0.00     0.010 C 
BRANCH  23  25
HETATM   25  C3  UNL     1      -7.576  49.183 -23.054  1.00  0.00     0.008 C 
BRANCH  25  26
HETATM   26  C4  UNL     1      -8.053  48.105 -24.036  1.00  0.00     0.028 C 
BRANCH  26  27
HETATM   27  C5  UNL     1      -7.196  48.086 -25.276  1.00  0.00    -0.011 C 
HETATM   28  C6  UNL     1      -7.362  47.327 -26.380  1.00  0.00     0.035 C 
BRANCH  28  29
HETATM   29  C7  UNL     1      -6.457  47.420 -27.570  1.00  0.00     0.209 C 
BRANCH  29  30
HETATM   30  O1  UNL     1      -5.415  48.355 -27.315  1.00  0.00    -0.396 OA
HETATM   31  H12 UNL     1      -5.828  49.162 -26.963  1.00  0.00     0.209 HD
ENDBRANCH  29  30
ENDBRANCH  28  29
BRANCH  28  32
HETATM   32  C8  UNL     1      -8.458  46.340 -26.460  1.00  0.00     0.173 C 
HETATM   33  O2  UNL     1      -9.581  46.534 -26.891  1.00  0.00    -0.646 OA
BRANCH  32  34
HETATM   34  O3  UNL     1      -8.077  45.134 -26.008  1.00  0.00    -0.773 OA
HETATM   35  H13 UNL     1      -8.884  44.587 -26.103  1.00  0.00     0.167 HD
ENDBRANCH  32  34
ENDBRANCH  28  32
ENDBRANCH  26  27
ENDBRANCH  25  26
ENDBRANCH  23  25
ENDBRANCH   1  23
TORSDOF 8
ENDMDL
MODEL 9
REMARK minimizedAffinity -7.42713308
REMARK CNNscore 0.170699567
REMARK CNNaffinity 5.77771997
REMARK  8 active torsions:
REMARK  status: ('A' for Active; 'I' for Inactive)
REMARK    1  A    between atoms: C2_2  and  C3_3 
REMARK    2  A    between atoms: C2_2  and  C9_12 
REMARK    3  A    between atoms: C3_3  and  C4_4 
REMARK    4  A    between atoms: C4_4  and  C5_5 
REMARK    5  A    between atoms: C6_6  and  C7_7 
REMARK    6  A    between atoms: C6_6  and  C8_9 
REMARK    7  A    between atoms: C7_7  and  O1_8 
REMARK    8  A    between atoms: C8_9  and  O3_11 
ROOT
HETATM    1  C9  UNL     1       0.562  51.728  -8.917  1.00  0.00    -0.002 C 
HETATM    2  C10 UNL     1       1.511  50.634  -9.459  1.00  0.00     0.006 C 
HETATM    3  C11 UNL     1       2.812  51.358  -9.853  1.00  0.00     0.006 C 
HETATM    4  C12 UNL     1       2.605  52.806  -9.402  1.00  0.00    -0.001 C 
HETATM    5  C13 UNL     1       3.489  53.889 -10.039  1.00  0.00    -0.000 C 
HETATM    6  C14 UNL     1       4.960  53.553  -9.716  1.00  0.00     0.006 C 
HETATM    7  C15 UNL     1       5.935  54.720  -9.702  1.00  0.00     0.007 C 
HETATM    8  C16 UNL     1       5.506  55.901  -8.813  1.00  0.00     0.010 C 
HETATM    9  C17 UNL     1       5.769  55.734  -7.272  1.00  0.00     0.018 C 
HETATM   10  C18 UNL     1       7.285  55.625  -7.000  1.00  0.00     0.023 C 
HETATM   11  C19 UNL     1       5.079  54.532  -6.611  1.00  0.00     0.023 C 
HETATM   12  C20 UNL     1       5.237  56.989  -6.550  1.00  0.00     0.135 C 
HETATM   13  O4  UNL     1       5.900  57.620  -5.727  1.00  0.00    -0.297 OA
HETATM   14  C21 UNL     1       3.811  57.389  -6.848  1.00  0.00     0.080 C 
HETATM   15  C22 UNL     1       3.689  57.609  -8.339  1.00  0.00     0.018 C 
HETATM   16  C23 UNL     1       4.071  56.354  -9.113  1.00  0.00    -0.026 A 
HETATM   17  C24 UNL     1       3.605  56.390 -10.544  1.00  0.00     0.021 A 
HETATM   18  C25 UNL     1       3.039  55.315  -9.623  1.00  0.00    -0.028 A 
HETATM   19  C26 UNL     1       1.536  55.516  -9.342  1.00  0.00     0.011 C 
HETATM   20  C27 UNL     1       0.775  54.307  -8.795  1.00  0.00     0.011 C 
HETATM   21  C28 UNL     1       1.094  53.033  -9.580  1.00  0.00    -0.036 C 
HETATM   22  C29 UNL     1       0.659  53.178 -11.051  1.00  0.00     0.016 C 
ENDROOT
BRANCH   1  23
HETATM   23  C2  UNL     1      -0.960  51.425  -8.986  1.00  0.00    -0.014 C 
HETATM   24  C1  UNL     1      -1.567  51.609  -7.582  1.00  0.00     0.010 C 
BRANCH  23  25
HETATM   25  C3  UNL     1      -1.337  50.027  -9.526  1.00  0.00     0.008 C 
BRANCH  25  26
HETATM   26  C4  UNL     1      -2.275  50.079 -10.739  1.00  0.00     0.028 C 
BRANCH  26  27
HETATM   27  C5  UNL     1      -2.985  51.406 -10.816  1.00  0.00    -0.011 C 
HETATM   28  C6  UNL     1      -3.205  52.160 -11.914  1.00  0.00     0.035 C 
BRANCH  28  29
HETATM   29  C7  UNL     1      -3.958  53.455 -11.870  1.00  0.00     0.209 C 
BRANCH  29  30
HETATM   30  O1  UNL     1      -4.268  53.880 -13.193  1.00  0.00    -0.396 OA
HETATM   31  H12 UNL     1      -3.451  53.819 -13.717  1.00  0.00     0.209 HD
ENDBRANCH  29  30
ENDBRANCH  28  29
BRANCH  28  32
HETATM   32  C8  UNL     1      -2.691  51.740 -13.233  1.00  0.00     0.173 C 
HETATM   33  O2  UNL     1      -3.205  50.939 -13.992  1.00  0.00    -0.646 OA
BRANCH  32  34
HETATM   34  O3  UNL     1      -1.550  52.375 -13.548  1.00  0.00    -0.773 OA
HETATM   35  H13 UNL     1      -1.315  52.005 -14.424  1.00  0.00     0.167 HD
ENDBRANCH  32  34
ENDBRANCH  28  32
ENDBRANCH  26  27
ENDBRANCH  25  26
ENDBRANCH  23  25
ENDBRANCH   1  23
TORSDOF 8
ENDMDL
