MODEL 1
REMARK minimizedAffinity -6.34081841
REMARK CNNscore 0.50327599
REMARK CNNaffinity 5.91671944
REMARK  5 active torsions:
REMARK  status: ('A' for Active; 'I' for Inactive)
REMARK    1  A    between atoms: C2_2  and  C3_3 
REMARK    2  A    between atoms: C6_6  and  O1_7 
REMARK    3  A    between atoms: C7_8  and  C8_9 
REMARK    4  A    between atoms: C8_9  and  C9_10 
REMARK    5  A    between atoms: C26_32  and  O6_33 
ROOT
HETATM    1  C3  UNL     1      -4.728  18.150   4.755  1.00  0.00     0.008 C 
HETATM    2  C4  UNL     1      -4.081  17.063   5.585  1.00  0.00    -0.023 C 
HETATM    3  C5  UNL     1      -2.777  16.858   5.843  1.00  0.00     0.003 C 
HETATM    4  C6  UNL     1      -1.538  17.617   5.429  1.00  0.00     0.170 C 
HETATM    5  C7  UNL     1      -0.307  16.699   5.187  1.00  0.00     0.164 C 
HETATM    6  O2  UNL     1      -0.442  15.955   3.944  1.00  0.00    -0.312 OA
HETATM    7  C12 UNL     1      -0.739  14.625   4.044  1.00  0.00     0.276 C 
HETATM    8  O3  UNL     1      -1.151  14.088   5.066  1.00  0.00    -0.264 OA
HETATM    9  C13 UNL     1      -0.252  13.857   2.780  1.00  0.00     0.095 A 
HETATM   10  C14 UNL     1      -0.951  12.476   2.679  1.00  0.00     0.036 C 
HETATM   11  C15 UNL     1       1.181  13.531   3.168  1.00  0.00     0.003 A 
HETATM   12  C16 UNL     1       2.363  13.767   2.600  1.00  0.00     0.072 A 
HETATM   13  C17 UNL     1       2.689  14.439   1.345  1.00  0.00     0.245 A 
HETATM   14  O4  UNL     1       3.871  14.507   1.010  1.00  0.00    -0.268 OA
HETATM   15  N1  UNL     1       1.744  14.991   0.565  1.00  0.00    -0.320 N 
HETATM   16  C18 UNL     1       0.382  15.150   0.607  1.00  0.00     0.098 A 
HETATM   17  C19 UNL     1      -0.497  14.698   1.518  1.00  0.00     0.045 A 
HETATM   18  C20 UNL     1      -1.954  15.030   1.297  1.00  0.00     0.194 C 
HETATM   19  O5  UNL     1      -2.823  14.424   1.908  1.00  0.00    -0.287 OA
HETATM   20  C21 UNL     1      -2.374  16.041   0.309  1.00  0.00     0.046 A 
HETATM   21  C22 UNL     1      -1.456  16.414  -0.662  1.00  0.00     0.032 A 
HETATM   22  C23 UNL     1      -1.825  17.251  -1.728  1.00  0.00     0.026 A 
HETATM   23  C24 UNL     1      -3.139  17.712  -1.850  1.00  0.00    -0.027 A 
HETATM   24  C25 UNL     1      -3.524  18.599  -2.999  1.00  0.00     0.051 C 
HETATM   25  C26 UNL     1      -4.059  17.361  -0.861  1.00  0.00     0.086 A 
HETATM   26  C27 UNL     1      -3.684  16.558   0.238  1.00  0.00     0.059 A 
HETATM   27  C28 UNL     1      -4.715  16.382   1.297  1.00  0.00     0.163 C 
HETATM   28  O7  UNL     1      -5.875  16.168   0.940  1.00  0.00    -0.292 OA
HETATM   29  C29 UNL     1      -4.329  16.625   2.737  1.00  0.00     0.084 C 
HETATM   30  C30 UNL     1      -5.301  17.575   3.440  1.00  0.00     0.016 C 
HETATM   31  C31 UNL     1      -0.075  15.940  -0.590  1.00  0.00     0.210 C 
HETATM   32  O8  UNL     1       0.726  16.210  -1.483  1.00  0.00    -0.285 OA
HETATM   33  H26 UNL     1       2.176  15.410  -0.264  1.00  0.00     0.169 HD
ENDROOT
BRANCH   5  34
HETATM   34  C8  UNL     1       1.010  17.486   5.010  1.00  0.00     0.039 C 
BRANCH  34  35
HETATM   35  C9  UNL     1       2.150  17.157   5.991  1.00  0.00    -0.020 C 
HETATM   36  C10 UNL     1       3.040  16.062   5.396  1.00  0.00     0.009 C 
HETATM   37  C11 UNL     1       1.635  16.714   7.362  1.00  0.00     0.009 C 
ENDBRANCH  34  35
ENDBRANCH   5  34
BRANCH   4  38
HETATM   38  O1  UNL     1      -1.768  18.420   4.276  1.00  0.00    -0.389 OA
HETATM   39  H10 UNL     1      -1.158  19.174   4.327  1.00  0.00     0.210 HD
ENDBRANCH   4  38
BRANCH   1  40
HETATM   40  C2  UNL     1      -5.812  18.853   5.598  1.00  0.00     0.004 C 
HETATM   41  C1  UNL     1      -6.493  17.932   6.601  1.00  0.00     0.006 C 
ENDBRANCH   1  40
BRANCH  25  42
HETATM   42  O6  UNL     1      -5.338  17.841  -1.004  1.00  0.00    -0.359 OA
HETATM   43  H31 UNL     1      -5.937  17.313  -0.429  1.00  0.00     0.217 HD
ENDBRANCH  25  42
TORSDOF 5
ENDMDL
MODEL 2
REMARK minimizedAffinity -5.99113703
REMARK CNNscore 0.409542084
REMARK CNNaffinity 5.97256613
REMARK  5 active torsions:
REMARK  status: ('A' for Active; 'I' for Inactive)
REMARK    1  A    between atoms: C2_2  and  C3_3 
REMARK    2  A    between atoms: C6_6  and  O1_7 
REMARK    3  A    between atoms: C7_8  and  C8_9 
REMARK    4  A    between atoms: C8_9  and  C9_10 
REMARK    5  A    between atoms: C26_32  and  O6_33 
ROOT
HETATM    1  C3  UNL     1     -21.967  -0.290   9.910  1.00  0.00     0.008 C 
HETATM    2  C4  UNL     1     -22.254   0.488  11.176  1.00  0.00    -0.023 C 
HETATM    3  C5  UNL     1     -21.478   1.385  11.812  1.00  0.00     0.003 C 
HETATM    4  C6  UNL     1     -20.106   1.931  11.496  1.00  0.00     0.170 C 
HETATM    5  C7  UNL     1     -19.257   2.229  12.763  1.00  0.00     0.164 C 
HETATM    6  O2  UNL     1     -18.784   1.000  13.381  1.00  0.00    -0.312 OA
HETATM    7  C12 UNL     1     -19.396   0.609  14.539  1.00  0.00     0.276 C 
HETATM    8  O3  UNL     1     -20.461   1.064  14.940  1.00  0.00    -0.264 OA
HETATM    9  C13 UNL     1     -18.447  -0.291  15.386  1.00  0.00     0.095 A 
HETATM   10  C14 UNL     1     -19.253  -1.078  16.450  1.00  0.00     0.036 C 
HETATM   11  C15 UNL     1     -17.684   0.756  16.182  1.00  0.00     0.003 A 
HETATM   12  C16 UNL     1     -16.389   1.030  16.336  1.00  0.00     0.072 A 
HETATM   13  C17 UNL     1     -15.213   0.372  15.771  1.00  0.00     0.245 A 
HETATM   14  O4  UNL     1     -14.101   0.792  16.091  1.00  0.00    -0.268 OA
HETATM   15  N1  UNL     1     -15.314  -0.656  14.912  1.00  0.00    -0.320 N 
HETATM   16  C18 UNL     1     -16.327  -1.360  14.310  1.00  0.00     0.098 A 
HETATM   17  C19 UNL     1     -17.655  -1.238  14.472  1.00  0.00     0.045 A 
HETATM   18  C20 UNL     1     -18.537  -2.164  13.667  1.00  0.00     0.194 C 
HETATM   19  O5  UNL     1     -19.714  -2.310  13.967  1.00  0.00    -0.287 OA
HETATM   20  C21 UNL     1     -18.002  -2.955  12.543  1.00  0.00     0.046 A 
HETATM   21  C22 UNL     1     -16.627  -3.120  12.467  1.00  0.00     0.032 A 
HETATM   22  C23 UNL     1     -16.050  -3.984  11.522  1.00  0.00     0.026 A 
HETATM   23  C24 UNL     1     -16.851  -4.720  10.647  1.00  0.00    -0.027 A 
HETATM   24  C25 UNL     1     -16.223  -5.648   9.646  1.00  0.00     0.051 C 
HETATM   25  C26 UNL     1     -18.235  -4.538  10.701  1.00  0.00     0.086 A 
HETATM   26  C27 UNL     1     -18.818  -3.637  11.618  1.00  0.00     0.059 A 
HETATM   27  C28 UNL     1     -20.285  -3.423  11.474  1.00  0.00     0.163 C 
HETATM   28  O7  UNL     1     -20.994  -4.410  11.277  1.00  0.00    -0.292 OA
HETATM   29  C29 UNL     1     -20.812  -2.008  11.418  1.00  0.00     0.084 C 
HETATM   30  C30 UNL     1     -21.739  -1.786  10.220  1.00  0.00     0.016 C 
HETATM   31  C31 UNL     1     -15.747  -2.387  13.377  1.00  0.00     0.210 C 
HETATM   32  O8  UNL     1     -14.532  -2.580  13.360  1.00  0.00    -0.285 OA
HETATM   33  H26 UNL     1     -14.380  -0.973  14.636  1.00  0.00     0.169 HD
ENDROOT
BRANCH   5  34
HETATM   34  C8  UNL     1     -17.962   3.014  12.455  1.00  0.00     0.039 C 
BRANCH  34  35
HETATM   35  C9  UNL     1     -17.542   4.085  13.478  1.00  0.00    -0.020 C 
HETATM   36  C10 UNL     1     -18.680   4.316  14.477  1.00  0.00     0.009 C 
HETATM   37  C11 UNL     1     -17.163   5.411  12.816  1.00  0.00     0.009 C 
ENDBRANCH  34  35
ENDBRANCH   5  34
BRANCH   4  38
HETATM   38  O1  UNL     1     -19.378   1.069  10.626  1.00  0.00    -0.389 OA
HETATM   39  H10 UNL     1     -18.764   1.626  10.121  1.00  0.00     0.210 HD
ENDBRANCH   4  38
BRANCH   1  40
HETATM   40  C2  UNL     1     -23.125  -0.077   8.913  1.00  0.00     0.004 C 
HETATM   41  C1  UNL     1     -24.334  -0.960   9.189  1.00  0.00     0.006 C 
ENDBRANCH   1  40
BRANCH  25  42
HETATM   42  O6  UNL     1     -18.992  -5.268   9.819  1.00  0.00    -0.359 OA
HETATM   43  H31 UNL     1     -19.925  -5.271  10.134  1.00  0.00     0.217 HD
ENDBRANCH  25  42
TORSDOF 5
ENDMDL
MODEL 3
REMARK minimizedAffinity -7.32529354
REMARK CNNscore 0.357533187
REMARK CNNaffinity 6.08683538
REMARK  5 active torsions:
REMARK  status: ('A' for Active; 'I' for Inactive)
REMARK    1  A    between atoms: C2_2  and  C3_3 
REMARK    2  A    between atoms: C6_6  and  O1_7 
REMARK    3  A    between atoms: C7_8  and  C8_9 
REMARK    4  A    between atoms: C8_9  and  C9_10 
REMARK    5  A    between atoms: C26_32  and  O6_33 
ROOT
HETATM    1  C3  UNL     1      13.678  -9.064   5.595  1.00  0.00     0.008 C 
HETATM    2  C4  UNL     1      12.817  -8.417   4.531  1.00  0.00    -0.023 C 
HETATM    3  C5  UNL     1      13.193  -7.813   3.389  1.00  0.00     0.003 C 
HETATM    4  C6  UNL     1      14.553  -7.587   2.772  1.00  0.00     0.170 C 
HETATM    5  C7  UNL     1      14.663  -6.241   2.003  1.00  0.00     0.164 C 
HETATM    6  O2  UNL     1      14.734  -5.116   2.923  1.00  0.00    -0.312 OA
HETATM    7  C12 UNL     1      13.616  -4.339   3.042  1.00  0.00     0.276 C 
HETATM    8  O3  UNL     1      12.504  -4.669   2.645  1.00  0.00    -0.264 OA
HETATM    9  C13 UNL     1      13.992  -2.903   3.516  1.00  0.00     0.095 A 
HETATM   10  C14 UNL     1      12.743  -2.168   4.067  1.00  0.00     0.036 C 
HETATM   11  C15 UNL     1      14.281  -2.222   2.188  1.00  0.00     0.003 A 
HETATM   12  C16 UNL     1      15.333  -1.563   1.703  1.00  0.00     0.072 A 
HETATM   13  C17 UNL     1      16.617  -1.248   2.324  1.00  0.00     0.245 A 
HETATM   14  O4  UNL     1      17.430  -0.588   1.678  1.00  0.00    -0.268 OA
HETATM   15  N1  UNL     1      16.933  -1.668   3.561  1.00  0.00    -0.320 N 
HETATM   16  C18 UNL     1      16.339  -2.421   4.543  1.00  0.00     0.098 A 
HETATM   17  C19 UNL     1      15.111  -2.965   4.567  1.00  0.00     0.045 A 
HETATM   18  C20 UNL     1      14.726  -3.749   5.800  1.00  0.00     0.194 C 
HETATM   19  O5  UNL     1      13.553  -4.021   6.016  1.00  0.00    -0.287 OA
HETATM   20  C21 UNL     1      15.731  -4.156   6.800  1.00  0.00     0.046 A 
HETATM   21  C22 UNL     1      16.956  -3.505   6.786  1.00  0.00     0.032 A 
HETATM   22  C23 UNL     1      17.906  -3.722   7.797  1.00  0.00     0.026 A 
HETATM   23  C24 UNL     1      17.631  -4.586   8.860  1.00  0.00    -0.027 A 
HETATM   24  C25 UNL     1      18.651  -4.804   9.940  1.00  0.00     0.051 C 
HETATM   25  C26 UNL     1      16.410  -5.264   8.865  1.00  0.00     0.086 A 
HETATM   26  C27 UNL     1      15.469  -5.085   7.828  1.00  0.00     0.059 A 
HETATM   27  C28 UNL     1      14.277  -5.975   7.872  1.00  0.00     0.163 C 
HETATM   28  O7  UNL     1      13.736  -6.159   8.963  1.00  0.00    -0.292 OA
HETATM   29  C29 UNL     1      13.883  -6.728   6.622  1.00  0.00     0.084 C 
HETATM   30  C30 UNL     1      13.683  -8.221   6.889  1.00  0.00     0.016 C 
HETATM   31  C31 UNL     1      17.282  -2.575   5.706  1.00  0.00     0.210 C 
HETATM   32  O8  UNL     1      18.337  -1.944   5.723  1.00  0.00    -0.285 OA
HETATM   33  H26 UNL     1      17.872  -1.344   3.810  1.00  0.00     0.169 HD
ENDROOT
BRANCH   5  34
HETATM   34  C8  UNL     1      15.958  -6.123   1.169  1.00  0.00     0.039 C 
BRANCH  34  35
HETATM   35  C9  UNL     1      15.821  -5.507  -0.236  1.00  0.00    -0.020 C 
HETATM   36  C10 UNL     1      16.706  -4.261  -0.339  1.00  0.00     0.009 C 
HETATM   37  C11 UNL     1      14.376  -5.142  -0.579  1.00  0.00     0.009 C 
ENDBRANCH  34  35
ENDBRANCH   5  34
BRANCH   4  38
HETATM   38  O1  UNL     1      15.596  -7.672   3.738  1.00  0.00    -0.389 OA
HETATM   39  H10 UNL     1      16.394  -7.969   3.271  1.00  0.00     0.210 HD
ENDBRANCH   4  38
BRANCH   1  40
HETATM   40  C2  UNL     1      13.179 -10.502   5.843  1.00  0.00     0.004 C 
HETATM   41  C1  UNL     1      12.082 -10.939   4.882  1.00  0.00     0.006 C 
ENDBRANCH   1  40
BRANCH  25  42
HETATM   42  O6  UNL     1      16.177  -6.114   9.917  1.00  0.00    -0.359 OA
HETATM   43  H31 UNL     1      15.211  -6.303   9.960  1.00  0.00     0.217 HD
ENDBRANCH  25  42
TORSDOF 5
ENDMDL
MODEL 4
REMARK minimizedAffinity -6.38226032
REMARK CNNscore 0.325826824
REMARK CNNaffinity 5.8794117
REMARK  5 active torsions:
REMARK  status: ('A' for Active; 'I' for Inactive)
REMARK    1  A    between atoms: C2_2  and  C3_3 
REMARK    2  A    between atoms: C6_6  and  O1_7 
REMARK    3  A    between atoms: C7_8  and  C8_9 
REMARK    4  A    between atoms: C8_9  and  C9_10 
REMARK    5  A    between atoms: C26_32  and  O6_33 
ROOT
HETATM    1  C3  UNL     1     -11.782   9.991  20.429  1.00  0.00     0.008 C 
HETATM    2  C4  UNL     1     -13.190  10.145  20.963  1.00  0.00    -0.023 C 
HETATM    3  C5  UNL     1     -14.087   9.190  21.272  1.00  0.00     0.003 C 
HETATM    4  C6  UNL     1     -14.010   7.683  21.219  1.00  0.00     0.170 C 
HETATM    5  C7  UNL     1     -15.358   7.012  20.839  1.00  0.00     0.164 C 
HETATM    6  O2  UNL     1     -15.654   7.190  19.425  1.00  0.00    -0.312 OA
HETATM    7  C12 UNL     1     -16.628   8.093  19.102  1.00  0.00     0.276 C 
HETATM    8  O3  UNL     1     -17.071   8.933  19.878  1.00  0.00    -0.264 OA
HETATM    9  C13 UNL     1     -17.260   7.749  17.721  1.00  0.00     0.095 A 
HETATM   10  C14 UNL     1     -18.028   8.971  17.155  1.00  0.00     0.036 C 
HETATM   11  C15 UNL     1     -18.350   6.772  18.132  1.00  0.00     0.003 A 
HETATM   12  C16 UNL     1     -18.648   5.524  17.775  1.00  0.00     0.072 A 
HETATM   13  C17 UNL     1     -18.001   4.639  16.809  1.00  0.00     0.245 A 
HETATM   14  O4  UNL     1     -18.486   3.524  16.623  1.00  0.00    -0.268 OA
HETATM   15  N1  UNL     1     -16.895   5.004  16.138  1.00  0.00    -0.320 N 
HETATM   16  C18 UNL     1     -16.068   6.098  16.093  1.00  0.00     0.098 A 
HETATM   17  C19 UNL     1     -16.177   7.269  16.744  1.00  0.00     0.045 A 
HETATM   18  C20 UNL     1     -15.104   8.303  16.491  1.00  0.00     0.194 C 
HETATM   19  O5  UNL     1     -15.284   9.469  16.812  1.00  0.00    -0.287 OA
HETATM   20  C21 UNL     1     -13.844   7.955  15.807  1.00  0.00     0.046 A 
HETATM   21  C22 UNL     1     -13.809   6.774  15.081  1.00  0.00     0.032 A 
HETATM   22  C23 UNL     1     -12.705   6.448  14.276  1.00  0.00     0.026 A 
HETATM   23  C24 UNL     1     -11.619   7.321  14.169  1.00  0.00    -0.027 A 
HETATM   24  C25 UNL     1     -10.447   6.966  13.299  1.00  0.00     0.051 C 
HETATM   25  C26 UNL     1     -11.637   8.498  14.920  1.00  0.00     0.086 A 
HETATM   26  C27 UNL     1     -12.724   8.810  15.765  1.00  0.00     0.059 A 
HETATM   27  C28 UNL     1     -12.555  10.016  16.622  1.00  0.00     0.163 C 
HETATM   28  O7  UNL     1     -12.061  11.021  16.110  1.00  0.00    -0.292 OA
HETATM   29  C29 UNL     1     -12.845   9.905  18.101  1.00  0.00     0.084 C 
HETATM   30  C30 UNL     1     -11.697  10.447  18.955  1.00  0.00     0.016 C 
HETATM   31  C31 UNL     1     -14.931   5.839  15.142  1.00  0.00     0.210 C 
HETATM   32  O8  UNL     1     -14.937   4.824  14.448  1.00  0.00    -0.285 OA
HETATM   33  H26 UNL     1     -16.601   4.248  15.513  1.00  0.00     0.169 HD
ENDROOT
BRANCH   5  34
HETATM   34  C8  UNL     1     -15.348   5.478  21.026  1.00  0.00     0.039 C 
BRANCH  34  35
HETATM   35  C9  UNL     1     -14.599   4.937  22.257  1.00  0.00    -0.020 C 
HETATM   36  C10 UNL     1     -13.978   3.577  21.924  1.00  0.00     0.009 C 
HETATM   37  C11 UNL     1     -15.504   4.802  23.483  1.00  0.00     0.009 C 
ENDBRANCH  34  35
ENDBRANCH   5  34
BRANCH   4  38
HETATM   38  O1  UNL     1     -12.987   7.233  20.336  1.00  0.00    -0.389 OA
HETATM   39  H10 UNL     1     -12.685   6.371  20.664  1.00  0.00     0.210 HD
ENDBRANCH   4  38
BRANCH   1  40
HETATM   40  C2  UNL     1     -10.811  10.777  21.334  1.00  0.00     0.004 C 
HETATM   41  C1  UNL     1     -10.810  10.303  22.780  1.00  0.00     0.006 C 
ENDBRANCH   1  40
BRANCH  25  42
HETATM   42  O6  UNL     1     -10.549   9.327  14.801  1.00  0.00    -0.359 OA
HETATM   43  H31 UNL     1     -10.796  10.219  15.137  1.00  0.00     0.217 HD
ENDBRANCH  25  42
TORSDOF 5
ENDMDL
MODEL 5
REMARK minimizedAffinity -6.03428555
REMARK CNNscore 0.311175674
REMARK CNNaffinity 5.83105612
REMARK  5 active torsions:
REMARK  status: ('A' for Active; 'I' for Inactive)
REMARK    1  A    between atoms: C2_2  and  C3_3 
REMARK    2  A    between atoms: C6_6  and  O1_7 
REMARK    3  A    between atoms: C7_8  and  C8_9 
REMARK    4  A    between atoms: C8_9  and  C9_10 
REMARK    5  A    between atoms: C26_32  and  O6_33 
ROOT
HETATM    1  C3  UNL     1       5.256  15.733   1.361  1.00  0.00     0.008 C 
HETATM    2  C4  UNL     1       4.706  14.583   2.177  1.00  0.00    -0.023 C 
HETATM    3  C5  UNL     1       3.454  14.093   2.212  1.00  0.00     0.003 C 
HETATM    4  C6  UNL     1       2.199  14.485   1.468  1.00  0.00     0.170 C 
HETATM    5  C7  UNL     1       0.906  14.318   2.312  1.00  0.00     0.164 C 
HETATM    6  O2  UNL     1       0.802  15.357   3.326  1.00  0.00    -0.312 OA
HETATM    7  C12 UNL     1       1.051  14.992   4.619  1.00  0.00     0.276 C 
HETATM    8  O3  UNL     1       1.601  13.945   4.944  1.00  0.00    -0.264 OA
HETATM    9  C13 UNL     1       0.331  15.953   5.610  1.00  0.00     0.095 A 
HETATM   10  C14 UNL     1       0.941  15.828   7.030  1.00  0.00     0.036 C 
HETATM   11  C15 UNL     1      -1.033  15.290   5.722  1.00  0.00     0.003 A 
HETATM   12  C16 UNL     1      -2.281  15.714   5.525  1.00  0.00     0.072 A 
HETATM   13  C17 UNL     1      -2.778  17.029   5.128  1.00  0.00     0.245 A 
HETATM   14  O4  UNL     1      -3.994  17.191   5.042  1.00  0.00    -0.268 OA
HETATM   15  N1  UNL     1      -1.949  18.049   4.845  1.00  0.00    -0.320 N 
HETATM   16  C18 UNL     1      -0.593  18.250   4.792  1.00  0.00     0.098 A 
HETATM   17  C19 UNL     1       0.402  17.399   5.097  1.00  0.00     0.045 A 
HETATM   18  C20 UNL     1       1.817  17.907   4.944  1.00  0.00     0.194 C 
HETATM   19  O5  UNL     1       2.747  17.307   5.465  1.00  0.00    -0.287 OA
HETATM   20  C21 UNL     1       2.114  19.156   4.218  1.00  0.00     0.046 A 
HETATM   21  C22 UNL     1       1.067  20.040   4.000  1.00  0.00     0.032 A 
HETATM   22  C23 UNL     1       1.294  21.315   3.458  1.00  0.00     0.026 A 
HETATM   23  C24 UNL     1       2.588  21.736   3.145  1.00  0.00    -0.027 A 
HETATM   24  C25 UNL     1       2.820  23.106   2.573  1.00  0.00     0.051 C 
HETATM   25  C26 UNL     1       3.642  20.841   3.337  1.00  0.00     0.086 A 
HETATM   26  C27 UNL     1       3.416  19.541   3.839  1.00  0.00     0.059 A 
HETATM   27  C28 UNL     1       4.598  18.636   3.856  1.00  0.00     0.163 C 
HETATM   28  O7  UNL     1       5.673  19.101   4.237  1.00  0.00    -0.292 OA
HETATM   29  C29 UNL     1       4.465  17.252   3.264  1.00  0.00     0.084 C 
HETATM   30  C30 UNL     1       5.580  16.945   2.262  1.00  0.00     0.016 C 
HETATM   31  C31 UNL     1      -0.304  19.653   4.332  1.00  0.00     0.210 C 
HETATM   32  O8  UNL     1      -1.227  20.455   4.205  1.00  0.00    -0.285 OA
HETATM   33  H26 UNL     1      -2.492  18.879   4.590  1.00  0.00     0.169 HD
ENDROOT
BRANCH   5  34
HETATM   34  C8  UNL     1      -0.387  14.477   1.482  1.00  0.00     0.039 C 
BRANCH  34  35
HETATM   35  C9  UNL     1      -1.529  13.489   1.783  1.00  0.00    -0.020 C 
HETATM   36  C10 UNL     1      -2.743  14.255   2.317  1.00  0.00     0.009 C 
HETATM   37  C11 UNL     1      -1.121  12.408   2.785  1.00  0.00     0.009 C 
ENDBRANCH  34  35
ENDBRANCH   5  34
BRANCH   4  38
HETATM   38  O1  UNL     1       2.273  15.816   0.966  1.00  0.00    -0.389 OA
HETATM   39  H10 UNL     1       1.714  15.852   0.172  1.00  0.00     0.210 HD
ENDBRANCH   4  38
BRANCH   1  40
HETATM   40  C2  UNL     1       6.494  15.249   0.577  1.00  0.00     0.004 C 
HETATM   41  C1  UNL     1       6.598  13.734   0.480  1.00  0.00     0.006 C 
ENDBRANCH   1  40
BRANCH  25  42
HETATM   42  O6  UNL     1       4.900  21.282   3.007  1.00  0.00    -0.359 OA
HETATM   43  H31 UNL     1       5.562  20.694   3.439  1.00  0.00     0.217 HD
ENDBRANCH  25  42
TORSDOF 5
ENDMDL
MODEL 6
REMARK minimizedAffinity -6.11147213
REMARK CNNscore 0.246666208
REMARK CNNaffinity 5.57724047
REMARK  5 active torsions:
REMARK  status: ('A' for Active; 'I' for Inactive)
REMARK    1  A    between atoms: C2_2  and  C3_3 
REMARK    2  A    between atoms: C6_6  and  O1_7 
REMARK    3  A    between atoms: C7_8  and  C8_9 
REMARK    4  A    between atoms: C8_9  and  C9_10 
REMARK    5  A    between atoms: C26_32  and  O6_33 
ROOT
HETATM    1  C3  UNL     1     -19.730  10.450  -4.676  1.00  0.00     0.008 C 
HETATM    2  C4  UNL     1     -19.553  10.367  -3.175  1.00  0.00    -0.023 C 
HETATM    3  C5  UNL     1     -19.005  11.265  -2.336  1.00  0.00     0.003 C 
HETATM    4  C6  UNL     1     -18.409  12.632  -2.576  1.00  0.00     0.170 C 
HETATM    5  C7  UNL     1     -17.213  12.954  -1.637  1.00  0.00     0.164 C 
HETATM    6  O2  UNL     1     -16.025  12.209  -2.025  1.00  0.00    -0.312 OA
HETATM    7  C12 UNL     1     -15.666  11.153  -1.235  1.00  0.00     0.276 C 
HETATM    8  O3  UNL     1     -16.402  10.639  -0.400  1.00  0.00    -0.264 OA
HETATM    9  C13 UNL     1     -14.142  10.863  -1.364  1.00  0.00     0.095 A 
HETATM   10  C14 UNL     1     -13.812   9.442  -0.838  1.00  0.00     0.036 C 
HETATM   11  C15 UNL     1     -13.574  11.800  -0.310  1.00  0.00     0.003 A 
HETATM   12  C16 UNL     1     -12.663  12.772  -0.339  1.00  0.00     0.072 A 
HETATM   13  C17 UNL     1     -11.855  13.275  -1.447  1.00  0.00     0.245 A 
HETATM   14  O4  UNL     1     -11.044  14.171  -1.217  1.00  0.00    -0.268 OA
HETATM   15  N1  UNL     1     -11.984  12.799  -2.697  1.00  0.00    -0.320 N 
HETATM   16  C18 UNL     1     -12.765  11.868  -3.337  1.00  0.00     0.098 A 
HETATM   17  C19 UNL     1     -13.687  11.038  -2.821  1.00  0.00     0.045 A 
HETATM   18  C20 UNL     1     -14.394  10.109  -3.780  1.00  0.00     0.194 C 
HETATM   19  O5  UNL     1     -15.020   9.147  -3.358  1.00  0.00    -0.287 OA
HETATM   20  C21 UNL     1     -14.306  10.296  -5.241  1.00  0.00     0.046 A 
HETATM   21  C22 UNL     1     -13.285  11.097  -5.729  1.00  0.00     0.032 A 
HETATM   22  C23 UNL     1     -13.038  11.201  -7.107  1.00  0.00     0.026 A 
HETATM   23  C24 UNL     1     -13.803  10.477  -8.024  1.00  0.00    -0.027 A 
HETATM   24  C25 UNL     1     -13.524  10.589  -9.496  1.00  0.00     0.051 C 
HETATM   25  C26 UNL     1     -14.849   9.690  -7.540  1.00  0.00     0.086 A 
HETATM   26  C27 UNL     1     -15.133   9.617  -6.160  1.00  0.00     0.059 A 
HETATM   27  C28 UNL     1     -16.363   8.865  -5.787  1.00  0.00     0.163 C 
HETATM   28  O7  UNL     1     -16.581   7.799  -6.363  1.00  0.00    -0.292 OA
HETATM   29  C29 UNL     1     -17.354   9.510  -4.847  1.00  0.00     0.084 C 
HETATM   30  C30 UNL     1     -18.781   9.470  -5.400  1.00  0.00     0.016 C 
HETATM   31  C31 UNL     1     -12.442  11.858  -4.806  1.00  0.00     0.210 C 
HETATM   32  O8  UNL     1     -11.493  12.516  -5.227  1.00  0.00    -0.285 OA
HETATM   33  H26 UNL     1     -11.331  13.279  -3.323  1.00  0.00     0.169 HD
ENDROOT
BRANCH   5  34
HETATM   34  C8  UNL     1     -16.767  14.431  -1.707  1.00  0.00     0.039 C 
BRANCH  34  35
HETATM   35  C9  UNL     1     -16.358  15.094  -0.380  1.00  0.00    -0.020 C 
HETATM   36  C10 UNL     1     -14.919  15.608  -0.483  1.00  0.00     0.009 C 
HETATM   37  C11 UNL     1     -16.481  14.145   0.813  1.00  0.00     0.009 C 
ENDBRANCH  34  35
ENDBRANCH   5  34
BRANCH   4  38
HETATM   38  O1  UNL     1     -18.013  12.809  -3.932  1.00  0.00    -0.389 OA
HETATM   39  H10 UNL     1     -18.076  13.758  -4.126  1.00  0.00     0.210 HD
ENDBRANCH   4  38
BRANCH   1  40
HETATM   40  C2  UNL     1     -21.209  10.187  -5.026  1.00  0.00     0.004 C 
HETATM   41  C1  UNL     1     -21.753   8.896  -4.432  1.00  0.00     0.006 C 
ENDBRANCH   1  40
BRANCH  25  42
HETATM   42  O6  UNL     1     -15.590   9.002  -8.470  1.00  0.00    -0.359 OA
HETATM   43  H31 UNL     1     -16.089   8.290  -8.008  1.00  0.00     0.217 HD
ENDBRANCH  25  42
TORSDOF 5
ENDMDL
MODEL 7
REMARK minimizedAffinity -6.65090132
REMARK CNNscore 0.207360134
REMARK CNNaffinity 5.01882744
REMARK  5 active torsions:
REMARK  status: ('A' for Active; 'I' for Inactive)
REMARK    1  A    between atoms: C2_2  and  C3_3 
REMARK    2  A    between atoms: C6_6  and  O1_7 
REMARK    3  A    between atoms: C7_8  and  C8_9 
REMARK    4  A    between atoms: C8_9  and  C9_10 
REMARK    5  A    between atoms: C26_32  and  O6_33 
ROOT
HETATM    1  C3  UNL     1     -21.047   1.659  11.017  1.00  0.00     0.008 C 
HETATM    2  C4  UNL     1     -20.445   0.483  10.279  1.00  0.00    -0.023 C 
HETATM    3  C5  UNL     1     -20.279  -0.785  10.698  1.00  0.00     0.003 C 
HETATM    4  C6  UNL     1     -20.636  -1.470  11.997  1.00  0.00     0.170 C 
HETATM    5  C7  UNL     1     -19.616  -2.564  12.415  1.00  0.00     0.164 C 
HETATM    6  O2  UNL     1     -18.379  -1.972  12.900  1.00  0.00    -0.312 OA
HETATM    7  C12 UNL     1     -17.292  -2.034  12.073  1.00  0.00     0.276 C 
HETATM    8  O3  UNL     1     -17.352  -2.307  10.880  1.00  0.00    -0.264 OA
HETATM    9  C13 UNL     1     -15.971  -1.958  12.895  1.00  0.00     0.095 A 
HETATM   10  C14 UNL     1     -14.779  -1.591  11.974  1.00  0.00     0.036 C 
HETATM   11  C15 UNL     1     -15.753  -3.424  13.235  1.00  0.00     0.003 A 
HETATM   12  C16 UNL     1     -15.585  -4.087  14.379  1.00  0.00     0.072 A 
HETATM   13  C17 UNL     1     -15.537  -3.597  15.754  1.00  0.00     0.245 A 
HETATM   14  O4  UNL     1     -15.334  -4.410  16.655  1.00  0.00    -0.268 OA
HETATM   15  N1  UNL     1     -15.722  -2.301  16.056  1.00  0.00    -0.320 N 
HETATM   16  C18 UNL     1     -15.996  -1.144  15.371  1.00  0.00     0.098 A 
HETATM   17  C19 UNL     1     -16.117  -0.953  14.046  1.00  0.00     0.045 A 
HETATM   18  C20 UNL     1     -16.423   0.451  13.576  1.00  0.00     0.194 C 
HETATM   19  O5  UNL     1     -16.263   0.755  12.402  1.00  0.00    -0.287 OA
HETATM   20  C21 UNL     1     -16.863   1.500  14.514  1.00  0.00     0.046 A 
HETATM   21  C22 UNL     1     -16.642   1.290  15.867  1.00  0.00     0.032 A 
HETATM   22  C23 UNL     1     -16.888   2.301  16.810  1.00  0.00     0.026 A 
HETATM   23  C24 UNL     1     -17.343   3.558  16.403  1.00  0.00    -0.027 A 
HETATM   24  C25 UNL     1     -17.595   4.635  17.420  1.00  0.00     0.051 C 
HETATM   25  C26 UNL     1     -17.592   3.766  15.046  1.00  0.00     0.086 A 
HETATM   26  C27 UNL     1     -17.390   2.740  14.098  1.00  0.00     0.059 A 
HETATM   27  C28 UNL     1     -17.835   3.040  12.710  1.00  0.00     0.163 C 
HETATM   28  O7  UNL     1     -17.576   4.153  12.250  1.00  0.00    -0.292 OA
HETATM   29  C29 UNL     1     -18.710   2.038  11.992  1.00  0.00     0.084 C 
HETATM   30  C30 UNL     1     -19.960   2.689  11.396  1.00  0.00     0.016 C 
HETATM   31  C31 UNL     1     -16.146  -0.002  16.340  1.00  0.00     0.210 C 
HETATM   32  O8  UNL     1     -15.883  -0.173  17.529  1.00  0.00    -0.285 OA
HETATM   33  H26 UNL     1     -15.650  -2.165  17.069  1.00  0.00     0.169 HD
ENDROOT
BRANCH   5  34
HETATM   34  C8  UNL     1     -20.104  -3.429  13.598  1.00  0.00     0.039 C 
BRANCH  34  35
HETATM   35  C9  UNL     1     -19.956  -2.823  15.006  1.00  0.00    -0.020 C 
HETATM   36  C10 UNL     1     -19.399  -1.401  14.897  1.00  0.00     0.009 C 
HETATM   37  C11 UNL     1     -19.053  -3.661  15.914  1.00  0.00     0.009 C 
ENDBRANCH  34  35
ENDBRANCH   5  34
BRANCH   4  38
HETATM   38  O1  UNL     1     -20.800  -0.538  13.061  1.00  0.00    -0.389 OA
HETATM   39  H10 UNL     1     -21.430  -0.929  13.688  1.00  0.00     0.210 HD
ENDBRANCH   4  38
BRANCH   1  40
HETATM   40  C2  UNL     1     -22.158   2.284  10.150  1.00  0.00     0.004 C 
HETATM   41  C1  UNL     1     -21.631   3.196   9.051  1.00  0.00     0.006 C 
ENDBRANCH   1  40
BRANCH  25  42
HETATM   42  O6  UNL     1     -18.050   5.009  14.682  1.00  0.00    -0.359 OA
HETATM   43  H31 UNL     1     -17.919   5.120  13.712  1.00  0.00     0.217 HD
ENDBRANCH  25  42
TORSDOF 5
ENDMDL
MODEL 8
REMARK minimizedAffinity -7.38458014
REMARK CNNscore 0.200794414
REMARK CNNaffinity 5.39775085
REMARK  5 active torsions:
REMARK  status: ('A' for Active; 'I' for Inactive)
REMARK    1  A    between atoms: C2_2  and  C3_3 
REMARK    2  A    between atoms: C6_6  and  O1_7 
REMARK    3  A    between atoms: C7_8  and  C8_9 
REMARK    4  A    between atoms: C8_9  and  C9_10 
REMARK    5  A    between atoms: C26_32  and  O6_33 
ROOT
HETATM    1  C3  UNL     1     -17.057   0.543  14.167  1.00  0.00     0.008 C 
HETATM    2  C4  UNL     1     -15.793   0.327  13.364  1.00  0.00    -0.023 C 
HETATM    3  C5  UNL     1     -15.556  -0.559  12.379  1.00  0.00     0.003 C 
HETATM    4  C6  UNL     1     -16.436  -1.603  11.733  1.00  0.00     0.170 C 
HETATM    5  C7  UNL     1     -15.662  -2.883  11.311  1.00  0.00     0.164 C 
HETATM    6  O2  UNL     1     -15.310  -3.690  12.470  1.00  0.00    -0.312 OA
HETATM    7  C12 UNL     1     -14.001  -3.677  12.862  1.00  0.00     0.276 C 
HETATM    8  O3  UNL     1     -13.178  -2.851  12.483  1.00  0.00    -0.264 OA
HETATM    9  C13 UNL     1     -13.648  -4.978  13.642  1.00  0.00     0.095 A 
HETATM   10  C14 UNL     1     -12.339  -4.789  14.451  1.00  0.00     0.036 C 
HETATM   11  C15 UNL     1     -13.262  -5.908  12.503  1.00  0.00     0.003 A 
HETATM   12  C16 UNL     1     -13.685  -7.110  12.114  1.00  0.00     0.072 A 
HETATM   13  C17 UNL     1     -14.703  -7.984  12.692  1.00  0.00     0.245 A 
HETATM   14  O4  UNL     1     -14.897  -9.080  12.167  1.00  0.00    -0.268 OA
HETATM   15  N1  UNL     1     -15.433  -7.620  13.760  1.00  0.00    -0.320 N 
HETATM   16  C18 UNL     1     -15.536  -6.517  14.571  1.00  0.00     0.098 A 
HETATM   17  C19 UNL     1     -14.814  -5.384  14.556  1.00  0.00     0.045 A 
HETATM   18  C20 UNL     1     -15.157  -4.333  15.586  1.00  0.00     0.194 C 
HETATM   19  O5  UNL     1     -14.376  -3.420  15.819  1.00  0.00    -0.287 OA
HETATM   20  C21 UNL     1     -16.401  -4.402  16.375  1.00  0.00     0.046 A 
HETATM   21  C22 UNL     1     -17.066  -5.619  16.426  1.00  0.00     0.032 A 
HETATM   22  C23 UNL     1     -18.167  -5.811  17.276  1.00  0.00     0.026 A 
HETATM   23  C24 UNL     1     -18.608  -4.783  18.113  1.00  0.00    -0.027 A 
HETATM   24  C25 UNL     1     -19.781  -5.003  19.025  1.00  0.00     0.051 C 
HETATM   25  C26 UNL     1     -17.959  -3.549  18.047  1.00  0.00     0.086 A 
HETATM   26  C27 UNL     1     -16.881  -3.335  17.161  1.00  0.00     0.059 A 
HETATM   27  C28 UNL     1     -16.376  -1.937  17.078  1.00  0.00     0.163 C 
HETATM   28  O7  UNL     1     -16.244  -1.309  18.130  1.00  0.00    -0.292 OA
HETATM   29  C29 UNL     1     -16.198  -1.306  15.717  1.00  0.00     0.084 C 
HETATM   30  C30 UNL     1     -16.875   0.063  15.625  1.00  0.00     0.016 C 
HETATM   31  C31 UNL     1     -16.628  -6.732  15.584  1.00  0.00     0.210 C 
HETATM   32  O8  UNL     1     -17.169  -7.832  15.674  1.00  0.00    -0.285 OA
HETATM   33  H26 UNL     1     -16.086  -8.368  14.008  1.00  0.00     0.169 HD
ENDROOT
BRANCH   5  34
HETATM   34  C8  UNL     1     -16.501  -3.838  10.433  1.00  0.00     0.039 C 
BRANCH  34  35
HETATM   35  C9  UNL     1     -15.725  -4.872   9.598  1.00  0.00    -0.020 C 
HETATM   36  C10 UNL     1     -14.708  -4.153   8.706  1.00  0.00     0.009 C 
HETATM   37  C11 UNL     1     -16.643  -5.740   8.736  1.00  0.00     0.009 C 
ENDBRANCH  34  35
ENDBRANCH   5  34
BRANCH   4  38
HETATM   38  O1  UNL     1     -17.535  -1.961  12.565  1.00  0.00    -0.389 OA
HETATM   39  H10 UNL     1     -18.257  -2.241  11.979  1.00  0.00     0.210 HD
ENDBRANCH   4  38
BRANCH   1  40
HETATM   40  C2  UNL     1     -17.454   2.031  14.094  1.00  0.00     0.004 C 
HETATM   41  C1  UNL     1     -17.691   2.528  12.675  1.00  0.00     0.006 C 
ENDBRANCH   1  40
BRANCH  25  42
HETATM   42  O6  UNL     1     -18.426  -2.557  18.874  1.00  0.00    -0.359 OA
HETATM   43  H31 UNL     1     -17.737  -1.856  18.943  1.00  0.00     0.217 HD
ENDBRANCH  25  42
TORSDOF 5
ENDMDL
MODEL 9
REMARK minimizedAffinity -5.89464426
REMARK CNNscore 0.190117359
REMARK CNNaffinity 4.78390121
REMARK  5 active torsions:
REMARK  status: ('A' for Active; 'I' for Inactive)
REMARK    1  A    between atoms: C2_2  and  C3_3 
REMARK    2  A    between atoms: C6_6  and  O1_7 
REMARK    3  A    between atoms: C7_8  and  C8_9 
REMARK    4  A    between atoms: C8_9  and  C9_10 
REMARK    5  A    between atoms: C26_32  and  O6_33 
ROOT
HETATM    1  C3  UNL     1       5.574  12.638  21.404  1.00  0.00     0.008 C 
HETATM    2  C4  UNL     1       6.741  12.417  20.467  1.00  0.00    -0.023 C 
HETATM    3  C5  UNL     1       7.111  13.134  19.390  1.00  0.00     0.003 C 
HETATM    4  C6  UNL     1       6.530  14.380  18.764  1.00  0.00     0.170 C 
HETATM    5  C7  UNL     1       6.656  14.406  17.216  1.00  0.00     0.164 C 
HETATM    6  O2  UNL     1       5.718  13.482  16.596  1.00  0.00    -0.312 OA
HETATM    7  C12 UNL     1       6.231  12.325  16.082  1.00  0.00     0.276 C 
HETATM    8  O3  UNL     1       7.353  11.898  16.336  1.00  0.00    -0.264 OA
HETATM    9  C13 UNL     1       5.309  11.765  14.959  1.00  0.00     0.095 A 
HETATM   10  C14 UNL     1       5.631  10.274  14.682  1.00  0.00     0.036 C 
HETATM   11  C15 UNL     1       5.847  12.503  13.743  1.00  0.00     0.003 A 
HETATM   12  C16 UNL     1       5.289  13.287  12.822  1.00  0.00     0.072 A 
HETATM   13  C17 UNL     1       3.899  13.709  12.659  1.00  0.00     0.245 A 
HETATM   14  O4  UNL     1       3.615  14.419  11.696  1.00  0.00    -0.268 OA
HETATM   15  N1  UNL     1       2.940  13.355  13.531  1.00  0.00    -0.320 N 
HETATM   16  C18 UNL     1       2.865  12.634  14.697  1.00  0.00     0.098 A 
HETATM   17  C19 UNL     1       3.833  11.956  15.337  1.00  0.00     0.045 A 
HETATM   18  C20 UNL     1       3.449  11.246  16.614  1.00  0.00     0.194 C 
HETATM   19  O5  UNL     1       4.183  10.390  17.087  1.00  0.00    -0.287 OA
HETATM   20  C21 UNL     1       2.168  11.517  17.293  1.00  0.00     0.046 A 
HETATM   21  C22 UNL     1       1.171  12.147  16.562  1.00  0.00     0.032 A 
HETATM   22  C23 UNL     1      -0.124  12.300  17.081  1.00  0.00     0.026 A 
HETATM   23  C24 UNL     1      -0.449  11.799  18.344  1.00  0.00    -0.027 A 
HETATM   24  C25 UNL     1      -1.841  11.962  18.886  1.00  0.00     0.051 C 
HETATM   25  C26 UNL     1       0.557  11.188  19.095  1.00  0.00     0.086 A 
HETATM   26  C27 UNL     1       1.872  11.071  18.597  1.00  0.00     0.059 A 
HETATM   27  C28 UNL     1       2.883  10.537  19.551  1.00  0.00     0.163 C 
HETATM   28  O7  UNL     1       2.563   9.573  20.249  1.00  0.00    -0.292 OA
HETATM   29  C29 UNL     1       4.182  11.287  19.732  1.00  0.00     0.084 C 
HETATM   30  C30 UNL     1       4.493  11.552  21.207  1.00  0.00     0.016 C 
HETATM   31  C31 UNL     1       1.457  12.669  15.226  1.00  0.00     0.210 C 
HETATM   32  O8  UNL     1       0.562  13.167  14.546  1.00  0.00    -0.285 OA
HETATM   33  H26 UNL     1       2.041  13.749  13.239  1.00  0.00     0.169 HD
ENDROOT
BRANCH   5  34
HETATM   34  C8  UNL     1       6.293  15.775  16.599  1.00  0.00     0.039 C 
BRANCH  34  35
HETATM   35  C9  UNL     1       7.162  16.257  15.424  1.00  0.00    -0.020 C 
HETATM   36  C10 UNL     1       6.277  16.507  14.199  1.00  0.00     0.009 C 
HETATM   37  C11 UNL     1       8.268  15.263  15.065  1.00  0.00     0.009 C 
ENDBRANCH  34  35
ENDBRANCH   5  34
BRANCH   4  38
HETATM   38  O1  UNL     1       5.169  14.576  19.135  1.00  0.00    -0.389 OA
HETATM   39  H10 UNL     1       5.000  15.532  19.107  1.00  0.00     0.210 HD
ENDBRANCH   4  38
BRANCH   1  40
HETATM   40  C2  UNL     1       6.092  12.681  22.856  1.00  0.00     0.004 C 
HETATM   41  C1  UNL     1       7.510  12.149  23.010  1.00  0.00     0.006 C 
ENDBRANCH   1  40
BRANCH  25  42
HETATM   42  O6  UNL     1       0.206  10.718  20.337  1.00  0.00    -0.359 OA
HETATM   43  H31 UNL     1       0.894  10.080  20.636  1.00  0.00     0.217 HD
ENDBRANCH  25  42
TORSDOF 5
ENDMDL
