MODEL 1
REMARK minimizedAffinity -8.79190922
REMARK  9 active torsions:
REMARK  status: ('A' for Active; 'I' for Inactive)
REMARK    1  A    between atoms: C11_11  and  C13_13 
REMARK    2  A    between atoms: C13_13  and  O2_15 
REMARK    3  A    between atoms: C15_17  and  C16_18 
REMARK    4  A    between atoms: C16_18  and  C17_19 
REMARK    5  A    between atoms: C17_19  and  C18_20 
REMARK    6  A    between atoms: C19_21  and  C20_22 
REMARK    7  A    between atoms: C20_22  and  O3_23 
REMARK    8  A    between atoms: O3_23  and  C21_24 
REMARK    9  A    between atoms: C21_24  and  C22_26 
ROOT
HETATM    1  C16 UNL     1      -1.622   8.034  12.333  1.00  0.00     0.014 C 
ENDROOT
BRANCH   1   2
HETATM    2  C15 UNL     1      -0.067   8.106  12.317  1.00  0.00     0.022 C 
HETATM    3  C2  UNL     1       0.630   7.453  13.513  1.00  0.00    -0.084 C 
HETATM    4  C1  UNL     1       0.066   6.638  14.420  1.00  0.00     0.014 C 
HETATM    5  C3  UNL     1       2.103   7.763  13.590  1.00  0.00     0.034 C 
HETATM    6  C4  UNL     1       2.809   7.307  12.313  1.00  0.00     0.011 C 
HETATM    7  C5  UNL     1       2.154   7.905  11.047  1.00  0.00     0.012 C 
HETATM    8  C6  UNL     1       0.604   7.583  10.970  1.00  0.00    -0.032 C 
HETATM    9  C11 UNL     1       2.956   7.678   9.713  1.00  0.00     0.049 C 
HETATM   10  C7  UNL     1       0.314   6.073  10.795  1.00  0.00     0.016 C 
HETATM   11  C8  UNL     1       0.008   8.347   9.754  1.00  0.00     0.010 C 
HETATM   12  C9  UNL     1       0.762   8.128   8.447  1.00  0.00     0.002 C 
HETATM   13  C10 UNL     1       2.242   8.459   8.579  1.00  0.00     0.020 C 
HETATM   14  C12 UNL     1       4.383   8.270   9.823  1.00  0.00     0.026 C 
BRANCH   9  15
HETATM   15  C13 UNL     1       3.183   6.189   9.381  1.00  0.00     0.267 C 
HETATM   16  O1  UNL     1       2.301   5.424   9.012  1.00  0.00    -0.264 OA
BRANCH  15  17
HETATM   17  O2  UNL     1       4.467   5.799   9.605  1.00  0.00    -0.326 OA
HETATM   18  C14 UNL     1       5.032   6.294  10.820  1.00  0.00     0.213 C 
ENDBRANCH  15  17
ENDBRANCH   9  15
ENDBRANCH   1   2
BRANCH   1  19
HETATM   19  C17 UNL     1      -2.237   7.635  13.688  1.00  0.00     0.042 C 
BRANCH  19  20
HETATM   20  C18 UNL     1      -2.882   8.776  14.408  1.00  0.00    -0.024 A 
HETATM   21  C19 UNL     1      -4.228   9.107  14.435  1.00  0.00     0.083 A 
HETATM   22  O5  UNL     1      -4.427  10.208  15.217  1.00  0.00    -0.324 OA
HETATM   23  C28 UNL     1      -3.214  10.594  15.681  1.00  0.00     0.143 A 
HETATM   24  C29 UNL     1      -2.233   9.754  15.215  1.00  0.00     0.034 A 
BRANCH  21  25
HETATM   25  C20 UNL     1      -5.441   8.520  13.811  1.00  0.00     0.244 C 
BRANCH  25  26
HETATM   26  O3  UNL     1      -5.697   7.262  14.452  1.00  0.00    -0.311 OA
BRANCH  26  27
HETATM   27  C21 UNL     1      -6.897   6.700  14.185  1.00  0.00     0.293 C 
HETATM   28  O4  UNL     1      -7.994   7.186  14.412  1.00  0.00    -0.259 OA
BRANCH  27  29
HETATM   29  C22 UNL     1      -6.710   5.372  13.537  1.00  0.00     0.039 A 
HETATM   30  C23 UNL     1      -7.785   4.472  13.548  1.00  0.00     0.019 A 
HETATM   31  C24 UNL     1      -7.658   3.214  12.952  1.00  0.00     0.025 A 
HETATM   32  C25 UNL     1      -6.456   2.851  12.348  1.00  0.00     0.034 A 
HETATM   33 CL1  UNL     1      -6.300   1.303  11.615  1.00  0.00    -0.084 Cl
HETATM   34  C26 UNL     1      -5.378   3.735  12.335  1.00  0.00     0.025 A 
HETATM   35  C27 UNL     1      -5.503   4.995  12.930  1.00  0.00     0.019 A 
ENDBRANCH  27  29
ENDBRANCH  26  27
ENDBRANCH  25  26
ENDBRANCH  21  25
ENDBRANCH  19  20
ENDBRANCH   1  19
TORSDOF 9
ENDMDL
MODEL 2
REMARK minimizedAffinity -8.73161793
REMARK  9 active torsions:
REMARK  status: ('A' for Active; 'I' for Inactive)
REMARK    1  A    between atoms: C11_11  and  C13_13 
REMARK    2  A    between atoms: C13_13  and  O2_15 
REMARK    3  A    between atoms: C15_17  and  C16_18 
REMARK    4  A    between atoms: C16_18  and  C17_19 
REMARK    5  A    between atoms: C17_19  and  C18_20 
REMARK    6  A    between atoms: C19_21  and  C20_22 
REMARK    7  A    between atoms: C20_22  and  O3_23 
REMARK    8  A    between atoms: O3_23  and  C21_24 
REMARK    9  A    between atoms: C21_24  and  C22_26 
ROOT
HETATM    1  C16 UNL     1      -3.575   5.190  13.601  1.00  0.00     0.014 C 
ENDROOT
BRANCH   1   2
HETATM    2  C15 UNL     1      -2.836   6.355  12.883  1.00  0.00     0.022 C 
HETATM    3  C2  UNL     1      -3.097   7.749  13.459  1.00  0.00    -0.084 C 
HETATM    4  C1  UNL     1      -3.684   8.031  14.634  1.00  0.00     0.014 C 
HETATM    5  C3  UNL     1      -2.574   8.864  12.591  1.00  0.00     0.034 C 
HETATM    6  C4  UNL     1      -1.070   8.707  12.372  1.00  0.00     0.011 C 
HETATM    7  C5  UNL     1      -0.711   7.313  11.808  1.00  0.00     0.012 C 
HETATM    8  C6  UNL     1      -1.266   6.141  12.720  1.00  0.00    -0.032 C 
HETATM    9  C11 UNL     1       0.781   7.151  11.336  1.00  0.00     0.049 C 
HETATM   10  C7  UNL     1      -0.597   6.101  14.115  1.00  0.00     0.016 C 
HETATM   11  C8  UNL     1      -0.990   4.792  11.999  1.00  0.00     0.010 C 
HETATM   12  C9  UNL     1       0.454   4.607  11.546  1.00  0.00     0.002 C 
HETATM   13  C10 UNL     1       0.929   5.758  10.670  1.00  0.00     0.020 C 
HETATM   14  C12 UNL     1       1.129   8.197  10.249  1.00  0.00     0.026 C 
BRANCH   9  15
HETATM   15  C13 UNL     1       1.809   7.405  12.456  1.00  0.00     0.267 C 
HETATM   16  O1  UNL     1       1.599   8.107  13.437  1.00  0.00    -0.264 OA
BRANCH  15  17
HETATM   17  O2  UNL     1       3.007   6.810  12.203  1.00  0.00    -0.326 OA
HETATM   18  C14 UNL     1       4.142   7.651  12.421  1.00  0.00     0.213 C 
ENDBRANCH  15  17
ENDBRANCH   9  15
ENDBRANCH   1   2
BRANCH   1  19
HETATM   19  C17 UNL     1      -5.048   5.006  13.190  1.00  0.00     0.042 C 
BRANCH  19  20
HETATM   20  C18 UNL     1      -5.317   3.707  12.501  1.00  0.00    -0.024 A 
HETATM   21  C19 UNL     1      -6.527   3.037  12.398  1.00  0.00     0.083 A 
HETATM   22  O5  UNL     1      -6.370   1.889  11.676  1.00  0.00    -0.324 OA
HETATM   23  C28 UNL     1      -5.062   1.810  11.328  1.00  0.00     0.143 A 
HETATM   24  C29 UNL     1      -4.372   2.895  11.809  1.00  0.00     0.034 A 
BRANCH  21  25
HETATM   25  C20 UNL     1      -7.899   3.319  12.891  1.00  0.00     0.244 C 
BRANCH  25  26
HETATM   26  O3  UNL     1      -7.874   4.592  13.551  1.00  0.00    -0.311 OA
BRANCH  26  27
HETATM   27  C21 UNL     1      -8.573   5.579  12.948  1.00  0.00     0.293 C 
HETATM   28  O4  UNL     1      -8.787   5.693  11.751  1.00  0.00    -0.259 OA
BRANCH  27  29
HETATM   29  C22 UNL     1      -9.087   6.539  13.964  1.00  0.00     0.039 A 
HETATM   30  C23 UNL     1      -8.247   6.887  15.032  1.00  0.00     0.019 A 
HETATM   31  C24 UNL     1      -8.684   7.785  16.010  1.00  0.00     0.025 A 
HETATM   32  C25 UNL     1      -9.962   8.335  15.925  1.00  0.00     0.034 A 
HETATM   33 CL1  UNL     1     -10.500   9.440  17.128  1.00  0.00    -0.084 Cl
HETATM   34  C26 UNL     1     -10.808   7.994  14.870  1.00  0.00     0.025 A 
HETATM   35  C27 UNL     1     -10.372   7.096  13.890  1.00  0.00     0.019 A 
ENDBRANCH  27  29
ENDBRANCH  26  27
ENDBRANCH  25  26
ENDBRANCH  21  25
ENDBRANCH  19  20
ENDBRANCH   1  19
TORSDOF 9
ENDMDL
MODEL 3
REMARK minimizedAffinity -8.6982832
REMARK  9 active torsions:
REMARK  status: ('A' for Active; 'I' for Inactive)
REMARK    1  A    between atoms: C11_11  and  C13_13 
REMARK    2  A    between atoms: C13_13  and  O2_15 
REMARK    3  A    between atoms: C15_17  and  C16_18 
REMARK    4  A    between atoms: C16_18  and  C17_19 
REMARK    5  A    between atoms: C17_19  and  C18_20 
REMARK    6  A    between atoms: C19_21  and  C20_22 
REMARK    7  A    between atoms: C20_22  and  O3_23 
REMARK    8  A    between atoms: O3_23  and  C21_24 
REMARK    9  A    between atoms: C21_24  and  C22_26 
ROOT
HETATM    1  C16 UNL     1      -1.067   7.282  12.173  1.00  0.00     0.014 C 
ENDROOT
BRANCH   1   2
HETATM    2  C15 UNL     1       0.372   7.867  12.272  1.00  0.00     0.022 C 
HETATM    3  C2  UNL     1       0.987   7.857  13.673  1.00  0.00    -0.084 C 
HETATM    4  C1  UNL     1       0.523   7.193  14.745  1.00  0.00     0.014 C 
HETATM    5  C3  UNL     1       2.261   8.654  13.773  1.00  0.00     0.034 C 
HETATM    6  C4  UNL     1       3.301   8.121  12.788  1.00  0.00     0.011 C 
HETATM    7  C5  UNL     1       2.755   8.075  11.342  1.00  0.00     0.012 C 
HETATM    8  C6  UNL     1       1.411   7.241  11.239  1.00  0.00    -0.032 C 
HETATM    9  C11 UNL     1       3.829   7.763  10.236  1.00  0.00     0.049 C 
HETATM   10  C7  UNL     1       1.615   5.738  11.549  1.00  0.00     0.016 C 
HETATM   11  C8  UNL     1       0.863   7.379   9.791  1.00  0.00     0.010 C 
HETATM   12  C9  UNL     1       1.883   7.065   8.703  1.00  0.00     0.002 C 
HETATM   13  C10 UNL     1       3.149   7.899   8.849  1.00  0.00     0.020 C 
HETATM   14  C12 UNL     1       4.972   8.807  10.270  1.00  0.00     0.026 C 
BRANCH   9  15
HETATM   15  C13 UNL     1       4.539   6.409  10.437  1.00  0.00     0.267 C 
HETATM   16  O1  UNL     1       4.316   5.408   9.769  1.00  0.00    -0.264 OA
BRANCH  15  17
HETATM   17  O2  UNL     1       5.404   6.431  11.489  1.00  0.00    -0.326 OA
HETATM   18  C14 UNL     1       6.706   5.924  11.194  1.00  0.00     0.213 C 
ENDBRANCH  15  17
ENDBRANCH   9  15
ENDBRANCH   1   2
BRANCH   1  19
HETATM   19  C17 UNL     1      -1.267   5.932  12.887  1.00  0.00     0.042 C 
BRANCH  19  20
HETATM   20  C18 UNL     1      -2.006   4.926  12.063  1.00  0.00    -0.024 A 
HETATM   21  C19 UNL     1      -3.364   4.648  12.083  1.00  0.00     0.083 A 
HETATM   22  O5  UNL     1      -3.660   3.675  11.172  1.00  0.00    -0.324 OA
HETATM   23  C28 UNL     1      -2.496   3.317  10.577  1.00  0.00     0.143 A 
HETATM   24  C29 UNL     1      -1.452   4.050  11.086  1.00  0.00     0.034 A 
BRANCH  21  25
HETATM   25  C20 UNL     1      -4.508   5.183  12.864  1.00  0.00     0.244 C 
BRANCH  25  26
HETATM   26  O3  UNL     1      -5.221   4.068  13.417  1.00  0.00    -0.311 OA
BRANCH  26  27
HETATM   27  C21 UNL     1      -6.466   3.868  12.931  1.00  0.00     0.293 C 
HETATM   28  O4  UNL     1      -6.807   3.010  12.132  1.00  0.00    -0.259 OA
BRANCH  27  29
HETATM   29  C22 UNL     1      -7.414   4.851  13.527  1.00  0.00     0.039 A 
HETATM   30  C23 UNL     1      -8.452   5.343  12.722  1.00  0.00     0.019 A 
HETATM   31  C24 UNL     1      -9.366   6.266  13.237  1.00  0.00     0.025 A 
HETATM   32  C25 UNL     1      -9.244   6.701  14.556  1.00  0.00     0.034 A 
HETATM   33 CL1  UNL     1     -10.370   7.837  15.189  1.00  0.00    -0.084 Cl
HETATM   34  C26 UNL     1      -8.214   6.223  15.364  1.00  0.00     0.025 A 
HETATM   35  C27 UNL     1      -7.298   5.299  14.851  1.00  0.00     0.019 A 
ENDBRANCH  27  29
ENDBRANCH  26  27
ENDBRANCH  25  26
ENDBRANCH  21  25
ENDBRANCH  19  20
ENDBRANCH   1  19
TORSDOF 9
ENDMDL
MODEL 4
REMARK minimizedAffinity -8.62286377
REMARK  9 active torsions:
REMARK  status: ('A' for Active; 'I' for Inactive)
REMARK    1  A    between atoms: C11_11  and  C13_13 
REMARK    2  A    between atoms: C13_13  and  O2_15 
REMARK    3  A    between atoms: C15_17  and  C16_18 
REMARK    4  A    between atoms: C16_18  and  C17_19 
REMARK    5  A    between atoms: C17_19  and  C18_20 
REMARK    6  A    between atoms: C19_21  and  C20_22 
REMARK    7  A    between atoms: C20_22  and  O3_23 
REMARK    8  A    between atoms: O3_23  and  C21_24 
REMARK    9  A    between atoms: C21_24  and  C22_26 
ROOT
HETATM    1  C16 UNL     1      -4.320   6.867  14.044  1.00  0.00     0.014 C 
ENDROOT
BRANCH   1   2
HETATM    2  C15 UNL     1      -3.164   7.803  13.586  1.00  0.00     0.022 C 
HETATM    3  C2  UNL     1      -2.901   9.009  14.491  1.00  0.00    -0.084 C 
HETATM    4  C1  UNL     1      -3.387   9.200  15.729  1.00  0.00     0.014 C 
HETATM    5  C3  UNL     1      -1.958  10.016  13.887  1.00  0.00     0.034 C 
HETATM    6  C4  UNL     1      -0.617   9.360  13.558  1.00  0.00     0.011 C 
HETATM    7  C5  UNL     1      -0.791   8.113  12.660  1.00  0.00     0.012 C 
HETATM    8  C6  UNL     1      -1.787   7.057  13.294  1.00  0.00    -0.032 C 
HETATM    9  C11 UNL     1       0.546   7.518  12.084  1.00  0.00     0.049 C 
HETATM   10  C7  UNL     1      -1.244   6.432  14.601  1.00  0.00     0.016 C 
HETATM   11  C8  UNL     1      -2.013   5.920  12.259  1.00  0.00     0.010 C 
HETATM   12  C9  UNL     1      -0.729   5.317  11.699  1.00  0.00     0.002 C 
HETATM   13  C10 UNL     1       0.184   6.377  11.099  1.00  0.00     0.020 C 
HETATM   14  C12 UNL     1       1.312   8.584  11.260  1.00  0.00     0.026 C 
BRANCH   9  15
HETATM   15  C13 UNL     1       1.545   7.088  13.177  1.00  0.00     0.267 C 
HETATM   16  O1  UNL     1       1.470   6.039  13.804  1.00  0.00    -0.264 OA
BRANCH  15  17
HETATM   17  O2  UNL     1       2.492   8.037  13.415  1.00  0.00    -0.326 OA
HETATM   18  C14 UNL     1       3.028   8.018  14.739  1.00  0.00     0.213 C 
ENDBRANCH  15  17
ENDBRANCH   9  15
ENDBRANCH   1   2
BRANCH   1  19
HETATM   19  C17 UNL     1      -5.725   7.305  13.591  1.00  0.00     0.042 C 
BRANCH  19  20
HETATM   20  C18 UNL     1      -6.792   7.015  14.598  1.00  0.00    -0.024 A 
HETATM   21  C19 UNL     1      -8.014   6.396  14.382  1.00  0.00     0.083 A 
HETATM   22  O5  UNL     1      -8.706   6.297  15.554  1.00  0.00    -0.324 OA
HETATM   23  C28 UNL     1      -7.942   6.862  16.520  1.00  0.00     0.143 A 
HETATM   24  C29 UNL     1      -6.761   7.319  15.989  1.00  0.00     0.034 A 
BRANCH  21  25
HETATM   25  C20 UNL     1      -8.682   5.839  13.178  1.00  0.00     0.244 C 
BRANCH  25  26
HETATM   26  O3  UNL     1      -7.707   5.082  12.447  1.00  0.00    -0.311 OA
BRANCH  26  27
HETATM   27  C21 UNL     1      -7.754   3.743  12.621  1.00  0.00     0.293 C 
HETATM   28  O4  UNL     1      -8.722   3.088  12.977  1.00  0.00    -0.259 OA
BRANCH  27  29
HETATM   29  C22 UNL     1      -6.433   3.136  12.295  1.00  0.00     0.039 A 
HETATM   30  C23 UNL     1      -5.274   3.836  12.661  1.00  0.00     0.019 A 
HETATM   31  C24 UNL     1      -4.012   3.307  12.377  1.00  0.00     0.025 A 
HETATM   32  C25 UNL     1      -3.904   2.080  11.724  1.00  0.00     0.034 A 
HETATM   33 CL1  UNL     1      -2.351   1.429  11.375  1.00  0.00    -0.084 Cl
HETATM   34  C26 UNL     1      -5.050   1.377  11.351  1.00  0.00     0.025 A 
HETATM   35  C27 UNL     1      -6.314   1.905  11.634  1.00  0.00     0.019 A 
ENDBRANCH  27  29
ENDBRANCH  26  27
ENDBRANCH  25  26
ENDBRANCH  21  25
ENDBRANCH  19  20
ENDBRANCH   1  19
TORSDOF 9
ENDMDL
MODEL 5
REMARK minimizedAffinity -8.59008884
REMARK  9 active torsions:
REMARK  status: ('A' for Active; 'I' for Inactive)
REMARK    1  A    between atoms: C11_11  and  C13_13 
REMARK    2  A    between atoms: C13_13  and  O2_15 
REMARK    3  A    between atoms: C15_17  and  C16_18 
REMARK    4  A    between atoms: C16_18  and  C17_19 
REMARK    5  A    between atoms: C17_19  and  C18_20 
REMARK    6  A    between atoms: C19_21  and  C20_22 
REMARK    7  A    between atoms: C20_22  and  O3_23 
REMARK    8  A    between atoms: O3_23  and  C21_24 
REMARK    9  A    between atoms: C21_24  and  C22_26 
ROOT
HETATM    1  C16 UNL     1      -0.262   7.043  12.153  1.00  0.00     0.014 C 
ENDROOT
BRANCH   1   2
HETATM    2  C15 UNL     1      -1.640   6.325  12.070  1.00  0.00     0.022 C 
HETATM    3  C2  UNL     1      -1.581   4.796  12.048  1.00  0.00    -0.084 C 
HETATM    4  C1  UNL     1      -0.512   4.033  12.332  1.00  0.00     0.014 C 
HETATM    5  C3  UNL     1      -2.901   4.150  11.714  1.00  0.00     0.034 C 
HETATM    6  C4  UNL     1      -3.971   4.576  12.719  1.00  0.00     0.011 C 
HETATM    7  C5  UNL     1      -4.085   6.115  12.822  1.00  0.00     0.012 C 
HETATM    8  C6  UNL     1      -2.695   6.793  13.168  1.00  0.00    -0.032 C 
HETATM    9  C11 UNL     1      -5.315   6.636  13.653  1.00  0.00     0.049 C 
HETATM   10  C7  UNL     1      -2.181   6.417  14.579  1.00  0.00     0.016 C 
HETATM   11  C8  UNL     1      -2.876   8.335  13.102  1.00  0.00     0.010 C 
HETATM   12  C9  UNL     1      -4.054   8.864  13.913  1.00  0.00     0.002 C 
HETATM   13  C10 UNL     1      -5.361   8.181  13.533  1.00  0.00     0.020 C 
HETATM   14  C12 UNL     1      -6.643   6.109  13.057  1.00  0.00     0.026 C 
BRANCH   9  15
HETATM   15  C13 UNL     1      -5.324   6.136  15.112  1.00  0.00     0.267 C 
HETATM   16  O1  UNL     1      -4.357   6.179  15.861  1.00  0.00    -0.264 OA
BRANCH  15  17
HETATM   17  O2  UNL     1      -6.516   5.578  15.459  1.00  0.00    -0.326 OA
HETATM   18  C14 UNL     1      -7.185   6.234  16.537  1.00  0.00     0.213 C 
ENDBRANCH  15  17
ENDBRANCH   9  15
ENDBRANCH   1   2
BRANCH   1  19
HETATM   19  C17 UNL     1      -0.075   8.202  11.157  1.00  0.00     0.042 C 
BRANCH  19  20
HETATM   20  C18 UNL     1       0.641   7.803   9.906  1.00  0.00    -0.024 A 
HETATM   21  C19 UNL     1       1.618   6.830   9.764  1.00  0.00     0.083 A 
HETATM   22  O5  UNL     1       2.016   6.749   8.461  1.00  0.00    -0.324 OA
HETATM   23  C28 UNL     1       1.311   7.676   7.768  1.00  0.00     0.143 A 
HETATM   24  C29 UNL     1       0.456   8.351   8.604  1.00  0.00     0.034 A 
BRANCH  21  25
HETATM   25  C20 UNL     1       2.279   5.896  10.710  1.00  0.00     0.244 C 
BRANCH  25  26
HETATM   26  O3  UNL     1       3.344   6.608  11.355  1.00  0.00    -0.311 OA
BRANCH  26  27
HETATM   27  C21 UNL     1       4.575   6.426  10.829  1.00  0.00     0.293 C 
HETATM   28  O4  UNL     1       4.934   5.498  10.120  1.00  0.00    -0.259 OA
BRANCH  27  29
HETATM   29  C22 UNL     1       5.472   7.549  11.221  1.00  0.00     0.039 A 
HETATM   30  C23 UNL     1       5.426   8.729  10.464  1.00  0.00     0.019 A 
HETATM   31  C24 UNL     1       6.248   9.810  10.793  1.00  0.00     0.025 A 
HETATM   32  C25 UNL     1       7.121   9.714  11.876  1.00  0.00     0.034 A 
HETATM   33 CL1  UNL     1       8.132  11.045  12.281  1.00  0.00    -0.084 Cl
HETATM   34  C26 UNL     1       7.179   8.544  12.633  1.00  0.00     0.025 A 
HETATM   35  C27 UNL     1       6.357   7.461  12.306  1.00  0.00     0.019 A 
ENDBRANCH  27  29
ENDBRANCH  26  27
ENDBRANCH  25  26
ENDBRANCH  21  25
ENDBRANCH  19  20
ENDBRANCH   1  19
TORSDOF 9
ENDMDL
MODEL 6
REMARK minimizedAffinity -8.55766392
REMARK  9 active torsions:
REMARK  status: ('A' for Active; 'I' for Inactive)
REMARK    1  A    between atoms: C11_11  and  C13_13 
REMARK    2  A    between atoms: C13_13  and  O2_15 
REMARK    3  A    between atoms: C15_17  and  C16_18 
REMARK    4  A    between atoms: C16_18  and  C17_19 
REMARK    5  A    between atoms: C17_19  and  C18_20 
REMARK    6  A    between atoms: C19_21  and  C20_22 
REMARK    7  A    between atoms: C20_22  and  O3_23 
REMARK    8  A    between atoms: O3_23  and  C21_24 
REMARK    9  A    between atoms: C21_24  and  C22_26 
ROOT
HETATM    1  C16 UNL     1      -3.630   4.720  12.254  1.00  0.00     0.014 C 
ENDROOT
BRANCH   1   2
HETATM    2  C15 UNL     1      -4.061   5.208  13.668  1.00  0.00     0.022 C 
HETATM    3  C2  UNL     1      -2.991   5.975  14.449  1.00  0.00    -0.084 C 
HETATM    4  C1  UNL     1      -1.841   6.467  13.958  1.00  0.00     0.014 C 
HETATM    5  C3  UNL     1      -3.355   6.206  15.893  1.00  0.00     0.034 C 
HETATM    6  C4  UNL     1      -4.671   6.977  15.994  1.00  0.00     0.011 C 
HETATM    7  C5  UNL     1      -5.808   6.280  15.211  1.00  0.00     0.012 C 
HETATM    8  C6  UNL     1      -5.422   6.033  13.694  1.00  0.00    -0.032 C 
HETATM    9  C11 UNL     1      -7.243   6.877  15.454  1.00  0.00     0.049 C 
HETATM   10  C7  UNL     1      -5.250   7.350  12.899  1.00  0.00     0.016 C 
HETATM   11  C8  UNL     1      -6.556   5.201  13.034  1.00  0.00     0.010 C 
HETATM   12  C9  UNL     1      -7.955   5.769  13.243  1.00  0.00     0.002 C 
HETATM   13  C10 UNL     1      -8.271   5.979  14.717  1.00  0.00     0.020 C 
HETATM   14  C12 UNL     1      -7.612   6.825  16.957  1.00  0.00     0.026 C 
BRANCH   9  15
HETATM   15  C13 UNL     1      -7.357   8.368  15.082  1.00  0.00     0.267 C 
HETATM   16  O1  UNL     1      -6.439   9.173  15.171  1.00  0.00    -0.264 OA
BRANCH  15  17
HETATM   17  O2  UNL     1      -8.618   8.711  14.700  1.00  0.00    -0.326 OA
HETATM   18  C14 UNL     1      -9.115   9.907  15.302  1.00  0.00     0.213 C 
ENDBRANCH  15  17
ENDBRANCH   9  15
ENDBRANCH   1   2
BRANCH   1  19
HETATM   19  C17 UNL     1      -3.744   3.200  12.032  1.00  0.00     0.042 C 
BRANCH  19  20
HETATM   20  C18 UNL     1      -2.472   2.569  11.563  1.00  0.00    -0.024 A 
HETATM   21  C19 UNL     1      -1.252   3.189  11.340  1.00  0.00     0.083 A 
HETATM   22  O5  UNL     1      -0.325   2.273  10.933  1.00  0.00    -0.324 OA
HETATM   23  C28 UNL     1      -0.948   1.070  10.879  1.00  0.00     0.143 A 
HETATM   24  C29 UNL     1      -2.263   1.195  11.253  1.00  0.00     0.034 A 
BRANCH  21  25
HETATM   25  C20 UNL     1      -0.777   4.591  11.459  1.00  0.00     0.244 C 
BRANCH  25  26
HETATM   26  O3  UNL     1       0.586   4.556  11.904  1.00  0.00    -0.311 OA
BRANCH  26  27
HETATM   27  C21 UNL     1       1.228   5.745  11.924  1.00  0.00     0.293 C 
HETATM   28  O4  UNL     1       1.616   6.345  12.915  1.00  0.00    -0.259 OA
BRANCH  27  29
HETATM   29  C22 UNL     1       1.428   6.245  10.536  1.00  0.00     0.039 A 
HETATM   30  C23 UNL     1       2.429   5.650   9.755  1.00  0.00     0.019 A 
HETATM   31  C24 UNL     1       2.654   6.085   8.446  1.00  0.00     0.025 A 
HETATM   32  C25 UNL     1       1.882   7.117   7.915  1.00  0.00     0.034 A 
HETATM   33 CL1  UNL     1       2.159   7.652   6.304  1.00  0.00    -0.084 Cl
HETATM   34  C26 UNL     1       0.887   7.720   8.684  1.00  0.00     0.025 A 
HETATM   35  C27 UNL     1       0.660   7.286   9.994  1.00  0.00     0.019 A 
ENDBRANCH  27  29
ENDBRANCH  26  27
ENDBRANCH  25  26
ENDBRANCH  21  25
ENDBRANCH  19  20
ENDBRANCH   1  19
TORSDOF 9
ENDMDL
MODEL 7
REMARK minimizedAffinity -8.51780891
REMARK  9 active torsions:
REMARK  status: ('A' for Active; 'I' for Inactive)
REMARK    1  A    between atoms: C11_11  and  C13_13 
REMARK    2  A    between atoms: C13_13  and  O2_15 
REMARK    3  A    between atoms: C15_17  and  C16_18 
REMARK    4  A    between atoms: C16_18  and  C17_19 
REMARK    5  A    between atoms: C17_19  and  C18_20 
REMARK    6  A    between atoms: C19_21  and  C20_22 
REMARK    7  A    between atoms: C20_22  and  O3_23 
REMARK    8  A    between atoms: O3_23  and  C21_24 
REMARK    9  A    between atoms: C21_24  and  C22_26 
ROOT
HETATM    1  C16 UNL     1      -1.720   4.696  12.051  1.00  0.00     0.014 C 
ENDROOT
BRANCH   1   2
HETATM    2  C15 UNL     1      -3.244   4.492  11.812  1.00  0.00     0.022 C 
HETATM    3  C2  UNL     1      -3.677   3.046  11.557  1.00  0.00    -0.084 C 
HETATM    4  C1  UNL     1      -2.937   1.942  11.755  1.00  0.00     0.014 C 
HETATM    5  C3  UNL     1      -5.102   2.923  11.083  1.00  0.00     0.034 C 
HETATM    6  C4  UNL     1      -6.058   3.538  12.105  1.00  0.00     0.011 C 
HETATM    7  C5  UNL     1      -5.680   5.000  12.441  1.00  0.00     0.012 C 
HETATM    8  C6  UNL     1      -4.179   5.129  12.933  1.00  0.00    -0.032 C 
HETATM    9  C11 UNL     1      -6.741   5.781  13.300  1.00  0.00     0.049 C 
HETATM   10  C7  UNL     1      -3.931   4.419  14.286  1.00  0.00     0.016 C 
HETATM   11  C8  UNL     1      -3.849   6.639  13.099  1.00  0.00     0.010 C 
HETATM   12  C9  UNL     1      -4.857   7.412  13.942  1.00  0.00     0.002 C 
HETATM   13  C10 UNL     1      -6.278   7.256  13.418  1.00  0.00     0.020 C 
HETATM   14  C12 UNL     1      -8.114   5.807  12.585  1.00  0.00     0.026 C 
BRANCH   9  15
HETATM   15  C13 UNL     1      -7.030   5.120  14.663  1.00  0.00     0.267 C 
HETATM   16  O1  UNL     1      -7.433   3.972  14.800  1.00  0.00    -0.264 OA
BRANCH  15  17
HETATM   17  O2  UNL     1      -6.848   5.980  15.703  1.00  0.00    -0.326 OA
HETATM   18  C14 UNL     1      -8.057   6.495  16.263  1.00  0.00     0.213 C 
ENDBRANCH  15  17
ENDBRANCH   9  15
ENDBRANCH   1   2
BRANCH   1  19
HETATM   19  C17 UNL     1      -0.991   5.481  10.943  1.00  0.00     0.042 C 
BRANCH  19  20
HETATM   20  C18 UNL     1      -0.316   6.720  11.437  1.00  0.00    -0.024 A 
HETATM   21  C19 UNL     1       0.151   7.787  10.685  1.00  0.00     0.083 A 
HETATM   22  O5  UNL     1       0.693   8.738  11.501  1.00  0.00    -0.324 OA
HETATM   23  C28 UNL     1       0.590   8.280  12.773  1.00  0.00     0.143 A 
HETATM   24  C29 UNL     1      -0.018   7.049  12.791  1.00  0.00     0.034 A 
BRANCH  21  25
HETATM   25  C20 UNL     1       0.169   8.086   9.230  1.00  0.00     0.244 C 
BRANCH  25  26
HETATM   26  O3  UNL     1       1.117   7.203   8.614  1.00  0.00    -0.311 OA
BRANCH  26  27
HETATM   27  C21 UNL     1       2.289   7.766   8.246  1.00  0.00     0.293 C 
HETATM   28  O4  UNL     1       2.484   8.465   7.264  1.00  0.00    -0.259 OA
BRANCH  27  29
HETATM   29  C22 UNL     1       3.353   7.431   9.233  1.00  0.00     0.039 A 
HETATM   30  C23 UNL     1       4.183   8.465   9.690  1.00  0.00     0.019 A 
HETATM   31  C24 UNL     1       5.194   8.199  10.618  1.00  0.00     0.025 A 
HETATM   32  C25 UNL     1       5.381   6.900  11.088  1.00  0.00     0.034 A 
HETATM   33 CL1  UNL     1       6.626   6.574  12.229  1.00  0.00    -0.084 Cl
HETATM   34  C26 UNL     1       4.565   5.863  10.638  1.00  0.00     0.025 A 
HETATM   35  C27 UNL     1       3.552   6.127   9.710  1.00  0.00     0.019 A 
ENDBRANCH  27  29
ENDBRANCH  26  27
ENDBRANCH  25  26
ENDBRANCH  21  25
ENDBRANCH  19  20
ENDBRANCH   1  19
TORSDOF 9
ENDMDL
MODEL 8
REMARK minimizedAffinity -8.48713684
REMARK  9 active torsions:
REMARK  status: ('A' for Active; 'I' for Inactive)
REMARK    1  A    between atoms: C11_11  and  C13_13 
REMARK    2  A    between atoms: C13_13  and  O2_15 
REMARK    3  A    between atoms: C15_17  and  C16_18 
REMARK    4  A    between atoms: C16_18  and  C17_19 
REMARK    5  A    between atoms: C17_19  and  C18_20 
REMARK    6  A    between atoms: C19_21  and  C20_22 
REMARK    7  A    between atoms: C20_22  and  O3_23 
REMARK    8  A    between atoms: O3_23  and  C21_24 
REMARK    9  A    between atoms: C21_24  and  C22_26 
ROOT
HETATM    1  C16 UNL     1      -3.964   4.638  13.121  1.00  0.00     0.014 C 
ENDROOT
BRANCH   1   2
HETATM    2  C15 UNL     1      -3.257   5.959  12.701  1.00  0.00     0.022 C 
HETATM    3  C2  UNL     1      -3.717   7.213  13.449  1.00  0.00    -0.084 C 
HETATM    4  C1  UNL     1      -4.467   7.249  14.563  1.00  0.00     0.014 C 
HETATM    5  C3  UNL     1      -3.201   8.493  12.846  1.00  0.00     0.034 C 
HETATM    6  C4  UNL     1      -1.672   8.487  12.811  1.00  0.00     0.011 C 
HETATM    7  C5  UNL     1      -1.117   7.237  12.089  1.00  0.00     0.012 C 
HETATM    8  C6  UNL     1      -1.666   5.891  12.721  1.00  0.00    -0.032 C 
HETATM    9  C11 UNL     1       0.429   7.267  11.804  1.00  0.00     0.049 C 
HETATM   10  C7  UNL     1      -1.171   5.666  14.170  1.00  0.00     0.016 C 
HETATM   11  C8  UNL     1      -1.178   4.707  11.842  1.00  0.00     0.010 C 
HETATM   12  C9  UNL     1       0.322   4.707  11.565  1.00  0.00     0.002 C 
HETATM   13  C10 UNL     1       0.789   6.021  10.954  1.00  0.00     0.020 C 
HETATM   14  C12 UNL     1       0.806   8.504  10.952  1.00  0.00     0.026 C 
BRANCH   9  15
HETATM   15  C13 UNL     1       1.285   7.404  13.079  1.00  0.00     0.267 C 
HETATM   16  O1  UNL     1       0.843   7.735  14.172  1.00  0.00    -0.264 OA
BRANCH  15  17
HETATM   17  O2  UNL     1       2.606   7.178  12.842  1.00  0.00    -0.326 OA
HETATM   18  C14 UNL     1       3.493   7.916  13.684  1.00  0.00     0.213 C 
ENDBRANCH  15  17
ENDBRANCH   9  15
ENDBRANCH   1   2
BRANCH   1  19
HETATM   19  C17 UNL     1      -4.677   3.894  11.976  1.00  0.00     0.042 C 
BRANCH  19  20
HETATM   20  C18 UNL     1      -6.023   3.365  12.358  1.00  0.00    -0.024 A 
HETATM   21  C19 UNL     1      -7.061   4.053  12.968  1.00  0.00     0.083 A 
HETATM   22  O5  UNL     1      -8.137   3.229  13.138  1.00  0.00    -0.324 OA
HETATM   23  C28 UNL     1      -7.790   2.012  12.653  1.00  0.00     0.143 A 
HETATM   24  C29 UNL     1      -6.507   2.039  12.165  1.00  0.00     0.034 A 
BRANCH  21  25
HETATM   25  C20 UNL     1      -7.224   5.450  13.445  1.00  0.00     0.244 C 
BRANCH  25  26
HETATM   26  O3  UNL     1      -8.492   5.540  14.110  1.00  0.00    -0.311 OA
BRANCH  26  27
HETATM   27  C21 UNL     1      -8.666   6.623  14.899  1.00  0.00     0.293 C 
HETATM   28  O4  UNL     1      -8.047   6.889  15.917  1.00  0.00    -0.259 OA
BRANCH  27  29
HETATM   29  C22 UNL     1      -9.735   7.498  14.342  1.00  0.00     0.039 A 
HETATM   30  C23 UNL     1     -10.566   6.974  13.340  1.00  0.00     0.019 A 
HETATM   31  C24 UNL     1     -11.584   7.756  12.788  1.00  0.00     0.025 A 
HETATM   32  C25 UNL     1     -11.772   9.064  13.232  1.00  0.00     0.034 A 
HETATM   33 CL1  UNL     1     -13.025  10.027  12.551  1.00  0.00    -0.084 Cl
HETATM   34  C26 UNL     1     -10.950   9.598  14.224  1.00  0.00     0.025 A 
HETATM   35  C27 UNL     1      -9.931   8.817  14.778  1.00  0.00     0.019 A 
ENDBRANCH  27  29
ENDBRANCH  26  27
ENDBRANCH  25  26
ENDBRANCH  21  25
ENDBRANCH  19  20
ENDBRANCH   1  19
TORSDOF 9
ENDMDL
MODEL 9
REMARK minimizedAffinity -8.43261528
REMARK  9 active torsions:
REMARK  status: ('A' for Active; 'I' for Inactive)
REMARK    1  A    between atoms: C11_11  and  C13_13 
REMARK    2  A    between atoms: C13_13  and  O2_15 
REMARK    3  A    between atoms: C15_17  and  C16_18 
REMARK    4  A    between atoms: C16_18  and  C17_19 
REMARK    5  A    between atoms: C17_19  and  C18_20 
REMARK    6  A    between atoms: C19_21  and  C20_22 
REMARK    7  A    between atoms: C20_22  and  O3_23 
REMARK    8  A    between atoms: O3_23  and  C21_24 
REMARK    9  A    between atoms: C21_24  and  C22_26 
ROOT
HETATM    1  C16 UNL     1      -1.329   7.951  12.405  1.00  0.00     0.014 C 
ENDROOT
BRANCH   1   2
HETATM    2  C15 UNL     1       0.211   8.044  12.196  1.00  0.00     0.022 C 
HETATM    3  C2  UNL     1       1.059   7.353  13.267  1.00  0.00    -0.084 C 
HETATM    4  C1  UNL     1       0.620   6.494  14.202  1.00  0.00     0.014 C 
HETATM    5  C3  UNL     1       2.527   7.678  13.170  1.00  0.00     0.034 C 
HETATM    6  C4  UNL     1       3.070   7.283  11.797  1.00  0.00     0.011 C 
HETATM    7  C5  UNL     1       2.255   7.923  10.649  1.00  0.00     0.012 C 
HETATM    8  C6  UNL     1       0.710   7.585  10.755  1.00  0.00    -0.032 C 
HETATM    9  C11 UNL     1       2.884   7.761   9.217  1.00  0.00     0.049 C 
HETATM   10  C7  UNL     1       0.413   6.080  10.554  1.00  0.00     0.016 C 
HETATM   11  C8  UNL     1      -0.040   8.389   9.656  1.00  0.00     0.010 C 
HETATM   12  C9  UNL     1       0.544   8.234   8.257  1.00  0.00     0.002 C 
HETATM   13  C10 UNL     1       2.026   8.577   8.216  1.00  0.00     0.020 C 
HETATM   14  C12 UNL     1       4.309   8.366   9.171  1.00  0.00     0.026 C 
BRANCH   9  15
HETATM   15  C13 UNL     1       3.079   6.290   8.797  1.00  0.00     0.267 C 
HETATM   16  O1  UNL     1       2.476   5.751   7.877  1.00  0.00    -0.264 OA
BRANCH  15  17
HETATM   17  O2  UNL     1       3.954   5.633   9.606  1.00  0.00    -0.326 OA
HETATM   18  C14 UNL     1       3.955   4.213   9.446  1.00  0.00     0.213 C 
ENDBRANCH  15  17
ENDBRANCH   9  15
ENDBRANCH   1   2
BRANCH   1  19
HETATM   19  C17 UNL     1      -1.871   6.523  12.598  1.00  0.00     0.042 C 
BRANCH  19  20
HETATM   20  C18 UNL     1      -2.861   6.407  13.712  1.00  0.00    -0.024 A 
HETATM   21  C19 UNL     1      -3.818   5.420  13.895  1.00  0.00     0.083 A 
HETATM   22  O5  UNL     1      -4.523   5.654  15.041  1.00  0.00    -0.324 OA
HETATM   23  C28 UNL     1      -4.033   6.794  15.587  1.00  0.00     0.143 A 
HETATM   24  C29 UNL     1      -3.017   7.297  14.813  1.00  0.00     0.034 A 
BRANCH  21  25
HETATM   25  C20 UNL     1      -4.203   4.210  13.126  1.00  0.00     0.244 C 
BRANCH  25  26
HETATM   26  O3  UNL     1      -5.353   4.541  12.335  1.00  0.00    -0.311 OA
BRANCH  26  27
HETATM   27  C21 UNL     1      -6.494   3.894  12.659  1.00  0.00     0.293 C 
HETATM   28  O4  UNL     1      -6.681   2.687  12.625  1.00  0.00    -0.259 OA
BRANCH  27  29
HETATM   29  C22 UNL     1      -7.531   4.869  13.098  1.00  0.00     0.039 A 
HETATM   30  C23 UNL     1      -7.548   5.257  14.445  1.00  0.00     0.019 A 
HETATM   31  C24 UNL     1      -8.502   6.170  14.904  1.00  0.00     0.025 A 
HETATM   32  C25 UNL     1      -9.443   6.694  14.019  1.00  0.00     0.034 A 
HETATM   33 CL1  UNL     1     -10.616   7.818  14.583  1.00  0.00    -0.084 Cl
HETATM   34  C26 UNL     1      -9.439   6.312  12.678  1.00  0.00     0.025 A 
HETATM   35  C27 UNL     1      -8.485   5.399  12.217  1.00  0.00     0.019 A 
ENDBRANCH  27  29
ENDBRANCH  26  27
ENDBRANCH  25  26
ENDBRANCH  21  25
ENDBRANCH  19  20
ENDBRANCH   1  19
TORSDOF 9
ENDMDL
