MODEL 1
REMARK minimizedAffinity -9.83001423
REMARK  8 active torsions:
REMARK  status: ('A' for Active; 'I' for Inactive)
REMARK    1  A    between atoms: C12_14  and  C13_15 
REMARK    2  A    between atoms: C13_15  and  C15_17 
REMARK    3  A    between atoms: C15_17  and  C16_18 
REMARK    4  A    between atoms: C16_18  and  C17_19 
REMARK    5  A    between atoms: C26_28  and  C27_29 
REMARK    6  A    between atoms: C27_29  and  C28_30 
REMARK    7  A    between atoms: C28_30  and  C29_31 
REMARK    8  A    between atoms: C29_31  and  O4_33 
ROOT
HETATM    1  C1  UNL     1      -0.377  49.210 -16.595  1.00  0.00     0.025 C 
HETATM    2  C2  UNL     1      -1.406  49.408 -17.427  1.00  0.00     0.015 C 
HETATM    3  C3  UNL     1      -2.488  48.415 -17.607  1.00  0.00     0.289 C 
HETATM    4  O1  UNL     1      -2.490  47.266 -17.208  1.00  0.00    -0.260 OA
HETATM    5  O2  UNL     1      -3.481  49.009 -18.321  1.00  0.00    -0.311 OA
HETATM    6  C4  UNL     1      -3.216  50.414 -18.431  1.00  0.00     0.142 C 
HETATM    7  C5  UNL     1      -3.788  50.976 -19.725  1.00  0.00     0.039 C 
HETATM    8  C6  UNL     1      -3.146  50.320 -20.956  1.00  0.00     0.006 C 
HETATM    9  C7  UNL     1      -1.620  50.574 -20.965  1.00  0.00    -0.027 A 
HETATM   10  C8  UNL     1      -1.063  51.321 -22.178  1.00  0.00     0.011 C 
HETATM   11  C9  UNL     1      -1.641  50.931 -23.552  1.00  0.00     0.011 C 
HETATM   12  C10 UNL     1      -2.966  50.155 -23.499  1.00  0.00    -0.032 C 
HETATM   13  C11 UNL     1      -2.632  48.636 -23.382  1.00  0.00     0.016 C 
HETATM   14  C12 UNL     1      -3.943  50.357 -24.707  1.00  0.00    -0.002 C 
HETATM   15  C21 UNL     1      -5.324  49.995 -24.087  1.00  0.00     0.006 C 
HETATM   16  C22 UNL     1      -5.175  50.028 -22.557  1.00  0.00     0.011 C 
HETATM   17  C23 UNL     1      -3.820  50.713 -22.303  1.00  0.00    -0.032 C 
HETATM   18  C24 UNL     1      -4.095  52.250 -22.359  1.00  0.00     0.016 C 
HETATM   19  C25 UNL     1      -0.749  49.460 -20.425  1.00  0.00     0.022 A 
HETATM   20  C26 UNL     1      -0.910  50.709 -19.585  1.00  0.00    -0.021 A 
HETATM   21  C30 UNL     1      -1.712  50.598 -18.273  1.00  0.00     0.063 C 
ENDROOT
BRANCH  14  22
HETATM   22  C13 UNL     1      -3.686  49.617 -26.058  1.00  0.00    -0.014 C 
HETATM   23  C14 UNL     1      -4.382  48.252 -26.104  1.00  0.00     0.010 C 
BRANCH  22  24
HETATM   24  C15 UNL     1      -2.156  49.452 -26.298  1.00  0.00     0.008 C 
BRANCH  24  25
HETATM   25  C16 UNL     1      -1.457  50.731 -26.773  1.00  0.00     0.028 C 
BRANCH  25  26
HETATM   26  C17 UNL     1      -0.001  50.947 -26.439  1.00  0.00    -0.025 C 
HETATM   27  C18 UNL     1       1.056  51.354 -27.171  1.00  0.00    -0.091 C 
HETATM   28  C19 UNL     1       2.429  51.407 -26.545  1.00  0.00     0.042 C 
HETATM   29  C20 UNL     1       1.023  51.801 -28.604  1.00  0.00     0.042 C 
ENDBRANCH  25  26
ENDBRANCH  24  25
ENDBRANCH  22  24
ENDBRANCH  14  22
BRANCH  20  30
HETATM   30  C27 UNL     1       0.348  51.574 -19.443  1.00  0.00     0.021 C 
BRANCH  30  31
HETATM   31  C28 UNL     1       0.647  52.415 -20.684  1.00  0.00     0.111 C 
BRANCH  31  32
HETATM   32  C29 UNL     1       0.911  53.848 -20.314  1.00  0.00     0.139 C 
HETATM   33  O3  UNL     1       1.618  54.647 -20.902  1.00  0.00    -0.650 OA
BRANCH  32  34
HETATM   34  O4  UNL     1       0.271  54.202 -19.182  1.00  0.00    -0.776 OA
HETATM   35  H43 UNL     1       0.528  55.139 -19.046  1.00  0.00     0.167 HD
ENDBRANCH  32  34
ENDBRANCH  31  32
ENDBRANCH  30  31
ENDBRANCH  20  30
TORSDOF 8
ENDMDL
MODEL 2
REMARK minimizedAffinity -9.43005562
REMARK  8 active torsions:
REMARK  status: ('A' for Active; 'I' for Inactive)
REMARK    1  A    between atoms: C12_14  and  C13_15 
REMARK    2  A    between atoms: C13_15  and  C15_17 
REMARK    3  A    between atoms: C15_17  and  C16_18 
REMARK    4  A    between atoms: C16_18  and  C17_19 
REMARK    5  A    between atoms: C26_28  and  C27_29 
REMARK    6  A    between atoms: C27_29  and  C28_30 
REMARK    7  A    between atoms: C28_30  and  C29_31 
REMARK    8  A    between atoms: C29_31  and  O4_33 
ROOT
HETATM    1  C1  UNL     1       0.122  50.323 -17.252  1.00  0.00     0.025 C 
HETATM    2  C2  UNL     1      -0.992  50.369 -17.990  1.00  0.00     0.015 C 
HETATM    3  C3  UNL     1      -2.137  49.459 -17.764  1.00  0.00     0.289 C 
HETATM    4  O1  UNL     1      -2.145  48.468 -17.058  1.00  0.00    -0.260 OA
HETATM    5  O2  UNL     1      -3.181  49.914 -18.507  1.00  0.00    -0.311 OA
HETATM    6  C4  UNL     1      -2.863  51.207 -19.038  1.00  0.00     0.142 C 
HETATM    7  C5  UNL     1      -3.565  51.436 -20.369  1.00  0.00     0.039 C 
HETATM    8  C6  UNL     1      -3.117  50.415 -21.425  1.00  0.00     0.006 C 
HETATM    9  C7  UNL     1      -1.594  50.529 -21.669  1.00  0.00    -0.027 A 
HETATM   10  C8  UNL     1      -1.158  50.864 -23.097  1.00  0.00     0.011 C 
HETATM   11  C9  UNL     1      -1.925  50.160 -24.234  1.00  0.00     0.011 C 
HETATM   12  C10 UNL     1      -3.270  49.541 -23.821  1.00  0.00    -0.032 C 
HETATM   13  C11 UNL     1      -2.999  48.092 -23.315  1.00  0.00     0.016 C 
HETATM   14  C12 UNL     1      -4.379  49.483 -24.924  1.00  0.00    -0.002 C 
HETATM   15  C21 UNL     1      -5.688  49.423 -24.083  1.00  0.00     0.006 C 
HETATM   16  C22 UNL     1      -5.345  49.863 -22.649  1.00  0.00     0.011 C 
HETATM   17  C23 UNL     1      -3.936  50.477 -22.747  1.00  0.00    -0.032 C 
HETATM   18  C24 UNL     1      -4.139  51.956 -23.206  1.00  0.00     0.016 C 
HETATM   19  C25 UNL     1      -0.718  49.538 -20.932  1.00  0.00     0.022 A 
HETATM   20  C26 UNL     1      -0.709  50.980 -20.469  1.00  0.00    -0.021 A 
HETATM   21  C30 UNL     1      -1.344  51.301 -19.101  1.00  0.00     0.063 C 
ENDROOT
BRANCH  14  22
HETATM   22  C13 UNL     1      -4.333  48.381 -26.029  1.00  0.00    -0.014 C 
HETATM   23  C14 UNL     1      -3.451  48.794 -27.212  1.00  0.00     0.010 C 
BRANCH  22  24
HETATM   24  C15 UNL     1      -5.774  48.050 -26.519  1.00  0.00     0.008 C 
BRANCH  24  25
HETATM   25  C16 UNL     1      -5.842  47.564 -27.972  1.00  0.00     0.028 C 
BRANCH  25  26
HETATM   26  C17 UNL     1      -6.961  48.049 -28.862  1.00  0.00    -0.025 C 
HETATM   27  C18 UNL     1      -8.114  47.484 -29.274  1.00  0.00    -0.091 C 
HETATM   28  C19 UNL     1      -9.011  48.222 -30.239  1.00  0.00     0.042 C 
HETATM   29  C20 UNL     1      -8.646  46.144 -28.852  1.00  0.00     0.042 C 
ENDBRANCH  25  26
ENDBRANCH  24  25
ENDBRANCH  22  24
ENDBRANCH  14  22
BRANCH  20  30
HETATM   30  C27 UNL     1       0.598  51.742 -20.714  1.00  0.00     0.021 C 
BRANCH  30  31
HETATM   31  C28 UNL     1       0.405  53.030 -21.514  1.00  0.00     0.111 C 
BRANCH  31  32
HETATM   32  C29 UNL     1       1.349  54.103 -21.044  1.00  0.00     0.139 C 
HETATM   33  O3  UNL     1       1.921  54.937 -21.725  1.00  0.00    -0.650 OA
BRANCH  32  34
HETATM   34  O4  UNL     1       1.543  54.054 -19.712  1.00  0.00    -0.776 OA
HETATM   35  H43 UNL     1       2.173  54.786 -19.537  1.00  0.00     0.167 HD
ENDBRANCH  32  34
ENDBRANCH  31  32
ENDBRANCH  30  31
ENDBRANCH  20  30
TORSDOF 8
ENDMDL
MODEL 3
REMARK minimizedAffinity -9.04734421
REMARK  8 active torsions:
REMARK  status: ('A' for Active; 'I' for Inactive)
REMARK    1  A    between atoms: C12_14  and  C13_15 
REMARK    2  A    between atoms: C13_15  and  C15_17 
REMARK    3  A    between atoms: C15_17  and  C16_18 
REMARK    4  A    between atoms: C16_18  and  C17_19 
REMARK    5  A    between atoms: C26_28  and  C27_29 
REMARK    6  A    between atoms: C27_29  and  C28_30 
REMARK    7  A    between atoms: C28_30  and  C29_31 
REMARK    8  A    between atoms: C29_31  and  O4_33 
ROOT
HETATM    1  C1  UNL     1      -8.890  47.734 -23.337  1.00  0.00     0.025 C 
HETATM    2  C2  UNL     1      -7.800  47.629 -22.569  1.00  0.00     0.015 C 
HETATM    3  C3  UNL     1      -7.812  47.934 -21.121  1.00  0.00     0.289 C 
HETATM    4  O1  UNL     1      -8.704  48.484 -20.505  1.00  0.00    -0.260 OA
HETATM    5  O2  UNL     1      -6.632  47.506 -20.598  1.00  0.00    -0.311 OA
HETATM    6  C4  UNL     1      -5.929  46.729 -21.577  1.00  0.00     0.142 C 
HETATM    7  C5  UNL     1      -4.423  46.848 -21.386  1.00  0.00     0.039 C 
HETATM    8  C6  UNL     1      -3.945  48.296 -21.563  1.00  0.00     0.006 C 
HETATM    9  C7  UNL     1      -4.281  48.802 -22.985  1.00  0.00    -0.027 A 
HETATM   10  C8  UNL     1      -3.097  49.245 -23.846  1.00  0.00     0.011 C 
HETATM   11  C9  UNL     1      -1.996  50.057 -23.137  1.00  0.00     0.011 C 
HETATM   12  C10 UNL     1      -2.016  49.970 -21.602  1.00  0.00    -0.032 C 
HETATM   13  C11 UNL     1      -2.965  51.085 -21.068  1.00  0.00     0.016 C 
HETATM   14  C12 UNL     1      -0.634  50.106 -20.878  1.00  0.00    -0.002 C 
HETATM   15  C21 UNL     1      -0.891  49.380 -19.524  1.00  0.00     0.006 C 
HETATM   16  C22 UNL     1      -2.165  48.532 -19.681  1.00  0.00     0.011 C 
HETATM   17  C23 UNL     1      -2.449  48.515 -21.194  1.00  0.00    -0.032 C 
HETATM   18  C24 UNL     1      -1.558  47.378 -21.789  1.00  0.00     0.016 C 
HETATM   19  C25 UNL     1      -5.540  49.631 -23.124  1.00  0.00     0.022 A 
HETATM   20  C26 UNL     1      -5.554  48.219 -23.669  1.00  0.00    -0.021 A 
HETATM   21  C30 UNL     1      -6.428  47.176 -22.944  1.00  0.00     0.063 C 
ENDROOT
BRANCH  14  22
HETATM   22  C13 UNL     1       0.018  51.511 -20.684  1.00  0.00    -0.014 C 
HETATM   23  C14 UNL     1      -0.269  52.088 -19.294  1.00  0.00     0.010 C 
BRANCH  22  24
HETATM   24  C15 UNL     1      -0.477  52.491 -21.789  1.00  0.00     0.008 C 
BRANCH  24  25
HETATM   25  C16 UNL     1       0.593  52.854 -22.826  1.00  0.00     0.028 C 
BRANCH  25  26
HETATM   26  C17 UNL     1       0.745  52.000 -24.062  1.00  0.00    -0.025 C 
HETATM   27  C18 UNL     1       0.476  52.219 -25.365  1.00  0.00    -0.091 C 
HETATM   28  C19 UNL     1       0.684  51.113 -26.373  1.00  0.00     0.042 C 
HETATM   29  C20 UNL     1      -0.018  53.504 -25.965  1.00  0.00     0.042 C 
ENDBRANCH  25  26
ENDBRANCH  24  25
ENDBRANCH  22  24
ENDBRANCH  14  22
BRANCH  20  30
HETATM   30  C27 UNL     1      -5.628  48.102 -25.195  1.00  0.00     0.021 C 
BRANCH  30  31
HETATM   31  C28 UNL     1      -4.280  48.308 -25.884  1.00  0.00     0.111 C 
BRANCH  31  32
HETATM   32  C29 UNL     1      -4.437  48.343 -27.379  1.00  0.00     0.139 C 
HETATM   33  O3  UNL     1      -3.552  48.364 -28.217  1.00  0.00    -0.650 OA
BRANCH  32  34
HETATM   34  O4  UNL     1      -5.732  48.372 -27.748  1.00  0.00    -0.776 OA
HETATM   35  H43 UNL     1      -5.700  48.402 -28.728  1.00  0.00     0.167 HD
ENDBRANCH  32  34
ENDBRANCH  31  32
ENDBRANCH  30  31
ENDBRANCH  20  30
TORSDOF 8
ENDMDL
MODEL 4
REMARK minimizedAffinity -8.95655632
REMARK  8 active torsions:
REMARK  status: ('A' for Active; 'I' for Inactive)
REMARK    1  A    between atoms: C12_14  and  C13_15 
REMARK    2  A    between atoms: C13_15  and  C15_17 
REMARK    3  A    between atoms: C15_17  and  C16_18 
REMARK    4  A    between atoms: C16_18  and  C17_19 
REMARK    5  A    between atoms: C26_28  and  C27_29 
REMARK    6  A    between atoms: C27_29  and  C28_30 
REMARK    7  A    between atoms: C28_30  and  C29_31 
REMARK    8  A    between atoms: C29_31  and  O4_33 
ROOT
HETATM    1  C1  UNL     1      -2.813  51.405 -27.494  1.00  0.00     0.025 C 
HETATM    2  C2  UNL     1      -2.968  51.692 -26.197  1.00  0.00     0.015 C 
HETATM    3  C3  UNL     1      -2.090  52.645 -25.481  1.00  0.00     0.289 C 
HETATM    4  O1  UNL     1      -1.045  53.113 -25.890  1.00  0.00    -0.260 OA
HETATM    5  O2  UNL     1      -2.650  52.889 -24.266  1.00  0.00    -0.311 OA
HETATM    6  C4  UNL     1      -3.969  52.329 -24.225  1.00  0.00     0.142 C 
HETATM    7  C5  UNL     1      -4.338  51.912 -22.808  1.00  0.00     0.039 C 
HETATM    8  C6  UNL     1      -3.392  50.827 -22.275  1.00  0.00     0.006 C 
HETATM    9  C7  UNL     1      -3.462  49.567 -23.170  1.00  0.00    -0.027 A 
HETATM   10  C8  UNL     1      -3.898  48.270 -22.485  1.00  0.00     0.011 C 
HETATM   11  C9  UNL     1      -3.325  48.008 -21.079  1.00  0.00     0.011 C 
HETATM   12  C10 UNL     1      -2.730  49.243 -20.382  1.00  0.00    -0.032 C 
HETATM   13  C11 UNL     1      -1.233  49.359 -20.801  1.00  0.00     0.016 C 
HETATM   14  C12 UNL     1      -2.812  49.269 -18.819  1.00  0.00    -0.002 C 
HETATM   15  C21 UNL     1      -2.736  50.792 -18.503  1.00  0.00     0.006 C 
HETATM   16  C22 UNL     1      -3.039  51.556 -19.803  1.00  0.00     0.011 C 
HETATM   17  C23 UNL     1      -3.599  50.495 -20.768  1.00  0.00    -0.032 C 
HETATM   18  C24 UNL     1      -5.119  50.364 -20.432  1.00  0.00     0.016 C 
HETATM   19  C25 UNL     1      -2.377  49.424 -24.216  1.00  0.00     0.022 A 
HETATM   20  C26 UNL     1      -3.772  49.781 -24.682  1.00  0.00    -0.021 A 
HETATM   21  C30 UNL     1      -4.004  51.198 -25.244  1.00  0.00     0.063 C 
ENDROOT
BRANCH  14  22
HETATM   22  C13 UNL     1      -1.806  48.434 -17.965  1.00  0.00    -0.014 C 
HETATM   23  C14 UNL     1      -2.375  48.091 -16.584  1.00  0.00     0.010 C 
BRANCH  22  24
HETATM   24  C15 UNL     1      -0.459  49.203 -17.818  1.00  0.00     0.008 C 
BRANCH  24  25
HETATM   25  C16 UNL     1      -0.237  49.814 -16.429  1.00  0.00     0.028 C 
BRANCH  25  26
HETATM   26  C17 UNL     1       0.900  50.785 -16.221  1.00  0.00    -0.025 C 
HETATM   27  C18 UNL     1       1.298  51.885 -16.890  1.00  0.00    -0.091 C 
HETATM   28  C19 UNL     1       2.544  52.620 -16.457  1.00  0.00     0.042 C 
HETATM   29  C20 UNL     1       0.604  52.508 -18.067  1.00  0.00     0.042 C 
ENDBRANCH  25  26
ENDBRANCH  24  25
ENDBRANCH  22  24
ENDBRANCH  14  22
BRANCH  20  30
HETATM   30  C27 UNL     1      -4.498  48.695 -25.484  1.00  0.00     0.021 C 
BRANCH  30  31
HETATM   31  C28 UNL     1      -3.727  48.242 -26.724  1.00  0.00     0.111 C 
BRANCH  31  32
HETATM   32  C29 UNL     1      -4.628  48.184 -27.927  1.00  0.00     0.139 C 
HETATM   33  O3  UNL     1      -4.300  48.035 -29.091  1.00  0.00    -0.650 OA
BRANCH  32  34
HETATM   34  O4  UNL     1      -5.923  48.342 -27.594  1.00  0.00    -0.776 OA
HETATM   35  H43 UNL     1      -6.397  48.295 -28.452  1.00  0.00     0.167 HD
ENDBRANCH  32  34
ENDBRANCH  31  32
ENDBRANCH  30  31
ENDBRANCH  20  30
TORSDOF 8
ENDMDL
MODEL 5
REMARK minimizedAffinity -8.94901466
REMARK  8 active torsions:
REMARK  status: ('A' for Active; 'I' for Inactive)
REMARK    1  A    between atoms: C12_14  and  C13_15 
REMARK    2  A    between atoms: C13_15  and  C15_17 
REMARK    3  A    between atoms: C15_17  and  C16_18 
REMARK    4  A    between atoms: C16_18  and  C17_19 
REMARK    5  A    between atoms: C26_28  and  C27_29 
REMARK    6  A    between atoms: C27_29  and  C28_30 
REMARK    7  A    between atoms: C28_30  and  C29_31 
REMARK    8  A    between atoms: C29_31  and  O4_33 
ROOT
HETATM    1  C1  UNL     1      -3.073  52.656 -25.929  1.00  0.00     0.025 C 
HETATM    2  C2  UNL     1      -3.196  51.681 -25.022  1.00  0.00     0.015 C 
HETATM    3  C3  UNL     1      -4.484  51.361 -24.366  1.00  0.00     0.289 C 
HETATM    4  O1  UNL     1      -5.500  52.028 -24.402  1.00  0.00    -0.260 OA
HETATM    5  O2  UNL     1      -4.325  50.191 -23.691  1.00  0.00    -0.311 OA
HETATM    6  C4  UNL     1      -3.068  49.600 -24.048  1.00  0.00     0.142 C 
HETATM    7  C5  UNL     1      -2.505  48.780 -22.895  1.00  0.00     0.039 C 
HETATM    8  C6  UNL     1      -2.234  49.655 -21.663  1.00  0.00     0.006 C 
HETATM    9  C7  UNL     1      -1.205  50.758 -22.004  1.00  0.00    -0.027 A 
HETATM   10  C8  UNL     1       0.088  50.759 -21.185  1.00  0.00     0.011 C 
HETATM   11  C9  UNL     1      -0.053  50.479 -19.676  1.00  0.00     0.011 C 
HETATM   12  C10 UNL     1      -1.388  49.840 -19.259  1.00  0.00    -0.032 C 
HETATM   13  C11 UNL     1      -2.407  50.988 -18.983  1.00  0.00     0.016 C 
HETATM   14  C12 UNL     1      -1.350  48.898 -18.008  1.00  0.00    -0.002 C 
HETATM   15  C21 UNL     1      -2.593  47.988 -18.235  1.00  0.00     0.006 C 
HETATM   16  C22 UNL     1      -3.013  48.126 -19.708  1.00  0.00     0.011 C 
HETATM   17  C23 UNL     1      -1.837  48.848 -20.392  1.00  0.00    -0.032 C 
HETATM   18  C24 UNL     1      -0.794  47.739 -20.741  1.00  0.00     0.016 C 
HETATM   19  C25 UNL     1      -1.768  52.123 -22.341  1.00  0.00     0.022 A 
HETATM   20  C26 UNL     1      -1.189  51.293 -23.467  1.00  0.00    -0.021 A 
HETATM   21  C30 UNL     1      -2.162  50.729 -24.521  1.00  0.00     0.063 C 
ENDROOT
BRANCH  14  22
HETATM   22  C13 UNL     1      -1.311  49.503 -16.569  1.00  0.00    -0.014 C 
HETATM   23  C14 UNL     1      -2.222  50.729 -16.439  1.00  0.00     0.010 C 
BRANCH  22  24
HETATM   24  C15 UNL     1       0.151  49.872 -16.180  1.00  0.00     0.008 C 
BRANCH  24  25
HETATM   25  C16 UNL     1       0.409  51.381 -16.085  1.00  0.00     0.028 C 
BRANCH  25  26
HETATM   26  C17 UNL     1       1.791  51.915 -16.377  1.00  0.00    -0.025 C 
HETATM   27  C18 UNL     1       2.905  52.030 -15.628  1.00  0.00    -0.091 C 
HETATM   28  C19 UNL     1       4.138  52.683 -16.208  1.00  0.00     0.042 C 
HETATM   29  C20 UNL     1       3.080  51.546 -14.217  1.00  0.00     0.042 C 
ENDBRANCH  25  26
ENDBRANCH  24  25
ENDBRANCH  22  24
ENDBRANCH  14  22
BRANCH  20  30
HETATM   30  C27 UNL     1       0.110  51.829 -24.081  1.00  0.00     0.021 C 
BRANCH  30  31
HETATM   31  C28 UNL     1       0.335  51.367 -25.520  1.00  0.00     0.111 C 
BRANCH  31  32
HETATM   32  C29 UNL     1       1.048  52.421 -26.321  1.00  0.00     0.139 C 
HETATM   33  O3  UNL     1       0.589  53.468 -26.743  1.00  0.00    -0.650 OA
BRANCH  32  34
HETATM   34  O4  UNL     1       2.328  52.083 -26.571  1.00  0.00    -0.776 OA
HETATM   35  H43 UNL     1       2.674  52.835 -27.098  1.00  0.00     0.167 HD
ENDBRANCH  32  34
ENDBRANCH  31  32
ENDBRANCH  30  31
ENDBRANCH  20  30
TORSDOF 8
ENDMDL
MODEL 6
REMARK minimizedAffinity -8.79871845
REMARK  8 active torsions:
REMARK  status: ('A' for Active; 'I' for Inactive)
REMARK    1  A    between atoms: C12_14  and  C13_15 
REMARK    2  A    between atoms: C13_15  and  C15_17 
REMARK    3  A    between atoms: C15_17  and  C16_18 
REMARK    4  A    between atoms: C16_18  and  C17_19 
REMARK    5  A    between atoms: C26_28  and  C27_29 
REMARK    6  A    between atoms: C27_29  and  C28_30 
REMARK    7  A    between atoms: C28_30  and  C29_31 
REMARK    8  A    between atoms: C29_31  and  O4_33 
ROOT
HETATM    1  C1  UNL     1       0.431  51.509 -28.466  1.00  0.00     0.025 C 
HETATM    2  C2  UNL     1       0.045  51.850 -27.232  1.00  0.00     0.015 C 
HETATM    3  C3  UNL     1       1.007  52.097 -26.134  1.00  0.00     0.289 C 
HETATM    4  O1  UNL     1       2.196  51.840 -26.143  1.00  0.00    -0.260 OA
HETATM    5  O2  UNL     1       0.320  52.645 -25.097  1.00  0.00    -0.311 OA
HETATM    6  C4  UNL     1      -1.004  52.988 -25.527  1.00  0.00     0.142 C 
HETATM    7  C5  UNL     1      -1.992  52.896 -24.372  1.00  0.00     0.039 C 
HETATM    8  C6  UNL     1      -2.076  51.468 -23.815  1.00  0.00     0.006 C 
HETATM    9  C7  UNL     1      -2.546  50.489 -24.917  1.00  0.00    -0.027 A 
HETATM   10  C8  UNL     1      -3.840  49.722 -24.637  1.00  0.00     0.011 C 
HETATM   11  C9  UNL     1      -4.028  49.189 -23.203  1.00  0.00     0.011 C 
HETATM   12  C10 UNL     1      -3.111  49.830 -22.149  1.00  0.00    -0.032 C 
HETATM   13  C11 UNL     1      -1.779  49.020 -22.110  1.00  0.00     0.016 C 
HETATM   14  C12 UNL     1      -3.680  49.922 -20.693  1.00  0.00    -0.002 C 
HETATM   15  C21 UNL     1      -2.862  51.100 -20.086  1.00  0.00     0.006 C 
HETATM   16  C22 UNL     1      -2.220  51.875 -21.250  1.00  0.00     0.011 C 
HETATM   17  C23 UNL     1      -2.923  51.348 -22.515  1.00  0.00    -0.032 C 
HETATM   18  C24 UNL     1      -4.252  52.159 -22.641  1.00  0.00     0.016 C 
HETATM   19  C25 UNL     1      -1.463  49.709 -25.631  1.00  0.00     0.022 A 
HETATM   20  C26 UNL     1      -2.153  50.825 -26.387  1.00  0.00    -0.021 A 
HETATM   21  C30 UNL     1      -1.333  52.089 -26.712  1.00  0.00     0.063 C 
ENDROOT
BRANCH  14  22
HETATM   22  C13 UNL     1      -3.683  48.664 -19.769  1.00  0.00    -0.014 C 
HETATM   23  C14 UNL     1      -5.102  48.142 -19.519  1.00  0.00     0.010 C 
BRANCH  22  24
HETATM   24  C15 UNL     1      -2.980  48.987 -18.418  1.00  0.00     0.008 C 
BRANCH  24  25
HETATM   25  C16 UNL     1      -1.480  48.668 -18.402  1.00  0.00     0.028 C 
BRANCH  25  26
HETATM   26  C17 UNL     1      -0.507  49.711 -17.908  1.00  0.00    -0.025 C 
HETATM   27  C18 UNL     1       0.235  49.813 -16.787  1.00  0.00    -0.091 C 
HETATM   28  C19 UNL     1       1.082  51.041 -16.553  1.00  0.00     0.042 C 
HETATM   29  C20 UNL     1       0.335  48.788 -15.694  1.00  0.00     0.042 C 
ENDBRANCH  25  26
ENDBRANCH  24  25
ENDBRANCH  22  24
ENDBRANCH  14  22
BRANCH  20  30
HETATM   30  C27 UNL     1      -3.048  50.379 -27.548  1.00  0.00     0.021 C 
BRANCH  30  31
HETATM   31  C28 UNL     1      -3.393  48.890 -27.509  1.00  0.00     0.111 C 
BRANCH  31  32
HETATM   32  C29 UNL     1      -4.567  48.585 -28.399  1.00  0.00     0.139 C 
HETATM   33  O3  UNL     1      -5.435  47.749 -28.219  1.00  0.00    -0.650 OA
BRANCH  32  34
HETATM   34  O4  UNL     1      -4.573  49.354 -29.505  1.00  0.00    -0.776 OA
HETATM   35  H43 UNL     1      -5.368  49.056 -29.997  1.00  0.00     0.167 HD
ENDBRANCH  32  34
ENDBRANCH  31  32
ENDBRANCH  30  31
ENDBRANCH  20  30
TORSDOF 8
ENDMDL
MODEL 7
REMARK minimizedAffinity -8.60318756
REMARK  8 active torsions:
REMARK  status: ('A' for Active; 'I' for Inactive)
REMARK    1  A    between atoms: C12_14  and  C13_15 
REMARK    2  A    between atoms: C13_15  and  C15_17 
REMARK    3  A    between atoms: C15_17  and  C16_18 
REMARK    4  A    between atoms: C16_18  and  C17_19 
REMARK    5  A    between atoms: C26_28  and  C27_29 
REMARK    6  A    between atoms: C27_29  and  C28_30 
REMARK    7  A    between atoms: C28_30  and  C29_31 
REMARK    8  A    between atoms: C29_31  and  O4_33 
ROOT
HETATM    1  C1  UNL     1       0.247  53.669 -26.050  1.00  0.00     0.025 C 
HETATM    2  C2  UNL     1      -0.572  52.625 -25.889  1.00  0.00     0.015 C 
HETATM    3  C3  UNL     1      -1.804  52.447 -26.690  1.00  0.00     0.289 C 
HETATM    4  O1  UNL     1      -2.321  53.276 -27.415  1.00  0.00    -0.260 OA
HETATM    5  O2  UNL     1      -2.274  51.193 -26.454  1.00  0.00    -0.311 OA
HETATM    6  C4  UNL     1      -1.297  50.447 -25.716  1.00  0.00     0.142 C 
HETATM    7  C5  UNL     1      -1.965  49.408 -24.826  1.00  0.00     0.039 C 
HETATM    8  C6  UNL     1      -2.882  50.065 -23.784  1.00  0.00     0.006 C 
HETATM    9  C7  UNL     1      -2.067  51.013 -22.873  1.00  0.00    -0.027 A 
HETATM   10  C8  UNL     1      -2.079  50.694 -21.377  1.00  0.00     0.011 C 
HETATM   11  C9  UNL     1      -3.429  50.257 -20.777  1.00  0.00     0.011 C 
HETATM   12  C10 UNL     1      -4.478  49.806 -21.806  1.00  0.00    -0.032 C 
HETATM   13  C11 UNL     1      -5.269  51.066 -22.273  1.00  0.00     0.016 C 
HETATM   14  C12 UNL     1      -5.504  48.724 -21.329  1.00  0.00    -0.002 C 
HETATM   15  C21 UNL     1      -5.954  48.071 -22.669  1.00  0.00     0.006 C 
HETATM   16  C22 UNL     1      -4.928  48.459 -23.747  1.00  0.00     0.011 C 
HETATM   17  C23 UNL     1      -3.738  49.052 -22.970  1.00  0.00    -0.032 C 
HETATM   18  C24 UNL     1      -2.872  47.835 -22.512  1.00  0.00     0.016 C 
HETATM   19  C25 UNL     1      -2.100  52.483 -23.231  1.00  0.00     0.022 A 
HETATM   20  C26 UNL     1      -0.825  51.714 -23.501  1.00  0.00    -0.021 A 
HETATM   21  C30 UNL     1      -0.436  51.457 -24.970  1.00  0.00     0.063 C 
ENDROOT
BRANCH  14  22
HETATM   22  C13 UNL     1      -6.715  49.130 -20.431  1.00  0.00    -0.014 C 
HETATM   23  C14 UNL     1      -6.512  48.708 -18.971  1.00  0.00     0.010 C 
BRANCH  22  24
HETATM   24  C15 UNL     1      -8.032  48.516 -20.993  1.00  0.00     0.008 C 
BRANCH  24  25
HETATM   25  C16 UNL     1      -8.761  47.595 -20.008  1.00  0.00     0.028 C 
BRANCH  25  26
HETATM   26  C17 UNL     1     -10.153  47.956 -19.549  1.00  0.00    -0.025 C 
HETATM   27  C18 UNL     1     -11.378  47.533 -19.921  1.00  0.00    -0.091 C 
HETATM   28  C19 UNL     1     -12.609  48.151 -19.301  1.00  0.00     0.042 C 
HETATM   29  C20 UNL     1     -11.678  46.453 -20.920  1.00  0.00     0.042 C 
ENDBRANCH  25  26
ENDBRANCH  24  25
ENDBRANCH  22  24
ENDBRANCH  14  22
BRANCH  20  30
HETATM   30  C27 UNL     1       0.374  52.096 -22.624  1.00  0.00     0.021 C 
BRANCH  30  31
HETATM   31  C28 UNL     1       0.009  53.040 -21.479  1.00  0.00     0.111 C 
BRANCH  31  32
HETATM   32  C29 UNL     1       1.132  53.998 -21.192  1.00  0.00     0.139 C 
HETATM   33  O3  UNL     1       1.834  54.580 -22.000  1.00  0.00    -0.650 OA
BRANCH  32  34
HETATM   34  O4  UNL     1       1.331  54.159 -19.869  1.00  0.00    -0.776 OA
HETATM   35  H43 UNL     1       2.082  54.788 -19.816  1.00  0.00     0.167 HD
ENDBRANCH  32  34
ENDBRANCH  31  32
ENDBRANCH  30  31
ENDBRANCH  20  30
TORSDOF 8
ENDMDL
MODEL 8
REMARK minimizedAffinity -8.58028984
REMARK  8 active torsions:
REMARK  status: ('A' for Active; 'I' for Inactive)
REMARK    1  A    between atoms: C12_14  and  C13_15 
REMARK    2  A    between atoms: C13_15  and  C15_17 
REMARK    3  A    between atoms: C15_17  and  C16_18 
REMARK    4  A    between atoms: C16_18  and  C17_19 
REMARK    5  A    between atoms: C26_28  and  C27_29 
REMARK    6  A    between atoms: C27_29  and  C28_30 
REMARK    7  A    between atoms: C28_30  and  C29_31 
REMARK    8  A    between atoms: C29_31  and  O4_33 
ROOT
HETATM    1  C1  UNL     1       0.679  54.395 -24.716  1.00  0.00     0.025 C 
HETATM    2  C2  UNL     1      -0.013  53.276 -24.955  1.00  0.00     0.015 C 
HETATM    3  C3  UNL     1      -0.748  53.048 -26.220  1.00  0.00     0.289 C 
HETATM    4  O1  UNL     1      -0.983  53.875 -27.079  1.00  0.00    -0.260 OA
HETATM    5  O2  UNL     1      -1.137  51.745 -26.243  1.00  0.00    -0.311 OA
HETATM    6  C4  UNL     1      -0.505  51.037 -25.169  1.00  0.00     0.142 C 
HETATM    7  C5  UNL     1      -1.379  49.888 -24.686  1.00  0.00     0.039 C 
HETATM    8  C6  UNL     1      -2.721  50.392 -24.138  1.00  0.00     0.006 C 
HETATM    9  C7  UNL     1      -2.489  51.343 -22.940  1.00  0.00    -0.027 A 
HETATM   10  C8  UNL     1      -3.116  50.924 -21.609  1.00  0.00     0.011 C 
HETATM   11  C9  UNL     1      -4.538  50.334 -21.673  1.00  0.00     0.011 C 
HETATM   12  C10 UNL     1      -4.981  49.865 -23.069  1.00  0.00    -0.032 C 
HETATM   13  C11 UNL     1      -5.620  51.081 -23.806  1.00  0.00     0.016 C 
HETATM   14  C12 UNL     1      -5.991  48.669 -23.115  1.00  0.00    -0.002 C 
HETATM   15  C21 UNL     1      -5.741  48.072 -24.531  1.00  0.00     0.006 C 
HETATM   16  C22 UNL     1      -4.396  48.618 -25.040  1.00  0.00     0.011 C 
HETATM   17  C23 UNL     1      -3.733  49.257 -23.806  1.00  0.00    -0.032 C 
HETATM   18  C24 UNL     1      -3.028  48.090 -23.042  1.00  0.00     0.016 C 
HETATM   19  C25 UNL     1      -2.520  52.826 -23.242  1.00  0.00     0.022 A 
HETATM   20  C26 UNL     1      -1.180  52.188 -22.942  1.00  0.00    -0.021 A 
HETATM   21  C30 UNL     1      -0.166  52.065 -24.097  1.00  0.00     0.063 C 
ENDROOT
BRANCH  14  22
HETATM   22  C13 UNL     1      -7.507  48.910 -22.831  1.00  0.00    -0.014 C 
HETATM   23  C14 UNL     1      -7.913  48.419 -21.437  1.00  0.00     0.010 C 
BRANCH  22  24
HETATM   24  C15 UNL     1      -8.376  48.215 -23.922  1.00  0.00     0.008 C 
BRANCH  24  25
HETATM   25  C16 UNL     1      -9.128  46.975 -23.424  1.00  0.00     0.028 C 
BRANCH  25  26
HETATM   26  C17 UNL     1      -8.702  45.608 -23.904  1.00  0.00    -0.025 C 
HETATM   27  C18 UNL     1      -8.319  45.139 -25.108  1.00  0.00    -0.091 C 
HETATM   28  C19 UNL     1      -8.009  43.671 -25.280  1.00  0.00     0.042 C 
HETATM   29  C20 UNL     1      -8.138  45.949 -26.360  1.00  0.00     0.042 C 
ENDBRANCH  25  26
ENDBRANCH  24  25
ENDBRANCH  22  24
ENDBRANCH  14  22
BRANCH  20  30
HETATM   30  C27 UNL     1      -0.530  52.611 -21.620  1.00  0.00     0.021 C 
BRANCH  30  31
HETATM   31  C28 UNL     1       0.998  52.587 -21.662  1.00  0.00     0.111 C 
BRANCH  31  32
HETATM   32  C29 UNL     1       1.574  53.845 -21.072  1.00  0.00     0.139 C 
HETATM   33  O3  UNL     1       2.190  54.721 -21.652  1.00  0.00    -0.650 OA
BRANCH  32  34
HETATM   34  O4  UNL     1       1.356  53.923 -19.745  1.00  0.00    -0.776 OA
HETATM   35  H43 UNL     1       1.781  54.768 -19.483  1.00  0.00     0.167 HD
ENDBRANCH  32  34
ENDBRANCH  31  32
ENDBRANCH  30  31
ENDBRANCH  20  30
TORSDOF 8
ENDMDL
MODEL 9
REMARK minimizedAffinity -8.51930332
REMARK  8 active torsions:
REMARK  status: ('A' for Active; 'I' for Inactive)
REMARK    1  A    between atoms: C12_14  and  C13_15 
REMARK    2  A    between atoms: C13_15  and  C15_17 
REMARK    3  A    between atoms: C15_17  and  C16_18 
REMARK    4  A    between atoms: C16_18  and  C17_19 
REMARK    5  A    between atoms: C26_28  and  C27_29 
REMARK    6  A    between atoms: C27_29  and  C28_30 
REMARK    7  A    between atoms: C28_30  and  C29_31 
REMARK    8  A    between atoms: C29_31  and  O4_33 
ROOT
HETATM    1  C1  UNL     1       1.284  54.765 -23.582  1.00  0.00     0.025 C 
HETATM    2  C2  UNL     1       0.748  53.869 -24.418  1.00  0.00     0.015 C 
HETATM    3  C3  UNL     1       0.086  54.256 -25.684  1.00  0.00     0.289 C 
HETATM    4  O1  UNL     1      -0.227  55.382 -26.022  1.00  0.00    -0.260 OA
HETATM    5  O2  UNL     1      -0.132  53.121 -26.400  1.00  0.00    -0.311 OA
HETATM    6  C4  UNL     1       0.553  52.024 -25.780  1.00  0.00     0.142 C 
HETATM    7  C5  UNL     1      -0.181  50.714 -26.029  1.00  0.00     0.039 C 
HETATM    8  C6  UNL     1      -1.592  50.736 -25.426  1.00  0.00     0.006 C 
HETATM    9  C7  UNL     1      -1.519  50.951 -23.896  1.00  0.00    -0.027 A 
HETATM   10  C8  UNL     1      -2.127  49.851 -23.024  1.00  0.00     0.011 C 
HETATM   11  C9  UNL     1      -3.459  49.246 -23.508  1.00  0.00     0.011 C 
HETATM   12  C10 UNL     1      -3.797  49.523 -24.982  1.00  0.00    -0.032 C 
HETATM   13  C11 UNL     1      -4.564  50.878 -25.056  1.00  0.00     0.016 C 
HETATM   14  C12 UNL     1      -4.645  48.432 -25.720  1.00  0.00    -0.002 C 
HETATM   15  C21 UNL     1      -4.278  48.675 -27.214  1.00  0.00     0.006 C 
HETATM   16  C22 UNL     1      -3.000  49.529 -27.251  1.00  0.00     0.011 C 
HETATM   17  C23 UNL     1      -2.460  49.501 -25.809  1.00  0.00    -0.032 C 
HETATM   18  C24 UNL     1      -1.635  48.181 -25.681  1.00  0.00     0.016 C 
HETATM   19  C25 UNL     1      -1.730  52.368 -23.405  1.00  0.00     0.022 A 
HETATM   20  C26 UNL     1      -0.329  51.797 -23.350  1.00  0.00    -0.021 A 
HETATM   21  C30 UNL     1       0.726  52.381 -24.310  1.00  0.00     0.063 C 
ENDROOT
BRANCH  14  22
HETATM   22  C13 UNL     1      -6.187  48.347 -25.493  1.00  0.00    -0.014 C 
HETATM   23  C14 UNL     1      -6.531  47.866 -24.079  1.00  0.00     0.010 C 
BRANCH  22  24
HETATM   24  C15 UNL     1      -6.837  47.412 -26.556  1.00  0.00     0.008 C 
BRANCH  24  25
HETATM   25  C16 UNL     1      -8.166  47.934 -27.116  1.00  0.00     0.028 C 
BRANCH  25  26
HETATM   26  C17 UNL     1      -8.227  48.419 -28.544  1.00  0.00    -0.025 C 
HETATM   27  C18 UNL     1      -9.146  48.279 -29.520  1.00  0.00    -0.091 C 
HETATM   28  C19 UNL     1      -8.877  48.842 -30.895  1.00  0.00     0.042 C 
HETATM   29  C20 UNL     1     -10.483  47.607 -29.390  1.00  0.00     0.042 C 
ENDBRANCH  25  26
ENDBRANCH  24  25
ENDBRANCH  22  24
ENDBRANCH  14  22
BRANCH  20  30
HETATM   30  C27 UNL     1       0.222  51.538 -21.943  1.00  0.00     0.021 C 
BRANCH  30  31
HETATM   31  C28 UNL     1      -0.383  52.454 -20.879  1.00  0.00     0.111 C 
BRANCH  31  32
HETATM   32  C29 UNL     1       0.673  53.321 -20.251  1.00  0.00     0.139 C 
HETATM   33  O3  UNL     1       1.856  53.372 -20.536  1.00  0.00    -0.650 OA
BRANCH  32  34
HETATM   34  O4  UNL     1       0.173  54.083 -19.258  1.00  0.00    -0.776 OA
HETATM   35  H43 UNL     1       0.949  54.586 -18.930  1.00  0.00     0.167 HD
ENDBRANCH  32  34
ENDBRANCH  31  32
ENDBRANCH  30  31
ENDBRANCH  20  30
TORSDOF 8
ENDMDL
