MODEL 1
REMARK minimizedAffinity -8.46536446
REMARK CNNscore 0.800751805
REMARK CNNaffinity 7.24721384
REMARK  15 active torsions:
REMARK  status: ('A' for Active; 'I' for Inactive)
REMARK    1  A    between atoms: C2_2  and  C3_3 
REMARK    2  A    between atoms: C2_2  and  C4_6 
REMARK    3  A    between atoms: C3_3  and  O2_5 
REMARK    4  A    between atoms: C4_6  and  C5_8 
REMARK    5  A    between atoms: C5_8  and  O4_9 
REMARK    6  A    between atoms: C5_8  and  C6_10 
REMARK    7  A    between atoms: C6_10  and  C7_11 
REMARK    8  A    between atoms: C7_11  and  C9_13 
REMARK    9  A    between atoms: C11_15  and  O5_16 
REMARK   10  A    between atoms: C14_19  and  O6_20 
REMARK   11  A    between atoms: C21_28  and  C22_29 
REMARK   12  A    between atoms: C22_29  and  C23_30 
REMARK   13  A    between atoms: C23_30  and  O8_31 
REMARK   14  A    between atoms: C33_42  and  C34_43 
REMARK   15  A    between atoms: C35_44  and  C36_45 
ROOT
HETATM    1  C9  UNL     1       0.588  12.942  18.832  1.00  0.00     0.002 C 
HETATM    2  C10 UNL     1       1.362  13.393  17.552  1.00  0.00     0.049 C 
HETATM    3  C11 UNL     1       0.502  13.041  16.311  1.00  0.00     0.088 C 
HETATM    4  C12 UNL     1       1.144  11.989  15.425  1.00  0.00     0.011 C 
HETATM    5  C13 UNL     1       0.400  11.136  14.691  1.00  0.00     0.015 C 
HETATM    6  C14 UNL     1      -1.115  11.225  14.666  1.00  0.00     0.108 C 
HETATM    7  C15 UNL     1      -1.583  11.433  16.096  1.00  0.00    -0.018 C 
HETATM    8  C16 UNL     1      -2.440  10.596  16.725  1.00  0.00     0.003 C 
HETATM    9  C17 UNL     1      -2.735  10.891  18.190  1.00  0.00     0.157 C 
HETATM   10  O7  UNL     1      -3.821  10.585  18.680  1.00  0.00    -0.293 OA
HETATM   11  C18 UNL     1      -1.674  11.570  19.056  1.00  0.00     0.094 C 
HETATM   12  C19 UNL     1      -0.401  11.880  18.264  1.00  0.00    -0.018 C 
HETATM   13  C20 UNL     1       0.398  10.536  18.117  1.00  0.00     0.017 C 
HETATM   14  C21 UNL     1      -0.868  12.557  16.901  1.00  0.00     0.032 C 
HETATM   15  C24 UNL     1      -3.039   9.324  16.122  1.00  0.00    -0.007 C 
HETATM   16  C25 UNL     1      -2.815   8.178  17.162  1.00  0.00     0.021 C 
HETATM   17  C26 UNL     1      -4.541   9.555  15.840  1.00  0.00     0.022 C 
HETATM   18  C27 UNL     1      -5.293   8.282  15.488  1.00  0.00     0.080 C 
HETATM   19  C28 UNL     1      -4.408   7.266  14.812  1.00  0.00     0.135 C 
HETATM   20  O9  UNL     1      -4.689   6.068  14.884  1.00  0.00    -0.297 OA
HETATM   21  C29 UNL     1      -3.230   7.785  13.968  1.00  0.00     0.018 C 
HETATM   22  C30 UNL     1      -2.329   6.579  13.615  1.00  0.00     0.023 C 
HETATM   23  C31 UNL     1      -3.920   8.264  12.673  1.00  0.00     0.023 C 
HETATM   24  C32 UNL     1      -2.347   8.874  14.766  1.00  0.00     0.025 C 
HETATM   25  C33 UNL     1      -1.900  10.097  13.893  1.00  0.00     0.057 C 
ENDROOT
BRANCH   1  26
HETATM   26  C7  UNL     1       1.563  12.574  20.001  1.00  0.00    -0.011 C 
HETATM   27  C8  UNL     1       3.031  12.739  19.601  1.00  0.00     0.010 C 
BRANCH  26  28
HETATM   28  C6  UNL     1       1.297  11.112  20.478  1.00  0.00     0.044 C 
BRANCH  28  29
HETATM   29  C5  UNL     1       2.517  10.177  20.571  1.00  0.00     0.188 C 
BRANCH  29  30
HETATM   30  C4  UNL     1       2.506   9.281  21.829  1.00  0.00     0.169 C 
HETATM   31  O3  UNL     1       1.642   8.414  21.986  1.00  0.00    -0.294 OA
BRANCH  30  32
HETATM   32  C2  UNL     1       3.527   9.590  22.909  1.00  0.00     0.152 C 
HETATM   33  C1  UNL     1       4.619  10.483  22.327  1.00  0.00     0.029 C 
BRANCH  32  34
HETATM   34  C3  UNL     1       2.904  10.227  24.122  1.00  0.00     0.150 C 
HETATM   35  O1  UNL     1       2.446   9.660  25.100  1.00  0.00    -0.649 OA
BRANCH  34  36
HETATM   36  O2  UNL     1       2.825  11.569  24.018  1.00  0.00    -0.776 OA
HETATM   37  H5  UNL     1       2.432  11.853  24.871  1.00  0.00     0.167 HD
ENDBRANCH  34  36
ENDBRANCH  32  34
ENDBRANCH  30  32
ENDBRANCH  29  30
BRANCH  29  38
HETATM   38  O4  UNL     1       2.666   9.493  19.337  1.00  0.00    -0.388 OA
HETATM   39  H7  UNL     1       3.617   9.367  19.173  1.00  0.00     0.210 HD
ENDBRANCH  29  38
ENDBRANCH  28  29
ENDBRANCH  26  28
ENDBRANCH   1  26
BRANCH   3  40
HETATM   40  O5  UNL     1       0.352  14.195  15.493  1.00  0.00    -0.385 OA
HETATM   41  H17 UNL     1       1.096  14.233  14.869  1.00  0.00     0.211 HD
ENDBRANCH   3  40
BRANCH  14  42
HETATM   42  C22 UNL     1      -1.941  13.735  16.984  1.00  0.00     0.044 C 
BRANCH  42  43
HETATM   43  C23 UNL     1      -3.135  13.870  16.036  1.00  0.00     0.165 C 
BRANCH  43  44
HETATM   44  O8  UNL     1      -2.846  14.639  14.887  1.00  0.00    -0.401 OA
HETATM   45  H30 UNL     1      -3.574  14.512  14.256  1.00  0.00     0.209 HD
ENDBRANCH  43  44
ENDBRANCH  42  43
ENDBRANCH  14  42
BRANCH   6  46
HETATM   46  O6  UNL     1      -1.380  12.408  13.893  1.00  0.00    -0.380 OA
HETATM   47  H20 UNL     1      -1.956  12.995  14.403  1.00  0.00     0.211 HD
ENDBRANCH   6  46
BRANCH  25  48
HETATM   48  C34 UNL     1      -1.118   9.658  12.654  1.00  0.00    -0.017 C 
HETATM   49  C35 UNL     1      -0.008   8.904  12.692  1.00  0.00     0.008 C 
BRANCH  49  50
HETATM   50  C36 UNL     1       0.739   8.487  11.498  1.00  0.00    -0.036 A 
HETATM   51  C37 UNL     1       0.063   8.380  10.276  1.00  0.00     0.011 A 
HETATM   52  C38 UNL     1       0.746   8.011   9.115  1.00  0.00     0.001 A 
HETATM   53  C39 UNL     1       2.115   7.756   9.161  1.00  0.00     0.000 A 
HETATM   54  C40 UNL     1       2.801   7.872  10.368  1.00  0.00     0.001 A 
HETATM   55  C41 UNL     1       2.118   8.241  11.532  1.00  0.00     0.011 A 
ENDBRANCH  49  50
ENDBRANCH  25  48
TORSDOF 15
ENDMDL
MODEL 2
REMARK minimizedAffinity -8.50919056
REMARK CNNscore 0.764932752
REMARK CNNaffinity 7.32605219
REMARK  15 active torsions:
REMARK  status: ('A' for Active; 'I' for Inactive)
REMARK    1  A    between atoms: C2_2  and  C3_3 
REMARK    2  A    between atoms: C2_2  and  C4_6 
REMARK    3  A    between atoms: C3_3  and  O2_5 
REMARK    4  A    between atoms: C4_6  and  C5_8 
REMARK    5  A    between atoms: C5_8  and  O4_9 
REMARK    6  A    between atoms: C5_8  and  C6_10 
REMARK    7  A    between atoms: C6_10  and  C7_11 
REMARK    8  A    between atoms: C7_11  and  C9_13 
REMARK    9  A    between atoms: C11_15  and  O5_16 
REMARK   10  A    between atoms: C14_19  and  O6_20 
REMARK   11  A    between atoms: C21_28  and  C22_29 
REMARK   12  A    between atoms: C22_29  and  C23_30 
REMARK   13  A    between atoms: C23_30  and  O8_31 
REMARK   14  A    between atoms: C33_42  and  C34_43 
REMARK   15  A    between atoms: C35_44  and  C36_45 
ROOT
HETATM    1  C9  UNL     1       6.992  11.075  14.086  1.00  0.00     0.002 C 
HETATM    2  C10 UNL     1       5.883  11.265  15.169  1.00  0.00     0.049 C 
HETATM    3  C11 UNL     1       4.805  10.171  14.963  1.00  0.00     0.088 C 
HETATM    4  C12 UNL     1       3.458  10.735  14.552  1.00  0.00     0.011 C 
HETATM    5  C13 UNL     1       2.604  10.031  13.781  1.00  0.00     0.015 C 
HETATM    6  C14 UNL     1       2.920   8.614  13.338  1.00  0.00     0.108 C 
HETATM    7  C15 UNL     1       4.371   8.589  12.892  1.00  0.00    -0.018 C 
HETATM    8  C16 UNL     1       4.760   8.211  11.652  1.00  0.00     0.003 C 
HETATM    9  C17 UNL     1       6.244   8.335  11.332  1.00  0.00     0.157 C 
HETATM   10  O7  UNL     1       6.771   7.571  10.524  1.00  0.00    -0.293 OA
HETATM   11  C18 UNL     1       7.082   9.413  12.017  1.00  0.00     0.094 C 
HETATM   12  C19 UNL     1       6.249  10.251  12.992  1.00  0.00    -0.018 C 
HETATM   13  C20 UNL     1       5.409  11.267  12.138  1.00  0.00     0.017 C 
HETATM   14  C21 UNL     1       5.405   9.223  13.867  1.00  0.00     0.032 C 
HETATM   15  C24 UNL     1       3.822   7.784  10.521  1.00  0.00    -0.007 C 
HETATM   16  C25 UNL     1       4.234   8.602   9.255  1.00  0.00     0.021 C 
HETATM   17  C26 UNL     1       3.965   6.262  10.291  1.00  0.00     0.022 C 
HETATM   18  C27 UNL     1       3.280   5.775   9.025  1.00  0.00     0.080 C 
HETATM   19  C28 UNL     1       2.086   6.621   8.661  1.00  0.00     0.135 C 
HETATM   20  O9  UNL     1       1.716   6.682   7.487  1.00  0.00    -0.297 OA
HETATM   21  C29 UNL     1       1.313   7.303   9.804  1.00  0.00     0.018 C 
HETATM   22  C30 UNL     1       0.325   8.312   9.174  1.00  0.00     0.023 C 
HETATM   23  C31 UNL     1       0.492   6.142  10.405  1.00  0.00     0.023 C 
HETATM   24  C32 UNL     1       2.292   8.097  10.809  1.00  0.00     0.025 C 
HETATM   25  C33 UNL     1       1.927   7.927  12.324  1.00  0.00     0.057 C 
ENDROOT
BRANCH   1  26
HETATM   26  C7  UNL     1       7.688  12.430  13.723  1.00  0.00    -0.011 C 
HETATM   27  C8  UNL     1       6.714  13.610  13.768  1.00  0.00     0.010 C 
BRANCH  26  28
HETATM   28  C6  UNL     1       8.347  12.332  12.311  1.00  0.00     0.044 C 
BRANCH  28  29
HETATM   29  C5  UNL     1       9.833  11.933  12.262  1.00  0.00     0.188 C 
BRANCH  29  30
HETATM   30  C4  UNL     1      10.680  12.841  11.344  1.00  0.00     0.169 C 
HETATM   31  O3  UNL     1      11.496  13.638  11.815  1.00  0.00    -0.294 OA
BRANCH  30  32
HETATM   32  C2  UNL     1      10.382  12.794   9.857  1.00  0.00     0.152 C 
HETATM   33  C1  UNL     1      11.325  13.745   9.124  1.00  0.00     0.029 C 
BRANCH  32  34
HETATM   34  C3  UNL     1      10.484  11.401   9.295  1.00  0.00     0.150 C 
HETATM   35  O1  UNL     1       9.594  10.749   8.774  1.00  0.00    -0.649 OA
BRANCH  34  36
HETATM   36  O2  UNL     1      11.704  10.858   9.477  1.00  0.00    -0.776 OA
HETATM   37  H5  UNL     1      11.642   9.978   9.048  1.00  0.00     0.167 HD
ENDBRANCH  34  36
ENDBRANCH  32  34
ENDBRANCH  30  32
ENDBRANCH  29  30
BRANCH  29  38
HETATM   38  O4  UNL     1      10.313  11.789  13.590  1.00  0.00    -0.388 OA
HETATM   39  H7  UNL     1      10.971  11.072  13.598  1.00  0.00     0.210 HD
ENDBRANCH  29  38
ENDBRANCH  28  29
ENDBRANCH  26  28
ENDBRANCH   1  26
BRANCH   3  40
HETATM   40  O5  UNL     1       4.578   9.489  16.191  1.00  0.00    -0.385 OA
HETATM   41  H17 UNL     1       3.890   9.962  16.688  1.00  0.00     0.211 HD
ENDBRANCH   3  40
BRANCH  14  42
HETATM   42  C22 UNL     1       6.175   7.977  14.500  1.00  0.00     0.044 C 
BRANCH  42  43
HETATM   43  C23 UNL     1       7.463   8.095  15.318  1.00  0.00     0.165 C 
BRANCH  43  44
HETATM   44  O8  UNL     1       7.235   8.099  16.712  1.00  0.00    -0.401 OA
HETATM   45  H30 UNL     1       8.093   7.977  17.152  1.00  0.00     0.209 HD
ENDBRANCH  43  44
ENDBRANCH  42  43
ENDBRANCH  14  42
BRANCH   6  46
HETATM   46  O6  UNL     1       2.768   7.835  14.536  1.00  0.00    -0.380 OA
HETATM   47  H20 UNL     1       3.577   7.324  14.684  1.00  0.00     0.211 HD
ENDBRANCH   6  46
BRANCH  25  48
HETATM   48  C34 UNL     1       0.488   8.357  12.615  1.00  0.00    -0.017 C 
HETATM   49  C35 UNL     1      -0.432   7.566  13.191  1.00  0.00     0.008 C 
BRANCH  49  50
HETATM   50  C36 UNL     1      -1.813   7.984  13.467  1.00  0.00    -0.036 A 
HETATM   51  C37 UNL     1      -2.036   9.174  14.172  1.00  0.00     0.011 A 
HETATM   52  C38 UNL     1      -3.335   9.615  14.430  1.00  0.00     0.001 A 
HETATM   53  C39 UNL     1      -4.427   8.878  13.975  1.00  0.00     0.000 A 
HETATM   54  C40 UNL     1      -4.218   7.700  13.261  1.00  0.00     0.001 A 
HETATM   55  C41 UNL     1      -2.917   7.256  13.003  1.00  0.00     0.011 A 
ENDBRANCH  49  50
ENDBRANCH  25  48
TORSDOF 15
ENDMDL
MODEL 3
REMARK minimizedAffinity -8.76878929
REMARK CNNscore 0.590110004
REMARK CNNaffinity 7.02244568
REMARK  15 active torsions:
REMARK  status: ('A' for Active; 'I' for Inactive)
REMARK    1  A    between atoms: C2_2  and  C3_3 
REMARK    2  A    between atoms: C2_2  and  C4_6 
REMARK    3  A    between atoms: C3_3  and  O2_5 
REMARK    4  A    between atoms: C4_6  and  C5_8 
REMARK    5  A    between atoms: C5_8  and  O4_9 
REMARK    6  A    between atoms: C5_8  and  C6_10 
REMARK    7  A    between atoms: C6_10  and  C7_11 
REMARK    8  A    between atoms: C7_11  and  C9_13 
REMARK    9  A    between atoms: C11_15  and  O5_16 
REMARK   10  A    between atoms: C14_19  and  O6_20 
REMARK   11  A    between atoms: C21_28  and  C22_29 
REMARK   12  A    between atoms: C22_29  and  C23_30 
REMARK   13  A    between atoms: C23_30  and  O8_31 
REMARK   14  A    between atoms: C33_42  and  C34_43 
REMARK   15  A    between atoms: C35_44  and  C36_45 
ROOT
HETATM    1  C9  UNL     1       7.031  11.048  14.079  1.00  0.00     0.002 C 
HETATM    2  C10 UNL     1       5.939  11.206  15.185  1.00  0.00     0.049 C 
HETATM    3  C11 UNL     1       4.881  10.090  14.990  1.00  0.00     0.088 C 
HETATM    4  C12 UNL     1       3.515  10.628  14.609  1.00  0.00     0.011 C 
HETATM    5  C13 UNL     1       2.661   9.912  13.848  1.00  0.00     0.015 C 
HETATM    6  C14 UNL     1       2.999   8.505  13.387  1.00  0.00     0.108 C 
HETATM    7  C15 UNL     1       4.442   8.516  12.913  1.00  0.00    -0.018 C 
HETATM    8  C16 UNL     1       4.816   8.156  11.664  1.00  0.00     0.003 C 
HETATM    9  C17 UNL     1       6.290   8.315  11.316  1.00  0.00     0.157 C 
HETATM   10  O7  UNL     1       6.818   7.570  10.492  1.00  0.00    -0.293 OA
HETATM   11  C18 UNL     1       7.117   9.406  11.995  1.00  0.00     0.094 C 
HETATM   12  C19 UNL     1       6.285  10.217  12.992  1.00  0.00    -0.018 C 
HETATM   13  C20 UNL     1       5.408  11.221  12.163  1.00  0.00     0.017 C 
HETATM   14  C21 UNL     1       5.481   9.164  13.875  1.00  0.00     0.032 C 
HETATM   15  C24 UNL     1       3.865   7.718  10.547  1.00  0.00    -0.007 C 
HETATM   16  C25 UNL     1       4.236   8.556   9.280  1.00  0.00     0.021 C 
HETATM   17  C26 UNL     1       4.037   6.202  10.301  1.00  0.00     0.022 C 
HETATM   18  C27 UNL     1       3.339   5.711   9.043  1.00  0.00     0.080 C 
HETATM   19  C28 UNL     1       2.120   6.533   8.710  1.00  0.00     0.135 C 
HETATM   20  O9  UNL     1       1.727   6.595   7.543  1.00  0.00    -0.297 OA
HETATM   21  C29 UNL     1       1.354   7.189   9.873  1.00  0.00     0.018 C 
HETATM   22  C30 UNL     1       0.333   8.182   9.270  1.00  0.00     0.023 C 
HETATM   23  C31 UNL     1       0.571   6.005  10.479  1.00  0.00     0.023 C 
HETATM   24  C32 UNL     1       2.335   7.996  10.866  1.00  0.00     0.025 C 
HETATM   25  C33 UNL     1       2.002   7.806  12.386  1.00  0.00     0.057 C 
ENDROOT
BRANCH   1  26
HETATM   26  C7  UNL     1       7.691  12.421  13.715  1.00  0.00    -0.011 C 
HETATM   27  C8  UNL     1       7.770  12.641  12.202  1.00  0.00     0.010 C 
BRANCH  26  28
HETATM   28  C6  UNL     1       9.116  12.513  14.346  1.00  0.00     0.044 C 
BRANCH  28  29
HETATM   29  C5  UNL     1      10.310  12.508  13.374  1.00  0.00     0.188 C 
BRANCH  29  30
HETATM   30  C4  UNL     1      10.761  11.088  12.966  1.00  0.00     0.169 C 
HETATM   31  O3  UNL     1      10.527  10.646  11.838  1.00  0.00    -0.294 OA
BRANCH  30  32
HETATM   32  C2  UNL     1      11.393  10.226  14.043  1.00  0.00     0.152 C 
HETATM   33  C1  UNL     1      10.844   8.806  13.939  1.00  0.00     0.029 C 
BRANCH  32  34
HETATM   34  C3  UNL     1      12.896  10.225  13.968  1.00  0.00     0.150 C 
HETATM   35  O1  UNL     1      13.678  10.572  14.839  1.00  0.00    -0.649 OA
BRANCH  34  36
HETATM   36  O2  UNL     1      13.353   9.844  12.759  1.00  0.00    -0.776 OA
HETATM   37  H5  UNL     1      14.329   9.862  12.855  1.00  0.00     0.167 HD
ENDBRANCH  34  36
ENDBRANCH  32  34
ENDBRANCH  30  32
ENDBRANCH  29  30
BRANCH  29  38
HETATM   38  O4  UNL     1      10.030  13.391  12.299  1.00  0.00    -0.388 OA
HETATM   39  H7  UNL     1      10.866  13.808  12.024  1.00  0.00     0.210 HD
ENDBRANCH  29  38
ENDBRANCH  28  29
ENDBRANCH  26  28
ENDBRANCH   1  26
BRANCH   3  40
HETATM   40  O5  UNL     1       4.693   9.393  16.215  1.00  0.00    -0.385 OA
HETATM   41  H17 UNL     1       4.004   9.847  16.729  1.00  0.00     0.211 HD
ENDBRANCH   3  40
BRANCH  14  42
HETATM   42  C22 UNL     1       6.289   7.930  14.482  1.00  0.00     0.044 C 
BRANCH  42  43
HETATM   43  C23 UNL     1       7.546   8.074  15.343  1.00  0.00     0.165 C 
BRANCH  43  44
HETATM   44  O8  UNL     1       7.268   8.113  16.727  1.00  0.00    -0.401 OA
HETATM   45  H30 UNL     1       8.110   8.006  17.201  1.00  0.00     0.209 HD
ENDBRANCH  43  44
ENDBRANCH  42  43
ENDBRANCH  14  42
BRANCH   6  46
HETATM   46  O6  UNL     1       2.887   7.714  14.581  1.00  0.00    -0.380 OA
HETATM   47  H20 UNL     1       3.710   7.219  14.710  1.00  0.00     0.211 HD
ENDBRANCH   6  46
BRANCH  25  48
HETATM   48  C34 UNL     1       0.560   8.202  12.708  1.00  0.00    -0.017 C 
HETATM   49  C35 UNL     1      -0.271   7.468  13.467  1.00  0.00     0.008 C 
BRANCH  49  50
HETATM   50  C36 UNL     1      -1.655   7.853  13.771  1.00  0.00    -0.036 A 
HETATM   51  C37 UNL     1      -2.458   8.371  12.745  1.00  0.00     0.011 A 
HETATM   52  C38 UNL     1      -3.786   8.723  12.991  1.00  0.00     0.001 A 
HETATM   53  C39 UNL     1      -4.331   8.551  14.263  1.00  0.00     0.000 A 
HETATM   54  C40 UNL     1      -3.546   8.025  15.287  1.00  0.00     0.001 A 
HETATM   55  C41 UNL     1      -2.216   7.671  15.041  1.00  0.00     0.011 A 
ENDBRANCH  49  50
ENDBRANCH  25  48
TORSDOF 15
ENDMDL
MODEL 4
REMARK minimizedAffinity -9.71212387
REMARK CNNscore 0.565701127
REMARK CNNaffinity 7.52948427
REMARK  15 active torsions:
REMARK  status: ('A' for Active; 'I' for Inactive)
REMARK    1  A    between atoms: C2_2  and  C3_3 
REMARK    2  A    between atoms: C2_2  and  C4_6 
REMARK    3  A    between atoms: C3_3  and  O2_5 
REMARK    4  A    between atoms: C4_6  and  C5_8 
REMARK    5  A    between atoms: C5_8  and  O4_9 
REMARK    6  A    between atoms: C5_8  and  C6_10 
REMARK    7  A    between atoms: C6_10  and  C7_11 
REMARK    8  A    between atoms: C7_11  and  C9_13 
REMARK    9  A    between atoms: C11_15  and  O5_16 
REMARK   10  A    between atoms: C14_19  and  O6_20 
REMARK   11  A    between atoms: C21_28  and  C22_29 
REMARK   12  A    between atoms: C22_29  and  C23_30 
REMARK   13  A    between atoms: C23_30  and  O8_31 
REMARK   14  A    between atoms: C33_42  and  C34_43 
REMARK   15  A    between atoms: C35_44  and  C36_45 
ROOT
HETATM    1  C9  UNL     1       0.940   7.884  12.079  1.00  0.00     0.002 C 
HETATM    2  C10 UNL     1       0.119   8.911  12.922  1.00  0.00     0.049 C 
HETATM    3  C11 UNL     1      -1.073   8.165  13.575  1.00  0.00     0.088 C 
HETATM    4  C12 UNL     1      -2.421   8.634  13.060  1.00  0.00     0.011 C 
HETATM    5  C13 UNL     1      -3.484   7.806  13.007  1.00  0.00     0.015 C 
HETATM    6  C14 UNL     1      -3.403   6.379  13.519  1.00  0.00     0.108 C 
HETATM    7  C15 UNL     1      -2.094   5.791  13.023  1.00  0.00    -0.018 C 
HETATM    8  C16 UNL     1      -2.022   4.675  12.261  1.00  0.00     0.003 C 
HETATM    9  C17 UNL     1      -0.640   4.270  11.765  1.00  0.00     0.157 C 
HETATM   10  O7  UNL     1      -0.375   3.087  11.561  1.00  0.00    -0.293 OA
HETATM   11  C18 UNL     1       0.422   5.341  11.519  1.00  0.00     0.094 C 
HETATM   12  C19 UNL     1      -0.097   6.746  11.840  1.00  0.00    -0.018 C 
HETATM   13  C20 UNL     1      -1.008   7.194  10.642  1.00  0.00     0.017 C 
HETATM   14  C21 UNL     1      -0.817   6.650  13.257  1.00  0.00     0.032 C 
HETATM   15  C24 UNL     1      -3.221   3.862  11.767  1.00  0.00    -0.007 C 
HETATM   16  C25 UNL     1      -3.024   3.651  10.230  1.00  0.00     0.021 C 
HETATM   17  C26 UNL     1      -3.271   2.518  12.528  1.00  0.00     0.022 C 
HETATM   18  C27 UNL     1      -4.258   1.525  11.937  1.00  0.00     0.080 C 
HETATM   19  C28 UNL     1      -5.421   2.209  11.265  1.00  0.00     0.135 C 
HETATM   20  O9  UNL     1      -6.033   1.629  10.365  1.00  0.00    -0.297 OA
HETATM   21  C29 UNL     1      -5.859   3.582  11.806  1.00  0.00     0.018 C 
HETATM   22  C30 UNL     1      -6.866   4.190  10.802  1.00  0.00     0.023 C 
HETATM   23  C31 UNL     1      -6.629   3.214  13.093  1.00  0.00     0.023 C 
HETATM   24  C32 UNL     1      -4.615   4.594  11.969  1.00  0.00     0.025 C 
HETATM   25  C33 UNL     1      -4.652   5.447  13.284  1.00  0.00     0.057 C 
ENDROOT
BRANCH   1  26
HETATM   26  C7  UNL     1       1.660   8.570  10.869  1.00  0.00    -0.011 C 
HETATM   27  C8  UNL     1       1.200   8.000   9.525  1.00  0.00     0.010 C 
BRANCH  26  28
HETATM   28  C6  UNL     1       3.207   8.423  11.014  1.00  0.00     0.044 C 
BRANCH  28  29
HETATM   29  C5  UNL     1       3.721   7.180  11.762  1.00  0.00     0.188 C 
BRANCH  29  30
HETATM   30  C4  UNL     1       4.800   6.398  10.980  1.00  0.00     0.169 C 
HETATM   31  O3  UNL     1       4.531   5.835   9.915  1.00  0.00    -0.294 OA
BRANCH  30  32
HETATM   32  C2  UNL     1       6.162   6.255  11.633  1.00  0.00     0.152 C 
HETATM   33  C1  UNL     1       7.002   5.262  10.834  1.00  0.00     0.029 C 
BRANCH  32  34
HETATM   34  C3  UNL     1       6.876   7.574  11.765  1.00  0.00     0.150 C 
HETATM   35  O1  UNL     1       7.103   8.190  12.794  1.00  0.00    -0.649 OA
BRANCH  34  36
HETATM   36  O2  UNL     1       7.219   8.098  10.572  1.00  0.00    -0.776 OA
HETATM   37  H5  UNL     1       7.691   8.927  10.801  1.00  0.00     0.167 HD
ENDBRANCH  34  36
ENDBRANCH  32  34
ENDBRANCH  30  32
ENDBRANCH  29  30
BRANCH  29  38
HETATM   38  O4  UNL     1       4.078   7.555  13.083  1.00  0.00    -0.388 OA
HETATM   39  H7  UNL     1       3.873   6.810  13.675  1.00  0.00     0.210 HD
ENDBRANCH  29  38
ENDBRANCH  28  29
ENDBRANCH  26  28
ENDBRANCH   1  26
BRANCH   3  40
HETATM   40  O5  UNL     1      -1.085   8.420  14.974  1.00  0.00    -0.385 OA
HETATM   41  H17 UNL     1      -1.602   9.226  15.140  1.00  0.00     0.211 HD
ENDBRANCH   3  40
BRANCH  14  42
HETATM   42  C22 UNL     1      -0.043   5.906  14.436  1.00  0.00     0.044 C 
BRANCH  42  43
HETATM   43  C23 UNL     1       1.141   6.511  15.195  1.00  0.00     0.165 C 
BRANCH  43  44
HETATM   44  O8  UNL     1       0.823   6.866  16.525  1.00  0.00    -0.401 OA
HETATM   45  H30 UNL     1       1.656   7.051  16.988  1.00  0.00     0.209 HD
ENDBRANCH  43  44
ENDBRANCH  42  43
ENDBRANCH  14  42
BRANCH   6  46
HETATM   46  O6  UNL     1      -3.357   6.525  14.948  1.00  0.00    -0.380 OA
HETATM   47  H20 UNL     1      -2.586   6.052  15.289  1.00  0.00     0.211 HD
ENDBRANCH   6  46
BRANCH  25  48
HETATM   48  C34 UNL     1      -5.947   6.252  13.405  1.00  0.00    -0.017 C 
HETATM   49  C35 UNL     1      -6.702   6.303  14.515  1.00  0.00     0.008 C 
BRANCH  49  50
HETATM   50  C36 UNL     1      -7.945   7.077  14.624  1.00  0.00    -0.036 A 
HETATM   51  C37 UNL     1      -9.144   6.504  14.180  1.00  0.00     0.011 A 
HETATM   52  C38 UNL     1     -10.350   7.200  14.292  1.00  0.00     0.001 A 
HETATM   53  C39 UNL     1     -10.371   8.473  14.859  1.00  0.00     0.000 A 
HETATM   54  C40 UNL     1      -9.187   9.047  15.316  1.00  0.00     0.001 A 
HETATM   55  C41 UNL     1      -7.979   8.351  15.205  1.00  0.00     0.011 A 
ENDBRANCH  49  50
ENDBRANCH  25  48
TORSDOF 15
ENDMDL
MODEL 5
REMARK minimizedAffinity -8.91879082
REMARK CNNscore 0.393444479
REMARK CNNaffinity 6.83807373
REMARK  15 active torsions:
REMARK  status: ('A' for Active; 'I' for Inactive)
REMARK    1  A    between atoms: C2_2  and  C3_3 
REMARK    2  A    between atoms: C2_2  and  C4_6 
REMARK    3  A    between atoms: C3_3  and  O2_5 
REMARK    4  A    between atoms: C4_6  and  C5_8 
REMARK    5  A    between atoms: C5_8  and  O4_9 
REMARK    6  A    between atoms: C5_8  and  C6_10 
REMARK    7  A    between atoms: C6_10  and  C7_11 
REMARK    8  A    between atoms: C7_11  and  C9_13 
REMARK    9  A    between atoms: C11_15  and  O5_16 
REMARK   10  A    between atoms: C14_19  and  O6_20 
REMARK   11  A    between atoms: C21_28  and  C22_29 
REMARK   12  A    between atoms: C22_29  and  C23_30 
REMARK   13  A    between atoms: C23_30  and  O8_31 
REMARK   14  A    between atoms: C33_42  and  C34_43 
REMARK   15  A    between atoms: C35_44  and  C36_45 
ROOT
HETATM    1  C9  UNL     1       6.607  11.143  14.422  1.00  0.00     0.002 C 
HETATM    2  C10 UNL     1       5.433  11.250  15.447  1.00  0.00     0.049 C 
HETATM    3  C11 UNL     1       4.420  10.114  15.151  1.00  0.00     0.088 C 
HETATM    4  C12 UNL     1       3.073  10.629  14.681  1.00  0.00     0.011 C 
HETATM    5  C13 UNL     1       2.296   9.911  13.844  1.00  0.00     0.015 C 
HETATM    6  C14 UNL     1       2.702   8.524  13.380  1.00  0.00     0.108 C 
HETATM    7  C15 UNL     1       4.175   8.579  13.015  1.00  0.00    -0.018 C 
HETATM    8  C16 UNL     1       4.648   8.256  11.789  1.00  0.00     0.003 C 
HETATM    9  C17 UNL     1       6.140   8.457  11.555  1.00  0.00     0.157 C 
HETATM   10  O7  UNL     1       6.745   7.743  10.757  1.00  0.00    -0.293 OA
HETATM   11  C18 UNL     1       6.887   9.551  12.316  1.00  0.00     0.094 C 
HETATM   12  C19 UNL     1       5.964  10.320  13.266  1.00  0.00    -0.018 C 
HETATM   13  C20 UNL     1       5.125  11.322  12.395  1.00  0.00     0.017 C 
HETATM   14  C21 UNL     1       5.124   9.228  14.064  1.00  0.00     0.032 C 
HETATM   15  C24 UNL     1       3.794   7.821  10.596  1.00  0.00    -0.007 C 
HETATM   16  C25 UNL     1       4.236   8.696   9.378  1.00  0.00     0.021 C 
HETATM   17  C26 UNL     1       4.020   6.315  10.332  1.00  0.00     0.022 C 
HETATM   18  C27 UNL     1       3.430   5.837   9.016  1.00  0.00     0.080 C 
HETATM   19  C28 UNL     1       2.219   6.638   8.610  1.00  0.00     0.135 C 
HETATM   20  O9  UNL     1       1.910   6.718   7.419  1.00  0.00    -0.297 OA
HETATM   21  C29 UNL     1       1.353   7.250   9.727  1.00  0.00     0.018 C 
HETATM   22  C30 UNL     1       0.354   8.232   9.071  1.00  0.00     0.023 C 
HETATM   23  C31 UNL     1       0.556   6.035  10.249  1.00  0.00     0.023 C 
HETATM   24  C32 UNL     1       2.238   8.056  10.807  1.00  0.00     0.025 C 
HETATM   25  C33 UNL     1       1.799   7.824  12.294  1.00  0.00     0.057 C 
ENDROOT
BRANCH   1  26
HETATM   26  C7  UNL     1       7.258  12.539  14.137  1.00  0.00    -0.011 C 
HETATM   27  C8  UNL     1       7.619  12.717  12.660  1.00  0.00     0.010 C 
BRANCH  26  28
HETATM   28  C6  UNL     1       8.527  12.729  15.026  1.00  0.00     0.044 C 
BRANCH  28  29
HETATM   29  C5  UNL     1       8.711  11.745  16.195  1.00  0.00     0.188 C 
BRANCH  29  30
HETATM   30  C4  UNL     1      10.094  11.057  16.204  1.00  0.00     0.169 C 
HETATM   31  O3  UNL     1      10.320  10.072  15.496  1.00  0.00    -0.294 OA
BRANCH  30  32
HETATM   32  C2  UNL     1      11.117  11.571  17.201  1.00  0.00     0.152 C 
HETATM   33  C1  UNL     1      11.062  13.096  17.238  1.00  0.00     0.029 C 
BRANCH  32  34
HETATM   34  C3  UNL     1      10.917  10.995  18.577  1.00  0.00     0.150 C 
HETATM   35  O1  UNL     1       9.998  11.224  19.346  1.00  0.00    -0.649 OA
BRANCH  34  36
HETATM   36  O2  UNL     1      11.933  10.194  18.955  1.00  0.00    -0.776 OA
HETATM   37  H5  UNL     1      11.667   9.872  19.843  1.00  0.00     0.167 HD
ENDBRANCH  34  36
ENDBRANCH  32  34
ENDBRANCH  30  32
ENDBRANCH  29  30
BRANCH  29  38
HETATM   38  O4  UNL     1       8.346  12.394  17.403  1.00  0.00    -0.388 OA
HETATM   39  H7  UNL     1       7.939  11.734  17.991  1.00  0.00     0.210 HD
ENDBRANCH  29  38
ENDBRANCH  28  29
ENDBRANCH  26  28
ENDBRANCH   1  26
BRANCH   3  40
HETATM   40  O5  UNL     1       4.160   9.386  16.344  1.00  0.00    -0.385 OA
HETATM   41  H17 UNL     1       3.424   9.812  16.815  1.00  0.00     0.211 HD
ENDBRANCH   3  40
BRANCH  14  42
HETATM   42  C22 UNL     1       5.915   8.000  14.704  1.00  0.00     0.044 C 
BRANCH  42  43
HETATM   43  C23 UNL     1       7.254   8.134  15.433  1.00  0.00     0.165 C 
BRANCH  43  44
HETATM   44  O8  UNL     1       7.110   8.330  16.824  1.00  0.00    -0.401 OA
HETATM   45  H30 UNL     1       7.984   8.208  17.231  1.00  0.00     0.209 HD
ENDBRANCH  43  44
ENDBRANCH  42  43
ENDBRANCH  14  42
BRANCH   6  46
HETATM   46  O6  UNL     1       2.522   7.702  14.546  1.00  0.00    -0.380 OA
HETATM   47  H20 UNL     1       3.344   7.225  14.725  1.00  0.00     0.211 HD
ENDBRANCH   6  46
BRANCH  25  48
HETATM   48  C34 UNL     1       0.327   8.179  12.516  1.00  0.00    -0.017 C 
HETATM   49  C35 UNL     1      -0.597   7.312  12.961  1.00  0.00     0.008 C 
BRANCH  49  50
HETATM   50  C36 UNL     1      -2.009   7.659  13.171  1.00  0.00    -0.036 A 
HETATM   51  C37 UNL     1      -2.975   6.645  13.109  1.00  0.00     0.011 A 
HETATM   52  C38 UNL     1      -4.323   6.933  13.329  1.00  0.00     0.001 A 
HETATM   53  C39 UNL     1      -4.720   8.236  13.624  1.00  0.00     0.000 A 
HETATM   54  C40 UNL     1      -3.768   9.250  13.700  1.00  0.00     0.001 A 
HETATM   55  C41 UNL     1      -2.417   8.962  13.480  1.00  0.00     0.011 A 
ENDBRANCH  49  50
ENDBRANCH  25  48
TORSDOF 15
ENDMDL
MODEL 6
REMARK minimizedAffinity -7.77385521
REMARK CNNscore 0.382457823
REMARK CNNaffinity 6.59910345
REMARK  15 active torsions:
REMARK  status: ('A' for Active; 'I' for Inactive)
REMARK    1  A    between atoms: C2_2  and  C3_3 
REMARK    2  A    between atoms: C2_2  and  C4_6 
REMARK    3  A    between atoms: C3_3  and  O2_5 
REMARK    4  A    between atoms: C4_6  and  C5_8 
REMARK    5  A    between atoms: C5_8  and  O4_9 
REMARK    6  A    between atoms: C5_8  and  C6_10 
REMARK    7  A    between atoms: C6_10  and  C7_11 
REMARK    8  A    between atoms: C7_11  and  C9_13 
REMARK    9  A    between atoms: C11_15  and  O5_16 
REMARK   10  A    between atoms: C14_19  and  O6_20 
REMARK   11  A    between atoms: C21_28  and  C22_29 
REMARK   12  A    between atoms: C22_29  and  C23_30 
REMARK   13  A    between atoms: C23_30  and  O8_31 
REMARK   14  A    between atoms: C33_42  and  C34_43 
REMARK   15  A    between atoms: C35_44  and  C36_45 
ROOT
HETATM    1  C9  UNL     1       1.131  12.466  18.665  1.00  0.00     0.002 C 
HETATM    2  C10 UNL     1       1.802  12.969  17.347  1.00  0.00     0.049 C 
HETATM    3  C11 UNL     1       0.822  12.715  16.172  1.00  0.00     0.088 C 
HETATM    4  C12 UNL     1       1.345  11.699  15.174  1.00  0.00     0.011 C 
HETATM    5  C13 UNL     1       0.509  10.912  14.465  1.00  0.00     0.015 C 
HETATM    6  C14 UNL     1      -0.999  11.047  14.585  1.00  0.00     0.108 C 
HETATM    7  C15 UNL     1      -1.328  11.184  16.061  1.00  0.00    -0.018 C 
HETATM    8  C16 UNL     1      -2.153  10.337  16.719  1.00  0.00     0.003 C 
HETATM    9  C17 UNL     1      -2.303  10.553  18.219  1.00  0.00     0.157 C 
HETATM   10  O7  UNL     1      -3.351  10.251  18.789  1.00  0.00    -0.293 OA
HETATM   11  C18 UNL     1      -1.147  11.150  19.020  1.00  0.00     0.094 C 
HETATM   12  C19 UNL     1       0.060  11.468  18.132  1.00  0.00    -0.018 C 
HETATM   13  C20 UNL     1       0.796  10.113  17.838  1.00  0.00     0.017 C 
HETATM   14  C21 UNL     1      -0.505  12.238  16.858  1.00  0.00     0.032 C 
HETATM   15  C24 UNL     1      -2.847   9.120  16.103  1.00  0.00    -0.007 C 
HETATM   16  C25 UNL     1      -2.569   7.909  17.052  1.00  0.00     0.021 C 
HETATM   17  C26 UNL     1      -4.360   9.411  15.974  1.00  0.00     0.022 C 
HETATM   18  C27 UNL     1      -5.184   8.183  15.623  1.00  0.00     0.080 C 
HETATM   19  C28 UNL     1      -4.399   7.183  14.812  1.00  0.00     0.135 C 
HETATM   20  O9  UNL     1      -4.713   5.992  14.843  1.00  0.00    -0.297 OA
HETATM   21  C29 UNL     1      -3.284   7.717  13.894  1.00  0.00     0.018 C 
HETATM   22  C30 UNL     1      -2.461   6.508  13.392  1.00  0.00     0.023 C 
HETATM   23  C31 UNL     1      -4.072   8.291  12.696  1.00  0.00     0.023 C 
HETATM   24  C32 UNL     1      -2.296   8.731  14.666  1.00  0.00     0.025 C 
HETATM   25  C33 UNL     1      -1.888   9.990  13.826  1.00  0.00     0.057 C 
ENDROOT
BRANCH   1  26
HETATM   26  C7  UNL     1       2.195  12.002  19.717  1.00  0.00    -0.011 C 
HETATM   27  C8  UNL     1       1.594  11.075  20.776  1.00  0.00     0.010 C 
BRANCH  26  28
HETATM   28  C6  UNL     1       2.849  13.244  20.400  1.00  0.00     0.044 C 
BRANCH  28  29
HETATM   29  C5  UNL     1       3.241  13.099  21.881  1.00  0.00     0.188 C 
BRANCH  29  30
HETATM   30  C4  UNL     1       4.724  13.431  22.157  1.00  0.00     0.169 C 
HETATM   31  O3  UNL     1       5.272  14.395  21.615  1.00  0.00    -0.294 OA
BRANCH  30  32
HETATM   32  C2  UNL     1       5.502  12.459  23.023  1.00  0.00     0.152 C 
HETATM   33  C1  UNL     1       4.907  11.062  22.871  1.00  0.00     0.029 C 
BRANCH  32  34
HETATM   34  C3  UNL     1       6.972  12.452  22.701  1.00  0.00     0.150 C 
HETATM   35  O1  UNL     1       7.899  12.612  23.479  1.00  0.00    -0.649 OA
BRANCH  34  36
HETATM   36  O2  UNL     1       7.212  12.308  21.383  1.00  0.00    -0.776 OA
HETATM   37  H5  UNL     1       8.191  12.294  21.317  1.00  0.00     0.167 HD
ENDBRANCH  34  36
ENDBRANCH  32  34
ENDBRANCH  30  32
ENDBRANCH  29  30
BRANCH  29  38
HETATM   38  O4  UNL     1       2.301  13.805  22.676  1.00  0.00    -0.388 OA
HETATM   39  H7  UNL     1       2.185  13.319  23.511  1.00  0.00     0.210 HD
ENDBRANCH  29  38
ENDBRANCH  28  29
ENDBRANCH  26  28
ENDBRANCH   1  26
BRANCH   3  40
HETATM   40  O5  UNL     1       0.638  13.919  15.437  1.00  0.00    -0.385 OA
HETATM   41  H17 UNL     1       1.324  13.972  14.751  1.00  0.00     0.211 HD
ENDBRANCH   3  40
BRANCH  14  42
HETATM   42  C22 UNL     1      -1.525  13.439  17.105  1.00  0.00     0.044 C 
BRANCH  42  43
HETATM   43  C23 UNL     1      -1.427  14.413  18.281  1.00  0.00     0.165 C 
BRANCH  43  44
HETATM   44  O8  UNL     1      -2.583  14.420  19.093  1.00  0.00    -0.401 OA
HETATM   45  H30 UNL     1      -2.368  14.903  19.909  1.00  0.00     0.209 HD
ENDBRANCH  43  44
ENDBRANCH  42  43
ENDBRANCH  14  42
BRANCH   6  46
HETATM   46  O6  UNL     1      -1.291  12.280  13.907  1.00  0.00    -0.380 OA
HETATM   47  H20 UNL     1      -1.799  12.852  14.499  1.00  0.00     0.211 HD
ENDBRANCH   6  46
BRANCH  25  48
HETATM   48  C34 UNL     1      -1.237   9.602  12.497  1.00  0.00    -0.017 C 
HETATM   49  C35 UNL     1      -0.158   8.809  12.390  1.00  0.00     0.008 C 
BRANCH  49  50
HETATM   50  C36 UNL     1       0.463   8.442  11.111  1.00  0.00    -0.036 A 
HETATM   51  C37 UNL     1      -0.284   8.563   9.932  1.00  0.00     0.011 A 
HETATM   52  C38 UNL     1       0.282   8.247   8.695  1.00  0.00     0.001 A 
HETATM   53  C39 UNL     1       1.606   7.818   8.622  1.00  0.00     0.000 A 
HETATM   54  C40 UNL     1       2.363   7.705   9.786  1.00  0.00     0.001 A 
HETATM   55  C41 UNL     1       1.797   8.021  11.026  1.00  0.00     0.011 A 
ENDBRANCH  49  50
ENDBRANCH  25  48
TORSDOF 15
ENDMDL
MODEL 7
REMARK minimizedAffinity -10.529376
REMARK CNNscore 0.366639763
REMARK CNNaffinity 7.5091691
REMARK  15 active torsions:
REMARK  status: ('A' for Active; 'I' for Inactive)
REMARK    1  A    between atoms: C2_2  and  C3_3 
REMARK    2  A    between atoms: C2_2  and  C4_6 
REMARK    3  A    between atoms: C3_3  and  O2_5 
REMARK    4  A    between atoms: C4_6  and  C5_8 
REMARK    5  A    between atoms: C5_8  and  O4_9 
REMARK    6  A    between atoms: C5_8  and  C6_10 
REMARK    7  A    between atoms: C6_10  and  C7_11 
REMARK    8  A    between atoms: C7_11  and  C9_13 
REMARK    9  A    between atoms: C11_15  and  O5_16 
REMARK   10  A    between atoms: C14_19  and  O6_20 
REMARK   11  A    between atoms: C21_28  and  C22_29 
REMARK   12  A    between atoms: C22_29  and  C23_30 
REMARK   13  A    between atoms: C23_30  and  O8_31 
REMARK   14  A    between atoms: C33_42  and  C34_43 
REMARK   15  A    between atoms: C35_44  and  C36_45 
ROOT
HETATM    1  C9  UNL     1       0.824   7.870  12.014  1.00  0.00     0.002 C 
HETATM    2  C10 UNL     1       0.001   8.877  12.880  1.00  0.00     0.049 C 
HETATM    3  C11 UNL     1      -1.163   8.105  13.553  1.00  0.00     0.088 C 
HETATM    4  C12 UNL     1      -2.530   8.552  13.068  1.00  0.00     0.011 C 
HETATM    5  C13 UNL     1      -3.578   7.704  13.032  1.00  0.00     0.015 C 
HETATM    6  C14 UNL     1      -3.460   6.275  13.533  1.00  0.00     0.108 C 
HETATM    7  C15 UNL     1      -2.150   5.715  13.006  1.00  0.00    -0.018 C 
HETATM    8  C16 UNL     1      -2.074   4.606  12.236  1.00  0.00     0.003 C 
HETATM    9  C17 UNL     1      -0.695   4.230  11.709  1.00  0.00     0.157 C 
HETATM   10  O7  UNL     1      -0.412   3.053  11.492  1.00  0.00    -0.293 OA
HETATM   11  C18 UNL     1       0.342   5.322  11.448  1.00  0.00     0.094 C 
HETATM   12  C19 UNL     1      -0.197   6.715  11.789  1.00  0.00    -0.018 C 
HETATM   13  C20 UNL     1      -1.141   7.153  10.613  1.00  0.00     0.017 C 
HETATM   14  C21 UNL     1      -0.885   6.597  13.219  1.00  0.00     0.032 C 
HETATM   15  C24 UNL     1      -3.267   3.773  11.762  1.00  0.00    -0.007 C 
HETATM   16  C25 UNL     1      -3.099   3.575  10.220  1.00  0.00     0.021 C 
HETATM   17  C26 UNL     1      -3.276   2.424  12.515  1.00  0.00     0.022 C 
HETATM   18  C27 UNL     1      -4.257   1.416  11.939  1.00  0.00     0.080 C 
HETATM   19  C28 UNL     1      -5.446   2.082  11.295  1.00  0.00     0.135 C 
HETATM   20  O9  UNL     1      -6.066   1.496  10.404  1.00  0.00    -0.297 OA
HETATM   21  C29 UNL     1      -5.899   3.443  11.853  1.00  0.00     0.018 C 
HETATM   22  C30 UNL     1      -6.937   4.038  10.874  1.00  0.00     0.023 C 
HETATM   23  C31 UNL     1      -6.635   3.054  13.153  1.00  0.00     0.023 C 
HETATM   24  C32 UNL     1      -4.670   4.478  11.997  1.00  0.00     0.025 C 
HETATM   25  C33 UNL     1      -4.696   5.322  13.318  1.00  0.00     0.057 C 
ENDROOT
BRANCH   1  26
HETATM   26  C7  UNL     1       1.505   8.577  10.793  1.00  0.00    -0.011 C 
HETATM   27  C8  UNL     1       0.789   8.272   9.475  1.00  0.00     0.010 C 
BRANCH  26  28
HETATM   28  C6  UNL     1       3.005   8.154  10.699  1.00  0.00     0.044 C 
BRANCH  28  29
HETATM   29  C5  UNL     1       3.376   6.775  11.273  1.00  0.00     0.188 C 
BRANCH  29  30
HETATM   30  C4  UNL     1       4.149   5.885  10.274  1.00  0.00     0.169 C 
HETATM   31  O3  UNL     1       5.380   5.930  10.202  1.00  0.00    -0.294 OA
BRANCH  30  32
HETATM   32  C2  UNL     1       3.327   5.047   9.313  1.00  0.00     0.152 C 
HETATM   33  C1  UNL     1       2.833   5.930   8.171  1.00  0.00     0.029 C 
BRANCH  32  34
HETATM   34  C3  UNL     1       4.092   3.864   8.783  1.00  0.00     0.150 C 
HETATM   35  O1  UNL     1       4.393   3.641   7.622  1.00  0.00    -0.649 OA
BRANCH  34  36
HETATM   36  O2  UNL     1       4.391   2.969   9.745  1.00  0.00    -0.776 OA
HETATM   37  H5  UNL     1       4.903   2.275   9.277  1.00  0.00     0.167 HD
ENDBRANCH  34  36
ENDBRANCH  32  34
ENDBRANCH  30  32
ENDBRANCH  29  30
BRANCH  29  38
HETATM   38  O4  UNL     1       3.997   6.955  12.536  1.00  0.00    -0.388 OA
HETATM   39  H7  UNL     1       3.744   6.209  13.107  1.00  0.00     0.210 HD
ENDBRANCH  29  38
ENDBRANCH  28  29
ENDBRANCH  26  28
ENDBRANCH   1  26
BRANCH   3  40
HETATM   40  O5  UNL     1      -1.151   8.351  14.953  1.00  0.00    -0.385 OA
HETATM   41  H17 UNL     1      -1.679   9.147  15.134  1.00  0.00     0.211 HD
ENDBRANCH   3  40
BRANCH  14  42
HETATM   42  C22 UNL     1      -0.074   5.861  14.378  1.00  0.00     0.044 C 
BRANCH  42  43
HETATM   43  C23 UNL     1       1.237   6.386  14.969  1.00  0.00     0.165 C 
BRANCH  43  44
HETATM   44  O8  UNL     1       1.070   6.994  16.233  1.00  0.00    -0.401 OA
HETATM   45  H30 UNL     1       1.953   7.118  16.619  1.00  0.00     0.209 HD
ENDBRANCH  43  44
ENDBRANCH  42  43
ENDBRANCH  14  42
BRANCH   6  46
HETATM   46  O6  UNL     1      -3.387   6.415  14.962  1.00  0.00    -0.380 OA
HETATM   47  H20 UNL     1      -2.600   5.953  15.284  1.00  0.00     0.211 HD
ENDBRANCH   6  46
BRANCH  25  48
HETATM   48  C34 UNL     1      -6.003   6.102  13.471  1.00  0.00    -0.017 C 
HETATM   49  C35 UNL     1      -6.759   6.095  14.581  1.00  0.00     0.008 C 
BRANCH  49  50
HETATM   50  C36 UNL     1      -8.014   6.846  14.721  1.00  0.00    -0.036 A 
HETATM   51  C37 UNL     1      -8.079   7.896  15.646  1.00  0.00     0.011 A 
HETATM   52  C38 UNL     1      -9.247   8.648  15.788  1.00  0.00     0.001 A 
HETATM   53  C39 UNL     1     -10.360   8.364  14.998  1.00  0.00     0.000 A 
HETATM   54  C40 UNL     1     -10.303   7.330  14.066  1.00  0.00     0.001 A 
HETATM   55  C41 UNL     1      -9.133   6.577  13.923  1.00  0.00     0.011 A 
ENDBRANCH  49  50
ENDBRANCH  25  48
TORSDOF 15
ENDMDL
MODEL 8
REMARK minimizedAffinity -7.16355848
REMARK CNNscore 0.363411546
REMARK CNNaffinity 6.27297258
REMARK  15 active torsions:
REMARK  status: ('A' for Active; 'I' for Inactive)
REMARK    1  A    between atoms: C2_2  and  C3_3 
REMARK    2  A    between atoms: C2_2  and  C4_6 
REMARK    3  A    between atoms: C3_3  and  O2_5 
REMARK    4  A    between atoms: C4_6  and  C5_8 
REMARK    5  A    between atoms: C5_8  and  O4_9 
REMARK    6  A    between atoms: C5_8  and  C6_10 
REMARK    7  A    between atoms: C6_10  and  C7_11 
REMARK    8  A    between atoms: C7_11  and  C9_13 
REMARK    9  A    between atoms: C11_15  and  O5_16 
REMARK   10  A    between atoms: C14_19  and  O6_20 
REMARK   11  A    between atoms: C21_28  and  C22_29 
REMARK   12  A    between atoms: C22_29  and  C23_30 
REMARK   13  A    between atoms: C23_30  and  O8_31 
REMARK   14  A    between atoms: C33_42  and  C34_43 
REMARK   15  A    between atoms: C35_44  and  C36_45 
ROOT
HETATM    1  C9  UNL     1      10.610  12.673  16.499  1.00  0.00     0.002 C 
HETATM    2  C10 UNL     1      10.330  11.234  17.037  1.00  0.00     0.049 C 
HETATM    3  C11 UNL     1       8.804  10.970  16.956  1.00  0.00     0.088 C 
HETATM    4  C12 UNL     1       8.159  10.802  18.319  1.00  0.00     0.011 C 
HETATM    5  C13 UNL     1       6.874  11.150  18.539  1.00  0.00     0.015 C 
HETATM    6  C14 UNL     1       5.990  11.668  17.418  1.00  0.00     0.108 C 
HETATM    7  C15 UNL     1       6.808  12.667  16.619  1.00  0.00    -0.018 C 
HETATM    8  C16 UNL     1       6.431  13.953  16.432  1.00  0.00     0.003 C 
HETATM    9  C17 UNL     1       7.409  14.853  15.687  1.00  0.00     0.157 C 
HETATM   10  O7  UNL     1       6.998  15.797  15.015  1.00  0.00    -0.293 OA
HETATM   11  C18 UNL     1       8.911  14.580  15.776  1.00  0.00     0.094 C 
HETATM   12  C19 UNL     1       9.220  13.360  16.648  1.00  0.00    -0.018 C 
HETATM   13  C20 UNL     1       9.083  13.807  18.147  1.00  0.00     0.017 C 
HETATM   14  C21 UNL     1       8.228  12.205  16.180  1.00  0.00     0.032 C 
HETATM   15  C24 UNL     1       5.167  14.598  17.004  1.00  0.00    -0.007 C 
HETATM   16  C25 UNL     1       5.608  15.932  17.691  1.00  0.00     0.021 C 
HETATM   17  C26 UNL     1       4.162  14.850  15.857  1.00  0.00     0.022 C 
HETATM   18  C27 UNL     1       2.986  15.722  16.265  1.00  0.00     0.080 C 
HETATM   19  C28 UNL     1       2.648  15.576  17.727  1.00  0.00     0.135 C 
HETATM   20  O9  UNL     1       2.081  16.498  18.317  1.00  0.00    -0.297 OA
HETATM   21  C29 UNL     1       2.943  14.224  18.402  1.00  0.00     0.018 C 
HETATM   22  C30 UNL     1       2.772  14.407  19.928  1.00  0.00     0.023 C 
HETATM   23  C31 UNL     1       1.793  13.328  17.895  1.00  0.00     0.023 C 
HETATM   24  C32 UNL     1       4.444  13.715  18.108  1.00  0.00     0.025 C 
HETATM   25  C33 UNL     1       4.550  12.181  17.803  1.00  0.00     0.057 C 
ENDROOT
BRANCH   1  26
HETATM   26  C7  UNL     1      11.882  13.303  17.162  1.00  0.00    -0.011 C 
HETATM   27  C8  UNL     1      12.922  13.733  16.123  1.00  0.00     0.010 C 
BRANCH  26  28
HETATM   28  C6  UNL     1      12.516  12.293  18.169  1.00  0.00     0.044 C 
BRANCH  28  29
HETATM   29  C5  UNL     1      14.041  12.367  18.363  1.00  0.00     0.188 C 
BRANCH  29  30
HETATM   30  C4  UNL     1      14.458  12.637  19.826  1.00  0.00     0.169 C 
HETATM   31  O3  UNL     1      13.786  12.210  20.769  1.00  0.00    -0.294 OA
BRANCH  30  32
HETATM   32  C2  UNL     1      15.656  13.542  20.049  1.00  0.00     0.152 C 
HETATM   33  C1  UNL     1      15.337  14.937  19.520  1.00  0.00     0.029 C 
BRANCH  32  34
HETATM   34  C3  UNL     1      16.071  13.599  21.494  1.00  0.00     0.150 C 
HETATM   35  O1  UNL     1      16.157  14.592  22.199  1.00  0.00    -0.649 OA
BRANCH  34  36
HETATM   36  O2  UNL     1      16.430  12.393  21.977  1.00  0.00    -0.776 OA
HETATM   37  H5  UNL     1      16.648  12.566  22.917  1.00  0.00     0.167 HD
ENDBRANCH  34  36
ENDBRANCH  32  34
ENDBRANCH  30  32
ENDBRANCH  29  30
BRANCH  29  38
HETATM   38  O4  UNL     1      14.636  11.229  17.760  1.00  0.00    -0.388 OA
HETATM   39  H7  UNL     1      15.498  11.496  17.394  1.00  0.00     0.210 HD
ENDBRANCH  29  38
ENDBRANCH  28  29
ENDBRANCH  26  28
ENDBRANCH   1  26
BRANCH   3  40
HETATM   40  O5  UNL     1       8.568   9.750  16.265  1.00  0.00    -0.385 OA
HETATM   41  H17 UNL     1       8.581   9.020  16.907  1.00  0.00     0.211 HD
ENDBRANCH   3  40
BRANCH  14  42
HETATM   42  C22 UNL     1       8.094  11.928  14.615  1.00  0.00     0.044 C 
BRANCH  42  43
HETATM   43  C23 UNL     1       9.104  11.114  13.803  1.00  0.00     0.165 C 
BRANCH  43  44
HETATM   44  O8  UNL     1      10.104  11.911  13.204  1.00  0.00    -0.401 OA
HETATM   45  H30 UNL     1      10.802  11.316  12.882  1.00  0.00     0.209 HD
ENDBRANCH  43  44
ENDBRANCH  42  43
ENDBRANCH  14  42
BRANCH   6  46
HETATM   46  O6  UNL     1       5.729  10.504  16.617  1.00  0.00    -0.380 OA
HETATM   47  H20 UNL     1       5.970  10.693  15.699  1.00  0.00     0.211 HD
ENDBRANCH   6  46
BRANCH  25  48
HETATM   48  C34 UNL     1       3.967  11.332  18.934  1.00  0.00    -0.017 C 
HETATM   49  C35 UNL     1       4.403  11.370  20.205  1.00  0.00     0.008 C 
BRANCH  49  50
HETATM   50  C36 UNL     1       3.840  10.552  21.287  1.00  0.00    -0.036 A 
HETATM   51  C37 UNL     1       4.312  10.735  22.593  1.00  0.00     0.011 A 
HETATM   52  C38 UNL     1       3.782   9.993  23.651  1.00  0.00     0.001 A 
HETATM   53  C39 UNL     1       2.766   9.068  23.416  1.00  0.00     0.000 A 
HETATM   54  C40 UNL     1       2.280   8.887  22.123  1.00  0.00     0.001 A 
HETATM   55  C41 UNL     1       2.810   9.630  21.063  1.00  0.00     0.011 A 
ENDBRANCH  49  50
ENDBRANCH  25  48
TORSDOF 15
ENDMDL
MODEL 9
REMARK minimizedAffinity -8.3761282
REMARK CNNscore 0.301468849
REMARK CNNaffinity 6.06594229
REMARK  15 active torsions:
REMARK  status: ('A' for Active; 'I' for Inactive)
REMARK    1  A    between atoms: C2_2  and  C3_3 
REMARK    2  A    between atoms: C2_2  and  C4_6 
REMARK    3  A    between atoms: C3_3  and  O2_5 
REMARK    4  A    between atoms: C4_6  and  C5_8 
REMARK    5  A    between atoms: C5_8  and  O4_9 
REMARK    6  A    between atoms: C5_8  and  C6_10 
REMARK    7  A    between atoms: C6_10  and  C7_11 
REMARK    8  A    between atoms: C7_11  and  C9_13 
REMARK    9  A    between atoms: C11_15  and  O5_16 
REMARK   10  A    between atoms: C14_19  and  O6_20 
REMARK   11  A    between atoms: C21_28  and  C22_29 
REMARK   12  A    between atoms: C22_29  and  C23_30 
REMARK   13  A    between atoms: C23_30  and  O8_31 
REMARK   14  A    between atoms: C33_42  and  C34_43 
REMARK   15  A    between atoms: C35_44  and  C36_45 
ROOT
HETATM    1  C9  UNL     1       1.336  11.669  17.935  1.00  0.00     0.002 C 
HETATM    2  C10 UNL     1       2.684  12.458  17.967  1.00  0.00     0.049 C 
HETATM    3  C11 UNL     1       3.328  12.384  16.558  1.00  0.00     0.088 C 
HETATM    4  C12 UNL     1       4.636  11.615  16.544  1.00  0.00     0.011 C 
HETATM    5  C13 UNL     1       5.043  10.936  15.452  1.00  0.00     0.015 C 
HETATM    6  C14 UNL     1       4.244  10.958  14.161  1.00  0.00     0.108 C 
HETATM    7  C15 UNL     1       2.781  10.784  14.528  1.00  0.00    -0.018 C 
HETATM    8  C16 UNL     1       2.010   9.779  14.052  1.00  0.00     0.003 C 
HETATM    9  C17 UNL     1       0.589   9.688  14.593  1.00  0.00     0.157 C 
HETATM   10  O7  UNL     1      -0.311   9.220  13.898  1.00  0.00    -0.293 OA
HETATM   11  C18 UNL     1       0.282  10.181  16.006  1.00  0.00     0.094 C 
HETATM   12  C19 UNL     1       1.528  10.735  16.702  1.00  0.00    -0.018 C 
HETATM   13  C20 UNL     1       2.383   9.508  17.180  1.00  0.00     0.017 C 
HETATM   14  C21 UNL     1       2.237  11.706  15.658  1.00  0.00     0.032 C 
HETATM   15  C24 UNL     1       2.485   8.669  13.112  1.00  0.00    -0.007 C 
HETATM   16  C25 UNL     1       2.022   7.313  13.738  1.00  0.00     0.021 C 
HETATM   17  C26 UNL     1       1.870   8.892  11.711  1.00  0.00     0.022 C 
HETATM   18  C27 UNL     1       2.059   7.712  10.773  1.00  0.00     0.080 C 
HETATM   19  C28 UNL     1       3.315   6.937  11.078  1.00  0.00     0.135 C 
HETATM   20  O9  UNL     1       3.389   5.746  10.766  1.00  0.00    -0.297 OA
HETATM   21  C29 UNL     1       4.504   7.703  11.686  1.00  0.00     0.018 C 
HETATM   22  C30 UNL     1       5.550   6.665  12.154  1.00  0.00     0.023 C 
HETATM   23  C31 UNL     1       5.087   8.454  10.470  1.00  0.00     0.023 C 
HETATM   24  C32 UNL     1       4.063   8.600  12.951  1.00  0.00     0.025 C 
HETATM   25  C33 UNL     1       4.725  10.021  12.989  1.00  0.00     0.057 C 
ENDROOT
BRANCH   1  26
HETATM   26  C7  UNL     1       0.982  11.070  19.338  1.00  0.00    -0.011 C 
HETATM   27  C8  UNL     1      -0.515  10.783  19.482  1.00  0.00     0.010 C 
BRANCH  26  28
HETATM   28  C6  UNL     1       1.454  12.038  20.467  1.00  0.00     0.044 C 
BRANCH  28  29
HETATM   29  C5  UNL     1       2.650  11.581  21.322  1.00  0.00     0.188 C 
BRANCH  29  30
HETATM   30  C4  UNL     1       2.955  10.072  21.190  1.00  0.00     0.169 C 
HETATM   31  O3  UNL     1       2.672   9.453  20.160  1.00  0.00    -0.294 OA
BRANCH  30  32
HETATM   32  C2  UNL     1       3.506   9.367  22.415  1.00  0.00     0.152 C 
HETATM   33  C1  UNL     1       4.169  10.392  23.331  1.00  0.00     0.029 C 
BRANCH  32  34
HETATM   34  C3  UNL     1       2.449   8.593  23.156  1.00  0.00     0.150 C 
HETATM   35  O1  UNL     1       2.221   8.616  24.354  1.00  0.00    -0.649 OA
BRANCH  34  36
HETATM   36  O2  UNL     1       1.758   7.761  22.351  1.00  0.00    -0.776 OA
HETATM   37  H5  UNL     1       1.097   7.347  22.945  1.00  0.00     0.167 HD
ENDBRANCH  34  36
ENDBRANCH  32  34
ENDBRANCH  30  32
ENDBRANCH  29  30
BRANCH  29  38
HETATM   38  O4  UNL     1       3.746  12.448  21.078  1.00  0.00    -0.388 OA
HETATM   39  H7  UNL     1       4.246  12.545  21.907  1.00  0.00     0.210 HD
ENDBRANCH  29  38
ENDBRANCH  28  29
ENDBRANCH  26  28
ENDBRANCH   1  26
BRANCH   3  40
HETATM   40  O5  UNL     1       3.647  13.696  16.111  1.00  0.00    -0.385 OA
HETATM   41  H17 UNL     1       4.540  13.922  16.421  1.00  0.00     0.211 HD
ENDBRANCH   3  40
BRANCH  14  42
HETATM   42  C22 UNL     1       1.328  12.775  14.900  1.00  0.00     0.044 C 
BRANCH  42  43
HETATM   43  C23 UNL     1       0.289  13.658  15.595  1.00  0.00     0.165 C 
BRANCH  43  44
HETATM   44  O8  UNL     1       0.840  14.841  16.135  1.00  0.00    -0.401 OA
HETATM   45  H30 UNL     1       0.103  15.427  16.377  1.00  0.00     0.209 HD
ENDBRANCH  43  44
ENDBRANCH  42  43
ENDBRANCH  14  42
BRANCH   6  46
HETATM   46  O6  UNL     1       4.459  12.281  13.643  1.00  0.00    -0.380 OA
HETATM   47  H20 UNL     1       3.602  12.697  13.474  1.00  0.00     0.211 HD
ENDBRANCH   6  46
BRANCH  25  48
HETATM   48  C34 UNL     1       6.253   9.939  12.966  1.00  0.00    -0.017 C 
HETATM   49  C35 UNL     1       6.992   9.386  13.941  1.00  0.00     0.008 C 
BRANCH  49  50
HETATM   50  C36 UNL     1       8.458   9.311  13.914  1.00  0.00    -0.036 A 
HETATM   51  C37 UNL     1       9.200  10.500  13.917  1.00  0.00     0.011 A 
HETATM   52  C38 UNL     1      10.596  10.468  13.917  1.00  0.00     0.001 A 
HETATM   53  C39 UNL     1      11.266   9.246  13.926  1.00  0.00     0.000 A 
HETATM   54  C40 UNL     1      10.540   8.058  13.935  1.00  0.00     0.001 A 
HETATM   55  C41 UNL     1       9.142   8.089  13.935  1.00  0.00     0.011 A 
ENDBRANCH  49  50
ENDBRANCH  25  48
TORSDOF 15
ENDMDL
