MODEL 1
REMARK minimizedAffinity -8.06023502
REMARK CNNscore 0.69648248
REMARK CNNaffinity 7.05353403
REMARK  11 active torsions:
REMARK  status: ('A' for Active; 'I' for Inactive)
REMARK    1  A    between atoms: C12_13  and  O2_14 
REMARK    2  A    between atoms: C19_21  and  O3_22 
REMARK    3  A    between atoms: C19_21  and  C20_23 
REMARK    4  A    between atoms: C20_23  and  C21_25 
REMARK    5  A    between atoms: C21_25  and  O5_26 
REMARK    6  A    between atoms: O5_26  and  C22_27 
REMARK    7  A    between atoms: C22_27  and  C23_29 
REMARK    8  A    between atoms: C23_29  and  C24_30 
REMARK    9  A    between atoms: C24_30  and  C25_31 
REMARK       I    between atoms: C25_31  and  N1_33 
REMARK   10  A    between atoms: N1_33  and  C26_34 
REMARK   11  A    between atoms: C26_34  and  C27_35 
ROOT
HETATM    1  C1  UNL     1       4.169   6.805   9.517  1.00  0.00     0.020 C 
HETATM    2  C2  UNL     1       2.905   5.976   9.199  1.00  0.00    -0.014 C 
HETATM    3  C3  UNL     1       3.264   4.461   9.259  1.00  0.00     0.022 C 
HETATM    4  C4  UNL     1       4.125   3.988   8.097  1.00  0.00     0.084 C 
HETATM    5  C5  UNL     1       3.465   4.322   6.785  1.00  0.00     0.149 C 
HETATM    6  O1  UNL     1       3.622   3.635   5.778  1.00  0.00    -0.293 OA
HETATM    7  C6  UNL     1       2.685   5.578   6.698  1.00  0.00     0.053 C 
HETATM    8  C7  UNL     1       2.471   6.353   7.775  1.00  0.00    -0.068 C 
HETATM    9  C8  UNL     1       1.812   7.702   7.610  1.00  0.00     0.035 C 
HETATM   10  C9  UNL     1       0.647   7.885   8.569  1.00  0.00     0.010 C 
HETATM   11  C10 UNL     1       1.060   7.649  10.032  1.00  0.00    -0.002 C 
HETATM   12  C11 UNL     1       1.701   6.235  10.192  1.00  0.00     0.031 C 
HETATM   13  C12 UNL     1       1.964   5.870  11.685  1.00  0.00     0.124 C 
HETATM   14  C13 UNL     1       0.762   6.140  12.615  1.00  0.00     0.045 C 
HETATM   15  C14 UNL     1       0.147   7.549  12.457  1.00  0.00     0.001 C 
HETATM   16  C15 UNL     1       1.094   8.640  13.023  1.00  0.00     0.019 C 
HETATM   17  C16 UNL     1      -0.169   7.739  10.953  1.00  0.00     0.002 C 
HETATM   18  C17 UNL     1      -1.011   9.008  10.926  1.00  0.00     0.009 C 
HETATM   19  C18 UNL     1      -1.860   8.922  12.209  1.00  0.00     0.047 C 
HETATM   20  C19 UNL     1      -1.287   7.742  13.056  1.00  0.00     0.128 C 
ENDROOT
BRANCH  20  21
HETATM   21  O3  UNL     1      -2.098   6.601  12.756  1.00  0.00    -0.381 OA
HETATM   22  H27 UNL     1      -2.989   6.781  13.123  1.00  0.00     0.211 HD
ENDBRANCH  20  21
BRANCH  20  23
HETATM   23  C20 UNL     1      -1.316   8.047  14.577  1.00  0.00     0.185 C 
HETATM   24  O4  UNL     1      -0.745   9.037  15.047  1.00  0.00    -0.292 OA
BRANCH  23  25
HETATM   25  C21 UNL     1      -1.987   7.043  15.523  1.00  0.00     0.260 C 
BRANCH  25  26
HETATM   26  O5  UNL     1      -3.198   7.375  16.184  1.00  0.00    -0.314 OA
BRANCH  26  27
HETATM   27  C22 UNL     1      -4.211   7.752  15.362  1.00  0.00     0.259 C 
HETATM   28  O6  UNL     1      -4.709   7.031  14.504  1.00  0.00    -0.265 OA
BRANCH  27  29
HETATM   29  C23 UNL     1      -4.747   9.122  15.707  1.00  0.00     0.120 C 
BRANCH  29  30
HETATM   30  C24 UNL     1      -4.117  10.272  14.930  1.00  0.00     0.112 C 
BRANCH  30  31
HETATM   31  C25 UNL     1      -3.218  11.131  15.798  1.00  0.00     0.218 C 
HETATM   32  O7  UNL     1      -2.939  12.293  15.530  1.00  0.00    -0.274 OA
HETATM   33  N1  UNL     1      -2.732  10.461  16.898  1.00  0.00    -0.357 N 
HETATM   34  H34 UNL     1      -3.144   9.575  17.151  1.00  0.00     0.162 HD
BRANCH  33  35
HETATM   35  C26 UNL     1      -1.930  11.133  17.897  1.00  0.00     0.161 C 
BRANCH  35  36
HETATM   36  C27 UNL     1      -2.736  12.172  18.628  1.00  0.00    -0.038 A 
HETATM   37  C28 UNL     1      -4.022  11.891  19.097  1.00  0.00     0.025 A 
HETATM   38  C29 UNL     1      -4.727  12.896  19.744  1.00  0.00     0.088 A 
HETATM   39  N2  UNL     1      -4.248  14.142  19.944  1.00  0.00    -0.375 N 
HETATM   40  C30 UNL     1      -3.006  14.396  19.478  1.00  0.00     0.088 A 
ATOM     41  H2  UNL     1      -4.797  14.855  20.424  1.00  0.00     0.164 HD
HETATM   42  C31 UNL     1      -2.224  13.460  18.822  1.00  0.00     0.025 A 
ENDBRANCH  35  36
ENDBRANCH  33  35
ENDBRANCH  30  31
ENDBRANCH  29  30
ENDBRANCH  27  29
ENDBRANCH  26  27
ENDBRANCH  25  26
ENDBRANCH  23  25
ENDBRANCH  20  23
BRANCH  13  43
HETATM   43  O2  UNL     1       3.117   6.496  12.228  1.00  0.00    -0.395 OA
HETATM   44  H16 UNL     1       3.190   7.396  11.875  1.00  0.00     0.210 HD
ENDBRANCH  13  43
TORSDOF 11
ENDMDL
MODEL 2
REMARK minimizedAffinity -8.36139965
REMARK CNNscore 0.642434299
REMARK CNNaffinity 6.83598328
REMARK  11 active torsions:
REMARK  status: ('A' for Active; 'I' for Inactive)
REMARK    1  A    between atoms: C12_13  and  O2_14 
REMARK    2  A    between atoms: C19_21  and  O3_22 
REMARK    3  A    between atoms: C19_21  and  C20_23 
REMARK    4  A    between atoms: C20_23  and  C21_25 
REMARK    5  A    between atoms: C21_25  and  O5_26 
REMARK    6  A    between atoms: O5_26  and  C22_27 
REMARK    7  A    between atoms: C22_27  and  C23_29 
REMARK    8  A    between atoms: C23_29  and  C24_30 
REMARK    9  A    between atoms: C24_30  and  C25_31 
REMARK       I    between atoms: C25_31  and  N1_33 
REMARK   10  A    between atoms: N1_33  and  C26_34 
REMARK   11  A    between atoms: C26_34  and  C27_35 
ROOT
HETATM    1  C1  UNL     1      -2.130   7.519  12.487  1.00  0.00     0.020 C 
HETATM    2  C2  UNL     1      -2.908   6.905  13.671  1.00  0.00    -0.014 C 
HETATM    3  C3  UNL     1      -2.334   5.489  13.975  1.00  0.00     0.022 C 
HETATM    4  C4  UNL     1      -2.689   4.445  12.926  1.00  0.00     0.084 C 
HETATM    5  C5  UNL     1      -4.181   4.379  12.734  1.00  0.00     0.149 C 
HETATM    6  O1  UNL     1      -4.756   3.344  12.404  1.00  0.00    -0.293 OA
HETATM    7  C6  UNL     1      -4.955   5.637  12.854  1.00  0.00     0.053 C 
HETATM    8  C7  UNL     1      -4.375   6.790  13.230  1.00  0.00    -0.068 C 
HETATM    9  C8  UNL     1      -5.164   8.076  13.182  1.00  0.00     0.035 C 
HETATM   10  C9  UNL     1      -5.078   8.843  14.492  1.00  0.00     0.010 C 
HETATM   11  C10 UNL     1      -3.623   9.104  14.916  1.00  0.00    -0.002 C 
HETATM   12  C11 UNL     1      -2.834   7.760  15.000  1.00  0.00     0.031 C 
HETATM   13  C12 UNL     1      -1.410   7.947  15.606  1.00  0.00     0.124 C 
HETATM   14  C13 UNL     1      -1.387   8.788  16.900  1.00  0.00     0.045 C 
HETATM   15  C14 UNL     1      -2.159  10.123  16.798  1.00  0.00     0.001 C 
HETATM   16  C15 UNL     1      -1.414  11.132  15.884  1.00  0.00     0.019 C 
HETATM   17  C16 UNL     1      -3.584   9.785  16.295  1.00  0.00     0.002 C 
HETATM   18  C17 UNL     1      -4.345  11.089  16.487  1.00  0.00     0.009 C 
HETATM   19  C18 UNL     1      -3.767  11.673  17.791  1.00  0.00     0.047 C 
HETATM   20  C19 UNL     1      -2.515  10.815  18.157  1.00  0.00     0.128 C 
ENDROOT
BRANCH  20  21
HETATM   21  O3  UNL     1      -2.959   9.835  19.101  1.00  0.00    -0.381 OA
HETATM   22  H27 UNL     1      -3.197  10.318  19.921  1.00  0.00     0.211 HD
ENDBRANCH  20  21
BRANCH  20  23
HETATM   23  C20 UNL     1      -1.374  11.676  18.761  1.00  0.00     0.185 C 
HETATM   24  O4  UNL     1      -1.392  12.910  18.692  1.00  0.00    -0.292 OA
BRANCH  23  25
HETATM   25  C21 UNL     1      -0.155  10.972  19.371  1.00  0.00     0.260 C 
BRANCH  25  26
HETATM   26  O5  UNL     1       1.154  11.273  18.912  1.00  0.00    -0.314 OA
BRANCH  26  27
HETATM   27  C22 UNL     1       2.155  10.702  19.630  1.00  0.00     0.259 C 
HETATM   28  O6  UNL     1       3.208  10.300  19.149  1.00  0.00    -0.265 OA
BRANCH  27  29
HETATM   29  C23 UNL     1       1.880  10.733  21.116  1.00  0.00     0.120 C 
BRANCH  29  30
HETATM   30  C24 UNL     1       2.338   9.497  21.879  1.00  0.00     0.112 C 
BRANCH  30  31
HETATM   31  C25 UNL     1       3.449   9.804  22.865  1.00  0.00     0.218 C 
HETATM   32  O7  UNL     1       3.434   9.430  24.031  1.00  0.00    -0.274 OA
HETATM   33  N1  UNL     1       4.458  10.565  22.318  1.00  0.00    -0.357 N 
HETATM   34  H34 UNL     1       4.493  10.682  21.316  1.00  0.00     0.162 HD
BRANCH  33  35
HETATM   35  C26 UNL     1       5.651  10.888  23.069  1.00  0.00     0.161 C 
BRANCH  35  36
HETATM   36  C27 UNL     1       6.004  12.343  22.926  1.00  0.00    -0.038 A 
HETATM   37  C28 UNL     1       5.078  13.266  22.430  1.00  0.00     0.025 A 
HETATM   38  C29 UNL     1       5.467  14.591  22.299  1.00  0.00     0.088 A 
HETATM   39  N2  UNL     1       6.697  15.050  22.615  1.00  0.00    -0.375 N 
HETATM   40  C30 UNL     1       7.580  14.142  23.085  1.00  0.00     0.088 A 
ATOM     41  H2  UNL     1       6.947  16.032  22.503  1.00  0.00     0.164 HD
HETATM   42  C31 UNL     1       7.286  12.799  23.254  1.00  0.00     0.025 A 
ENDBRANCH  35  36
ENDBRANCH  33  35
ENDBRANCH  30  31
ENDBRANCH  29  30
ENDBRANCH  27  29
ENDBRANCH  26  27
ENDBRANCH  25  26
ENDBRANCH  23  25
ENDBRANCH  20  23
BRANCH  13  43
HETATM   43  O2  UNL     1      -0.468   8.486  14.690  1.00  0.00    -0.395 OA
HETATM   44  H16 UNL     1      -0.906   9.149  14.133  1.00  0.00     0.210 HD
ENDBRANCH  13  43
TORSDOF 11
ENDMDL
MODEL 3
REMARK minimizedAffinity -10.0481462
REMARK CNNscore 0.608904719
REMARK CNNaffinity 7.16581106
REMARK  11 active torsions:
REMARK  status: ('A' for Active; 'I' for Inactive)
REMARK    1  A    between atoms: C12_13  and  O2_14 
REMARK    2  A    between atoms: C19_21  and  O3_22 
REMARK    3  A    between atoms: C19_21  and  C20_23 
REMARK    4  A    between atoms: C20_23  and  C21_25 
REMARK    5  A    between atoms: C21_25  and  O5_26 
REMARK    6  A    between atoms: O5_26  and  C22_27 
REMARK    7  A    between atoms: C22_27  and  C23_29 
REMARK    8  A    between atoms: C23_29  and  C24_30 
REMARK    9  A    between atoms: C24_30  and  C25_31 
REMARK       I    between atoms: C25_31  and  N1_33 
REMARK   10  A    between atoms: N1_33  and  C26_34 
REMARK   11  A    between atoms: C26_34  and  C27_35 
ROOT
HETATM    1  C1  UNL     1       3.937   7.040   9.959  1.00  0.00     0.020 C 
HETATM    2  C2  UNL     1       2.709   6.184   9.581  1.00  0.00    -0.014 C 
HETATM    3  C3  UNL     1       3.122   4.681   9.576  1.00  0.00     0.022 C 
HETATM    4  C4  UNL     1       4.016   4.294   8.407  1.00  0.00     0.084 C 
HETATM    5  C5  UNL     1       3.365   4.667   7.102  1.00  0.00     0.149 C 
HETATM    6  O1  UNL     1       3.561   4.035   6.066  1.00  0.00    -0.293 OA
HETATM    7  C6  UNL     1       2.541   5.898   7.060  1.00  0.00     0.053 C 
HETATM    8  C7  UNL     1       2.283   6.613   8.170  1.00  0.00    -0.068 C 
HETATM    9  C8  UNL     1       1.578   7.943   8.057  1.00  0.00     0.035 C 
HETATM   10  C9  UNL     1       0.393   8.040   9.004  1.00  0.00     0.010 C 
HETATM   11  C10 UNL     1       0.792   7.748  10.461  1.00  0.00    -0.002 C 
HETATM   12  C11 UNL     1       1.482   6.352  10.565  1.00  0.00     0.031 C 
HETATM   13  C12 UNL     1       1.735   5.926  12.043  1.00  0.00     0.124 C 
HETATM   14  C13 UNL     1       0.511   6.109  12.965  1.00  0.00     0.045 C 
HETATM   15  C14 UNL     1      -0.153   7.501  12.863  1.00  0.00     0.001 C 
HETATM   16  C15 UNL     1       0.746   8.597  13.496  1.00  0.00     0.019 C 
HETATM   17  C16 UNL     1      -0.453   7.751  11.364  1.00  0.00     0.002 C 
HETATM   18  C17 UNL     1      -1.339   8.989  11.384  1.00  0.00     0.009 C 
HETATM   19  C18 UNL     1      -2.204   8.813  12.647  1.00  0.00     0.047 C 
HETATM   20  C19 UNL     1      -1.601   7.614  13.447  1.00  0.00     0.128 C 
ENDROOT
BRANCH  20  21
HETATM   21  O3  UNL     1      -2.365   6.461  13.080  1.00  0.00    -0.381 OA
HETATM   22  H27 UNL     1      -3.268   6.592  13.441  1.00  0.00     0.211 HD
ENDBRANCH  20  21
BRANCH  20  23
HETATM   23  C20 UNL     1      -1.664   7.846  14.980  1.00  0.00     0.185 C 
HETATM   24  O4  UNL     1      -0.684   8.259  15.610  1.00  0.00    -0.292 OA
BRANCH  23  25
HETATM   25  C21 UNL     1      -2.940   7.460  15.738  1.00  0.00     0.260 C 
BRANCH  25  26
HETATM   26  O5  UNL     1      -4.194   7.442  15.073  1.00  0.00    -0.314 OA
BRANCH  26  27
HETATM   27  C22 UNL     1      -4.997   8.504  15.343  1.00  0.00     0.259 C 
HETATM   28  O6  UNL     1      -4.589   9.637  15.576  1.00  0.00    -0.265 OA
BRANCH  27  29
HETATM   29  C23 UNL     1      -6.462   8.163  15.199  1.00  0.00     0.120 C 
BRANCH  29  30
HETATM   30  C24 UNL     1      -6.837   6.750  15.627  1.00  0.00     0.112 C 
BRANCH  30  31
HETATM   31  C25 UNL     1      -7.572   5.992  14.539  1.00  0.00     0.218 C 
HETATM   32  O7  UNL     1      -8.369   6.521  13.774  1.00  0.00    -0.274 OA
HETATM   33  N1  UNL     1      -7.267   4.650  14.518  1.00  0.00    -0.357 N 
HETATM   34  H34 UNL     1      -6.475   4.320  15.050  1.00  0.00     0.162 HD
BRANCH  33  35
HETATM   35  C26 UNL     1      -7.794   3.772  13.496  1.00  0.00     0.161 C 
BRANCH  35  36
HETATM   36  C27 UNL     1      -6.691   3.222  12.633  1.00  0.00    -0.038 A 
HETATM   37  C28 UNL     1      -5.572   3.996  12.311  1.00  0.00     0.025 A 
HETATM   38  C29 UNL     1      -4.597   3.444  11.492  1.00  0.00     0.088 A 
HETATM   39  N2  UNL     1      -4.665   2.199  10.976  1.00  0.00    -0.375 N 
HETATM   40  C30 UNL     1      -5.757   1.470  11.292  1.00  0.00     0.088 A 
ATOM     41  H2  UNL     1      -3.928   1.827  10.376  1.00  0.00     0.164 HD
HETATM   42  C31 UNL     1      -6.781   1.931  12.103  1.00  0.00     0.025 A 
ENDBRANCH  35  36
ENDBRANCH  33  35
ENDBRANCH  30  31
ENDBRANCH  29  30
ENDBRANCH  27  29
ENDBRANCH  26  27
ENDBRANCH  25  26
ENDBRANCH  23  25
ENDBRANCH  20  23
BRANCH  13  43
HETATM   43  O2  UNL     1       2.857   6.566  12.635  1.00  0.00    -0.395 OA
HETATM   44  H16 UNL     1       2.902   7.484  12.325  1.00  0.00     0.210 HD
ENDBRANCH  13  43
TORSDOF 11
ENDMDL
MODEL 4
REMARK minimizedAffinity -7.7804389
REMARK CNNscore 0.5778808
REMARK CNNaffinity 7.43876266
REMARK  11 active torsions:
REMARK  status: ('A' for Active; 'I' for Inactive)
REMARK    1  A    between atoms: C12_13  and  O2_14 
REMARK    2  A    between atoms: C19_21  and  O3_22 
REMARK    3  A    between atoms: C19_21  and  C20_23 
REMARK    4  A    between atoms: C20_23  and  C21_25 
REMARK    5  A    between atoms: C21_25  and  O5_26 
REMARK    6  A    between atoms: O5_26  and  C22_27 
REMARK    7  A    between atoms: C22_27  and  C23_29 
REMARK    8  A    between atoms: C23_29  and  C24_30 
REMARK    9  A    between atoms: C24_30  and  C25_31 
REMARK       I    between atoms: C25_31  and  N1_33 
REMARK   10  A    between atoms: N1_33  and  C26_34 
REMARK   11  A    between atoms: C26_34  and  C27_35 
ROOT
HETATM    1  C1  UNL     1      -7.439   4.308  14.855  1.00  0.00     0.020 C 
HETATM    2  C2  UNL     1      -7.052   5.710  14.339  1.00  0.00    -0.014 C 
HETATM    3  C3  UNL     1      -6.162   5.555  13.069  1.00  0.00     0.022 C 
HETATM    4  C4  UNL     1      -4.759   5.044  13.362  1.00  0.00     0.084 C 
HETATM    5  C5  UNL     1      -4.081   5.925  14.377  1.00  0.00     0.149 C 
HETATM    6  O1  UNL     1      -2.863   6.089  14.395  1.00  0.00    -0.293 OA
HETATM    7  C6  UNL     1      -4.914   6.528  15.444  1.00  0.00     0.053 C 
HETATM    8  C7  UNL     1      -6.252   6.393  15.457  1.00  0.00    -0.068 C 
HETATM    9  C8  UNL     1      -7.043   6.883  16.645  1.00  0.00     0.035 C 
HETATM   10  C9  UNL     1      -8.203   7.772  16.227  1.00  0.00     0.010 C 
HETATM   11  C10 UNL     1      -9.118   7.083  15.201  1.00  0.00    -0.002 C 
HETATM   12  C11 UNL     1      -8.291   6.620  13.961  1.00  0.00     0.031 C 
HETATM   13  C12 UNL     1      -9.197   6.086  12.811  1.00  0.00     0.124 C 
HETATM   14  C13 UNL     1     -10.392   7.006  12.480  1.00  0.00     0.045 C 
HETATM   15  C14 UNL     1     -11.212   7.444  13.714  1.00  0.00     0.001 C 
HETATM   16  C15 UNL     1     -12.022   6.256  14.298  1.00  0.00     0.019 C 
HETATM   17  C16 UNL     1     -10.212   8.055  14.727  1.00  0.00     0.002 C 
HETATM   18  C17 UNL     1     -11.116   8.702  15.768  1.00  0.00     0.009 C 
HETATM   19  C18 UNL     1     -12.300   9.251  14.948  1.00  0.00     0.047 C 
HETATM   20  C19 UNL     1     -12.162   8.671  13.505  1.00  0.00     0.128 C 
ENDROOT
BRANCH  20  21
HETATM   21  O3  UNL     1     -11.499   9.674  12.729  1.00  0.00    -0.381 OA
HETATM   22  H27 UNL     1     -12.119  10.430  12.652  1.00  0.00     0.211 HD
ENDBRANCH  20  21
BRANCH  20  23
HETATM   23  C20 UNL     1     -13.540   8.322  12.882  1.00  0.00     0.185 C 
HETATM   24  O4  UNL     1     -14.130   9.114  12.139  1.00  0.00    -0.292 OA
BRANCH  23  25
HETATM   25  C21 UNL     1     -14.222   7.007  13.277  1.00  0.00     0.260 C 
BRANCH  25  26
HETATM   26  O5  UNL     1     -15.509   7.014  13.875  1.00  0.00    -0.314 OA
BRANCH  26  27
HETATM   27  C22 UNL     1     -15.515   6.820  15.219  1.00  0.00     0.259 C 
HETATM   28  O6  UNL     1     -15.093   7.631  16.036  1.00  0.00    -0.265 OA
BRANCH  27  29
HETATM   29  C23 UNL     1     -16.219   5.541  15.608  1.00  0.00     0.120 C 
BRANCH  29  30
HETATM   30  C24 UNL     1     -16.408   4.542  14.473  1.00  0.00     0.112 C 
BRANCH  30  31
HETATM   31  C25 UNL     1     -15.596   3.277  14.676  1.00  0.00     0.218 C 
HETATM   32  O7  UNL     1     -14.372   3.265  14.723  1.00  0.00    -0.274 OA
HETATM   33  N1  UNL     1     -16.377   2.147  14.776  1.00  0.00    -0.357 N 
HETATM   34  H34 UNL     1     -17.372   2.251  14.911  1.00  0.00     0.162 HD
BRANCH  33  35
HETATM   35  C26 UNL     1     -15.797   0.853  15.063  1.00  0.00     0.161 C 
BRANCH  35  36
HETATM   36  C27 UNL     1     -16.611   0.110  16.087  1.00  0.00    -0.038 A 
HETATM   37  C28 UNL     1     -16.111  -1.033  16.717  1.00  0.00     0.025 A 
HETATM   38  C29 UNL     1     -16.917  -1.690  17.637  1.00  0.00     0.088 A 
HETATM   39  N2  UNL     1     -18.167  -1.296  17.959  1.00  0.00    -0.375 N 
HETATM   40  C30 UNL     1     -18.635  -0.194  17.334  1.00  0.00     0.088 A 
ATOM     41  H2  UNL     1     -18.730  -1.805  18.640  1.00  0.00     0.164 HD
HETATM   42  C31 UNL     1     -17.908   0.531  16.404  1.00  0.00     0.025 A 
ENDBRANCH  35  36
ENDBRANCH  33  35
ENDBRANCH  30  31
ENDBRANCH  29  30
ENDBRANCH  27  29
ENDBRANCH  26  27
ENDBRANCH  25  26
ENDBRANCH  23  25
ENDBRANCH  20  23
BRANCH  13  43
HETATM   43  O2  UNL     1      -9.677   4.768  13.030  1.00  0.00    -0.395 OA
HETATM   44  H16 UNL     1      -9.882   4.653  13.971  1.00  0.00     0.210 HD
ENDBRANCH  13  43
TORSDOF 11
ENDMDL
MODEL 5
REMARK minimizedAffinity -8.32515812
REMARK CNNscore 0.530380249
REMARK CNNaffinity 6.67284632
REMARK  11 active torsions:
REMARK  status: ('A' for Active; 'I' for Inactive)
REMARK    1  A    between atoms: C12_13  and  O2_14 
REMARK    2  A    between atoms: C19_21  and  O3_22 
REMARK    3  A    between atoms: C19_21  and  C20_23 
REMARK    4  A    between atoms: C20_23  and  C21_25 
REMARK    5  A    between atoms: C21_25  and  O5_26 
REMARK    6  A    between atoms: O5_26  and  C22_27 
REMARK    7  A    between atoms: C22_27  and  C23_29 
REMARK    8  A    between atoms: C23_29  and  C24_30 
REMARK    9  A    between atoms: C24_30  and  C25_31 
REMARK       I    between atoms: C25_31  and  N1_33 
REMARK   10  A    between atoms: N1_33  and  C26_34 
REMARK   11  A    between atoms: C26_34  and  C27_35 
ROOT
HETATM    1  C1  UNL     1       4.084   7.028   9.701  1.00  0.00     0.020 C 
HETATM    2  C2  UNL     1       2.841   6.158   9.414  1.00  0.00    -0.014 C 
HETATM    3  C3  UNL     1       3.252   4.656   9.462  1.00  0.00     0.022 C 
HETATM    4  C4  UNL     1       4.097   4.213   8.276  1.00  0.00     0.084 C 
HETATM    5  C5  UNL     1       3.393   4.526   6.983  1.00  0.00     0.149 C 
HETATM    6  O1  UNL     1       3.546   3.847   5.970  1.00  0.00    -0.293 OA
HETATM    7  C6  UNL     1       2.570   5.756   6.918  1.00  0.00     0.053 C 
HETATM    8  C7  UNL     1       2.357   6.522   8.003  1.00  0.00    -0.068 C 
HETATM    9  C8  UNL     1       1.650   7.848   7.858  1.00  0.00     0.035 C 
HETATM   10  C9  UNL     1       0.505   7.992   8.847  1.00  0.00     0.010 C 
HETATM   11  C10 UNL     1       0.963   7.767  10.298  1.00  0.00    -0.002 C 
HETATM   12  C11 UNL     1       1.655   6.375  10.439  1.00  0.00     0.031 C 
HETATM   13  C12 UNL     1       1.968   6.017  11.923  1.00  0.00     0.124 C 
HETATM   14  C13 UNL     1       0.783   6.246  12.885  1.00  0.00     0.045 C 
HETATM   15  C14 UNL     1       0.117   7.634  12.745  1.00  0.00     0.001 C 
HETATM   16  C15 UNL     1       1.042   8.755  13.289  1.00  0.00     0.019 C 
HETATM   17  C16 UNL     1      -0.244   7.815  11.250  1.00  0.00     0.002 C 
HETATM   18  C17 UNL     1      -1.127   9.055  11.248  1.00  0.00     0.009 C 
HETATM   19  C18 UNL     1      -1.940   8.940  12.553  1.00  0.00     0.047 C 
HETATM   20  C19 UNL     1      -1.306   7.778  13.382  1.00  0.00     0.128 C 
ENDROOT
BRANCH  20  21
HETATM   21  O3  UNL     1      -2.086   6.611  13.101  1.00  0.00    -0.381 OA
HETATM   22  H27 UNL     1      -2.973   6.761  13.491  1.00  0.00     0.211 HD
ENDBRANCH  20  21
BRANCH  20  23
HETATM   23  C20 UNL     1      -1.306   8.080  14.904  1.00  0.00     0.185 C 
HETATM   24  O4  UNL     1      -1.062   7.199  15.735  1.00  0.00    -0.292 OA
BRANCH  23  25
HETATM   25  C21 UNL     1      -1.712   9.479  15.384  1.00  0.00     0.260 C 
BRANCH  25  26
HETATM   26  O5  UNL     1      -0.723  10.439  15.724  1.00  0.00    -0.314 OA
BRANCH  26  27
HETATM   27  C22 UNL     1      -0.253  10.346  16.995  1.00  0.00     0.259 C 
HETATM   28  O6  UNL     1      -0.951  10.440  17.998  1.00  0.00    -0.265 OA
BRANCH  27  29
HETATM   29  C23 UNL     1       1.215   9.988  17.035  1.00  0.00     0.120 C 
BRANCH  29  30
HETATM   30  C24 UNL     1       2.102  10.995  17.757  1.00  0.00     0.112 C 
BRANCH  30  31
HETATM   31  C25 UNL     1       2.272  10.665  19.227  1.00  0.00     0.218 C 
HETATM   32  O7  UNL     1       2.564   9.547  19.635  1.00  0.00    -0.274 OA
HETATM   33  N1  UNL     1       2.042  11.744  20.051  1.00  0.00    -0.357 N 
HETATM   34  H34 UNL     1       1.987  12.666  19.644  1.00  0.00     0.162 HD
BRANCH  33  35
HETATM   35  C26 UNL     1       2.243  11.657  21.481  1.00  0.00     0.161 C 
BRANCH  35  36
HETATM   36  C27 UNL     1       3.617  12.136  21.865  1.00  0.00    -0.038 A 
HETATM   37  C28 UNL     1       4.482  11.328  22.609  1.00  0.00     0.025 A 
HETATM   38  C29 UNL     1       5.729  11.830  22.953  1.00  0.00     0.088 A 
HETATM   39  N2  UNL     1       6.161  13.065  22.618  1.00  0.00    -0.375 N 
HETATM   40  C30 UNL     1       5.308  13.833  21.905  1.00  0.00     0.088 A 
ATOM     41  H2  UNL     1       7.084  13.401  22.890  1.00  0.00     0.164 HD
HETATM   42  C31 UNL     1       4.045  13.420  21.513  1.00  0.00     0.025 A 
ENDBRANCH  35  36
ENDBRANCH  33  35
ENDBRANCH  30  31
ENDBRANCH  29  30
ENDBRANCH  27  29
ENDBRANCH  26  27
ENDBRANCH  25  26
ENDBRANCH  23  25
ENDBRANCH  20  23
BRANCH  13  43
HETATM   43  O2  UNL     1       3.114   6.680  12.438  1.00  0.00    -0.395 OA
HETATM   44  H16 UNL     1       3.148   7.583  12.085  1.00  0.00     0.210 HD
ENDBRANCH  13  43
TORSDOF 11
ENDMDL
MODEL 6
REMARK minimizedAffinity -8.00871086
REMARK CNNscore 0.506641626
REMARK CNNaffinity 6.59037828
REMARK  11 active torsions:
REMARK  status: ('A' for Active; 'I' for Inactive)
REMARK    1  A    between atoms: C12_13  and  O2_14 
REMARK    2  A    between atoms: C19_21  and  O3_22 
REMARK    3  A    between atoms: C19_21  and  C20_23 
REMARK    4  A    between atoms: C20_23  and  C21_25 
REMARK    5  A    between atoms: C21_25  and  O5_26 
REMARK    6  A    between atoms: O5_26  and  C22_27 
REMARK    7  A    between atoms: C22_27  and  C23_29 
REMARK    8  A    between atoms: C23_29  and  C24_30 
REMARK    9  A    between atoms: C24_30  and  C25_31 
REMARK       I    between atoms: C25_31  and  N1_33 
REMARK   10  A    between atoms: N1_33  and  C26_34 
REMARK   11  A    between atoms: C26_34  and  C27_35 
ROOT
HETATM    1  C1  UNL     1       4.148   6.855   9.645  1.00  0.00     0.020 C 
HETATM    2  C2  UNL     1       2.893   6.010   9.335  1.00  0.00    -0.014 C 
HETATM    3  C3  UNL     1       3.267   4.500   9.416  1.00  0.00     0.022 C 
HETATM    4  C4  UNL     1       4.135   4.020   8.262  1.00  0.00     0.084 C 
HETATM    5  C5  UNL     1       3.475   4.330   6.944  1.00  0.00     0.149 C 
HETATM    6  O1  UNL     1       3.640   3.632   5.946  1.00  0.00    -0.293 OA
HETATM    7  C6  UNL     1       2.683   5.578   6.839  1.00  0.00     0.053 C 
HETATM    8  C7  UNL     1       2.458   6.365   7.906  1.00  0.00    -0.068 C 
HETATM    9  C8  UNL     1       1.787   7.704   7.721  1.00  0.00     0.035 C 
HETATM   10  C9  UNL     1       0.618   7.889   8.676  1.00  0.00     0.010 C 
HETATM   11  C10 UNL     1       1.030   7.676  10.142  1.00  0.00    -0.002 C 
HETATM   12  C11 UNL     1       1.684   6.270  10.322  1.00  0.00     0.031 C 
HETATM   13  C12 UNL     1       1.947   5.927  11.820  1.00  0.00     0.124 C 
HETATM   14  C13 UNL     1       0.740   6.198  12.744  1.00  0.00     0.045 C 
HETATM   15  C14 UNL     1       0.112   7.598  12.566  1.00  0.00     0.001 C 
HETATM   16  C15 UNL     1       1.048   8.706  13.120  1.00  0.00     0.019 C 
HETATM   17  C16 UNL     1      -0.202   7.766  11.059  1.00  0.00     0.002 C 
HETATM   18  C17 UNL     1      -1.056   9.026  11.014  1.00  0.00     0.009 C 
HETATM   19  C18 UNL     1      -1.907   8.949  12.296  1.00  0.00     0.047 C 
HETATM   20  C19 UNL     1      -1.325   7.785  13.159  1.00  0.00     0.128 C 
ENDROOT
BRANCH  20  21
HETATM   21  O3  UNL     1      -2.124   6.632  12.873  1.00  0.00    -0.381 OA
HETATM   22  H27 UNL     1      -3.018   6.809  13.236  1.00  0.00     0.211 HD
ENDBRANCH  20  21
BRANCH  20  23
HETATM   23  C20 UNL     1      -1.360   8.110  14.676  1.00  0.00     0.185 C 
HETATM   24  O4  UNL     1      -0.560   8.902  15.185  1.00  0.00    -0.292 OA
BRANCH  23  25
HETATM   25  C21 UNL     1      -2.350   7.356  15.574  1.00  0.00     0.260 C 
BRANCH  25  26
HETATM   26  O5  UNL     1      -3.749   7.516  15.397  1.00  0.00    -0.314 OA
BRANCH  26  27
HETATM   27  C22 UNL     1      -4.166   8.804  15.291  1.00  0.00     0.259 C 
HETATM   28  O6  UNL     1      -4.686   9.282  14.288  1.00  0.00    -0.265 OA
BRANCH  27  29
HETATM   29  C23 UNL     1      -4.034   9.556  16.595  1.00  0.00     0.120 C 
BRANCH  29  30
HETATM   30  C24 UNL     1      -3.525  10.986  16.463  1.00  0.00     0.112 C 
BRANCH  30  31
HETATM   31  C25 UNL     1      -3.188  11.606  17.806  1.00  0.00     0.218 C 
HETATM   32  O7  UNL     1      -3.943  11.570  18.770  1.00  0.00    -0.274 OA
HETATM   33  N1  UNL     1      -1.960  12.229  17.818  1.00  0.00    -0.357 N 
HETATM   34  H34 UNL     1      -1.321  12.064  17.054  1.00  0.00     0.162 HD
BRANCH  33  35
HETATM   35  C26 UNL     1      -1.417  12.802  19.030  1.00  0.00     0.161 C 
BRANCH  35  36
HETATM   36  C27 UNL     1      -0.034  12.277  19.303  1.00  0.00    -0.038 A 
HETATM   37  C28 UNL     1       0.854  12.975  20.128  1.00  0.00     0.025 A 
HETATM   38  C29 UNL     1       2.125  12.455  20.325  1.00  0.00     0.088 A 
HETATM   39  N2  UNL     1       2.565  11.310  19.761  1.00  0.00    -0.375 N 
HETATM   40  C30 UNL     1       1.696  10.654  18.962  1.00  0.00     0.088 A 
ATOM     41  H2  UNL     1       3.508  10.958  19.929  1.00  0.00     0.164 HD
HETATM   42  C31 UNL     1       0.407  11.092  18.705  1.00  0.00     0.025 A 
ENDBRANCH  35  36
ENDBRANCH  33  35
ENDBRANCH  30  31
ENDBRANCH  29  30
ENDBRANCH  27  29
ENDBRANCH  26  27
ENDBRANCH  25  26
ENDBRANCH  23  25
ENDBRANCH  20  23
BRANCH  13  43
HETATM   43  O2  UNL     1       3.093   6.571  12.358  1.00  0.00    -0.395 OA
HETATM   44  H16 UNL     1       3.158   7.467  11.993  1.00  0.00     0.210 HD
ENDBRANCH  13  43
TORSDOF 11
ENDMDL
MODEL 7
REMARK minimizedAffinity -7.99131823
REMARK CNNscore 0.473687232
REMARK CNNaffinity 7.53672791
REMARK  11 active torsions:
REMARK  status: ('A' for Active; 'I' for Inactive)
REMARK    1  A    between atoms: C12_13  and  O2_14 
REMARK    2  A    between atoms: C19_21  and  O3_22 
REMARK    3  A    between atoms: C19_21  and  C20_23 
REMARK    4  A    between atoms: C20_23  and  C21_25 
REMARK    5  A    between atoms: C21_25  and  O5_26 
REMARK    6  A    between atoms: O5_26  and  C22_27 
REMARK    7  A    between atoms: C22_27  and  C23_29 
REMARK    8  A    between atoms: C23_29  and  C24_30 
REMARK    9  A    between atoms: C24_30  and  C25_31 
REMARK       I    between atoms: C25_31  and  N1_33 
REMARK   10  A    between atoms: N1_33  and  C26_34 
REMARK   11  A    between atoms: C26_34  and  C27_35 
ROOT
HETATM    1  C1  UNL     1      -7.451   4.281  14.883  1.00  0.00     0.020 C 
HETATM    2  C2  UNL     1      -7.042   5.682  14.379  1.00  0.00    -0.014 C 
HETATM    3  C3  UNL     1      -6.132   5.523  13.125  1.00  0.00     0.022 C 
HETATM    4  C4  UNL     1      -4.739   4.996  13.438  1.00  0.00     0.084 C 
HETATM    5  C5  UNL     1      -4.069   5.866  14.469  1.00  0.00     0.149 C 
HETATM    6  O1  UNL     1      -2.850   6.017  14.508  1.00  0.00    -0.293 OA
HETATM    7  C6  UNL     1      -4.913   6.473  15.524  1.00  0.00     0.053 C 
HETATM    8  C7  UNL     1      -6.253   6.351  15.514  1.00  0.00    -0.068 C 
HETATM    9  C8  UNL     1      -7.059   6.845  16.692  1.00  0.00     0.035 C 
HETATM   10  C9  UNL     1      -8.202   7.747  16.258  1.00  0.00     0.010 C 
HETATM   11  C10 UNL     1      -9.107   7.072  15.214  1.00  0.00    -0.002 C 
HETATM   12  C11 UNL     1      -8.264   6.606  13.986  1.00  0.00     0.031 C 
HETATM   13  C12 UNL     1      -9.156   6.087  12.818  1.00  0.00     0.124 C 
HETATM   14  C13 UNL     1     -10.336   7.020  12.471  1.00  0.00     0.045 C 
HETATM   15  C14 UNL     1     -11.172   7.461  13.693  1.00  0.00     0.001 C 
HETATM   16  C15 UNL     1     -12.004   6.280  14.258  1.00  0.00     0.019 C 
HETATM   17  C16 UNL     1     -10.183   8.058  14.725  1.00  0.00     0.002 C 
HETATM   18  C17 UNL     1     -11.098   8.709  15.754  1.00  0.00     0.009 C 
HETATM   19  C18 UNL     1     -12.262   9.274  14.917  1.00  0.00     0.047 C 
HETATM   20  C19 UNL     1     -12.106   8.699  13.474  1.00  0.00     0.128 C 
ENDROOT
BRANCH  20  21
HETATM   21  O3  UNL     1     -11.419   9.699  12.714  1.00  0.00    -0.381 OA
HETATM   22  H27 UNL     1     -12.030  10.461  12.629  1.00  0.00     0.211 HD
ENDBRANCH  20  21
BRANCH  20  23
HETATM   23  C20 UNL     1     -13.476   8.367  12.826  1.00  0.00     0.185 C 
HETATM   24  O4  UNL     1     -14.067   9.186  12.114  1.00  0.00    -0.292 OA
BRANCH  23  25
HETATM   25  C21 UNL     1     -14.151   7.031  13.159  1.00  0.00     0.260 C 
BRANCH  25  26
HETATM   26  O5  UNL     1     -15.494   6.997  13.618  1.00  0.00    -0.314 OA
BRANCH  26  27
HETATM   27  C22 UNL     1     -15.671   6.388  14.818  1.00  0.00     0.259 C 
HETATM   28  O6  UNL     1     -16.148   6.935  15.807  1.00  0.00    -0.265 OA
BRANCH  27  29
HETATM   29  C23 UNL     1     -15.330   4.916  14.768  1.00  0.00     0.120 C 
BRANCH  29  30
HETATM   30  C24 UNL     1     -16.446   3.983  15.221  1.00  0.00     0.112 C 
BRANCH  30  31
HETATM   31  C25 UNL     1     -16.973   3.121  14.090  1.00  0.00     0.218 C 
HETATM   32  O7  UNL     1     -17.478   3.582  13.074  1.00  0.00    -0.274 OA
HETATM   33  N1  UNL     1     -16.846   1.773  14.337  1.00  0.00    -0.357 N 
HETATM   34  H34 UNL     1     -16.262   1.469  15.102  1.00  0.00     0.162 HD
BRANCH  33  35
HETATM   35  C26 UNL     1     -17.206   0.786  13.342  1.00  0.00     0.161 C 
BRANCH  35  36
HETATM   36  C27 UNL     1     -16.239  -0.367  13.348  1.00  0.00    -0.038 A 
HETATM   37  C28 UNL     1     -15.634  -0.808  12.168  1.00  0.00     0.025 A 
HETATM   38  C29 UNL     1     -14.768  -1.891  12.231  1.00  0.00     0.088 A 
HETATM   39  N2  UNL     1     -14.477  -2.556  13.369  1.00  0.00    -0.375 N 
HETATM   40  C30 UNL     1     -15.077  -2.119  14.497  1.00  0.00     0.088 A 
ATOM     41  H2  UNL     1     -13.835  -3.349  13.377  1.00  0.00     0.164 HD
HETATM   42  C31 UNL     1     -15.954  -1.047  14.537  1.00  0.00     0.025 A 
ENDBRANCH  35  36
ENDBRANCH  33  35
ENDBRANCH  30  31
ENDBRANCH  29  30
ENDBRANCH  27  29
ENDBRANCH  26  27
ENDBRANCH  25  26
ENDBRANCH  23  25
ENDBRANCH  20  23
BRANCH  13  43
HETATM   43  O2  UNL     1      -9.654   4.772  13.023  1.00  0.00    -0.395 OA
HETATM   44  H16 UNL     1      -9.875   4.656  13.960  1.00  0.00     0.210 HD
ENDBRANCH  13  43
TORSDOF 11
ENDMDL
MODEL 8
REMARK minimizedAffinity -8.81908512
REMARK CNNscore 0.440314025
REMARK CNNaffinity 6.91908503
REMARK  11 active torsions:
REMARK  status: ('A' for Active; 'I' for Inactive)
REMARK    1  A    between atoms: C12_13  and  O2_14 
REMARK    2  A    between atoms: C19_21  and  O3_22 
REMARK    3  A    between atoms: C19_21  and  C20_23 
REMARK    4  A    between atoms: C20_23  and  C21_25 
REMARK    5  A    between atoms: C21_25  and  O5_26 
REMARK    6  A    between atoms: O5_26  and  C22_27 
REMARK    7  A    between atoms: C22_27  and  C23_29 
REMARK    8  A    between atoms: C23_29  and  C24_30 
REMARK    9  A    between atoms: C24_30  and  C25_31 
REMARK       I    between atoms: C25_31  and  N1_33 
REMARK   10  A    between atoms: N1_33  and  C26_34 
REMARK   11  A    between atoms: C26_34  and  C27_35 
ROOT
HETATM    1  C1  UNL     1       0.920   6.311  11.320  1.00  0.00     0.020 C 
HETATM    2  C2  UNL     1       0.857   7.818  10.993  1.00  0.00    -0.014 C 
HETATM    3  C3  UNL     1       0.158   8.010   9.614  1.00  0.00     0.022 C 
HETATM    4  C4  UNL     1       1.007   7.573   8.429  1.00  0.00     0.084 C 
HETATM    5  C5  UNL     1       2.337   8.279   8.449  1.00  0.00     0.149 C 
HETATM    6  O1  UNL     1       2.957   8.541   7.420  1.00  0.00    -0.293 OA
HETATM    7  C6  UNL     1       2.952   8.572   9.765  1.00  0.00     0.053 C 
HETATM    8  C7  UNL     1       2.307   8.320  10.917  1.00  0.00    -0.068 C 
HETATM    9  C8  UNL     1       3.030   8.481  12.232  1.00  0.00     0.035 C 
HETATM   10  C9  UNL     1       2.242   9.333  13.213  1.00  0.00     0.010 C 
HETATM   11  C10 UNL     1       0.817   8.796  13.430  1.00  0.00    -0.002 C 
HETATM   12  C11 UNL     1       0.070   8.675  12.066  1.00  0.00     0.031 C 
HETATM   13  C12 UNL     1      -1.437   8.316  12.245  1.00  0.00     0.124 C 
HETATM   14  C13 UNL     1      -2.162   9.176  13.302  1.00  0.00     0.045 C 
HETATM   15  C14 UNL     1      -1.419   9.275  14.653  1.00  0.00     0.001 C 
HETATM   16  C15 UNL     1      -1.468   7.925  15.418  1.00  0.00     0.019 C 
HETATM   17  C16 UNL     1       0.023   9.746  14.343  1.00  0.00     0.002 C 
HETATM   18  C17 UNL     1       0.588  10.081  15.717  1.00  0.00     0.009 C 
HETATM   19  C18 UNL     1      -0.609  10.683  16.479  1.00  0.00     0.047 C 
HETATM   20  C19 UNL     1      -1.878  10.431  15.605  1.00  0.00     0.128 C 
ENDROOT
BRANCH  20  21
HETATM   21  O3  UNL     1      -2.091  11.628  14.849  1.00  0.00    -0.381 OA
HETATM   22  H27 UNL     1      -2.346  12.326  15.489  1.00  0.00     0.211 HD
ENDBRANCH  20  21
BRANCH  20  23
HETATM   23  C20 UNL     1      -3.125  10.101  16.468  1.00  0.00     0.185 C 
HETATM   24  O4  UNL     1      -3.053  10.019  17.699  1.00  0.00    -0.292 OA
BRANCH  23  25
HETATM   25  C21 UNL     1      -4.449   9.776  15.765  1.00  0.00     0.260 C 
BRANCH  25  26
HETATM   26  O5  UNL     1      -4.831   8.429  15.536  1.00  0.00    -0.314 OA
BRANCH  26  27
HETATM   27  C22 UNL     1      -5.766   8.258  14.567  1.00  0.00     0.259 C 
HETATM   28  O6  UNL     1      -5.511   8.143  13.373  1.00  0.00    -0.265 OA
BRANCH  27  29
HETATM   29  C23 UNL     1      -7.157   8.099  15.137  1.00  0.00     0.120 C 
BRANCH  29  30
HETATM   30  C24 UNL     1      -7.542   6.670  15.500  1.00  0.00     0.112 C 
BRANCH  30  31
HETATM   31  C25 UNL     1      -8.084   5.898  14.313  1.00  0.00     0.218 C 
HETATM   32  O7  UNL     1      -8.858   6.381  13.495  1.00  0.00    -0.274 OA
HETATM   33  N1  UNL     1      -7.635   4.598  14.266  1.00  0.00    -0.357 N 
HETATM   34  H34 UNL     1      -6.866   4.325  14.860  1.00  0.00     0.162 HD
BRANCH  33  35
HETATM   35  C26 UNL     1      -7.965   3.725  13.160  1.00  0.00     0.161 C 
BRANCH  35  36
HETATM   36  C27 UNL     1      -6.724   3.150  12.535  1.00  0.00    -0.038 A 
HETATM   37  C28 UNL     1      -6.755   1.929  11.856  1.00  0.00     0.025 A 
HETATM   38  C29 UNL     1      -5.574   1.437  11.319  1.00  0.00     0.088 A 
HETATM   39  N2  UNL     1      -4.384   2.066  11.418  1.00  0.00    -0.375 N 
HETATM   40  C30 UNL     1      -4.372   3.241  12.083  1.00  0.00     0.088 A 
ATOM     41  H2  UNL     1      -3.535   1.673  11.010  1.00  0.00     0.164 HD
HETATM   42  C31 UNL     1      -5.498   3.814  12.652  1.00  0.00     0.025 A 
ENDBRANCH  35  36
ENDBRANCH  33  35
ENDBRANCH  30  31
ENDBRANCH  29  30
ENDBRANCH  27  29
ENDBRANCH  26  27
ENDBRANCH  25  26
ENDBRANCH  23  25
ENDBRANCH  20  23
BRANCH  13  43
HETATM   43  O2  UNL     1      -1.663   6.944  12.534  1.00  0.00    -0.395 OA
HETATM   44  H16 UNL     1      -0.961   6.619  13.117  1.00  0.00     0.210 HD
ENDBRANCH  13  43
TORSDOF 11
ENDMDL
MODEL 9
REMARK minimizedAffinity -8.82735825
REMARK CNNscore 0.428193539
REMARK CNNaffinity 6.85362053
REMARK  11 active torsions:
REMARK  status: ('A' for Active; 'I' for Inactive)
REMARK    1  A    between atoms: C12_13  and  O2_14 
REMARK    2  A    between atoms: C19_21  and  O3_22 
REMARK    3  A    between atoms: C19_21  and  C20_23 
REMARK    4  A    between atoms: C20_23  and  C21_25 
REMARK    5  A    between atoms: C21_25  and  O5_26 
REMARK    6  A    between atoms: O5_26  and  C22_27 
REMARK    7  A    between atoms: C22_27  and  C23_29 
REMARK    8  A    between atoms: C23_29  and  C24_30 
REMARK    9  A    between atoms: C24_30  and  C25_31 
REMARK       I    between atoms: C25_31  and  N1_33 
REMARK   10  A    between atoms: N1_33  and  C26_34 
REMARK   11  A    between atoms: C26_34  and  C27_35 
ROOT
HETATM    1  C1  UNL     1       4.106   6.897   9.630  1.00  0.00     0.020 C 
HETATM    2  C2  UNL     1       2.860   6.040   9.320  1.00  0.00    -0.014 C 
HETATM    3  C3  UNL     1       3.251   4.533   9.389  1.00  0.00     0.022 C 
HETATM    4  C4  UNL     1       4.119   4.071   8.228  1.00  0.00     0.084 C 
HETATM    5  C5  UNL     1       3.450   4.382   6.916  1.00  0.00     0.149 C 
HETATM    6  O1  UNL     1       3.619   3.693   5.912  1.00  0.00    -0.293 OA
HETATM    7  C6  UNL     1       2.643   5.621   6.822  1.00  0.00     0.053 C 
HETATM    8  C7  UNL     1       2.415   6.399   7.895  1.00  0.00    -0.068 C 
HETATM    9  C8  UNL     1       1.727   7.731   7.722  1.00  0.00     0.035 C 
HETATM   10  C9  UNL     1       0.560   7.897   8.683  1.00  0.00     0.010 C 
HETATM   11  C10 UNL     1       0.981   7.678  10.146  1.00  0.00    -0.002 C 
HETATM   12  C11 UNL     1       1.652   6.279  10.314  1.00  0.00     0.031 C 
HETATM   13  C12 UNL     1       1.925   5.929  11.808  1.00  0.00     0.124 C 
HETATM   14  C13 UNL     1       0.720   6.181  12.739  1.00  0.00     0.045 C 
HETATM   15  C14 UNL     1       0.075   7.575  12.573  1.00  0.00     0.001 C 
HETATM   16  C15 UNL     1       1.000   8.689  13.131  1.00  0.00     0.019 C 
HETATM   17  C16 UNL     1      -0.248   7.748  11.069  1.00  0.00     0.002 C 
HETATM   18  C17 UNL     1      -1.116   8.999  11.036  1.00  0.00     0.009 C 
HETATM   19  C18 UNL     1      -1.961   8.904  12.321  1.00  0.00     0.047 C 
HETATM   20  C19 UNL     1      -1.362   7.741  13.174  1.00  0.00     0.128 C 
ENDROOT
BRANCH  20  21
HETATM   21  O3  UNL     1      -2.148   6.581  12.884  1.00  0.00    -0.381 OA
HETATM   22  H27 UNL     1      -3.043   6.745  13.251  1.00  0.00     0.211 HD
ENDBRANCH  20  21
BRANCH  20  23
HETATM   23  C20 UNL     1      -1.394   8.055  14.694  1.00  0.00     0.185 C 
HETATM   24  O4  UNL     1      -0.597   8.849  15.204  1.00  0.00    -0.292 OA
BRANCH  23  25
HETATM   25  C21 UNL     1      -2.376   7.290  15.589  1.00  0.00     0.260 C 
BRANCH  25  26
HETATM   26  O5  UNL     1      -3.676   7.802  15.835  1.00  0.00    -0.314 OA
BRANCH  26  27
HETATM   27  C22 UNL     1      -4.692   6.998  15.430  1.00  0.00     0.259 C 
HETATM   28  O6  UNL     1      -5.022   5.962  15.998  1.00  0.00    -0.265 OA
BRANCH  27  29
HETATM   29  C23 UNL     1      -5.459   7.588  14.269  1.00  0.00     0.120 C 
BRANCH  29  30
HETATM   30  C24 UNL     1      -5.671   6.642  13.093  1.00  0.00     0.112 C 
BRANCH  30  31
HETATM   31  C25 UNL     1      -6.939   5.821  13.234  1.00  0.00     0.218 C 
HETATM   32  O7  UNL     1      -6.938   4.604  13.366  1.00  0.00    -0.274 OA
HETATM   33  N1  UNL     1      -8.083   6.584  13.175  1.00  0.00    -0.357 N 
HETATM   34  H34 UNL     1      -8.006   7.588  13.248  1.00  0.00     0.162 HD
BRANCH  33  35
HETATM   35  C26 UNL     1      -9.391   6.000  13.380  1.00  0.00     0.161 C 
BRANCH  35  36
HETATM   36  C27 UNL     1     -10.260   6.899  14.215  1.00  0.00    -0.038 A 
HETATM   37  C28 UNL     1     -11.651   6.892  14.077  1.00  0.00     0.025 A 
HETATM   38  C29 UNL     1     -12.401   7.760  14.857  1.00  0.00     0.088 A 
HETATM   39  N2  UNL     1     -11.867   8.625  15.746  1.00  0.00    -0.375 N 
HETATM   40  C30 UNL     1     -10.521   8.623  15.860  1.00  0.00     0.088 A 
ATOM     41  H2  UNL     1     -12.450   9.250  16.302  1.00  0.00     0.164 HD
HETATM   42  C31 UNL     1      -9.688   7.793  15.127  1.00  0.00     0.025 A 
ENDBRANCH  35  36
ENDBRANCH  33  35
ENDBRANCH  30  31
ENDBRANCH  29  30
ENDBRANCH  27  29
ENDBRANCH  26  27
ENDBRANCH  25  26
ENDBRANCH  23  25
ENDBRANCH  20  23
BRANCH  13  43
HETATM   43  O2  UNL     1       3.066   6.583  12.346  1.00  0.00    -0.395 OA
HETATM   44  H16 UNL     1       3.119   7.482  11.986  1.00  0.00     0.210 HD
ENDBRANCH  13  43
TORSDOF 11
ENDMDL
