MODEL 1
REMARK minimizedAffinity -7.71145201
REMARK  12 active torsions:
REMARK  status: ('A' for Active; 'I' for Inactive)
REMARK    1  A    between atoms: C2_2  and  O1_3 
REMARK    2  A    between atoms: O1_3  and  C3_4 
REMARK    3  A    between atoms: C3_4  and  C4_6 
REMARK    4  A    between atoms: C6_8  and  N1_9 
REMARK       I    between atoms: N1_9  and  C7_10 
REMARK    5  A    between atoms: C7_10  and  C8_12 
REMARK    6  A    between atoms: C14_19  and  O4_20 
REMARK    7  A    between atoms: O4_20  and  C15_21 
REMARK    8  A    between atoms: C15_21  and  C16_22 
REMARK    9  A    between atoms: C16_22  and  O5_23 
REMARK   10  A    between atoms: C16_22  and  C17_24 
REMARK   11  A    between atoms: C17_24  and  N2_25 
REMARK   12  A    between atoms: N2_25  and  C18_26 
ROOT
HETATM    1  C4  UNL     1      -0.447  52.918 -23.966  1.00  0.00     0.074 A 
HETATM    2  C5  UNL     1       0.071  52.628 -22.694  1.00  0.00     0.050 A 
HETATM    3  C6  UNL     1      -0.715  51.966 -21.756  1.00  0.00     0.036 A 
HETATM    4  C12 UNL     1      -2.021  51.609 -22.114  1.00  0.00     0.032 A 
HETATM    5  C13 UNL     1      -2.534  51.902 -23.387  1.00  0.00     0.040 A 
HETATM    6  C14 UNL     1      -1.753  52.563 -24.331  1.00  0.00     0.085 A 
ENDROOT
BRANCH   6   7
HETATM    7  O4  UNL     1      -2.145  52.894 -25.595  1.00  0.00    -0.348 OA
BRANCH   7   8
HETATM    8  C15 UNL     1      -3.117  52.105 -26.298  1.00  0.00     0.209 C 
BRANCH   8   9
HETATM    9  C16 UNL     1      -2.455  50.869 -26.928  1.00  0.00     0.170 C 
BRANCH   9  10
HETATM   10  O5  UNL     1      -2.768  50.809 -28.333  1.00  0.00    -0.392 OA
HETATM   11  H16 UNL     1      -1.934  51.034 -28.802  1.00  0.00     0.210 HD
ENDBRANCH   9  10
BRANCH   9  12
HETATM   12  C17 UNL     1      -2.946  49.546 -26.297  1.00  0.00     0.304 C 
BRANCH  12  13
HETATM   13  N2  UNL     1      -4.397  49.456 -26.099  1.00  0.00     0.094 N 
HETATM   14  H19 UNL     1      -4.769  48.778 -26.768  1.00  0.00     0.317 HD
BRANCH  13  15
HETATM   15  C18 UNL     1      -4.864  49.067 -24.749  1.00  0.00     0.147 C 
HETATM   16  C19 UNL     1      -3.718  48.442 -23.930  1.00  0.00     0.048 C 
HETATM   17  C20 UNL     1      -5.946  47.990 -24.976  1.00  0.00     0.048 C 
HETATM   18  C21 UNL     1      -5.496  50.228 -23.961  1.00  0.00     0.048 C 
ENDBRANCH  13  15
ENDBRANCH  12  13
ENDBRANCH   9  12
ENDBRANCH   8   9
ENDBRANCH   7   8
ENDBRANCH   6   7
BRANCH   1  19
HETATM   19  C3  UNL     1       0.423  53.635 -24.914  1.00  0.00     0.296 C 
HETATM   20  O2  UNL     1       0.269  54.794 -25.262  1.00  0.00    -0.259 OA
BRANCH  19  21
HETATM   21  O1  UNL     1       1.405  52.778 -25.288  1.00  0.00    -0.318 OA
BRANCH  21  22
HETATM   22  C2  UNL     1       1.253  52.183 -26.582  1.00  0.00     0.174 C 
HETATM   23  C1  UNL     1       2.556  51.540 -27.024  1.00  0.00     0.034 C 
ENDBRANCH  21  22
ENDBRANCH  19  21
ENDBRANCH   1  19
BRANCH   3  24
HETATM   24  N1  UNL     1      -0.294  51.638 -20.451  1.00  0.00    -0.322 N 
HETATM   25  C7  UNL     1      -0.026  52.509 -19.399  1.00  0.00     0.263 C 
HETATM   26  O3  UNL     1      -0.074  53.733 -19.496  1.00  0.00    -0.267 OA
HETATM   27  H7  UNL     1      -0.108  50.659 -20.282  1.00  0.00     0.169 HD
BRANCH  25  28
HETATM   28  C8  UNL     1       0.345  51.832 -18.154  1.00  0.00     0.072 A 
HETATM   29  C9  UNL     1      -0.110  50.640 -17.608  1.00  0.00     0.025 A 
HETATM   30  C10 UNL     1       0.524  50.328 -16.366  1.00  0.00     0.009 A 
HETATM   31  C11 UNL     1       1.432  51.292 -15.993  1.00  0.00     0.050 A 
HETATM   32  S1  UNL     1       1.512  52.568 -17.127  1.00  0.00    -0.097 SA
ENDBRANCH  25  28
ENDBRANCH   3  24
TORSDOF 12
ENDMDL
MODEL 2
REMARK minimizedAffinity -7.33790255
REMARK  12 active torsions:
REMARK  status: ('A' for Active; 'I' for Inactive)
REMARK    1  A    between atoms: C2_2  and  O1_3 
REMARK    2  A    between atoms: O1_3  and  C3_4 
REMARK    3  A    between atoms: C3_4  and  C4_6 
REMARK    4  A    between atoms: C6_8  and  N1_9 
REMARK       I    between atoms: N1_9  and  C7_10 
REMARK    5  A    between atoms: C7_10  and  C8_12 
REMARK    6  A    between atoms: C14_19  and  O4_20 
REMARK    7  A    between atoms: O4_20  and  C15_21 
REMARK    8  A    between atoms: C15_21  and  C16_22 
REMARK    9  A    between atoms: C16_22  and  O5_23 
REMARK   10  A    between atoms: C16_22  and  C17_24 
REMARK   11  A    between atoms: C17_24  and  N2_25 
REMARK   12  A    between atoms: N2_25  and  C18_26 
ROOT
HETATM    1  C4  UNL     1      -0.964  51.828 -20.222  1.00  0.00     0.074 A 
HETATM    2  C5  UNL     1      -0.936  51.711 -21.621  1.00  0.00     0.050 A 
HETATM    3  C6  UNL     1       0.150  52.202 -22.339  1.00  0.00     0.036 A 
HETATM    4  C12 UNL     1       1.194  52.813 -21.634  1.00  0.00     0.032 A 
HETATM    5  C13 UNL     1       1.160  52.928 -20.235  1.00  0.00     0.040 A 
HETATM    6  C14 UNL     1       0.077  52.437 -19.510  1.00  0.00     0.085 A 
ENDROOT
BRANCH   6   7
HETATM    7  O4  UNL     1      -0.059  52.491 -18.154  1.00  0.00    -0.348 OA
BRANCH   7   8
HETATM    8  C15 UNL     1       0.839  51.776 -17.292  1.00  0.00     0.209 C 
BRANCH   8   9
HETATM    9  C16 UNL     1       1.341  52.686 -16.160  1.00  0.00     0.170 C 
BRANCH   9  10
HETATM   10  O5  UNL     1       2.680  53.134 -16.448  1.00  0.00    -0.392 OA
HETATM   11  H16 UNL     1       2.600  54.086 -16.677  1.00  0.00     0.210 HD
ENDBRANCH   9  10
BRANCH   9  12
HETATM   12  C17 UNL     1       1.388  51.964 -14.794  1.00  0.00     0.304 C 
BRANCH  12  13
HETATM   13  N2  UNL     1       2.719  51.885 -14.181  1.00  0.00     0.094 N 
HETATM   14  H19 UNL     1       2.813  52.660 -13.521  1.00  0.00     0.317 HD
BRANCH  13  15
HETATM   15  C18 UNL     1       3.051  50.633 -13.465  1.00  0.00     0.147 C 
HETATM   16  C19 UNL     1       1.938  49.583 -13.649  1.00  0.00     0.048 C 
HETATM   17  C20 UNL     1       3.121  51.013 -11.970  1.00  0.00     0.048 C 
HETATM   18  C21 UNL     1       4.407  50.033 -13.875  1.00  0.00     0.048 C 
ENDBRANCH  13  15
ENDBRANCH  12  13
ENDBRANCH   9  12
ENDBRANCH   8   9
ENDBRANCH   7   8
ENDBRANCH   6   7
BRANCH   1  19
HETATM   19  C3  UNL     1      -2.145  51.305 -19.514  1.00  0.00     0.296 C 
HETATM   20  O2  UNL     1      -2.805  51.932 -18.702  1.00  0.00    -0.259 OA
BRANCH  19  21
HETATM   21  O1  UNL     1      -2.350  50.038 -19.952  1.00  0.00    -0.318 OA
BRANCH  21  22
HETATM   22  C2  UNL     1      -1.452  49.048 -19.437  1.00  0.00     0.174 C 
HETATM   23  C1  UNL     1      -1.021  48.100 -20.542  1.00  0.00     0.034 C 
ENDBRANCH  21  22
ENDBRANCH  19  21
ENDBRANCH   1  19
BRANCH   3  24
HETATM   24  N1  UNL     1       0.271  52.144 -23.743  1.00  0.00    -0.322 N 
HETATM   25  C7  UNL     1       0.683  53.156 -24.604  1.00  0.00     0.263 C 
HETATM   26  O3  UNL     1       0.955  54.296 -24.238  1.00  0.00    -0.267 OA
HETATM   27  H7  UNL     1      -0.038  51.284 -24.175  1.00  0.00     0.169 HD
BRANCH  25  28
HETATM   28  C8  UNL     1       0.744  52.745 -26.009  1.00  0.00     0.072 A 
HETATM   29  C9  UNL     1       1.499  51.758 -26.626  1.00  0.00     0.025 A 
HETATM   30  C10 UNL     1       1.251  51.675 -28.031  1.00  0.00     0.009 A 
HETATM   31  C11 UNL     1       0.327  52.604 -28.448  1.00  0.00     0.050 A 
HETATM   32  S1  UNL     1      -0.230  53.576 -27.158  1.00  0.00    -0.097 SA
ENDBRANCH  25  28
ENDBRANCH   3  24
TORSDOF 12
ENDMDL
MODEL 3
REMARK minimizedAffinity -7.31104183
REMARK  12 active torsions:
REMARK  status: ('A' for Active; 'I' for Inactive)
REMARK    1  A    between atoms: C2_2  and  O1_3 
REMARK    2  A    between atoms: O1_3  and  C3_4 
REMARK    3  A    between atoms: C3_4  and  C4_6 
REMARK    4  A    between atoms: C6_8  and  N1_9 
REMARK       I    between atoms: N1_9  and  C7_10 
REMARK    5  A    between atoms: C7_10  and  C8_12 
REMARK    6  A    between atoms: C14_19  and  O4_20 
REMARK    7  A    between atoms: O4_20  and  C15_21 
REMARK    8  A    between atoms: C15_21  and  C16_22 
REMARK    9  A    between atoms: C16_22  and  O5_23 
REMARK   10  A    between atoms: C16_22  and  C17_24 
REMARK   11  A    between atoms: C17_24  and  N2_25 
REMARK   12  A    between atoms: N2_25  and  C18_26 
ROOT
HETATM    1  C4  UNL     1      -0.626  52.026 -20.020  1.00  0.00     0.074 A 
HETATM    2  C5  UNL     1      -0.699  51.882 -21.415  1.00  0.00     0.050 A 
HETATM    3  C6  UNL     1       0.227  52.525 -22.230  1.00  0.00     0.036 A 
HETATM    4  C12 UNL     1       1.214  53.312 -21.626  1.00  0.00     0.032 A 
HETATM    5  C13 UNL     1       1.282  53.452 -20.231  1.00  0.00     0.040 A 
HETATM    6  C14 UNL     1       0.360  52.811 -19.408  1.00  0.00     0.085 A 
ENDROOT
BRANCH   6   7
HETATM    7  O4  UNL     1       0.332  52.873 -18.046  1.00  0.00    -0.348 OA
BRANCH   7   8
HETATM    8  C15 UNL     1       1.185  52.034 -17.250  1.00  0.00     0.209 C 
BRANCH   8   9
HETATM    9  C16 UNL     1       1.525  52.719 -15.918  1.00  0.00     0.170 C 
BRANCH   9  10
HETATM   10  O5  UNL     1       2.952  52.727 -15.721  1.00  0.00    -0.392 OA
HETATM   11  H16 UNL     1       3.234  53.660 -15.845  1.00  0.00     0.210 HD
ENDBRANCH   9  10
BRANCH   9  12
HETATM   12  C17 UNL     1       0.904  51.993 -14.702  1.00  0.00     0.304 C 
BRANCH  12  13
HETATM   13  N2  UNL     1       0.807  52.801 -13.482  1.00  0.00     0.094 N 
HETATM   14  H19 UNL     1       0.545  53.752 -13.749  1.00  0.00     0.317 HD
BRANCH  13  15
HETATM   15  C18 UNL     1      -0.146  52.338 -12.447  1.00  0.00     0.147 C 
HETATM   16  C19 UNL     1       0.340  51.025 -11.802  1.00  0.00     0.048 C 
HETATM   17  C20 UNL     1      -1.467  52.056 -13.193  1.00  0.00     0.048 C 
HETATM   18  C21 UNL     1      -0.421  53.386 -11.355  1.00  0.00     0.048 C 
ENDBRANCH  13  15
ENDBRANCH  12  13
ENDBRANCH   9  12
ENDBRANCH   8   9
ENDBRANCH   7   8
ENDBRANCH   6   7
BRANCH   1  19
HETATM   19  C3  UNL     1      -1.642  51.336 -19.205  1.00  0.00     0.296 C 
HETATM   20  O2  UNL     1      -2.693  51.833 -18.835  1.00  0.00    -0.259 OA
BRANCH  19  21
HETATM   21  O1  UNL     1      -1.192  50.077 -18.980  1.00  0.00    -0.318 OA
BRANCH  21  22
HETATM   22  C2  UNL     1      -1.973  49.024 -19.557  1.00  0.00     0.174 C 
HETATM   23  C1  UNL     1      -1.118  48.177 -20.482  1.00  0.00     0.034 C 
ENDBRANCH  21  22
ENDBRANCH  19  21
ENDBRANCH   1  19
BRANCH   3  24
HETATM   24  N1  UNL     1       0.235  52.454 -23.639  1.00  0.00    -0.322 N 
HETATM   25  C7  UNL     1       0.677  53.421 -24.537  1.00  0.00     0.263 C 
HETATM   26  O3  UNL     1       1.084  54.530 -24.201  1.00  0.00    -0.267 OA
HETATM   27  H7  UNL     1      -0.187  51.628 -24.039  1.00  0.00     0.169 HD
BRANCH  25  28
HETATM   28  C8  UNL     1       0.591  53.005 -25.939  1.00  0.00     0.072 A 
HETATM   29  C9  UNL     1      -0.071  53.585 -27.011  1.00  0.00     0.025 A 
HETATM   30  C10 UNL     1       0.108  52.857 -28.227  1.00  0.00     0.009 A 
HETATM   31  C11 UNL     1       0.888  51.738 -28.048  1.00  0.00     0.050 A 
HETATM   32  S1  UNL     1       1.392  51.563 -26.425  1.00  0.00    -0.097 SA
ENDBRANCH  25  28
ENDBRANCH   3  24
TORSDOF 12
ENDMDL
MODEL 4
REMARK minimizedAffinity -7.09623766
REMARK  12 active torsions:
REMARK  status: ('A' for Active; 'I' for Inactive)
REMARK    1  A    between atoms: C2_2  and  O1_3 
REMARK    2  A    between atoms: O1_3  and  C3_4 
REMARK    3  A    between atoms: C3_4  and  C4_6 
REMARK    4  A    between atoms: C6_8  and  N1_9 
REMARK       I    between atoms: N1_9  and  C7_10 
REMARK    5  A    between atoms: C7_10  and  C8_12 
REMARK    6  A    between atoms: C14_19  and  O4_20 
REMARK    7  A    between atoms: O4_20  and  C15_21 
REMARK    8  A    between atoms: C15_21  and  C16_22 
REMARK    9  A    between atoms: C16_22  and  O5_23 
REMARK   10  A    between atoms: C16_22  and  C17_24 
REMARK   11  A    between atoms: C17_24  and  N2_25 
REMARK   12  A    between atoms: N2_25  and  C18_26 
ROOT
HETATM    1  C4  UNL     1      -6.137  47.843 -29.441  1.00  0.00     0.074 A 
HETATM    2  C5  UNL     1      -7.515  47.571 -29.471  1.00  0.00     0.050 A 
HETATM    3  C6  UNL     1      -8.205  47.343 -28.285  1.00  0.00     0.036 A 
HETATM    4  C12 UNL     1      -7.493  47.385 -27.080  1.00  0.00     0.032 A 
HETATM    5  C13 UNL     1      -6.116  47.656 -27.057  1.00  0.00     0.040 A 
HETATM    6  C14 UNL     1      -5.418  47.887 -28.240  1.00  0.00     0.085 A 
ENDROOT
BRANCH   6   7
HETATM    7  O4  UNL     1      -4.086  48.162 -28.335  1.00  0.00    -0.348 OA
BRANCH   7   8
HETATM    8  C15 UNL     1      -3.390  48.826 -27.268  1.00  0.00     0.209 C 
BRANCH   8   9
HETATM    9  C16 UNL     1      -3.196  50.315 -27.595  1.00  0.00     0.170 C 
BRANCH   9  10
HETATM   10  O5  UNL     1      -3.452  50.548 -28.993  1.00  0.00    -0.392 OA
HETATM   11  H16 UNL     1      -4.306  51.033 -29.032  1.00  0.00     0.210 HD
ENDBRANCH   9  10
BRANCH   9  12
HETATM   12  C17 UNL     1      -1.757  50.802 -27.310  1.00  0.00     0.304 C 
BRANCH  12  13
HETATM   13  N2  UNL     1      -1.621  52.249 -27.113  1.00  0.00     0.094 N 
HETATM   14  H19 UNL     1      -1.980  52.480 -26.183  1.00  0.00     0.317 HD
BRANCH  13  15
HETATM   15  C18 UNL     1      -0.257  52.815 -27.228  1.00  0.00     0.147 C 
HETATM   16  C19 UNL     1       0.615  51.956 -28.165  1.00  0.00     0.048 C 
HETATM   17  C20 UNL     1       0.343  52.749 -25.807  1.00  0.00     0.048 C 
HETATM   18  C21 UNL     1      -0.238  54.281 -27.694  1.00  0.00     0.048 C 
ENDBRANCH  13  15
ENDBRANCH  12  13
ENDBRANCH   9  12
ENDBRANCH   8   9
ENDBRANCH   7   8
ENDBRANCH   6   7
BRANCH   1  19
HETATM   19  C3  UNL     1      -5.454  48.061 -30.727  1.00  0.00     0.296 C 
HETATM   20  O2  UNL     1      -4.857  49.080 -31.036  1.00  0.00    -0.259 OA
BRANCH  19  21
HETATM   21  O1  UNL     1      -5.602  46.930 -31.460  1.00  0.00    -0.318 OA
BRANCH  21  22
HETATM   22  C2  UNL     1      -4.392  46.345 -31.957  1.00  0.00     0.174 C 
HETATM   23  C1  UNL     1      -4.619  44.889 -32.320  1.00  0.00     0.034 C 
ENDBRANCH  21  22
ENDBRANCH  19  21
ENDBRANCH   1  19
BRANCH   3  24
HETATM   24  N1  UNL     1      -9.583  47.053 -28.207  1.00  0.00    -0.322 N 
HETATM   25  C7  UNL     1     -10.602  47.535 -29.024  1.00  0.00     0.263 C 
HETATM   26  O3  UNL     1     -10.427  48.352 -29.924  1.00  0.00    -0.267 OA
HETATM   27  H7  UNL     1      -9.867  46.476 -27.428  1.00  0.00     0.169 HD
BRANCH  25  28
HETATM   28  C8  UNL     1     -11.923  46.992 -28.698  1.00  0.00     0.072 A 
HETATM   29  C9  UNL     1     -12.694  46.045 -29.356  1.00  0.00     0.025 A 
HETATM   30  C10 UNL     1     -13.934  45.789 -28.694  1.00  0.00     0.009 A 
HETATM   31  C11 UNL     1     -14.080  46.554 -27.560  1.00  0.00     0.050 A 
HETATM   32  S1  UNL     1     -12.738  47.579 -27.302  1.00  0.00    -0.097 SA
ENDBRANCH  25  28
ENDBRANCH   3  24
TORSDOF 12
ENDMDL
MODEL 5
REMARK minimizedAffinity -7.09131289
REMARK  12 active torsions:
REMARK  status: ('A' for Active; 'I' for Inactive)
REMARK    1  A    between atoms: C2_2  and  O1_3 
REMARK    2  A    between atoms: O1_3  and  C3_4 
REMARK    3  A    between atoms: C3_4  and  C4_6 
REMARK    4  A    between atoms: C6_8  and  N1_9 
REMARK       I    between atoms: N1_9  and  C7_10 
REMARK    5  A    between atoms: C7_10  and  C8_12 
REMARK    6  A    between atoms: C14_19  and  O4_20 
REMARK    7  A    between atoms: O4_20  and  C15_21 
REMARK    8  A    between atoms: C15_21  and  C16_22 
REMARK    9  A    between atoms: C16_22  and  O5_23 
REMARK   10  A    between atoms: C16_22  and  C17_24 
REMARK   11  A    between atoms: C17_24  and  N2_25 
REMARK   12  A    between atoms: N2_25  and  C18_26 
ROOT
HETATM    1  C4  UNL     1      -2.223  50.811 -25.642  1.00  0.00     0.074 A 
HETATM    2  C5  UNL     1      -1.654  51.096 -24.390  1.00  0.00     0.050 A 
HETATM    3  C6  UNL     1      -1.848  50.226 -23.323  1.00  0.00     0.036 A 
HETATM    4  C12 UNL     1      -2.623  49.079 -23.530  1.00  0.00     0.032 A 
HETATM    5  C13 UNL     1      -3.190  48.799 -24.783  1.00  0.00     0.040 A 
HETATM    6  C14 UNL     1      -2.999  49.664 -25.858  1.00  0.00     0.085 A 
ENDROOT
BRANCH   6   7
HETATM    7  O4  UNL     1      -3.497  49.492 -27.115  1.00  0.00    -0.348 OA
BRANCH   7   8
HETATM    8  C15 UNL     1      -4.416  48.427 -27.406  1.00  0.00     0.209 C 
BRANCH   8   9
HETATM    9  C16 UNL     1      -4.568  48.244 -28.924  1.00  0.00     0.170 C 
BRANCH   9  10
HETATM   10  O5  UNL     1      -4.414  49.513 -29.588  1.00  0.00    -0.392 OA
HETATM   11  H16 UNL     1      -3.544  49.471 -30.045  1.00  0.00     0.210 HD
ENDBRANCH   9  10
BRANCH   9  12
HETATM   12  C17 UNL     1      -5.956  47.691 -29.319  1.00  0.00     0.304 C 
BRANCH  12  13
HETATM   13  N2  UNL     1      -7.094  48.514 -28.897  1.00  0.00     0.094 N 
HETATM   14  H19 UNL     1      -6.902  49.483 -29.162  1.00  0.00     0.317 HD
BRANCH  13  15
HETATM   15  C18 UNL     1      -8.422  48.148 -29.438  1.00  0.00     0.147 C 
HETATM   16  C19 UNL     1      -8.900  49.189 -30.470  1.00  0.00     0.048 C 
HETATM   17  C20 UNL     1      -9.387  48.178 -28.233  1.00  0.00     0.048 C 
HETATM   18  C21 UNL     1      -8.466  46.740 -30.057  1.00  0.00     0.048 C 
ENDBRANCH  13  15
ENDBRANCH  12  13
ENDBRANCH   9  12
ENDBRANCH   8   9
ENDBRANCH   7   8
ENDBRANCH   6   7
BRANCH   1  19
HETATM   19  C3  UNL     1      -1.998  51.775 -26.733  1.00  0.00     0.296 C 
HETATM   20  O2  UNL     1      -2.665  52.778 -26.924  1.00  0.00    -0.259 OA
BRANCH  19  21
HETATM   21  O1  UNL     1      -0.926  51.341 -27.440  1.00  0.00    -0.318 OA
BRANCH  21  22
HETATM   22  C2  UNL     1       0.040  52.342 -27.784  1.00  0.00     0.174 C 
HETATM   23  C1  UNL     1       1.424  51.728 -27.886  1.00  0.00     0.034 C 
ENDBRANCH  21  22
ENDBRANCH  19  21
ENDBRANCH   1  19
BRANCH   3  24
HETATM   24  N1  UNL     1      -1.329  50.425 -22.026  1.00  0.00    -0.322 N 
HETATM   25  C7  UNL     1      -0.706  51.564 -21.525  1.00  0.00     0.263 C 
HETATM   26  O3  UNL     1      -0.471  52.566 -22.195  1.00  0.00    -0.267 OA
HETATM   27  H7  UNL     1      -1.361  49.623 -21.413  1.00  0.00     0.169 HD
BRANCH  25  28
HETATM   28  C8  UNL     1      -0.329  51.455 -20.113  1.00  0.00     0.072 A 
HETATM   29  C9  UNL     1      -0.433  50.387 -19.234  1.00  0.00     0.025 A 
HETATM   30  C10 UNL     1       0.065  50.697 -17.931  1.00  0.00     0.009 A 
HETATM   31  C11 UNL     1       0.522  51.992 -17.849  1.00  0.00     0.050 A 
HETATM   32  S1  UNL     1       0.344  52.829 -19.327  1.00  0.00    -0.097 SA
ENDBRANCH  25  28
ENDBRANCH   3  24
TORSDOF 12
ENDMDL
MODEL 6
REMARK minimizedAffinity -7.04517174
REMARK  12 active torsions:
REMARK  status: ('A' for Active; 'I' for Inactive)
REMARK    1  A    between atoms: C2_2  and  O1_3 
REMARK    2  A    between atoms: O1_3  and  C3_4 
REMARK    3  A    between atoms: C3_4  and  C4_6 
REMARK    4  A    between atoms: C6_8  and  N1_9 
REMARK       I    between atoms: N1_9  and  C7_10 
REMARK    5  A    between atoms: C7_10  and  C8_12 
REMARK    6  A    between atoms: C14_19  and  O4_20 
REMARK    7  A    between atoms: O4_20  and  C15_21 
REMARK    8  A    between atoms: C15_21  and  C16_22 
REMARK    9  A    between atoms: C16_22  and  O5_23 
REMARK   10  A    between atoms: C16_22  and  C17_24 
REMARK   11  A    between atoms: C17_24  and  N2_25 
REMARK   12  A    between atoms: N2_25  and  C18_26 
ROOT
HETATM    1  C4  UNL     1      -5.582  47.977 -27.641  1.00  0.00     0.074 A 
HETATM    2  C5  UNL     1      -4.318  48.550 -27.860  1.00  0.00     0.050 A 
HETATM    3  C6  UNL     1      -3.591  49.059 -26.789  1.00  0.00     0.036 A 
HETATM    4  C12 UNL     1      -4.152  48.989 -25.508  1.00  0.00     0.032 A 
HETATM    5  C13 UNL     1      -5.415  48.416 -25.296  1.00  0.00     0.040 A 
HETATM    6  C14 UNL     1      -6.149  47.903 -26.363  1.00  0.00     0.085 A 
ENDROOT
BRANCH   6   7
HETATM    7  O4  UNL     1      -7.380  47.322 -26.273  1.00  0.00    -0.348 OA
BRANCH   7   8
HETATM    8  C15 UNL     1      -8.431  47.933 -25.509  1.00  0.00     0.209 C 
BRANCH   8   9
HETATM    9  C16 UNL     1      -9.419  48.661 -26.434  1.00  0.00     0.170 C 
BRANCH   9  10
HETATM   10  O5  UNL     1      -9.522  50.045 -26.050  1.00  0.00    -0.392 OA
HETATM   11  H16 UNL     1      -9.063  50.553 -26.755  1.00  0.00     0.210 HD
ENDBRANCH   9  10
BRANCH   9  12
HETATM   12  C17 UNL     1     -10.843  48.065 -26.368  1.00  0.00     0.304 C 
BRANCH  12  13
HETATM   13  N2  UNL     1     -11.689  48.351 -27.531  1.00  0.00     0.094 N 
HETATM   14  H19 UNL     1     -11.161  48.949 -28.171  1.00  0.00     0.317 HD
BRANCH  13  15
HETATM   15  C18 UNL     1     -12.186  47.188 -28.301  1.00  0.00     0.147 C 
HETATM   16  C19 UNL     1     -12.376  47.553 -29.786  1.00  0.00     0.048 C 
HETATM   17  C20 UNL     1     -13.567  46.850 -27.700  1.00  0.00     0.048 C 
HETATM   18  C21 UNL     1     -11.289  45.944 -28.179  1.00  0.00     0.048 C 
ENDBRANCH  13  15
ENDBRANCH  12  13
ENDBRANCH   9  12
ENDBRANCH   8   9
ENDBRANCH   7   8
ENDBRANCH   6   7
BRANCH   1  19
HETATM   19  C3  UNL     1      -6.315  47.468 -28.813  1.00  0.00     0.296 C 
HETATM   20  O2  UNL     1      -6.327  46.303 -29.176  1.00  0.00    -0.259 OA
BRANCH  19  21
HETATM   21  O1  UNL     1      -6.966  48.519 -29.369  1.00  0.00    -0.318 OA
BRANCH  21  22
HETATM   22  C2  UNL     1      -7.774  48.218 -30.513  1.00  0.00     0.174 C 
HETATM   23  C1  UNL     1      -9.066  49.014 -30.472  1.00  0.00     0.034 C 
ENDBRANCH  21  22
ENDBRANCH  19  21
ENDBRANCH   1  19
BRANCH   3  24
HETATM   24  N1  UNL     1      -2.321  49.662 -26.902  1.00  0.00    -0.322 N 
HETATM   25  C7  UNL     1      -2.033  50.984 -27.233  1.00  0.00     0.263 C 
HETATM   26  O3  UNL     1      -2.886  51.814 -27.535  1.00  0.00    -0.267 OA
HETATM   27  H7  UNL     1      -1.530  49.045 -26.789  1.00  0.00     0.169 HD
BRANCH  25  28
HETATM   28  C8  UNL     1      -0.602  51.296 -27.213  1.00  0.00     0.072 A 
HETATM   29  C9  UNL     1       0.276  51.560 -28.255  1.00  0.00     0.025 A 
HETATM   30  C10 UNL     1       1.604  51.829 -27.799  1.00  0.00     0.009 A 
HETATM   31  C11 UNL     1       1.705  51.750 -26.430  1.00  0.00     0.050 A 
HETATM   32  S1  UNL     1       0.214  51.346 -25.700  1.00  0.00    -0.097 SA
ENDBRANCH  25  28
ENDBRANCH   3  24
TORSDOF 12
ENDMDL
MODEL 7
REMARK minimizedAffinity -7.03619862
REMARK  12 active torsions:
REMARK  status: ('A' for Active; 'I' for Inactive)
REMARK    1  A    between atoms: C2_2  and  O1_3 
REMARK    2  A    between atoms: O1_3  and  C3_4 
REMARK    3  A    between atoms: C3_4  and  C4_6 
REMARK    4  A    between atoms: C6_8  and  N1_9 
REMARK       I    between atoms: N1_9  and  C7_10 
REMARK    5  A    between atoms: C7_10  and  C8_12 
REMARK    6  A    between atoms: C14_19  and  O4_20 
REMARK    7  A    between atoms: O4_20  and  C15_21 
REMARK    8  A    between atoms: C15_21  and  C16_22 
REMARK    9  A    between atoms: C16_22  and  O5_23 
REMARK   10  A    between atoms: C16_22  and  C17_24 
REMARK   11  A    between atoms: C17_24  and  N2_25 
REMARK   12  A    between atoms: N2_25  and  C18_26 
ROOT
HETATM    1  C4  UNL     1      -0.680  51.345 -24.335  1.00  0.00     0.074 A 
HETATM    2  C5  UNL     1      -0.224  51.369 -23.007  1.00  0.00     0.050 A 
HETATM    3  C6  UNL     1      -0.901  50.651 -22.026  1.00  0.00     0.036 A 
HETATM    4  C12 UNL     1      -2.038  49.923 -22.397  1.00  0.00     0.032 A 
HETATM    5  C13 UNL     1      -2.489  49.905 -23.726  1.00  0.00     0.040 A 
HETATM    6  C14 UNL     1      -1.816  50.619 -24.714  1.00  0.00     0.085 A 
ENDROOT
BRANCH   6   7
HETATM    7  O4  UNL     1      -2.161  50.669 -26.032  1.00  0.00    -0.348 OA
BRANCH   7   8
HETATM    8  C15 UNL     1      -3.496  50.355 -26.459  1.00  0.00     0.209 C 
BRANCH   8   9
HETATM    9  C16 UNL     1      -3.468  49.551 -27.769  1.00  0.00     0.170 C 
BRANCH   9  10
HETATM   10  O5  UNL     1      -3.604  50.441 -28.893  1.00  0.00    -0.392 OA
HETATM   11  H16 UNL     1      -2.721  50.464 -29.324  1.00  0.00     0.210 HD
ENDBRANCH   9  10
BRANCH   9  12
HETATM   12  C17 UNL     1      -4.622  48.526 -27.859  1.00  0.00     0.304 C 
BRANCH  12  13
HETATM   13  N2  UNL     1      -5.479  48.661 -29.042  1.00  0.00     0.094 N 
HETATM   14  H19 UNL     1      -4.905  48.501 -29.873  1.00  0.00     0.317 HD
BRANCH  13  15
HETATM   15  C18 UNL     1      -6.655  47.766 -29.122  1.00  0.00     0.147 C 
HETATM   16  C19 UNL     1      -6.925  47.092 -27.762  1.00  0.00     0.048 C 
HETATM   17  C20 UNL     1      -6.278  46.671 -30.142  1.00  0.00     0.048 C 
HETATM   18  C21 UNL     1      -7.930  48.470 -29.618  1.00  0.00     0.048 C 
ENDBRANCH  13  15
ENDBRANCH  12  13
ENDBRANCH   9  12
ENDBRANCH   8   9
ENDBRANCH   7   8
ENDBRANCH   6   7
BRANCH   1  19
HETATM   19  C3  UNL     1       0.066  52.136 -25.329  1.00  0.00     0.296 C 
HETATM   20  O2  UNL     1       0.011  53.350 -25.438  1.00  0.00    -0.259 OA
BRANCH  19  21
HETATM   21  O1  UNL     1       0.813  51.268 -26.056  1.00  0.00    -0.318 OA
BRANCH  21  22
HETATM   22  C2  UNL     1       2.199  51.602 -26.193  1.00  0.00     0.174 C 
HETATM   23  C1  UNL     1       2.568  51.734 -27.660  1.00  0.00     0.034 C 
ENDBRANCH  21  22
ENDBRANCH  19  21
ENDBRANCH   1  19
BRANCH   3  24
HETATM   24  N1  UNL     1      -0.532  50.616 -20.665  1.00  0.00    -0.322 N 
HETATM   25  C7  UNL     1      -0.206  51.692 -19.844  1.00  0.00     0.263 C 
HETATM   26  O3  UNL     1      -0.143  52.855 -20.234  1.00  0.00    -0.267 OA
HETATM   27  H7  UNL     1      -0.437  49.696 -20.260  1.00  0.00     0.169 HD
BRANCH  25  28
HETATM   28  C8  UNL     1       0.083  51.309 -18.460  1.00  0.00     0.072 A 
HETATM   29  C9  UNL     1      -0.284  50.179 -17.743  1.00  0.00     0.025 A 
HETATM   30  C10 UNL     1       0.217  50.189 -16.405  1.00  0.00     0.009 A 
HETATM   31  C11 UNL     1       0.940  51.328 -16.135  1.00  0.00     0.050 A 
HETATM   32  S1  UNL     1       1.005  52.380 -17.479  1.00  0.00    -0.097 SA
ENDBRANCH  25  28
ENDBRANCH   3  24
TORSDOF 12
ENDMDL
MODEL 8
REMARK minimizedAffinity -7.02899408
REMARK  12 active torsions:
REMARK  status: ('A' for Active; 'I' for Inactive)
REMARK    1  A    between atoms: C2_2  and  O1_3 
REMARK    2  A    between atoms: O1_3  and  C3_4 
REMARK    3  A    between atoms: C3_4  and  C4_6 
REMARK    4  A    between atoms: C6_8  and  N1_9 
REMARK       I    between atoms: N1_9  and  C7_10 
REMARK    5  A    between atoms: C7_10  and  C8_12 
REMARK    6  A    between atoms: C14_19  and  O4_20 
REMARK    7  A    between atoms: O4_20  and  C15_21 
REMARK    8  A    between atoms: C15_21  and  C16_22 
REMARK    9  A    between atoms: C16_22  and  O5_23 
REMARK   10  A    between atoms: C16_22  and  C17_24 
REMARK   11  A    between atoms: C17_24  and  N2_25 
REMARK   12  A    between atoms: N2_25  and  C18_26 
ROOT
HETATM    1  C4  UNL     1      -2.460  50.745 -26.634  1.00  0.00     0.074 A 
HETATM    2  C5  UNL     1      -3.442  50.085 -27.391  1.00  0.00     0.050 A 
HETATM    3  C6  UNL     1      -4.053  48.940 -26.891  1.00  0.00     0.036 A 
HETATM    4  C12 UNL     1      -3.660  48.469 -25.632  1.00  0.00     0.032 A 
HETATM    5  C13 UNL     1      -2.677  49.133 -24.880  1.00  0.00     0.040 A 
HETATM    6  C14 UNL     1      -2.062  50.281 -25.373  1.00  0.00     0.085 A 
ENDROOT
BRANCH   6   7
HETATM    7  O4  UNL     1      -1.102  51.005 -24.731  1.00  0.00    -0.348 OA
BRANCH   7   8
HETATM    8  C15 UNL     1      -1.357  51.593 -23.445  1.00  0.00     0.209 C 
BRANCH   8   9
HETATM    9  C16 UNL     1      -0.175  52.475 -23.011  1.00  0.00     0.170 C 
BRANCH   9  10
HETATM   10  O5  UNL     1       0.823  52.503 -24.050  1.00  0.00    -0.392 OA
HETATM   11  H16 UNL     1       0.776  53.404 -24.441  1.00  0.00     0.210 HD
ENDBRANCH   9  10
BRANCH   9  12
HETATM   12  C17 UNL     1       0.516  51.952 -21.731  1.00  0.00     0.304 C 
BRANCH  12  13
HETATM   13  N2  UNL     1      -0.069  52.427 -20.473  1.00  0.00     0.094 N 
HETATM   14  H19 UNL     1      -0.806  53.100 -20.698  1.00  0.00     0.317 HD
BRANCH  13  15
HETATM   15  C18 UNL     1      -0.648  51.402 -19.576  1.00  0.00     0.147 C 
HETATM   16  C19 UNL     1       0.031  51.438 -18.192  1.00  0.00     0.048 C 
HETATM   17  C20 UNL     1      -0.335  50.043 -20.238  1.00  0.00     0.048 C 
HETATM   18  C21 UNL     1      -2.173  51.519 -19.412  1.00  0.00     0.048 C 
ENDBRANCH  13  15
ENDBRANCH  12  13
ENDBRANCH   9  12
ENDBRANCH   8   9
ENDBRANCH   7   8
ENDBRANCH   6   7
BRANCH   1  19
HETATM   19  C3  UNL     1      -1.834  51.943 -27.218  1.00  0.00     0.296 C 
HETATM   20  O2  UNL     1      -2.272  53.077 -27.118  1.00  0.00    -0.259 OA
BRANCH  19  21
HETATM   21  O1  UNL     1      -0.704  51.540 -27.850  1.00  0.00    -0.318 OA
BRANCH  21  22
HETATM   22  C2  UNL     1       0.385  52.472 -27.833  1.00  0.00     0.174 C 
HETATM   23  C1  UNL     1       1.692  51.752 -27.556  1.00  0.00     0.034 C 
ENDBRANCH  21  22
ENDBRANCH  19  21
ENDBRANCH   1  19
BRANCH   3  24
HETATM   24  N1  UNL     1      -5.040  48.199 -27.573  1.00  0.00    -0.322 N 
HETATM   25  C7  UNL     1      -5.235  48.106 -28.949  1.00  0.00     0.263 C 
HETATM   26  O3  UNL     1      -4.574  48.728 -29.776  1.00  0.00    -0.267 OA
HETATM   27  H7  UNL     1      -5.720  47.732 -26.991  1.00  0.00     0.169 HD
BRANCH  25  28
HETATM   28  C8  UNL     1      -6.327  47.206 -29.328  1.00  0.00     0.072 A 
HETATM   29  C9  UNL     1      -6.412  46.277 -30.355  1.00  0.00     0.025 A 
HETATM   30  C10 UNL     1      -7.665  45.591 -30.373  1.00  0.00     0.009 A 
HETATM   31  C11 UNL     1      -8.504  46.023 -29.372  1.00  0.00     0.050 A 
HETATM   32  S1  UNL     1      -7.789  47.252 -28.424  1.00  0.00    -0.097 SA
ENDBRANCH  25  28
ENDBRANCH   3  24
TORSDOF 12
ENDMDL
MODEL 9
REMARK minimizedAffinity -7.00961018
REMARK  12 active torsions:
REMARK  status: ('A' for Active; 'I' for Inactive)
REMARK    1  A    between atoms: C2_2  and  O1_3 
REMARK    2  A    between atoms: O1_3  and  C3_4 
REMARK    3  A    between atoms: C3_4  and  C4_6 
REMARK    4  A    between atoms: C6_8  and  N1_9 
REMARK       I    between atoms: N1_9  and  C7_10 
REMARK    5  A    between atoms: C7_10  and  C8_12 
REMARK    6  A    between atoms: C14_19  and  O4_20 
REMARK    7  A    between atoms: O4_20  and  C15_21 
REMARK    8  A    between atoms: C15_21  and  C16_22 
REMARK    9  A    between atoms: C16_22  and  O5_23 
REMARK   10  A    between atoms: C16_22  and  C17_24 
REMARK   11  A    between atoms: C17_24  and  N2_25 
REMARK   12  A    between atoms: N2_25  and  C18_26 
ROOT
HETATM    1  C4  UNL     1      -0.873  52.561 -25.411  1.00  0.00     0.074 A 
HETATM    2  C5  UNL     1      -1.819  51.802 -26.119  1.00  0.00     0.050 A 
HETATM    3  C6  UNL     1      -2.747  51.029 -25.430  1.00  0.00     0.036 A 
HETATM    4  C12 UNL     1      -2.704  51.026 -24.031  1.00  0.00     0.032 A 
HETATM    5  C13 UNL     1      -1.756  51.786 -23.329  1.00  0.00     0.040 A 
HETATM    6  C14 UNL     1      -0.824  52.564 -24.011  1.00  0.00     0.085 A 
ENDROOT
BRANCH   6   7
HETATM    7  O4  UNL     1       0.136  53.341 -23.435  1.00  0.00    -0.348 OA
BRANCH   7   8
HETATM    8  C15 UNL     1       0.962  52.832 -22.376  1.00  0.00     0.209 C 
BRANCH   8   9
HETATM    9  C16 UNL     1       0.632  53.532 -21.049  1.00  0.00     0.170 C 
BRANCH   9  10
HETATM   10  O5  UNL     1       1.720  54.395 -20.666  1.00  0.00    -0.392 OA
HETATM   11  H16 UNL     1       1.393  55.312 -20.802  1.00  0.00     0.210 HD
ENDBRANCH   9  10
BRANCH   9  12
HETATM   12  C17 UNL     1       0.416  52.533 -19.889  1.00  0.00     0.304 C 
BRANCH  12  13
HETATM   13  N2  UNL     1      -0.949  52.009 -19.769  1.00  0.00     0.094 N 
HETATM   14  H19 UNL     1      -1.452  52.229 -20.632  1.00  0.00     0.317 HD
BRANCH  13  15
HETATM   15  C18 UNL     1      -1.088  50.556 -19.519  1.00  0.00     0.147 C 
HETATM   16  C19 UNL     1      -0.470  50.173 -18.159  1.00  0.00     0.048 C 
HETATM   17  C20 UNL     1      -0.280  49.861 -20.635  1.00  0.00     0.048 C 
HETATM   18  C21 UNL     1      -2.541  50.057 -19.591  1.00  0.00     0.048 C 
ENDBRANCH  13  15
ENDBRANCH  12  13
ENDBRANCH   9  12
ENDBRANCH   8   9
ENDBRANCH   7   8
ENDBRANCH   6   7
BRANCH   1  19
HETATM   19  C3  UNL     1       0.097  53.349 -26.192  1.00  0.00     0.296 C 
HETATM   20  O2  UNL     1      -0.176  54.348 -26.838  1.00  0.00    -0.259 OA
BRANCH  19  21
HETATM   21  O1  UNL     1       1.311  52.768 -26.032  1.00  0.00    -0.318 OA
BRANCH  21  22
HETATM   22  C2  UNL     1       1.515  51.543 -26.748  1.00  0.00     0.174 C 
HETATM   23  C1  UNL     1       1.344  51.768 -28.239  1.00  0.00     0.034 C 
ENDBRANCH  21  22
ENDBRANCH  19  21
ENDBRANCH   1  19
BRANCH   3  24
HETATM   24  N1  UNL     1      -3.730  50.225 -26.045  1.00  0.00    -0.322 N 
HETATM   25  C7  UNL     1      -3.619  48.893 -26.432  1.00  0.00     0.263 C 
HETATM   26  O3  UNL     1      -2.587  48.236 -26.331  1.00  0.00    -0.267 OA
HETATM   27  H7  UNL     1      -4.592  50.693 -26.285  1.00  0.00     0.169 HD
BRANCH  25  28
HETATM   28  C8  UNL     1      -4.852  48.341 -27.000  1.00  0.00     0.072 A 
HETATM   29  C9  UNL     1      -5.192  48.067 -28.317  1.00  0.00     0.025 A 
HETATM   30  C10 UNL     1      -6.506  47.520 -28.442  1.00  0.00     0.009 A 
HETATM   31  C11 UNL     1      -7.135  47.405 -27.224  1.00  0.00     0.050 A 
HETATM   32  S1  UNL     1      -6.153  47.960 -25.941  1.00  0.00    -0.097 SA
ENDBRANCH  25  28
ENDBRANCH   3  24
TORSDOF 12
ENDMDL
