MODEL 1
REMARK minimizedAffinity -9.18901062
REMARK CNNscore 0.702802241
REMARK CNNaffinity 7.18903112
REMARK  12 active torsions:
REMARK  status: ('A' for Active; 'I' for Inactive)
REMARK    1  A    between atoms: C3_3  and  O1_4 
REMARK    2  A    between atoms: N1_14  and  O2_16 
REMARK    3  A    between atoms: O2_16  and  C13_17 
REMARK    4  A    between atoms: C13_17  and  C14_18 
REMARK       I    between atoms: C14_18  and  N2_20 
REMARK    5  A    between atoms: N2_20  and  C15_21 
REMARK    6  A    between atoms: C15_21  and  C16_22 
REMARK    7  A    between atoms: C15_21  and  C26_36 
REMARK       I    between atoms: C16_22  and  N3_24 
REMARK    8  A    between atoms: N3_24  and  C17_25 
REMARK    9  A    between atoms: C17_25  and  C18_26 
REMARK   10  A    between atoms: C17_25  and  C25_33 
REMARK   11  A    between atoms: C18_26  and  C19_27 
REMARK   12  A    between atoms: C25_33  and  O6_35 
ROOT
HETATM    1  C1  UNL     1       2.521   5.533   6.879  1.00  0.00     0.015 C 
HETATM    2  C2  UNL     1       2.613   6.384   7.721  1.00  0.00    -0.078 C 
HETATM    3  C3  UNL     1       2.740   7.441   8.751  1.00  0.00     0.128 C 
HETATM    4  C4  UNL     1       1.905   8.646   8.342  1.00  0.00     0.052 C 
HETATM    5  C5  UNL     1       0.523   8.428   8.956  1.00  0.00     0.010 C 
HETATM    6  C6  UNL     1       0.640   7.255   9.969  1.00  0.00     0.002 C 
HETATM    7  C7  UNL     1      -0.210   7.389  11.281  1.00  0.00    -0.004 C 
HETATM    8  C8  UNL     1      -0.934   8.743  11.465  1.00  0.00     0.010 C 
HETATM    9  C9  UNL     1      -1.779   8.820  12.737  1.00  0.00     0.035 C 
HETATM   10  C10 UNL     1      -0.934   8.469  13.934  1.00  0.00    -0.069 C 
HETATM   11  C11 UNL     1      -0.737   9.371  14.908  1.00  0.00     0.030 C 
HETATM   12  C12 UNL     1       0.251   9.157  15.993  1.00  0.00     0.032 C 
HETATM   13  N1  UNL     1       0.304  10.051  16.941  1.00  0.00    -0.271 N 
ATOM     14  H1  UNL     1      -0.301  10.872  16.986  1.00  0.00     0.194 HD
HETATM   15  C29 UNL     1       1.200   7.986  15.859  1.00  0.00     0.060 C 
HETATM   16  C30 UNL     1       0.541   6.794  15.178  1.00  0.00     0.020 C 
HETATM   17  C31 UNL     1      -0.272   7.100  13.881  1.00  0.00    -0.016 C 
HETATM   18  C32 UNL     1      -1.365   5.991  13.841  1.00  0.00     0.020 C 
HETATM   19  C33 UNL     1       0.589   7.007  12.561  1.00  0.00     0.002 C 
HETATM   20  C34 UNL     1       1.922   7.784  12.620  1.00  0.00     0.007 C 
HETATM   21  C35 UNL     1       2.663   7.966  11.283  1.00  0.00     0.014 C 
HETATM   22  C36 UNL     1       2.170   7.036  10.152  1.00  0.00     0.003 C 
HETATM   23  C37 UNL     1       2.584   5.582  10.487  1.00  0.00     0.020 C 
ENDROOT
BRANCH   3  24
HETATM   24  O1  UNL     1       4.109   7.809   8.843  1.00  0.00    -0.377 OA
HETATM   25  H2  UNL     1       4.405   8.022   7.941  1.00  0.00     0.211 HD
ENDBRANCH   3  24
BRANCH  13  26
HETATM   26  O2  UNL     1       1.292   9.750  17.890  1.00  0.00    -0.271 OA
BRANCH  26  27
HETATM   27  C13 UNL     1       2.099  10.904  18.098  1.00  0.00     0.303 C 
BRANCH  27  28
HETATM   28  C14 UNL     1       2.750  10.870  19.473  1.00  0.00     0.244 C 
HETATM   29  O3  UNL     1       2.756   9.860  20.175  1.00  0.00    -0.271 OA
HETATM   30  N2  UNL     1       3.384  12.032  19.836  1.00  0.00    -0.346 N 
HETATM   31  H16 UNL     1       3.279  12.857  19.248  1.00  0.00     0.163 HD
BRANCH  30  32
HETATM   32  C15 UNL     1       4.109  12.184  21.095  1.00  0.00     0.180 C 
BRANCH  32  33
HETATM   33  C16 UNL     1       5.592  11.868  20.796  1.00  0.00     0.241 C 
HETATM   34  O4  UNL     1       5.931  11.057  19.933  1.00  0.00    -0.271 OA
HETATM   35  N3  UNL     1       6.504  12.569  21.553  1.00  0.00    -0.345 N 
HETATM   36  H18 UNL     1       6.185  12.960  22.430  1.00  0.00     0.163 HD
BRANCH  35  37
HETATM   37  C17 UNL     1       7.942  12.282  21.472  1.00  0.00     0.186 C 
BRANCH  37  38
HETATM   38  C18 UNL     1       8.678  13.300  20.579  1.00  0.00     0.074 C 
BRANCH  38  39
HETATM   39  C19 UNL     1       9.780  12.702  19.727  1.00  0.00    -0.056 A 
HETATM   40  C20 UNL     1      10.892  13.478  19.366  1.00  0.00     0.007 A 
HETATM   41  C21 UNL     1      11.935  12.915  18.630  1.00  0.00     0.001 A 
HETATM   42  C22 UNL     1      11.879  11.580  18.247  1.00  0.00     0.000 A 
HETATM   43  C23 UNL     1      10.774  10.805  18.588  1.00  0.00     0.001 A 
HETATM   44  C24 UNL     1       9.727  11.364  19.321  1.00  0.00     0.007 A 
ENDBRANCH  38  39
ENDBRANCH  37  38
BRANCH  37  45
HETATM   45  C25 UNL     1       8.619  12.211  22.846  1.00  0.00     0.163 C 
HETATM   46  O5  UNL     1       8.940  13.168  23.532  1.00  0.00    -0.648 OA
BRANCH  45  47
HETATM   47  O6  UNL     1       8.810  10.961  23.315  1.00  0.00    -0.775 OA
HETATM   48  H27 UNL     1       9.236  11.097  24.187  1.00  0.00     0.167 HD
ENDBRANCH  45  47
ENDBRANCH  37  45
ENDBRANCH  35  37
ENDBRANCH  32  33
BRANCH  32  49
HETATM   49  C26 UNL     1       3.467  11.316  22.202  1.00  0.00     0.009 C 
HETATM   50  C27 UNL     1       4.475  10.400  22.904  1.00  0.00     0.012 C 
HETATM   51  C28 UNL     1       2.697  12.139  23.232  1.00  0.00     0.012 C 
ENDBRANCH  32  49
ENDBRANCH  30  32
ENDBRANCH  27  28
ENDBRANCH  26  27
ENDBRANCH  13  26
TORSDOF 12
ENDMDL
MODEL 2
REMARK minimizedAffinity -8.34359932
REMARK CNNscore 0.563304484
REMARK CNNaffinity 7.11372137
REMARK  12 active torsions:
REMARK  status: ('A' for Active; 'I' for Inactive)
REMARK    1  A    between atoms: C3_3  and  O1_4 
REMARK    2  A    between atoms: N1_14  and  O2_16 
REMARK    3  A    between atoms: O2_16  and  C13_17 
REMARK    4  A    between atoms: C13_17  and  C14_18 
REMARK       I    between atoms: C14_18  and  N2_20 
REMARK    5  A    between atoms: N2_20  and  C15_21 
REMARK    6  A    between atoms: C15_21  and  C16_22 
REMARK    7  A    between atoms: C15_21  and  C26_36 
REMARK       I    between atoms: C16_22  and  N3_24 
REMARK    8  A    between atoms: N3_24  and  C17_25 
REMARK    9  A    between atoms: C17_25  and  C18_26 
REMARK   10  A    between atoms: C17_25  and  C25_33 
REMARK   11  A    between atoms: C18_26  and  C19_27 
REMARK   12  A    between atoms: C25_33  and  O6_35 
ROOT
HETATM    1  C1  UNL     1       2.649   5.379   7.055  1.00  0.00     0.015 C 
HETATM    2  C2  UNL     1       2.722   6.232   7.897  1.00  0.00    -0.078 C 
HETATM    3  C3  UNL     1       2.828   7.290   8.928  1.00  0.00     0.128 C 
HETATM    4  C4  UNL     1       2.110   8.541   8.442  1.00  0.00     0.052 C 
HETATM    5  C5  UNL     1       0.669   8.417   8.936  1.00  0.00     0.010 C 
HETATM    6  C6  UNL     1       0.624   7.251   9.962  1.00  0.00     0.002 C 
HETATM    7  C7  UNL     1      -0.324   7.453  11.195  1.00  0.00    -0.004 C 
HETATM    8  C8  UNL     1      -0.973   8.852  11.308  1.00  0.00     0.010 C 
HETATM    9  C9  UNL     1      -1.918   8.996  12.503  1.00  0.00     0.035 C 
HETATM   10  C10 UNL     1      -1.202   8.606  13.769  1.00  0.00    -0.069 C 
HETATM   11  C11 UNL     1      -1.032   9.505  14.752  1.00  0.00     0.030 C 
HETATM   12  C12 UNL     1      -0.156   9.241  15.919  1.00  0.00     0.032 C 
HETATM   13  N1  UNL     1      -0.127  10.141  16.863  1.00  0.00    -0.271 N 
ATOM     14  H1  UNL     1      -0.680  10.999  16.851  1.00  0.00     0.194 HD
HETATM   15  C29 UNL     1       0.725   8.011  15.874  1.00  0.00     0.060 C 
HETATM   16  C30 UNL     1       0.052   6.856  15.146  1.00  0.00     0.020 C 
HETATM   17  C31 UNL     1      -0.626   7.197  13.782  1.00  0.00    -0.016 C 
HETATM   18  C32 UNL     1      -1.780   6.159  13.654  1.00  0.00     0.020 C 
HETATM   19  C33 UNL     1       0.336   7.036  12.541  1.00  0.00     0.002 C 
HETATM   20  C34 UNL     1       1.706   7.727  12.710  1.00  0.00     0.007 C 
HETATM   21  C35 UNL     1       2.569   7.848  11.441  1.00  0.00     0.014 C 
HETATM   22  C36 UNL     1       2.116   6.938  10.277  1.00  0.00     0.003 C 
HETATM   23  C37 UNL     1       2.406   5.465  10.654  1.00  0.00     0.020 C 
ENDROOT
BRANCH   3  24
HETATM   24  O1  UNL     1       4.205   7.573   9.135  1.00  0.00    -0.377 OA
HETATM   25  H2  UNL     1       4.590   7.756   8.260  1.00  0.00     0.211 HD
ENDBRANCH   3  24
BRANCH  13  26
HETATM   26  O2  UNL     1       0.755   9.788  17.894  1.00  0.00    -0.271 OA
BRANCH  26  27
HETATM   27  C13 UNL     1       0.945  10.915  18.744  1.00  0.00     0.303 C 
BRANCH  27  28
HETATM   28  C14 UNL     1       1.971  10.612  19.825  1.00  0.00     0.244 C 
HETATM   29  O3  UNL     1       2.723   9.641  19.767  1.00  0.00    -0.271 OA
HETATM   30  N2  UNL     1       2.035  11.543  20.833  1.00  0.00    -0.346 N 
HETATM   31  H16 UNL     1       1.336  12.283  20.867  1.00  0.00     0.163 HD
BRANCH  30  32
HETATM   32  C15 UNL     1       2.987  11.458  21.937  1.00  0.00     0.180 C 
BRANCH  32  33
HETATM   33  C16 UNL     1       4.258  12.215  21.489  1.00  0.00     0.241 C 
HETATM   34  O4  UNL     1       4.591  12.298  20.306  1.00  0.00    -0.271 OA
HETATM   35  N3  UNL     1       4.980  12.798  22.505  1.00  0.00    -0.345 N 
HETATM   36  H18 UNL     1       4.849  12.439  23.443  1.00  0.00     0.163 HD
BRANCH  35  37
HETATM   37  C17 UNL     1       6.276  13.439  22.248  1.00  0.00     0.186 C 
BRANCH  37  38
HETATM   38  C18 UNL     1       6.634  14.463  23.342  1.00  0.00     0.074 C 
BRANCH  38  39
HETATM   39  C19 UNL     1       7.468  15.632  22.857  1.00  0.00    -0.056 A 
HETATM   40  C20 UNL     1       6.969  16.940  22.944  1.00  0.00     0.007 A 
HETATM   41  C21 UNL     1       7.755  18.023  22.550  1.00  0.00     0.001 A 
HETATM   42  C22 UNL     1       9.042  17.813  22.066  1.00  0.00     0.000 A 
HETATM   43  C23 UNL     1       9.542  16.518  21.963  1.00  0.00     0.001 A 
HETATM   44  C24 UNL     1       8.758  15.431  22.352  1.00  0.00     0.007 A 
ENDBRANCH  38  39
ENDBRANCH  37  38
BRANCH  37  45
HETATM   45  C25 UNL     1       7.422  12.433  22.083  1.00  0.00     0.163 C 
HETATM   46  O5  UNL     1       7.947  12.118  21.027  1.00  0.00    -0.648 OA
BRANCH  45  47
HETATM   47  O6  UNL     1       7.888  11.918  23.239  1.00  0.00    -0.775 OA
HETATM   48  H27 UNL     1       8.607  11.314  22.957  1.00  0.00     0.167 HD
ENDBRANCH  45  47
ENDBRANCH  37  45
ENDBRANCH  35  37
ENDBRANCH  32  33
BRANCH  32  49
HETATM   49  C26 UNL     1       3.215   9.985  22.348  1.00  0.00     0.009 C 
HETATM   50  C27 UNL     1       4.697   9.605  22.416  1.00  0.00     0.012 C 
HETATM   51  C28 UNL     1       2.517   9.617  23.656  1.00  0.00     0.012 C 
ENDBRANCH  32  49
ENDBRANCH  30  32
ENDBRANCH  27  28
ENDBRANCH  26  27
ENDBRANCH  13  26
TORSDOF 12
ENDMDL
MODEL 3
REMARK minimizedAffinity -7.68527222
REMARK CNNscore 0.425424218
REMARK CNNaffinity 6.3969779
REMARK  12 active torsions:
REMARK  status: ('A' for Active; 'I' for Inactive)
REMARK    1  A    between atoms: C3_3  and  O1_4 
REMARK    2  A    between atoms: N1_14  and  O2_16 
REMARK    3  A    between atoms: O2_16  and  C13_17 
REMARK    4  A    between atoms: C13_17  and  C14_18 
REMARK       I    between atoms: C14_18  and  N2_20 
REMARK    5  A    between atoms: N2_20  and  C15_21 
REMARK    6  A    between atoms: C15_21  and  C16_22 
REMARK    7  A    between atoms: C15_21  and  C26_36 
REMARK       I    between atoms: C16_22  and  N3_24 
REMARK    8  A    between atoms: N3_24  and  C17_25 
REMARK    9  A    between atoms: C17_25  and  C18_26 
REMARK   10  A    between atoms: C17_25  and  C25_33 
REMARK   11  A    between atoms: C18_26  and  C19_27 
REMARK   12  A    between atoms: C25_33  and  O6_35 
ROOT
HETATM    1  C1  UNL     1      -3.506   4.873  12.526  1.00  0.00     0.015 C 
HETATM    2  C2  UNL     1      -2.593   5.541  12.929  1.00  0.00    -0.078 C 
HETATM    3  C3  UNL     1      -1.454   6.353  13.419  1.00  0.00     0.128 C 
HETATM    4  C4  UNL     1      -1.015   7.316  12.326  1.00  0.00     0.052 C 
HETATM    5  C5  UNL     1      -1.822   8.595  12.544  1.00  0.00     0.010 C 
HETATM    6  C6  UNL     1      -2.504   8.487  13.937  1.00  0.00     0.002 C 
HETATM    7  C7  UNL     1      -2.591   9.815  14.766  1.00  0.00    -0.004 C 
HETATM    8  C8  UNL     1      -1.850  11.027  14.156  1.00  0.00     0.010 C 
HETATM    9  C9  UNL     1      -1.989  12.310  14.976  1.00  0.00     0.035 C 
HETATM   10  C10 UNL     1      -1.568  12.054  16.400  1.00  0.00    -0.069 C 
HETATM   11  C11 UNL     1      -0.529  12.722  16.926  1.00  0.00     0.030 C 
HETATM   12  C12 UNL     1       0.059  12.358  18.238  1.00  0.00     0.032 C 
HETATM   13  N1  UNL     1       1.008  13.123  18.702  1.00  0.00    -0.271 N 
ATOM     14  H1  UNL     1       1.353  13.957  18.227  1.00  0.00     0.194 HD
HETATM   15  C29 UNL     1      -0.401  11.068  18.881  1.00  0.00     0.060 C 
HETATM   16  C30 UNL     1      -1.868  10.780  18.594  1.00  0.00     0.020 C 
HETATM   17  C31 UNL     1      -2.329  10.945  17.112  1.00  0.00    -0.016 C 
HETATM   18  C32 UNL     1      -3.835  11.328  17.217  1.00  0.00     0.020 C 
HETATM   19  C33 UNL     1      -2.204   9.621  16.261  1.00  0.00     0.002 C 
HETATM   20  C34 UNL     1      -0.833   8.922  16.379  1.00  0.00     0.007 C 
HETATM   21  C35 UNL     1      -0.553   7.798  15.365  1.00  0.00     0.014 C 
HETATM   22  C36 UNL     1      -1.808   7.280  14.630  1.00  0.00     0.003 C 
HETATM   23  C37 UNL     1      -2.695   6.510  15.639  1.00  0.00     0.020 C 
ENDROOT
BRANCH   3  24
HETATM   24  O1  UNL     1      -0.388   5.471  13.744  1.00  0.00    -0.377 OA
HETATM   25  H2  UNL     1      -0.238   4.909  12.964  1.00  0.00     0.211 HD
ENDBRANCH   3  24
BRANCH  13  26
HETATM   26  O2  UNL     1       1.496  12.661  19.933  1.00  0.00    -0.271 OA
BRANCH  26  27
HETATM   27  C13 UNL     1       2.047  13.759  20.653  1.00  0.00     0.303 C 
BRANCH  27  28
HETATM   28  C14 UNL     1       2.673  13.293  21.959  1.00  0.00     0.244 C 
HETATM   29  O3  UNL     1       2.250  13.650  23.057  1.00  0.00    -0.271 OA
HETATM   30  N2  UNL     1       3.702  12.395  21.814  1.00  0.00    -0.346 N 
HETATM   31  H16 UNL     1       4.058  12.197  20.880  1.00  0.00     0.163 HD
BRANCH  30  32
HETATM   32  C15 UNL     1       4.400  11.793  22.947  1.00  0.00     0.180 C 
BRANCH  32  33
HETATM   33  C16 UNL     1       5.884  12.207  22.826  1.00  0.00     0.241 C 
HETATM   34  O4  UNL     1       6.788  11.581  23.380  1.00  0.00    -0.271 OA
HETATM   35  N3  UNL     1       6.120  13.315  22.044  1.00  0.00    -0.345 N 
HETATM   36  H18 UNL     1       5.350  13.953  21.888  1.00  0.00     0.163 HD
BRANCH  35  37
HETATM   37  C17 UNL     1       7.462  13.902  21.941  1.00  0.00     0.186 C 
BRANCH  37  38
HETATM   38  C18 UNL     1       8.017  14.305  23.321  1.00  0.00     0.074 C 
BRANCH  38  39
HETATM   39  C19 UNL     1       7.776  15.755  23.693  1.00  0.00    -0.056 A 
HETATM   40  C20 UNL     1       6.487  16.191  24.034  1.00  0.00     0.007 A 
HETATM   41  C21 UNL     1       6.271  17.510  24.432  1.00  0.00     0.001 A 
HETATM   42  C22 UNL     1       7.334  18.405  24.491  1.00  0.00     0.000 A 
HETATM   43  C23 UNL     1       8.615  17.986  24.142  1.00  0.00     0.001 A 
HETATM   44  C24 UNL     1       8.835  16.668  23.741  1.00  0.00     0.007 A 
ENDBRANCH  38  39
ENDBRANCH  37  38
BRANCH  37  45
HETATM   45  C25 UNL     1       8.464  12.990  21.225  1.00  0.00     0.163 C 
HETATM   46  O5  UNL     1       9.518  12.584  21.690  1.00  0.00    -0.648 OA
BRANCH  45  47
HETATM   47  O6  UNL     1       8.080  12.587  19.996  1.00  0.00    -0.775 OA
HETATM   48  H27 UNL     1       8.818  12.017  19.691  1.00  0.00     0.167 HD
ENDBRANCH  45  47
ENDBRANCH  37  45
ENDBRANCH  35  37
ENDBRANCH  32  33
BRANCH  32  49
HETATM   49  C26 UNL     1       4.149  10.268  22.994  1.00  0.00     0.009 C 
HETATM   50  C27 UNL     1       3.053   9.872  23.987  1.00  0.00     0.012 C 
HETATM   51  C28 UNL     1       3.854   9.670  21.619  1.00  0.00     0.012 C 
ENDBRANCH  32  49
ENDBRANCH  30  32
ENDBRANCH  27  28
ENDBRANCH  26  27
ENDBRANCH  13  26
TORSDOF 12
ENDMDL
MODEL 4
REMARK minimizedAffinity -10.1981201
REMARK CNNscore 0.32377997
REMARK CNNaffinity 7.44160414
REMARK  12 active torsions:
REMARK  status: ('A' for Active; 'I' for Inactive)
REMARK    1  A    between atoms: C3_3  and  O1_4 
REMARK    2  A    between atoms: N1_14  and  O2_16 
REMARK    3  A    between atoms: O2_16  and  C13_17 
REMARK    4  A    between atoms: C13_17  and  C14_18 
REMARK       I    between atoms: C14_18  and  N2_20 
REMARK    5  A    between atoms: N2_20  and  C15_21 
REMARK    6  A    between atoms: C15_21  and  C16_22 
REMARK    7  A    between atoms: C15_21  and  C26_36 
REMARK       I    between atoms: C16_22  and  N3_24 
REMARK    8  A    between atoms: N3_24  and  C17_25 
REMARK    9  A    between atoms: C17_25  and  C18_26 
REMARK   10  A    between atoms: C17_25  and  C25_33 
REMARK   11  A    between atoms: C18_26  and  C19_27 
REMARK   12  A    between atoms: C25_33  and  O6_35 
ROOT
HETATM    1  C1  UNL     1      -9.428   6.362  13.728  1.00  0.00     0.015 C 
HETATM    2  C2  UNL     1      -8.406   6.034  14.268  1.00  0.00    -0.078 C 
HETATM    3  C3  UNL     1      -7.155   5.620  14.946  1.00  0.00     0.128 C 
HETATM    4  C4  UNL     1      -6.690   4.289  14.375  1.00  0.00     0.052 C 
HETATM    5  C5  UNL     1      -5.763   4.633  13.209  1.00  0.00     0.010 C 
HETATM    6  C6  UNL     1      -5.450   6.153  13.292  1.00  0.00     0.002 C 
HETATM    7  C7  UNL     1      -3.991   6.579  12.904  1.00  0.00    -0.004 C 
HETATM    8  C8  UNL     1      -3.010   5.414  12.638  1.00  0.00     0.010 C 
HETATM    9  C9  UNL     1      -1.609   5.871  12.228  1.00  0.00     0.035 C 
HETATM   10  C10 UNL     1      -1.069   6.837  13.249  1.00  0.00    -0.069 C 
HETATM   11  C11 UNL     1       0.046   6.539  13.936  1.00  0.00     0.030 C 
HETATM   12  C12 UNL     1       0.498   7.347  15.095  1.00  0.00     0.032 C 
HETATM   13  N1  UNL     1       1.640   7.027  15.639  1.00  0.00    -0.271 N 
ATOM     14  H1  UNL     1       2.240   6.273  15.306  1.00  0.00     0.194 HD
HETATM   15  C29 UNL     1      -0.448   8.399  15.630  1.00  0.00     0.060 C 
HETATM   16  C30 UNL     1      -1.269   9.044  14.522  1.00  0.00     0.020 C 
HETATM   17  C31 UNL     1      -1.924   8.073  13.491  1.00  0.00    -0.016 C 
HETATM   18  C32 UNL     1      -2.019   8.908  12.180  1.00  0.00     0.020 C 
HETATM   19  C33 UNL     1      -3.377   7.607  13.898  1.00  0.00     0.002 C 
HETATM   20  C34 UNL     1      -3.493   7.095  15.349  1.00  0.00     0.007 C 
HETATM   21  C35 UNL     1      -4.802   6.370  15.712  1.00  0.00     0.014 C 
HETATM   22  C36 UNL     1      -5.949   6.587  14.701  1.00  0.00     0.003 C 
HETATM   23  C37 UNL     1      -6.426   8.057  14.798  1.00  0.00     0.020 C 
ENDROOT
BRANCH   3  24
HETATM   24  O1  UNL     1      -7.428   5.482  16.334  1.00  0.00    -0.377 OA
HETATM   25  H2  UNL     1      -8.199   4.895  16.413  1.00  0.00     0.211 HD
ENDBRANCH   3  24
BRANCH  13  26
HETATM   26  O2  UNL     1       1.942   7.846  16.737  1.00  0.00    -0.271 OA
BRANCH  26  27
HETATM   27  C13 UNL     1       2.529   9.054  16.264  1.00  0.00     0.303 C 
BRANCH  27  28
HETATM   28  C14 UNL     1       3.870   8.782  15.598  1.00  0.00     0.244 C 
HETATM   29  O3  UNL     1       4.353   7.653  15.525  1.00  0.00    -0.271 OA
HETATM   30  N2  UNL     1       4.463   9.882  15.031  1.00  0.00    -0.346 N 
HETATM   31  H16 UNL     1       4.054  10.802  15.190  1.00  0.00     0.163 HD
BRANCH  30  32
HETATM   32  C15 UNL     1       5.728   9.820  14.303  1.00  0.00     0.180 C 
BRANCH  32  33
HETATM   33  C16 UNL     1       5.404   9.286  12.890  1.00  0.00     0.241 C 
HETATM   34  O4  UNL     1       5.119  10.032  11.954  1.00  0.00    -0.271 OA
HETATM   35  N3  UNL     1       5.471   7.917  12.752  1.00  0.00    -0.345 N 
HETATM   36  H18 UNL     1       5.392   7.355  13.591  1.00  0.00     0.163 HD
BRANCH  35  37
HETATM   37  C17 UNL     1       5.064   7.256  11.506  1.00  0.00     0.186 C 
BRANCH  37  38
HETATM   38  C18 UNL     1       4.725   8.277  10.403  1.00  0.00     0.074 C 
BRANCH  38  39
HETATM   39  C19 UNL     1       3.325   8.144   9.837  1.00  0.00    -0.056 A 
HETATM   40  C20 UNL     1       3.119   8.175   8.450  1.00  0.00     0.007 A 
HETATM   41  C21 UNL     1       1.840   7.995   7.922  1.00  0.00     0.001 A 
HETATM   42  C22 UNL     1       0.757   7.786   8.770  1.00  0.00     0.000 A 
HETATM   43  C23 UNL     1       0.949   7.767  10.149  1.00  0.00     0.001 A 
HETATM   44  C24 UNL     1       2.225   7.949  10.681  1.00  0.00     0.007 A 
ENDBRANCH  38  39
ENDBRANCH  37  38
BRANCH  37  45
HETATM   45  C25 UNL     1       6.106   6.258  10.987  1.00  0.00     0.163 C 
HETATM   46  O5  UNL     1       7.318   6.388  11.066  1.00  0.00    -0.648 OA
BRANCH  45  47
HETATM   47  O6  UNL     1       5.590   5.134  10.451  1.00  0.00    -0.775 OA
HETATM   48  H27 UNL     1       6.377   4.615  10.183  1.00  0.00     0.167 HD
ENDBRANCH  45  47
ENDBRANCH  37  45
ENDBRANCH  35  37
ENDBRANCH  32  33
BRANCH  32  49
HETATM   49  C26 UNL     1       6.769   8.991  15.091  1.00  0.00     0.009 C 
HETATM   50  C27 UNL     1       8.023   8.670  14.272  1.00  0.00     0.012 C 
HETATM   51  C28 UNL     1       7.159   9.634  16.421  1.00  0.00     0.012 C 
ENDBRANCH  32  49
ENDBRANCH  30  32
ENDBRANCH  27  28
ENDBRANCH  26  27
ENDBRANCH  13  26
TORSDOF 12
ENDMDL
MODEL 5
REMARK minimizedAffinity -8.79949284
REMARK CNNscore 0.321500897
REMARK CNNaffinity 6.64800501
REMARK  12 active torsions:
REMARK  status: ('A' for Active; 'I' for Inactive)
REMARK    1  A    between atoms: C3_3  and  O1_4 
REMARK    2  A    between atoms: N1_14  and  O2_16 
REMARK    3  A    between atoms: O2_16  and  C13_17 
REMARK    4  A    between atoms: C13_17  and  C14_18 
REMARK       I    between atoms: C14_18  and  N2_20 
REMARK    5  A    between atoms: N2_20  and  C15_21 
REMARK    6  A    between atoms: C15_21  and  C16_22 
REMARK    7  A    between atoms: C15_21  and  C26_36 
REMARK       I    between atoms: C16_22  and  N3_24 
REMARK    8  A    between atoms: N3_24  and  C17_25 
REMARK    9  A    between atoms: C17_25  and  C18_26 
REMARK   10  A    between atoms: C17_25  and  C25_33 
REMARK   11  A    between atoms: C18_26  and  C19_27 
REMARK   12  A    between atoms: C25_33  and  O6_35 
ROOT
HETATM    1  C1  UNL     1       3.064   4.900   7.319  1.00  0.00     0.015 C 
HETATM    2  C2  UNL     1       3.064   5.761   8.156  1.00  0.00    -0.078 C 
HETATM    3  C3  UNL     1       3.081   6.828   9.184  1.00  0.00     0.128 C 
HETATM    4  C4  UNL     1       2.565   8.123   8.575  1.00  0.00     0.052 C 
HETATM    5  C5  UNL     1       1.056   8.128   8.814  1.00  0.00     0.010 C 
HETATM    6  C6  UNL     1       0.738   6.991   9.824  1.00  0.00     0.002 C 
HETATM    7  C7  UNL     1      -0.387   7.295  10.874  1.00  0.00    -0.004 C 
HETATM    8  C8  UNL     1      -0.925   8.744  10.866  1.00  0.00     0.010 C 
HETATM    9  C9  UNL     1      -2.044   8.990  11.879  1.00  0.00     0.035 C 
HETATM   10  C10 UNL     1      -1.592   8.568  13.252  1.00  0.00    -0.069 C 
HETATM   11  C11 UNL     1      -1.517   9.470  14.244  1.00  0.00     0.030 C 
HETATM   12  C12 UNL     1      -0.878   9.158  15.546  1.00  0.00     0.032 C 
HETATM   13  N1  UNL     1      -0.936  10.072  16.475  1.00  0.00    -0.271 N 
ATOM     14  H1  UNL     1      -1.404  10.971  16.364  1.00  0.00     0.194 HD
HETATM   15  C29 UNL     1      -0.110   7.859  15.660  1.00  0.00     0.060 C 
HETATM   16  C30 UNL     1      -0.744   6.748  14.834  1.00  0.00     0.020 C 
HETATM   17  C31 UNL     1      -1.148   7.117  13.371  1.00  0.00    -0.016 C 
HETATM   18  C32 UNL     1      -2.346   6.175  13.053  1.00  0.00     0.020 C 
HETATM   19  C33 UNL     1      -0.004   6.852  12.316  1.00  0.00     0.002 C 
HETATM   20  C34 UNL     1       1.370   7.432  12.714  1.00  0.00     0.007 C 
HETATM   21  C35 UNL     1       2.445   7.455  11.611  1.00  0.00     0.014 C 
HETATM   22  C36 UNL     1       2.122   6.563  10.392  1.00  0.00     0.003 C 
HETATM   23  C37 UNL     1       2.218   5.079  10.822  1.00  0.00     0.020 C 
ENDROOT
BRANCH   3  24
HETATM   24  O1  UNL     1       4.422   7.000   9.623  1.00  0.00    -0.377 OA
HETATM   25  H2  UNL     1       4.964   7.133   8.827  1.00  0.00     0.211 HD
ENDBRANCH   3  24
BRANCH  13  26
HETATM   26  O2  UNL     1      -0.276   9.668  17.646  1.00  0.00    -0.271 OA
BRANCH  26  27
HETATM   27  C13 UNL     1       0.294  10.813  18.272  1.00  0.00     0.303 C 
BRANCH  27  28
HETATM   28  C14 UNL     1       1.812  10.774  18.195  1.00  0.00     0.244 C 
HETATM   29  O3  UNL     1       2.432   9.752  17.906  1.00  0.00    -0.271 OA
HETATM   30  N2  UNL     1       2.429  11.983  18.408  1.00  0.00    -0.346 N 
HETATM   31  H16 UNL     1       1.869  12.775  18.720  1.00  0.00     0.163 HD
BRANCH  30  32
HETATM   32  C15 UNL     1       3.876  12.164  18.330  1.00  0.00     0.180 C 
BRANCH  32  33
HETATM   33  C16 UNL     1       4.309  12.864  19.638  1.00  0.00     0.241 C 
HETATM   34  O4  UNL     1       4.211  14.080  19.797  1.00  0.00    -0.271 OA
HETATM   35  N3  UNL     1       4.797  12.026  20.616  1.00  0.00    -0.345 N 
HETATM   36  H18 UNL     1       5.145  11.119  20.328  1.00  0.00     0.163 HD
BRANCH  35  37
HETATM   37  C17 UNL     1       5.365  12.557  21.860  1.00  0.00     0.186 C 
BRANCH  37  38
HETATM   38  C18 UNL     1       4.583  12.074  23.097  1.00  0.00     0.074 C 
BRANCH  38  39
HETATM   39  C19 UNL     1       3.798  10.795  22.881  1.00  0.00    -0.056 A 
HETATM   40  C20 UNL     1       3.272  10.096  23.977  1.00  0.00     0.007 A 
HETATM   41  C21 UNL     1       2.501   8.950  23.779  1.00  0.00     0.001 A 
HETATM   42  C22 UNL     1       2.251   8.491  22.490  1.00  0.00     0.000 A 
HETATM   43  C23 UNL     1       2.780   9.170  21.396  1.00  0.00     0.001 A 
HETATM   44  C24 UNL     1       3.553  10.314  21.589  1.00  0.00     0.007 A 
ENDBRANCH  38  39
ENDBRANCH  37  38
BRANCH  37  45
HETATM   45  C25 UNL     1       6.854  12.231  22.028  1.00  0.00     0.163 C 
HETATM   46  O5  UNL     1       7.436  12.085  23.092  1.00  0.00    -0.648 OA
BRANCH  45  47
HETATM   47  O6  UNL     1       7.524  12.052  20.872  1.00  0.00    -0.775 OA
HETATM   48  H27 UNL     1       8.440  11.848  21.158  1.00  0.00     0.167 HD
ENDBRANCH  45  47
ENDBRANCH  37  45
ENDBRANCH  35  37
ENDBRANCH  32  33
BRANCH  32  49
HETATM   49  C26 UNL     1       4.261  12.911  17.032  1.00  0.00     0.009 C 
HETATM   50  C27 UNL     1       3.236  13.976  16.628  1.00  0.00     0.012 C 
HETATM   51  C28 UNL     1       5.660  13.522  17.089  1.00  0.00     0.012 C 
ENDBRANCH  32  49
ENDBRANCH  30  32
ENDBRANCH  27  28
ENDBRANCH  26  27
ENDBRANCH  13  26
TORSDOF 12
ENDMDL
MODEL 6
REMARK minimizedAffinity -9.41163826
REMARK CNNscore 0.274935961
REMARK CNNaffinity 6.79364252
REMARK  12 active torsions:
REMARK  status: ('A' for Active; 'I' for Inactive)
REMARK    1  A    between atoms: C3_3  and  O1_4 
REMARK    2  A    between atoms: N1_14  and  O2_16 
REMARK    3  A    between atoms: O2_16  and  C13_17 
REMARK    4  A    between atoms: C13_17  and  C14_18 
REMARK       I    between atoms: C14_18  and  N2_20 
REMARK    5  A    between atoms: N2_20  and  C15_21 
REMARK    6  A    between atoms: C15_21  and  C16_22 
REMARK    7  A    between atoms: C15_21  and  C26_36 
REMARK       I    between atoms: C16_22  and  N3_24 
REMARK    8  A    between atoms: N3_24  and  C17_25 
REMARK    9  A    between atoms: C17_25  and  C18_26 
REMARK   10  A    between atoms: C17_25  and  C25_33 
REMARK   11  A    between atoms: C18_26  and  C19_27 
REMARK   12  A    between atoms: C25_33  and  O6_35 
ROOT
HETATM    1  C1  UNL     1       2.690   5.385   7.031  1.00  0.00     0.015 C 
HETATM    2  C2  UNL     1       2.725   6.243   7.871  1.00  0.00    -0.078 C 
HETATM    3  C3  UNL     1       2.784   7.307   8.900  1.00  0.00     0.128 C 
HETATM    4  C4  UNL     1       2.054   8.541   8.391  1.00  0.00     0.052 C 
HETATM    5  C5  UNL     1       0.604   8.390   8.850  1.00  0.00     0.010 C 
HETATM    6  C6  UNL     1       0.557   7.227   9.880  1.00  0.00     0.002 C 
HETATM    7  C7  UNL     1      -0.425   7.415  11.088  1.00  0.00    -0.004 C 
HETATM    8  C8  UNL     1      -1.105   8.801  11.179  1.00  0.00     0.010 C 
HETATM    9  C9  UNL     1      -2.081   8.931  12.349  1.00  0.00     0.035 C 
HETATM   10  C10 UNL     1      -1.390   8.560  13.634  1.00  0.00    -0.069 C 
HETATM   11  C11 UNL     1      -1.262   9.467  14.617  1.00  0.00     0.030 C 
HETATM   12  C12 UNL     1      -0.410   9.225  15.806  1.00  0.00     0.032 C 
HETATM   13  N1  UNL     1      -0.423  10.129  16.747  1.00  0.00    -0.271 N 
ATOM     14  H1  UNL     1      -0.992  10.975  16.718  1.00  0.00     0.194 HD
HETATM   15  C29 UNL     1       0.495   8.012  15.788  1.00  0.00     0.060 C 
HETATM   16  C30 UNL     1      -0.136   6.841  15.049  1.00  0.00     0.020 C 
HETATM   17  C31 UNL     1      -0.787   7.163  13.667  1.00  0.00    -0.016 C 
HETATM   18  C32 UNL     1      -1.916   6.102  13.515  1.00  0.00     0.020 C 
HETATM   19  C33 UNL     1       0.209   7.016  12.451  1.00  0.00     0.002 C 
HETATM   20  C34 UNL     1       1.561   7.736  12.651  1.00  0.00     0.007 C 
HETATM   21  C35 UNL     1       2.452   7.869  11.403  1.00  0.00     0.014 C 
HETATM   22  C36 UNL     1       2.046   6.946  10.233  1.00  0.00     0.003 C 
HETATM   23  C37 UNL     1       2.356   5.480  10.623  1.00  0.00     0.020 C 
ENDROOT
BRANCH   3  24
HETATM   24  O1  UNL     1       4.150   7.618   9.140  1.00  0.00    -0.377 OA
HETATM   25  H2  UNL     1       4.553   7.805   8.274  1.00  0.00     0.211 HD
ENDBRANCH   3  24
BRANCH  13  26
HETATM   26  O2  UNL     1       0.440   9.798  17.801  1.00  0.00    -0.271 OA
BRANCH  26  27
HETATM   27  C13 UNL     1       0.886  10.996  18.426  1.00  0.00     0.303 C 
BRANCH  27  28
HETATM   28  C14 UNL     1       1.958  10.701  19.465  1.00  0.00     0.244 C 
HETATM   29  O3  UNL     1       3.062  10.250  19.163  1.00  0.00    -0.271 OA
HETATM   30  N2  UNL     1       1.619  11.039  20.752  1.00  0.00    -0.346 N 
HETATM   31  H16 UNL     1       0.665  11.335  20.950  1.00  0.00     0.163 HD
BRANCH  30  32
HETATM   32  C15 UNL     1       2.528  10.880  21.883  1.00  0.00     0.180 C 
BRANCH  32  33
HETATM   33  C16 UNL     1       3.670  11.903  21.685  1.00  0.00     0.241 C 
HETATM   34  O4  UNL     1       4.823  11.559  21.424  1.00  0.00    -0.271 OA
HETATM   35  N3  UNL     1       3.299  13.223  21.806  1.00  0.00    -0.345 N 
HETATM   36  H18 UNL     1       2.451  13.429  22.320  1.00  0.00     0.163 HD
BRANCH  35  37
HETATM   37  C17 UNL     1       4.296  14.300  21.772  1.00  0.00     0.186 C 
BRANCH  37  38
HETATM   38  C18 UNL     1       5.144  14.335  23.059  1.00  0.00     0.074 C 
BRANCH  38  39
HETATM   39  C19 UNL     1       6.542  13.771  22.902  1.00  0.00    -0.056 A 
HETATM   40  C20 UNL     1       7.601  14.606  22.517  1.00  0.00     0.007 A 
HETATM   41  C21 UNL     1       8.899  14.103  22.427  1.00  0.00     0.001 A 
HETATM   42  C22 UNL     1       9.153  12.767  22.717  1.00  0.00     0.000 A 
HETATM   43  C23 UNL     1       8.107  11.926  23.087  1.00  0.00     0.001 A 
HETATM   44  C24 UNL     1       6.807  12.423  23.176  1.00  0.00     0.007 A 
ENDBRANCH  38  39
ENDBRANCH  37  38
BRANCH  37  45
HETATM   45  C25 UNL     1       5.216  14.230  20.547  1.00  0.00     0.163 C 
HETATM   46  O5  UNL     1       5.577  13.208  19.984  1.00  0.00    -0.648 OA
BRANCH  45  47
HETATM   47  O6  UNL     1       5.590  15.429  20.055  1.00  0.00    -0.775 OA
HETATM   48  H27 UNL     1       6.156  15.204  19.287  1.00  0.00     0.167 HD
ENDBRANCH  45  47
ENDBRANCH  37  45
ENDBRANCH  35  37
ENDBRANCH  32  33
BRANCH  32  49
HETATM   49  C26 UNL     1       2.985   9.408  22.011  1.00  0.00     0.009 C 
HETATM   50  C27 UNL     1       4.127   9.221  23.015  1.00  0.00     0.012 C 
HETATM   51  C28 UNL     1       1.838   8.454  22.336  1.00  0.00     0.012 C 
ENDBRANCH  32  49
ENDBRANCH  30  32
ENDBRANCH  27  28
ENDBRANCH  26  27
ENDBRANCH  13  26
TORSDOF 12
ENDMDL
MODEL 7
REMARK minimizedAffinity -8.28035069
REMARK CNNscore 0.228495717
REMARK CNNaffinity 7.28821325
REMARK  12 active torsions:
REMARK  status: ('A' for Active; 'I' for Inactive)
REMARK    1  A    between atoms: C3_3  and  O1_4 
REMARK    2  A    between atoms: N1_14  and  O2_16 
REMARK    3  A    between atoms: O2_16  and  C13_17 
REMARK    4  A    between atoms: C13_17  and  C14_18 
REMARK       I    between atoms: C14_18  and  N2_20 
REMARK    5  A    between atoms: N2_20  and  C15_21 
REMARK    6  A    between atoms: C15_21  and  C16_22 
REMARK    7  A    between atoms: C15_21  and  C26_36 
REMARK       I    between atoms: C16_22  and  N3_24 
REMARK    8  A    between atoms: N3_24  and  C17_25 
REMARK    9  A    between atoms: C17_25  and  C18_26 
REMARK   10  A    between atoms: C17_25  and  C25_33 
REMARK   11  A    between atoms: C18_26  and  C19_27 
REMARK   12  A    between atoms: C25_33  and  O6_35 
ROOT
HETATM    1  C1  UNL     1       0.788   8.324  14.628  1.00  0.00     0.015 C 
HETATM    2  C2  UNL     1      -0.243   8.452  14.026  1.00  0.00    -0.078 C 
HETATM    3  C3  UNL     1      -1.507   8.623  13.273  1.00  0.00     0.128 C 
HETATM    4  C4  UNL     1      -1.501   7.700  12.062  1.00  0.00     0.052 C 
HETATM    5  C5  UNL     1      -2.135   6.390  12.529  1.00  0.00     0.010 C 
HETATM    6  C6  UNL     1      -2.784   6.652  13.917  1.00  0.00     0.002 C 
HETATM    7  C7  UNL     1      -4.142   5.919  14.192  1.00  0.00    -0.004 C 
HETATM    8  C8  UNL     1      -4.737   5.153  12.988  1.00  0.00     0.010 C 
HETATM    9  C9  UNL     1      -6.043   4.423  13.308  1.00  0.00     0.035 C 
HETATM   10  C10 UNL     1      -7.034   5.388  13.904  1.00  0.00    -0.069 C 
HETATM   11  C11 UNL     1      -8.198   5.630  13.280  1.00  0.00     0.030 C 
HETATM   12  C12 UNL     1      -9.108   6.721  13.705  1.00  0.00     0.032 C 
HETATM   13  N1  UNL     1     -10.255   6.818  13.091  1.00  0.00    -0.271 N 
ATOM     14  H1  UNL     1     -10.565   6.182  12.355  1.00  0.00     0.194 HD
HETATM   15  C29 UNL     1      -8.594   7.707  14.731  1.00  0.00     0.060 C 
HETATM   16  C30 UNL     1      -7.669   7.045  15.743  1.00  0.00     0.020 C 
HETATM   17  C31 UNL     1      -6.566   6.105  15.162  1.00  0.00    -0.016 C 
HETATM   18  C32 UNL     1      -6.311   5.066  16.293  1.00  0.00     0.020 C 
HETATM   19  C33 UNL     1      -5.209   6.847  14.844  1.00  0.00     0.002 C 
HETATM   20  C34 UNL     1      -5.375   8.142  14.021  1.00  0.00     0.007 C 
HETATM   21  C35 UNL     1      -4.085   8.751  13.441  1.00  0.00     0.014 C 
HETATM   22  C36 UNL     1      -2.786   8.201  14.071  1.00  0.00     0.003 C 
HETATM   23  C37 UNL     1      -2.685   8.710  15.530  1.00  0.00     0.020 C 
ENDROOT
BRANCH   3  24
HETATM   24  O1  UNL     1      -1.592   9.976  12.848  1.00  0.00    -0.377 OA
HETATM   25  H2  UNL     1      -0.761  10.180  12.386  1.00  0.00     0.211 HD
ENDBRANCH   3  24
BRANCH  13  26
HETATM   26  O2  UNL     1     -11.011   7.900  13.564  1.00  0.00    -0.271 OA
BRANCH  26  27
HETATM   27  C13 UNL     1     -11.535   7.572  14.846  1.00  0.00     0.303 C 
BRANCH  27  28
HETATM   28  C14 UNL     1     -13.056   7.576  14.829  1.00  0.00     0.244 C 
HETATM   29  O3  UNL     1     -13.717   8.548  15.192  1.00  0.00    -0.271 OA
HETATM   30  N2  UNL     1     -13.628   6.437  14.316  1.00  0.00    -0.346 N 
HETATM   31  H16 UNL     1     -13.033   5.638  14.105  1.00  0.00     0.163 HD
BRANCH  30  32
HETATM   32  C15 UNL     1     -15.071   6.266  14.170  1.00  0.00     0.180 C 
BRANCH  32  33
HETATM   33  C16 UNL     1     -15.386   4.801  14.547  1.00  0.00     0.241 C 
HETATM   34  O4  UNL     1     -14.509   4.002  14.873  1.00  0.00    -0.271 OA
HETATM   35  N3  UNL     1     -16.720   4.461  14.506  1.00  0.00    -0.345 N 
HETATM   36  H18 UNL     1     -17.335   5.035  13.943  1.00  0.00     0.163 HD
BRANCH  35  37
HETATM   37  C17 UNL     1     -17.159   3.075  14.713  1.00  0.00     0.186 C 
BRANCH  37  38
HETATM   38  C18 UNL     1     -16.343   2.084  13.860  1.00  0.00     0.074 C 
BRANCH  38  39
HETATM   39  C19 UNL     1     -17.165   1.297  12.859  1.00  0.00    -0.056 A 
HETATM   40  C20 UNL     1     -16.698   0.066  12.375  1.00  0.00     0.007 A 
HETATM   41  C21 UNL     1     -17.477  -0.689  11.498  1.00  0.00     0.001 A 
HETATM   42  C22 UNL     1     -18.724  -0.224  11.094  1.00  0.00     0.000 A 
HETATM   43  C23 UNL     1     -19.192   1.003  11.557  1.00  0.00     0.001 A 
HETATM   44  C24 UNL     1     -18.415   1.762  12.433  1.00  0.00     0.007 A 
ENDBRANCH  38  39
ENDBRANCH  37  38
BRANCH  37  45
HETATM   45  C25 UNL     1     -17.122   2.646  16.184  1.00  0.00     0.163 C 
HETATM   46  O5  UNL     1     -16.593   1.635  16.619  1.00  0.00    -0.648 OA
BRANCH  45  47
HETATM   47  O6  UNL     1     -17.694   3.519  17.039  1.00  0.00    -0.775 OA
HETATM   48  H27 UNL     1     -17.577   3.101  17.918  1.00  0.00     0.167 HD
ENDBRANCH  45  47
ENDBRANCH  37  45
ENDBRANCH  35  37
ENDBRANCH  32  33
BRANCH  32  49
HETATM   49  C26 UNL     1     -15.528   6.689  12.754  1.00  0.00     0.009 C 
HETATM   50  C27 UNL     1     -17.047   6.619  12.570  1.00  0.00     0.012 C 
HETATM   51  C28 UNL     1     -15.011   8.067  12.348  1.00  0.00     0.012 C 
ENDBRANCH  32  49
ENDBRANCH  30  32
ENDBRANCH  27  28
ENDBRANCH  26  27
ENDBRANCH  13  26
TORSDOF 12
ENDMDL
MODEL 8
REMARK minimizedAffinity -7.88182402
REMARK CNNscore 0.212249339
REMARK CNNaffinity 6.23636246
REMARK  12 active torsions:
REMARK  status: ('A' for Active; 'I' for Inactive)
REMARK    1  A    between atoms: C3_3  and  O1_4 
REMARK    2  A    between atoms: N1_14  and  O2_16 
REMARK    3  A    between atoms: O2_16  and  C13_17 
REMARK    4  A    between atoms: C13_17  and  C14_18 
REMARK       I    between atoms: C14_18  and  N2_20 
REMARK    5  A    between atoms: N2_20  and  C15_21 
REMARK    6  A    between atoms: C15_21  and  C16_22 
REMARK    7  A    between atoms: C15_21  and  C26_36 
REMARK       I    between atoms: C16_22  and  N3_24 
REMARK    8  A    between atoms: N3_24  and  C17_25 
REMARK    9  A    between atoms: C17_25  and  C18_26 
REMARK   10  A    between atoms: C17_25  and  C25_33 
REMARK   11  A    between atoms: C18_26  and  C19_27 
REMARK   12  A    between atoms: C25_33  and  O6_35 
ROOT
HETATM    1  C1  UNL     1      -5.131   4.653  12.509  1.00  0.00     0.015 C 
HETATM    2  C2  UNL     1      -4.158   5.102  13.052  1.00  0.00    -0.078 C 
HETATM    3  C3  UNL     1      -2.950   5.639  13.720  1.00  0.00     0.128 C 
HETATM    4  C4  UNL     1      -2.022   6.241  12.675  1.00  0.00     0.052 C 
HETATM    5  C5  UNL     1      -2.422   7.711  12.555  1.00  0.00     0.010 C 
HETATM    6  C6  UNL     1      -3.372   8.036  13.742  1.00  0.00     0.002 C 
HETATM    7  C7  UNL     1      -3.212   9.458  14.383  1.00  0.00    -0.004 C 
HETATM    8  C8  UNL     1      -2.025  10.295  13.851  1.00  0.00     0.010 C 
HETATM    9  C9  UNL     1      -1.926  11.688  14.476  1.00  0.00     0.035 C 
HETATM   10  C10 UNL     1      -1.903  11.573  15.977  1.00  0.00    -0.069 C 
HETATM   11  C11 UNL     1      -0.838  12.007  16.670  1.00  0.00     0.030 C 
HETATM   12  C12 UNL     1      -0.671  11.726  18.117  1.00  0.00     0.032 C 
HETATM   13  N1  UNL     1       0.352  12.267  18.718  1.00  0.00    -0.271 N 
ATOM     14  H1  UNL     1       1.027  12.879  18.259  1.00  0.00     0.194 HD
HETATM   15  C29 UNL     1      -1.627  10.743  18.758  1.00  0.00     0.060 C 
HETATM   16  C30 UNL     1      -3.021  10.827  18.151  1.00  0.00     0.020 C 
HETATM   17  C31 UNL     1      -3.097  10.857  16.592  1.00  0.00    -0.016 C 
HETATM   18  C32 UNL     1      -4.400  11.652  16.285  1.00  0.00     0.020 C 
HETATM   19  C33 UNL     1      -3.216   9.424  15.939  1.00  0.00     0.002 C 
HETATM   20  C34 UNL     1      -2.181   8.404  16.461  1.00  0.00     0.007 C 
HETATM   21  C35 UNL     1      -2.062   7.090  15.668  1.00  0.00     0.014 C 
HETATM   22  C36 UNL     1      -3.239   6.821  14.705  1.00  0.00     0.003 C 
HETATM   23  C37 UNL     1      -4.505   6.511  15.540  1.00  0.00     0.020 C 
ENDROOT
BRANCH   3  24
HETATM   24  O1  UNL     1      -2.297   4.566  14.386  1.00  0.00    -0.377 OA
HETATM   25  H2  UNL     1      -2.172   3.860  13.728  1.00  0.00     0.211 HD
ENDBRANCH   3  24
BRANCH  13  26
HETATM   26  O2  UNL     1       0.413  11.905  20.072  1.00  0.00    -0.271 OA
BRANCH  26  27
HETATM   27  C13 UNL     1       1.742  12.105  20.543  1.00  0.00     0.303 C 
BRANCH  27  28
HETATM   28  C14 UNL     1       2.739  11.318  19.706  1.00  0.00     0.244 C 
HETATM   29  O3  UNL     1       2.543  10.150  19.372  1.00  0.00    -0.271 OA
HETATM   30  N2  UNL     1       3.838  12.033  19.299  1.00  0.00    -0.346 N 
HETATM   31  H16 UNL     1       3.983  12.970  19.671  1.00  0.00     0.163 HD
BRANCH  30  32
HETATM   32  C15 UNL     1       4.885  11.472  18.449  1.00  0.00     0.180 C 
BRANCH  32  33
HETATM   33  C16 UNL     1       6.195  11.514  19.268  1.00  0.00     0.241 C 
HETATM   34  O4  UNL     1       6.990  10.575  19.287  1.00  0.00    -0.271 OA
HETATM   35  N3  UNL     1       6.413  12.684  19.961  1.00  0.00    -0.345 N 
HETATM   36  H18 UNL     1       5.611  13.268  20.164  1.00  0.00     0.163 HD
BRANCH  35  37
HETATM   37  C17 UNL     1       7.547  12.822  20.884  1.00  0.00     0.186 C 
BRANCH  37  38
HETATM   38  C18 UNL     1       7.261  12.158  22.245  1.00  0.00     0.074 C 
BRANCH  38  39
HETATM   39  C19 UNL     1       5.820  12.267  22.703  1.00  0.00    -0.056 A 
HETATM   40  C20 UNL     1       5.216  13.526  22.839  1.00  0.00     0.007 A 
HETATM   41  C21 UNL     1       3.874  13.629  23.206  1.00  0.00     0.001 A 
HETATM   42  C22 UNL     1       3.124  12.481  23.441  1.00  0.00     0.000 A 
HETATM   43  C23 UNL     1       3.717  11.227  23.322  1.00  0.00     0.001 A 
HETATM   44  C24 UNL     1       5.060  11.120  22.958  1.00  0.00     0.007 A 
ENDBRANCH  38  39
ENDBRANCH  37  38
BRANCH  37  45
HETATM   45  C25 UNL     1       8.860  12.280  20.308  1.00  0.00     0.163 C 
HETATM   46  O5  UNL     1       9.598  11.473  20.852  1.00  0.00    -0.648 OA
BRANCH  45  47
HETATM   47  O6  UNL     1       9.158  12.725  19.070  1.00  0.00    -0.775 OA
HETATM   48  H27 UNL     1      10.006  12.283  18.856  1.00  0.00     0.167 HD
ENDBRANCH  45  47
ENDBRANCH  37  45
ENDBRANCH  35  37
ENDBRANCH  32  33
BRANCH  32  49
HETATM   49  C26 UNL     1       4.939  12.211  17.092  1.00  0.00     0.009 C 
HETATM   50  C27 UNL     1       4.562  13.692  17.203  1.00  0.00     0.012 C 
HETATM   51  C28 UNL     1       6.285  12.062  16.386  1.00  0.00     0.012 C 
ENDBRANCH  32  49
ENDBRANCH  30  32
ENDBRANCH  27  28
ENDBRANCH  26  27
ENDBRANCH  13  26
TORSDOF 12
ENDMDL
MODEL 9
REMARK minimizedAffinity -8.53867531
REMARK CNNscore 0.19242692
REMARK CNNaffinity 7.22566032
REMARK  12 active torsions:
REMARK  status: ('A' for Active; 'I' for Inactive)
REMARK    1  A    between atoms: C3_3  and  O1_4 
REMARK    2  A    between atoms: N1_14  and  O2_16 
REMARK    3  A    between atoms: O2_16  and  C13_17 
REMARK    4  A    between atoms: C13_17  and  C14_18 
REMARK       I    between atoms: C14_18  and  N2_20 
REMARK    5  A    between atoms: N2_20  and  C15_21 
REMARK    6  A    between atoms: C15_21  and  C16_22 
REMARK    7  A    between atoms: C15_21  and  C26_36 
REMARK       I    between atoms: C16_22  and  N3_24 
REMARK    8  A    between atoms: N3_24  and  C17_25 
REMARK    9  A    between atoms: C17_25  and  C18_26 
REMARK   10  A    between atoms: C17_25  and  C25_33 
REMARK   11  A    between atoms: C18_26  and  C19_27 
REMARK   12  A    between atoms: C25_33  and  O6_35 
ROOT
HETATM    1  C1  UNL     1       0.082   7.267  15.284  1.00  0.00     0.015 C 
HETATM    2  C2  UNL     1      -0.879   7.594  14.642  1.00  0.00    -0.078 C 
HETATM    3  C3  UNL     1      -2.055   8.012  13.844  1.00  0.00     0.128 C 
HETATM    4  C4  UNL     1      -2.039   7.286  12.506  1.00  0.00     0.052 C 
HETATM    5  C5  UNL     1      -2.833   5.997  12.718  1.00  0.00     0.010 C 
HETATM    6  C6  UNL     1      -3.564   6.117  14.084  1.00  0.00     0.002 C 
HETATM    7  C7  UNL     1      -5.006   5.502  14.150  1.00  0.00    -0.004 C 
HETATM    8  C8  UNL     1      -5.571   4.994  12.804  1.00  0.00     0.010 C 
HETATM    9  C9  UNL     1      -6.963   4.370  12.918  1.00  0.00     0.035 C 
HETATM   10  C10 UNL     1      -7.902   5.336  13.592  1.00  0.00    -0.069 C 
HETATM   11  C11 UNL     1      -8.981   5.794  12.938  1.00  0.00     0.030 C 
HETATM   12  C12 UNL     1      -9.814   6.901  13.469  1.00  0.00     0.032 C 
HETATM   13  N1  UNL     1     -10.892   7.212  12.803  1.00  0.00    -0.271 N 
ATOM     14  H1  UNL     1     -11.200   6.731  11.958  1.00  0.00     0.194 HD
HETATM   15  C29 UNL     1      -9.292   7.660  14.669  1.00  0.00     0.060 C 
HETATM   16  C30 UNL     1      -8.521   6.758  15.623  1.00  0.00     0.020 C 
HETATM   17  C31 UNL     1      -7.471   5.802  14.975  1.00  0.00    -0.016 C 
HETATM   18  C32 UNL     1      -7.411   4.583  15.942  1.00  0.00     0.020 C 
HETATM   19  C33 UNL     1      -6.027   6.431  14.868  1.00  0.00     0.002 C 
HETATM   20  C34 UNL     1      -6.000   7.846  14.250  1.00  0.00     0.007 C 
HETATM   21  C35 UNL     1      -4.613   8.392  13.860  1.00  0.00     0.014 C 
HETATM   22  C36 UNL     1      -3.429   7.616  14.479  1.00  0.00     0.003 C 
HETATM   23  C37 UNL     1      -3.400   7.886  16.004  1.00  0.00     0.020 C 
ENDROOT
BRANCH   3  24
HETATM   24  O1  UNL     1      -1.973   9.415  13.634  1.00  0.00    -0.377 OA
HETATM   25  H2  UNL     1      -1.091   9.594  13.265  1.00  0.00     0.211 HD
ENDBRANCH   3  24
BRANCH  13  26
HETATM   26  O2  UNL     1     -11.576   8.286  13.390  1.00  0.00    -0.271 OA
BRANCH  26  27
HETATM   27  C13 UNL     1     -12.918   8.293  12.917  1.00  0.00     0.303 C 
BRANCH  27  28
HETATM   28  C14 UNL     1     -13.727   7.178  13.562  1.00  0.00     0.244 C 
HETATM   29  O3  UNL     1     -13.202   6.172  14.037  1.00  0.00    -0.271 OA
HETATM   30  N2  UNL     1     -15.078   7.414  13.631  1.00  0.00    -0.346 N 
HETATM   31  H16 UNL     1     -15.463   8.227  13.153  1.00  0.00     0.163 HD
BRANCH  30  32
HETATM   32  C15 UNL     1     -16.019   6.488  14.257  1.00  0.00     0.180 C 
BRANCH  32  33
HETATM   33  C16 UNL     1     -16.698   5.702  13.113  1.00  0.00     0.241 C 
HETATM   34  O4  UNL     1     -16.813   6.162  11.977  1.00  0.00    -0.271 OA
HETATM   35  N3  UNL     1     -17.151   4.447  13.454  1.00  0.00    -0.345 N 
HETATM   36  H18 UNL     1     -17.317   4.257  14.435  1.00  0.00     0.163 HD
BRANCH  35  37
HETATM   37  C17 UNL     1     -17.930   3.636  12.511  1.00  0.00     0.186 C 
BRANCH  37  38
HETATM   38  C18 UNL     1     -17.621   2.133  12.659  1.00  0.00     0.074 C 
BRANCH  38  39
HETATM   39  C19 UNL     1     -16.974   1.755  13.977  1.00  0.00    -0.056 A 
HETATM   40  C20 UNL     1     -15.601   1.473  14.034  1.00  0.00     0.007 A 
HETATM   41  C21 UNL     1     -14.991   1.180  15.254  1.00  0.00     0.001 A 
HETATM   42  C22 UNL     1     -15.742   1.164  16.425  1.00  0.00     0.000 A 
HETATM   43  C23 UNL     1     -17.107   1.430  16.378  1.00  0.00     0.001 A 
HETATM   44  C24 UNL     1     -17.722   1.721  15.160  1.00  0.00     0.007 A 
ENDBRANCH  38  39
ENDBRANCH  37  38
BRANCH  37  45
HETATM   45  C25 UNL     1     -19.441   3.869  12.622  1.00  0.00     0.163 C 
HETATM   46  O5  UNL     1     -20.281   3.496  11.818  1.00  0.00    -0.648 OA
BRANCH  45  47
HETATM   47  O6  UNL     1     -19.831   4.500  13.748  1.00  0.00    -0.775 OA
HETATM   48  H27 UNL     1     -20.805   4.559  13.662  1.00  0.00     0.167 HD
ENDBRANCH  45  47
ENDBRANCH  37  45
ENDBRANCH  35  37
ENDBRANCH  32  33
BRANCH  32  49
HETATM   49  C26 UNL     1     -16.988   7.247  15.193  1.00  0.00     0.009 C 
HETATM   50  C27 UNL     1     -17.131   6.587  16.568  1.00  0.00     0.012 C 
HETATM   51  C28 UNL     1     -16.628   8.723  15.353  1.00  0.00     0.012 C 
ENDBRANCH  32  49
ENDBRANCH  30  32
ENDBRANCH  27  28
ENDBRANCH  26  27
ENDBRANCH  13  26
TORSDOF 12
ENDMDL
