MODEL 1
REMARK minimizedAffinity -8.58848381
REMARK CNNscore 0.529626131
REMARK CNNaffinity 7.53373718
REMARK  8 active torsions:
REMARK  status: ('A' for Active; 'I' for Inactive)
REMARK    1  A    between atoms: C3_3  and  O1_4 
REMARK    2  A    between atoms: N1_14  and  O2_16 
REMARK    3  A    between atoms: O2_16  and  C13_17 
REMARK    4  A    between atoms: C13_17  and  C14_18 
REMARK       I    between atoms: C14_18  and  N2_20 
REMARK    5  A    between atoms: N2_20  and  C15_21 
REMARK    6  A    between atoms: C15_21  and  C16_22 
REMARK    7  A    between atoms: C16_22  and  O4_23 
REMARK    8  A    between atoms: C16_22  and  C17_24 
ROOT
HETATM    1  C1  UNL     1      -4.633  48.309  -8.770  1.00  0.00     0.015 C 
HETATM    2  C2  UNL     1      -4.307  48.968  -9.720  1.00  0.00    -0.078 C 
HETATM    3  C3  UNL     1      -3.933  49.767 -10.901  1.00  0.00     0.128 C 
HETATM    4  C4  UNL     1      -4.383  51.225 -10.748  1.00  0.00     0.052 C 
HETATM    5  C5  UNL     1      -3.531  51.956 -11.773  1.00  0.00     0.010 C 
HETATM    6  C6  UNL     1      -2.137  51.365 -11.537  1.00  0.00     0.002 C 
HETATM    7  C7  UNL     1      -1.155  51.673 -12.688  1.00  0.00    -0.004 C 
HETATM    8  C8  UNL     1       0.299  51.640 -12.212  1.00  0.00     0.010 C 
HETATM    9  C9  UNL     1       1.247  52.191 -13.276  1.00  0.00     0.035 C 
HETATM   10  C10 UNL     1       0.861  51.839 -14.695  1.00  0.00    -0.069 C 
HETATM   11  C11 UNL     1       1.367  52.568 -15.706  1.00  0.00     0.030 C 
HETATM   12  C12 UNL     1       1.143  52.195 -17.126  1.00  0.00     0.032 C 
HETATM   13  N1  UNL     1       1.529  53.036 -18.043  1.00  0.00    -0.271 N 
ATOM     14  H1  UNL     1       1.922  53.956 -17.844  1.00  0.00     0.194 HD
HETATM   15  C23 UNL     1       0.529  50.838 -17.394  1.00  0.00     0.060 C 
HETATM   16  C24 UNL     1      -0.569  50.573 -16.371  1.00  0.00     0.020 C 
HETATM   17  C25 UNL     1      -0.081  50.650 -14.889  1.00  0.00    -0.016 C 
HETATM   18  C26 UNL     1       0.730  49.365 -14.590  1.00  0.00     0.020 C 
HETATM   19  C27 UNL     1      -1.370  50.829 -13.977  1.00  0.00     0.002 C 
HETATM   20  C28 UNL     1      -2.153  49.522 -13.734  1.00  0.00     0.007 C 
HETATM   21  C29 UNL     1      -1.924  48.929 -12.346  1.00  0.00     0.014 C 
HETATM   22  C30 UNL     1      -2.378  49.856 -11.194  1.00  0.00     0.003 C 
HETATM   23  C31 UNL     1      -1.531  49.507  -9.945  1.00  0.00     0.020 C 
ENDROOT
BRANCH   3  24
HETATM   24  O1  UNL     1      -4.641  49.228 -12.018  1.00  0.00    -0.377 OA
HETATM   25  H2  UNL     1      -5.569  49.129 -11.744  1.00  0.00     0.211 HD
ENDBRANCH   3  24
BRANCH  13  26
HETATM   26  O2  UNL     1       1.339  52.528 -19.335  1.00  0.00    -0.271 OA
BRANCH  26  27
HETATM   27  C13 UNL     1       0.209  53.166 -19.920  1.00  0.00     0.303 C 
BRANCH  27  28
HETATM   28  C14 UNL     1      -0.713  52.120 -20.520  1.00  0.00     0.243 C 
HETATM   29  O3  UNL     1      -1.769  51.775 -19.994  1.00  0.00    -0.271 OA
HETATM   30  N2  UNL     1      -0.294  51.610 -21.729  1.00  0.00    -0.356 N 
HETATM   31  H16 UNL     1       0.607  51.922 -22.082  1.00  0.00     0.162 HD
BRANCH  30  32
HETATM   32  C15 UNL     1      -1.120  50.742 -22.559  1.00  0.00     0.159 C 
BRANCH  32  33
HETATM   33  C16 UNL     1      -1.710  51.431 -23.814  1.00  0.00     0.170 C 
BRANCH  33  34
HETATM   34  O4  UNL     1      -2.164  52.755 -23.523  1.00  0.00    -0.389 OA
HETATM   35  H20 UNL     1      -2.577  52.733 -22.631  1.00  0.00     0.210 HD
ENDBRANCH  33  34
BRANCH  33  36
HETATM   36  C17 UNL     1      -0.665  51.512 -24.902  1.00  0.00    -0.013 A 
HETATM   37  C18 UNL     1      -0.648  50.638 -25.991  1.00  0.00     0.013 A 
HETATM   38  C19 UNL     1       0.310  50.790 -26.991  1.00  0.00     0.025 A 
HETATM   39  C20 UNL     1       1.229  51.829 -26.886  1.00  0.00     0.005 A 
HETATM   40  C21 UNL     1       2.278  52.010 -27.944  1.00  0.00     0.068 C 
HETATM   41  N3  UNL     1       1.237  52.693 -25.844  1.00  0.00    -0.369 N 
HETATM   42  C22 UNL     1       0.303  52.512 -24.881  1.00  0.00     0.097 A 
ATOM     43  H3  UNL     1       1.919  53.449 -25.786  1.00  0.00     0.165 HD
ENDBRANCH  33  36
ENDBRANCH  32  33
ENDBRANCH  30  32
ENDBRANCH  27  28
ENDBRANCH  26  27
ENDBRANCH  13  26
TORSDOF 8
ENDMDL
MODEL 2
REMARK minimizedAffinity -7.53273249
REMARK CNNscore 0.518147469
REMARK CNNaffinity 6.8409934
REMARK  8 active torsions:
REMARK  status: ('A' for Active; 'I' for Inactive)
REMARK    1  A    between atoms: C3_3  and  O1_4 
REMARK    2  A    between atoms: N1_14  and  O2_16 
REMARK    3  A    between atoms: O2_16  and  C13_17 
REMARK    4  A    between atoms: C13_17  and  C14_18 
REMARK       I    between atoms: C14_18  and  N2_20 
REMARK    5  A    between atoms: N2_20  and  C15_21 
REMARK    6  A    between atoms: C15_21  and  C16_22 
REMARK    7  A    between atoms: C16_22  and  O4_23 
REMARK    8  A    between atoms: C16_22  and  C17_24 
ROOT
HETATM    1  C1  UNL     1       1.527  46.539  -7.143  1.00  0.00     0.015 C 
HETATM    2  C2  UNL     1       1.310  47.376  -7.977  1.00  0.00    -0.078 C 
HETATM    3  C3  UNL     1       1.015  48.401  -8.995  1.00  0.00     0.128 C 
HETATM    4  C4  UNL     1       1.134  49.813  -8.410  1.00  0.00     0.052 C 
HETATM    5  C5  UNL     1       1.270  50.686  -9.648  1.00  0.00     0.010 C 
HETATM    6  C6  UNL     1       2.295  49.920 -10.491  1.00  0.00     0.002 C 
HETATM    7  C7  UNL     1       2.343  50.403 -11.956  1.00  0.00    -0.004 C 
HETATM    8  C8  UNL     1       3.699  50.109 -12.602  1.00  0.00     0.010 C 
HETATM    9  C9  UNL     1       3.837  50.809 -13.953  1.00  0.00     0.035 C 
HETATM   10  C10 UNL     1       2.559  50.857 -14.761  1.00  0.00    -0.069 C 
HETATM   11  C11 UNL     1       2.452  51.759 -15.754  1.00  0.00     0.030 C 
HETATM   12  C12 UNL     1       1.287  51.771 -16.674  1.00  0.00     0.032 C 
HETATM   13  N1  UNL     1       1.179  52.770 -17.504  1.00  0.00    -0.271 N 
ATOM     14  H1  UNL     1       1.813  53.569 -17.521  1.00  0.00     0.194 HD
HETATM   15  C23 UNL     1       0.343  50.590 -16.609  1.00  0.00     0.060 C 
HETATM   16  C24 UNL     1       0.139  50.192 -15.152  1.00  0.00     0.020 C 
HETATM   17  C25 UNL     1       1.465  49.852 -14.400  1.00  0.00    -0.016 C 
HETATM   18  C26 UNL     1       1.939  48.459 -14.882  1.00  0.00     0.020 C 
HETATM   19  C27 UNL     1       1.156  49.928 -12.843  1.00  0.00     0.002 C 
HETATM   20  C28 UNL     1       0.430  48.686 -12.286  1.00  0.00     0.007 C 
HETATM   21  C29 UNL     1       1.347  47.750 -11.504  1.00  0.00     0.014 C 
HETATM   22  C30 UNL     1       1.979  48.404 -10.253  1.00  0.00     0.003 C 
HETATM   23  C31 UNL     1       3.315  47.675  -9.962  1.00  0.00     0.020 C 
ENDROOT
BRANCH   3  24
HETATM   24  O1  UNL     1      -0.347  48.226  -9.387  1.00  0.00    -0.377 OA
HETATM   25  H2  UNL     1      -0.871  48.156  -8.569  1.00  0.00     0.211 HD
ENDBRANCH   3  24
BRANCH  13  26
HETATM   26  O2  UNL     1       0.089  52.618 -18.371  1.00  0.00    -0.271 OA
BRANCH  26  27
HETATM   27  C13 UNL     1      -0.032  53.789 -19.171  1.00  0.00     0.303 C 
BRANCH  27  28
HETATM   28  C14 UNL     1       0.681  53.576 -20.495  1.00  0.00     0.243 C 
HETATM   29  O3  UNL     1       1.761  54.095 -20.767  1.00  0.00    -0.271 OA
HETATM   30  N2  UNL     1       0.039  52.719 -21.362  1.00  0.00    -0.356 N 
HETATM   31  H16 UNL     1      -0.867  52.357 -21.077  1.00  0.00     0.162 HD
BRANCH  30  32
HETATM   32  C15 UNL     1       0.642  52.234 -22.598  1.00  0.00     0.159 C 
BRANCH  32  33
HETATM   33  C16 UNL     1       0.040  52.846 -23.885  1.00  0.00     0.170 C 
BRANCH  33  34
HETATM   34  O4  UNL     1       1.057  53.349 -24.755  1.00  0.00    -0.389 OA
HETATM   35  H20 UNL     1       1.747  53.762 -24.189  1.00  0.00     0.210 HD
ENDBRANCH  33  34
BRANCH  33  36
HETATM   36  C17 UNL     1      -0.756  51.803 -24.634  1.00  0.00    -0.013 A 
HETATM   37  C18 UNL     1      -0.735  51.702 -26.027  1.00  0.00     0.013 A 
HETATM   38  C19 UNL     1      -1.450  50.689 -26.662  1.00  0.00     0.025 A 
HETATM   39  C20 UNL     1      -2.166  49.785 -25.885  1.00  0.00     0.005 A 
HETATM   40  C21 UNL     1      -2.954  48.691 -26.544  1.00  0.00     0.068 C 
HETATM   41  N3  UNL     1      -2.205  49.856 -24.534  1.00  0.00    -0.369 N 
HETATM   42  C22 UNL     1      -1.511  50.859 -23.945  1.00  0.00     0.097 A 
ATOM     43  H3  UNL     1      -2.735  49.182 -23.982  1.00  0.00     0.165 HD
ENDBRANCH  33  36
ENDBRANCH  32  33
ENDBRANCH  30  32
ENDBRANCH  27  28
ENDBRANCH  26  27
ENDBRANCH  13  26
TORSDOF 8
ENDMDL
MODEL 3
REMARK minimizedAffinity -9.34209824
REMARK CNNscore 0.469172031
REMARK CNNaffinity 7.15434885
REMARK  8 active torsions:
REMARK  status: ('A' for Active; 'I' for Inactive)
REMARK    1  A    between atoms: C3_3  and  O1_4 
REMARK    2  A    between atoms: N1_14  and  O2_16 
REMARK    3  A    between atoms: O2_16  and  C13_17 
REMARK    4  A    between atoms: C13_17  and  C14_18 
REMARK       I    between atoms: C14_18  and  N2_20 
REMARK    5  A    between atoms: N2_20  and  C15_21 
REMARK    6  A    between atoms: C15_21  and  C16_22 
REMARK    7  A    between atoms: C16_22  and  O4_23 
REMARK    8  A    between atoms: C16_22  and  C17_24 
ROOT
HETATM    1  C1  UNL     1      -3.546  48.167  -9.617  1.00  0.00     0.015 C 
HETATM    2  C2  UNL     1      -3.341  48.917 -10.533  1.00  0.00    -0.078 C 
HETATM    3  C3  UNL     1      -3.119  49.835 -11.665  1.00  0.00     0.128 C 
HETATM    4  C4  UNL     1      -3.235  51.298 -11.223  1.00  0.00     0.052 C 
HETATM    5  C5  UNL     1      -2.533  52.051 -12.342  1.00  0.00     0.010 C 
HETATM    6  C6  UNL     1      -1.261  51.225 -12.560  1.00  0.00     0.002 C 
HETATM    7  C7  UNL     1      -0.546  51.567 -13.884  1.00  0.00    -0.004 C 
HETATM    8  C8  UNL     1       0.946  51.235 -13.821  1.00  0.00     0.010 C 
HETATM    9  C9  UNL     1       1.696  51.804 -15.025  1.00  0.00     0.035 C 
HETATM   10  C10 UNL     1       0.919  51.754 -16.321  1.00  0.00    -0.069 C 
HETATM   11  C11 UNL     1       1.295  52.556 -17.335  1.00  0.00     0.030 C 
HETATM   12  C12 UNL     1       0.668  52.461 -18.678  1.00  0.00     0.032 C 
HETATM   13  N1  UNL     1       0.972  53.374 -19.556  1.00  0.00    -0.271 N 
ATOM     14  H1  UNL     1       1.568  54.178 -19.359  1.00  0.00     0.194 HD
HETATM   15  C23 UNL     1      -0.239  51.276 -18.934  1.00  0.00     0.060 C 
HETATM   16  C24 UNL     1      -1.086  51.015 -17.695  1.00  0.00     0.020 C 
HETATM   17  C25 UNL     1      -0.249  50.770 -16.399  1.00  0.00    -0.016 C 
HETATM   18  C26 UNL     1       0.352  49.346 -16.485  1.00  0.00     0.020 C 
HETATM   19  C27 UNL     1      -1.222  50.990 -15.162  1.00  0.00     0.002 C 
HETATM   20  C28 UNL     1      -2.155  49.795 -14.879  1.00  0.00     0.007 C 
HETATM   21  C29 UNL     1      -1.714  48.952 -13.685  1.00  0.00     0.014 C 
HETATM   22  C30 UNL     1      -1.693  49.734 -12.349  1.00  0.00     0.003 C 
HETATM   23  C31 UNL     1      -0.651  49.058 -11.423  1.00  0.00     0.020 C 
ENDROOT
BRANCH   3  24
HETATM   24  O1  UNL     1      -4.164  49.601 -12.610  1.00  0.00    -0.377 OA
HETATM   25  H2  UNL     1      -5.001  49.600 -12.112  1.00  0.00     0.211 HD
ENDBRANCH   3  24
BRANCH  13  26
HETATM   26  O2  UNL     1       0.383  53.121 -20.802  1.00  0.00    -0.271 OA
BRANCH  26  27
HETATM   27  C13 UNL     1       1.138  53.784 -21.811  1.00  0.00     0.303 C 
BRANCH  27  28
HETATM   28  C14 UNL     1       0.707  53.284 -23.179  1.00  0.00     0.243 C 
HETATM   29  O3  UNL     1       1.135  53.753 -24.231  1.00  0.00    -0.271 OA
HETATM   30  N2  UNL     1      -0.178  52.229 -23.152  1.00  0.00    -0.356 N 
HETATM   31  H16 UNL     1      -0.511  51.919 -22.243  1.00  0.00     0.162 HD
BRANCH  30  32
HETATM   32  C15 UNL     1      -0.566  51.482 -24.343  1.00  0.00     0.159 C 
BRANCH  32  33
HETATM   33  C16 UNL     1      -1.788  52.066 -25.093  1.00  0.00     0.170 C 
BRANCH  33  34
HETATM   34  O4  UNL     1      -1.408  53.128 -25.972  1.00  0.00    -0.389 OA
HETATM   35  H20 UNL     1      -0.710  53.649 -25.516  1.00  0.00     0.210 HD
ENDBRANCH  33  34
BRANCH  33  36
HETATM   36  C17 UNL     1      -2.461  50.988 -25.910  1.00  0.00    -0.013 A 
HETATM   37  C18 UNL     1      -2.627  49.684 -25.438  1.00  0.00     0.013 A 
HETATM   38  C19 UNL     1      -3.299  48.743 -26.215  1.00  0.00     0.025 A 
HETATM   39  C20 UNL     1      -3.807  49.132 -27.450  1.00  0.00     0.005 A 
HETATM   40  C21 UNL     1      -4.527  48.137 -28.312  1.00  0.00     0.068 C 
HETATM   41  N3  UNL     1      -3.664  50.389 -27.933  1.00  0.00    -0.369 N 
HETATM   42  C22 UNL     1      -2.994  51.277 -27.162  1.00  0.00     0.097 A 
ATOM     43  H3  UNL     1      -4.045  50.655 -28.841  1.00  0.00     0.165 HD
ENDBRANCH  33  36
ENDBRANCH  32  33
ENDBRANCH  30  32
ENDBRANCH  27  28
ENDBRANCH  26  27
ENDBRANCH  13  26
TORSDOF 8
ENDMDL
MODEL 4
REMARK minimizedAffinity -7.73588848
REMARK CNNscore 0.407005459
REMARK CNNaffinity 5.88448143
REMARK  8 active torsions:
REMARK  status: ('A' for Active; 'I' for Inactive)
REMARK    1  A    between atoms: C3_3  and  O1_4 
REMARK    2  A    between atoms: N1_14  and  O2_16 
REMARK    3  A    between atoms: O2_16  and  C13_17 
REMARK    4  A    between atoms: C13_17  and  C14_18 
REMARK       I    between atoms: C14_18  and  N2_20 
REMARK    5  A    between atoms: N2_20  and  C15_21 
REMARK    6  A    between atoms: C15_21  and  C16_22 
REMARK    7  A    between atoms: C16_22  and  O4_23 
REMARK    8  A    between atoms: C16_22  and  C17_24 
ROOT
HETATM    1  C1  UNL     1      -5.615  48.093 -28.731  1.00  0.00     0.015 C 
HETATM    2  C2  UNL     1      -6.808  48.025 -28.861  1.00  0.00    -0.078 C 
HETATM    3  C3  UNL     1      -8.274  47.971 -29.014  1.00  0.00     0.128 C 
HETATM    4  C4  UNL     1      -8.684  48.147 -30.481  1.00  0.00     0.052 C 
HETATM    5  C5  UNL     1     -10.104  47.604 -30.507  1.00  0.00     0.010 C 
HETATM    6  C6  UNL     1      -9.983  46.303 -29.706  1.00  0.00     0.002 C 
HETATM    7  C7  UNL     1     -11.353  45.738 -29.276  1.00  0.00    -0.004 C 
HETATM    8  C8  UNL     1     -11.292  44.227 -29.044  1.00  0.00     0.010 C 
HETATM    9  C9  UNL     1     -12.688  43.631 -28.871  1.00  0.00     0.035 C 
HETATM   10  C10 UNL     1     -13.652  44.519 -28.115  1.00  0.00    -0.069 C 
HETATM   11  C11 UNL     1     -14.973  44.293 -28.237  1.00  0.00     0.030 C 
HETATM   12  C12 UNL     1     -15.969  45.032 -27.420  1.00  0.00     0.032 C 
HETATM   13  N1  UNL     1     -17.230  44.873 -27.708  1.00  0.00    -0.271 N 
ATOM     14  H1  UNL     1     -17.569  44.318 -28.494  1.00  0.00     0.194 HD
HETATM   15  C23 UNL     1     -15.438  45.874 -26.279  1.00  0.00     0.060 C 
HETATM   16  C24 UNL     1     -14.168  46.585 -26.730  1.00  0.00     0.020 C 
HETATM   17  C25 UNL     1     -13.052  45.618 -27.239  1.00  0.00    -0.016 C 
HETATM   18  C26 UNL     1     -12.421  44.931 -26.003  1.00  0.00     0.020 C 
HETATM   19  C27 UNL     1     -12.029  46.486 -28.090  1.00  0.00     0.002 C 
HETATM   20  C28 UNL     1     -11.039  47.305 -27.236  1.00  0.00     0.007 C 
HETATM   21  C29 UNL     1      -9.639  46.700 -27.185  1.00  0.00     0.014 C 
HETATM   22  C30 UNL     1      -8.952  46.610 -28.568  1.00  0.00     0.003 C 
HETATM   23  C31 UNL     1      -7.933  45.444 -28.515  1.00  0.00     0.020 C 
ENDROOT
BRANCH   3  24
HETATM   24  O1  UNL     1      -8.814  49.080 -28.295  1.00  0.00    -0.377 OA
HETATM   25  H2  UNL     1      -8.304  49.866 -28.559  1.00  0.00     0.211 HD
ENDBRANCH   3  24
BRANCH  13  26
HETATM   26  O2  UNL     1     -18.064  45.555 -26.812  1.00  0.00    -0.271 OA
BRANCH  26  27
HETATM   27  C13 UNL     1     -19.280  44.828 -26.670  1.00  0.00     0.303 C 
BRANCH  27  28
HETATM   28  C14 UNL     1     -19.038  43.589 -25.826  1.00  0.00     0.243 C 
HETATM   29  O3  UNL     1     -18.352  42.643 -26.205  1.00  0.00    -0.271 OA
HETATM   30  N2  UNL     1     -19.618  43.623 -24.578  1.00  0.00    -0.356 N 
HETATM   31  H16 UNL     1     -20.198  44.426 -24.352  1.00  0.00     0.162 HD
BRANCH  30  32
HETATM   32  C15 UNL     1     -19.352  42.626 -23.547  1.00  0.00     0.159 C 
BRANCH  32  33
HETATM   33  C16 UNL     1     -18.140  42.952 -22.641  1.00  0.00     0.170 C 
BRANCH  33  34
HETATM   34  O4  UNL     1     -16.966  43.225 -23.411  1.00  0.00    -0.389 OA
HETATM   35  H20 UNL     1     -16.964  42.603 -24.172  1.00  0.00     0.210 HD
ENDBRANCH  33  34
BRANCH  33  36
HETATM   36  C17 UNL     1     -18.441  44.159 -21.784  1.00  0.00    -0.013 A 
HETATM   37  C18 UNL     1     -19.168  44.071 -20.595  1.00  0.00     0.013 A 
HETATM   38  C19 UNL     1     -19.373  45.209 -19.819  1.00  0.00     0.025 A 
HETATM   39  C20 UNL     1     -18.831  46.417 -20.244  1.00  0.00     0.005 A 
HETATM   40  C21 UNL     1     -19.046  47.661 -19.432  1.00  0.00     0.068 C 
HETATM   41  N3  UNL     1     -18.121  46.534 -21.390  1.00  0.00    -0.369 N 
HETATM   42  C22 UNL     1     -17.949  45.414 -22.130  1.00  0.00     0.097 A 
ATOM     43  H3  UNL     1     -17.730  47.429 -21.684  1.00  0.00     0.165 HD
ENDBRANCH  33  36
ENDBRANCH  32  33
ENDBRANCH  30  32
ENDBRANCH  27  28
ENDBRANCH  26  27
ENDBRANCH  13  26
TORSDOF 8
ENDMDL
MODEL 5
REMARK minimizedAffinity -9.46091175
REMARK CNNscore 0.37973845
REMARK CNNaffinity 6.20327044
REMARK  8 active torsions:
REMARK  status: ('A' for Active; 'I' for Inactive)
REMARK    1  A    between atoms: C3_3  and  O1_4 
REMARK    2  A    between atoms: N1_14  and  O2_16 
REMARK    3  A    between atoms: O2_16  and  C13_17 
REMARK    4  A    between atoms: C13_17  and  C14_18 
REMARK       I    between atoms: C14_18  and  N2_20 
REMARK    5  A    between atoms: N2_20  and  C15_21 
REMARK    6  A    between atoms: C15_21  and  C16_22 
REMARK    7  A    between atoms: C16_22  and  O4_23 
REMARK    8  A    between atoms: C16_22  and  C17_24 
ROOT
HETATM    1  C1  UNL     1       0.360  54.194 -25.768  1.00  0.00     0.015 C 
HETATM    2  C2  UNL     1      -0.486  53.341 -25.783  1.00  0.00    -0.078 C 
HETATM    3  C3  UNL     1      -1.541  52.311 -25.821  1.00  0.00     0.128 C 
HETATM    4  C4  UNL     1      -1.177  51.183 -26.794  1.00  0.00     0.052 C 
HETATM    5  C5  UNL     1      -2.088  50.047 -26.358  1.00  0.00     0.010 C 
HETATM    6  C6  UNL     1      -1.945  50.065 -24.832  1.00  0.00     0.002 C 
HETATM    7  C7  UNL     1      -3.043  49.247 -24.119  1.00  0.00    -0.004 C 
HETATM    8  C8  UNL     1      -2.582  48.767 -22.741  1.00  0.00     0.010 C 
HETATM    9  C9  UNL     1      -3.558  47.751 -22.149  1.00  0.00     0.035 C 
HETATM   10  C10 UNL     1      -5.012  48.038 -22.452  1.00  0.00    -0.069 C 
HETATM   11  C11 UNL     1      -5.908  47.041 -22.332  1.00  0.00     0.030 C 
HETATM   12  C12 UNL     1      -7.366  47.282 -22.478  1.00  0.00     0.032 C 
HETATM   13  N1  UNL     1      -8.154  46.244 -22.507  1.00  0.00    -0.271 N 
ATOM     14  H1  UNL     1      -7.825  45.279 -22.492  1.00  0.00     0.194 HD
HETATM   15  C23 UNL     1      -7.826  48.724 -22.530  1.00  0.00     0.060 C 
HETATM   16  C24 UNL     1      -6.848  49.532 -23.373  1.00  0.00     0.020 C 
HETATM   17  C25 UNL     1      -5.372  49.464 -22.866  1.00  0.00    -0.016 C 
HETATM   18  C26 UNL     1      -5.266  50.353 -21.602  1.00  0.00     0.020 C 
HETATM   19  C27 UNL     1      -4.440  49.929 -24.065  1.00  0.00     0.002 C 
HETATM   20  C28 UNL     1      -4.386  51.459 -24.261  1.00  0.00     0.007 C 
HETATM   21  C29 UNL     1      -3.099  52.091 -23.736  1.00  0.00     0.014 C 
HETATM   22  C30 UNL     1      -1.823  51.578 -24.445  1.00  0.00     0.003 C 
HETATM   23  C31 UNL     1      -0.641  51.727 -23.455  1.00  0.00     0.020 C 
ENDROOT
BRANCH   3  24
HETATM   24  O1  UNL     1      -2.721  52.934 -26.329  1.00  0.00    -0.377 OA
HETATM   25  H2  UNL     1      -2.461  53.425 -27.128  1.00  0.00     0.211 HD
ENDBRANCH   3  24
BRANCH  13  26
HETATM   26  O2  UNL     1      -9.505  46.611 -22.561  1.00  0.00    -0.271 OA
BRANCH  26  27
HETATM   27  C13 UNL     1     -10.137  45.890 -23.614  1.00  0.00     0.303 C 
BRANCH  27  28
HETATM   28  C14 UNL     1     -11.389  46.627 -24.055  1.00  0.00     0.243 C 
HETATM   29  O3  UNL     1     -11.459  47.263 -25.104  1.00  0.00    -0.271 OA
HETATM   30  N2  UNL     1     -12.463  46.495 -23.204  1.00  0.00    -0.356 N 
HETATM   31  H16 UNL     1     -12.316  45.980 -22.340  1.00  0.00     0.162 HD
BRANCH  30  32
HETATM   32  C15 UNL     1     -13.805  46.961 -23.533  1.00  0.00     0.159 C 
BRANCH  32  33
HETATM   33  C16 UNL     1     -14.839  46.785 -22.395  1.00  0.00     0.170 C 
BRANCH  33  34
HETATM   34  O4  UNL     1     -14.876  47.928 -21.536  1.00  0.00    -0.389 OA
HETATM   35  H20 UNL     1     -13.951  48.243 -21.429  1.00  0.00     0.210 HD
ENDBRANCH  33  34
BRANCH  33  36
HETATM   36  C17 UNL     1     -16.220  46.578 -22.973  1.00  0.00    -0.013 A 
HETATM   37  C18 UNL     1     -17.317  46.226 -22.185  1.00  0.00     0.013 A 
HETATM   38  C19 UNL     1     -18.578  46.097 -22.764  1.00  0.00     0.025 A 
HETATM   39  C20 UNL     1     -18.717  46.337 -24.127  1.00  0.00     0.005 A 
HETATM   40  C21 UNL     1     -20.061  46.195 -24.779  1.00  0.00     0.068 C 
HETATM   41  N3  UNL     1     -17.673  46.681 -24.917  1.00  0.00    -0.369 N 
HETATM   42  C22 UNL     1     -16.458  46.786 -24.329  1.00  0.00     0.097 A 
ATOM     43  H3  UNL     1     -17.796  46.855 -25.914  1.00  0.00     0.165 HD
ENDBRANCH  33  36
ENDBRANCH  32  33
ENDBRANCH  30  32
ENDBRANCH  27  28
ENDBRANCH  26  27
ENDBRANCH  13  26
TORSDOF 8
ENDMDL
MODEL 6
REMARK minimizedAffinity -9.38938141
REMARK CNNscore 0.357955962
REMARK CNNaffinity 6.32300711
REMARK  8 active torsions:
REMARK  status: ('A' for Active; 'I' for Inactive)
REMARK    1  A    between atoms: C3_3  and  O1_4 
REMARK    2  A    between atoms: N1_14  and  O2_16 
REMARK    3  A    between atoms: O2_16  and  C13_17 
REMARK    4  A    between atoms: C13_17  and  C14_18 
REMARK       I    between atoms: C14_18  and  N2_20 
REMARK    5  A    between atoms: N2_20  and  C15_21 
REMARK    6  A    between atoms: C15_21  and  C16_22 
REMARK    7  A    between atoms: C16_22  and  O4_23 
REMARK    8  A    between atoms: C16_22  and  C17_24 
ROOT
HETATM    1  C1  UNL     1       0.178  53.742 -26.918  1.00  0.00     0.015 C 
HETATM    2  C2  UNL     1      -0.732  52.994 -26.681  1.00  0.00    -0.078 C 
HETATM    3  C3  UNL     1      -1.868  52.093 -26.409  1.00  0.00     0.128 C 
HETATM    4  C4  UNL     1      -1.879  50.907 -27.380  1.00  0.00     0.052 C 
HETATM    5  C5  UNL     1      -2.771  49.896 -26.675  1.00  0.00     0.010 C 
HETATM    6  C6  UNL     1      -2.254  49.936 -25.233  1.00  0.00     0.002 C 
HETATM    7  C7  UNL     1      -3.222  49.269 -24.234  1.00  0.00    -0.004 C 
HETATM    8  C8  UNL     1      -2.489  48.773 -22.985  1.00  0.00     0.010 C 
HETATM    9  C9  UNL     1      -3.392  47.893 -22.121  1.00  0.00     0.035 C 
HETATM   10  C10 UNL     1      -4.836  48.340 -22.077  1.00  0.00    -0.069 C 
HETATM   11  C11 UNL     1      -5.776  47.459 -21.689  1.00  0.00     0.030 C 
HETATM   12  C12 UNL     1      -7.190  47.865 -21.489  1.00  0.00     0.032 C 
HETATM   13  N1  UNL     1      -8.067  46.926 -21.272  1.00  0.00    -0.271 N 
ATOM     14  H1  UNL     1      -7.851  45.929 -21.286  1.00  0.00     0.194 HD
HETATM   15  C23 UNL     1      -7.492  49.349 -21.504  1.00  0.00     0.060 C 
HETATM   16  C24 UNL     1      -6.672  50.016 -22.602  1.00  0.00     0.020 C 
HETATM   17  C25 UNL     1      -5.132  49.789 -22.465  1.00  0.00    -0.016 C 
HETATM   18  C26 UNL     1      -4.622  50.689 -21.314  1.00  0.00     0.020 C 
HETATM   19  C27 UNL     1      -4.481  50.112 -23.878  1.00  0.00     0.002 C 
HETATM   20  C28 UNL     1      -4.313  51.619 -24.161  1.00  0.00     0.007 C 
HETATM   21  C29 UNL     1      -2.876  52.109 -23.998  1.00  0.00     0.014 C 
HETATM   22  C30 UNL     1      -1.878  51.433 -24.968  1.00  0.00     0.003 C 
HETATM   23  C31 UNL     1      -0.479  51.467 -24.304  1.00  0.00     0.020 C 
ENDROOT
BRANCH   3  24
HETATM   24  O1  UNL     1      -3.063  52.837 -26.646  1.00  0.00    -0.377 OA
HETATM   25  H2  UNL     1      -2.958  53.275 -27.509  1.00  0.00     0.211 HD
ENDBRANCH   3  24
BRANCH  13  26
HETATM   26  O2  UNL     1      -9.342  47.447 -21.016  1.00  0.00    -0.271 OA
BRANCH  26  27
HETATM   27  C13 UNL     1      -9.605  47.357 -19.619  1.00  0.00     0.303 C 
BRANCH  27  28
HETATM   28  C14 UNL     1     -11.008  46.819 -19.399  1.00  0.00     0.243 C 
HETATM   29  O3  UNL     1     -11.297  45.631 -19.519  1.00  0.00    -0.271 OA
HETATM   30  N2  UNL     1     -11.932  47.764 -19.011  1.00  0.00    -0.356 N 
HETATM   31  H16 UNL     1     -11.622  48.731 -18.966  1.00  0.00     0.162 HD
BRANCH  30  32
HETATM   32  C15 UNL     1     -13.280  47.428 -18.567  1.00  0.00     0.159 C 
BRANCH  32  33
HETATM   33  C16 UNL     1     -14.367  48.438 -19.006  1.00  0.00     0.170 C 
BRANCH  33  34
HETATM   34  O4  UNL     1     -13.875  49.345 -19.996  1.00  0.00    -0.389 OA
HETATM   35  H20 UNL     1     -12.948  49.566 -19.754  1.00  0.00     0.210 HD
ENDBRANCH  33  34
BRANCH  33  36
HETATM   36  C17 UNL     1     -15.557  47.706 -19.579  1.00  0.00    -0.013 A 
HETATM   37  C18 UNL     1     -16.803  47.692 -18.948  1.00  0.00     0.013 A 
HETATM   38  C19 UNL     1     -17.879  47.041 -19.548  1.00  0.00     0.025 A 
HETATM   39  C20 UNL     1     -17.689  46.425 -20.779  1.00  0.00     0.005 A 
HETATM   40  C21 UNL     1     -18.828  45.707 -21.442  1.00  0.00     0.068 C 
HETATM   41  N3  UNL     1     -16.494  46.422 -21.415  1.00  0.00    -0.369 N 
HETATM   42  C22 UNL     1     -15.463  47.050 -20.803  1.00  0.00     0.097 A 
ATOM     43  H3  UNL     1     -16.375  45.965 -22.319  1.00  0.00     0.165 HD
ENDBRANCH  33  36
ENDBRANCH  32  33
ENDBRANCH  30  32
ENDBRANCH  27  28
ENDBRANCH  26  27
ENDBRANCH  13  26
TORSDOF 8
ENDMDL
MODEL 7
REMARK minimizedAffinity -7.69072866
REMARK CNNscore 0.343333364
REMARK CNNaffinity 5.98867464
REMARK  8 active torsions:
REMARK  status: ('A' for Active; 'I' for Inactive)
REMARK    1  A    between atoms: C3_3  and  O1_4 
REMARK    2  A    between atoms: N1_14  and  O2_16 
REMARK    3  A    between atoms: O2_16  and  C13_17 
REMARK    4  A    between atoms: C13_17  and  C14_18 
REMARK       I    between atoms: C14_18  and  N2_20 
REMARK    5  A    between atoms: N2_20  and  C15_21 
REMARK    6  A    between atoms: C15_21  and  C16_22 
REMARK    7  A    between atoms: C16_22  and  O4_23 
REMARK    8  A    between atoms: C16_22  and  C17_24 
ROOT
HETATM    1  C1  UNL     1       0.588  52.390 -22.873  1.00  0.00     0.015 C 
HETATM    2  C2  UNL     1      -0.486  51.869 -23.004  1.00  0.00    -0.078 C 
HETATM    3  C3  UNL     1      -1.817  51.257 -23.174  1.00  0.00     0.128 C 
HETATM    4  C4  UNL     1      -1.952  50.599 -24.552  1.00  0.00     0.052 C 
HETATM    5  C5  UNL     1      -3.131  49.656 -24.367  1.00  0.00     0.010 C 
HETATM    6  C6  UNL     1      -2.822  48.987 -23.023  1.00  0.00     0.002 C 
HETATM    7  C7  UNL     1      -4.041  48.250 -22.429  1.00  0.00    -0.004 C 
HETATM    8  C8  UNL     1      -3.613  47.131 -21.477  1.00  0.00     0.010 C 
HETATM    9  C9  UNL     1      -4.796  46.243 -21.093  1.00  0.00     0.035 C 
HETATM   10  C10 UNL     1      -6.101  46.988 -20.917  1.00  0.00    -0.069 C 
HETATM   11  C11 UNL     1      -7.254  46.298 -20.968  1.00  0.00     0.030 C 
HETATM   12  C12 UNL     1      -8.560  46.938 -20.668  1.00  0.00     0.032 C 
HETATM   13  N1  UNL     1      -9.642  46.247 -20.894  1.00  0.00    -0.271 N 
ATOM     14  H1  UNL     1      -9.648  45.319 -21.316  1.00  0.00     0.194 HD
HETATM   15  C23 UNL     1      -8.526  48.329 -20.071  1.00  0.00     0.060 C 
HETATM   16  C24 UNL     1      -7.437  49.143 -20.759  1.00  0.00     0.020 C 
HETATM   17  C25 UNL     1      -6.018  48.495 -20.675  1.00  0.00    -0.016 C 
HETATM   18  C26 UNL     1      -5.488  48.703 -19.235  1.00  0.00     0.020 C 
HETATM   19  C27 UNL     1      -5.123  49.174 -21.799  1.00  0.00     0.002 C 
HETATM   20  C28 UNL     1      -4.594  50.572 -21.420  1.00  0.00     0.007 C 
HETATM   21  C29 UNL     1      -3.122  50.573 -21.016  1.00  0.00     0.014 C 
HETATM   22  C30 UNL     1      -2.170  50.107 -22.143  1.00  0.00     0.003 C 
HETATM   23  C31 UNL     1      -0.902  49.516 -21.476  1.00  0.00     0.020 C 
ENDROOT
BRANCH   3  24
HETATM   24  O1  UNL     1      -2.777  52.313 -23.122  1.00  0.00    -0.377 OA
HETATM   25  H2  UNL     1      -2.461  53.014 -23.717  1.00  0.00     0.211 HD
ENDBRANCH   3  24
BRANCH  13  26
HETATM   26  O2  UNL     1     -10.796  46.931 -20.489  1.00  0.00    -0.271 OA
BRANCH  26  27
HETATM   27  C13 UNL     1     -11.889  46.020 -20.471  1.00  0.00     0.303 C 
BRANCH  27  28
HETATM   28  C14 UNL     1     -12.118  45.471 -21.868  1.00  0.00     0.243 C 
HETATM   29  O3  UNL     1     -11.603  44.432 -22.274  1.00  0.00    -0.271 OA
HETATM   30  N2  UNL     1     -12.986  46.211 -22.641  1.00  0.00    -0.356 N 
HETATM   31  H16 UNL     1     -13.345  47.076 -22.245  1.00  0.00     0.162 HD
BRANCH  30  32
HETATM   32  C15 UNL     1     -13.487  45.760 -23.934  1.00  0.00     0.159 C 
BRANCH  32  33
HETATM   33  C16 UNL     1     -14.200  46.857 -24.761  1.00  0.00     0.170 C 
BRANCH  33  34
HETATM   34  O4  UNL     1     -13.321  47.447 -25.723  1.00  0.00    -0.389 OA
HETATM   35  H20 UNL     1     -12.437  47.528 -25.300  1.00  0.00     0.210 HD
ENDBRANCH  33  34
BRANCH  33  36
HETATM   36  C17 UNL     1     -15.384  46.271 -25.492  1.00  0.00    -0.013 A 
HETATM   37  C18 UNL     1     -15.249  45.546 -26.678  1.00  0.00     0.013 A 
HETATM   38  C19 UNL     1     -16.372  44.986 -27.283  1.00  0.00     0.025 A 
HETATM   39  C20 UNL     1     -17.613  45.152 -26.678  1.00  0.00     0.005 A 
HETATM   40  C21 UNL     1     -18.840  44.568 -27.314  1.00  0.00     0.068 C 
HETATM   41  N3  UNL     1     -17.775  45.848 -25.529  1.00  0.00    -0.369 N 
HETATM   42  C22 UNL     1     -16.669  46.392 -24.971  1.00  0.00     0.097 A 
ATOM     43  H3  UNL     1     -18.694  45.957 -25.100  1.00  0.00     0.165 HD
ENDBRANCH  33  36
ENDBRANCH  32  33
ENDBRANCH  30  32
ENDBRANCH  27  28
ENDBRANCH  26  27
ENDBRANCH  13  26
TORSDOF 8
ENDMDL
MODEL 8
REMARK minimizedAffinity -8.61907291
REMARK CNNscore 0.309977591
REMARK CNNaffinity 6.56840324
REMARK  8 active torsions:
REMARK  status: ('A' for Active; 'I' for Inactive)
REMARK    1  A    between atoms: C3_3  and  O1_4 
REMARK    2  A    between atoms: N1_14  and  O2_16 
REMARK    3  A    between atoms: O2_16  and  C13_17 
REMARK    4  A    between atoms: C13_17  and  C14_18 
REMARK       I    between atoms: C14_18  and  N2_20 
REMARK    5  A    between atoms: N2_20  and  C15_21 
REMARK    6  A    between atoms: C15_21  and  C16_22 
REMARK    7  A    between atoms: C16_22  and  O4_23 
REMARK    8  A    between atoms: C16_22  and  C17_24 
ROOT
HETATM    1  C1  UNL     1      -5.457  47.047 -22.089  1.00  0.00     0.015 C 
HETATM    2  C2  UNL     1      -4.418  47.254 -21.523  1.00  0.00    -0.078 C 
HETATM    3  C3  UNL     1      -3.142  47.480 -20.820  1.00  0.00     0.128 C 
HETATM    4  C4  UNL     1      -1.951  47.346 -21.776  1.00  0.00     0.052 C 
HETATM    5  C5  UNL     1      -0.831  48.053 -21.030  1.00  0.00     0.010 C 
HETATM    6  C6  UNL     1      -1.510  49.335 -20.535  1.00  0.00     0.002 C 
HETATM    7  C7  UNL     1      -0.694  50.060 -19.444  1.00  0.00    -0.004 C 
HETATM    8  C8  UNL     1      -1.019  51.554 -19.397  1.00  0.00     0.010 C 
HETATM    9  C9  UNL     1      -0.037  52.311 -18.504  1.00  0.00     0.035 C 
HETATM   10  C10 UNL     1       0.399  51.548 -17.273  1.00  0.00    -0.069 C 
HETATM   11  C11 UNL     1       1.524  51.927 -16.639  1.00  0.00     0.030 C 
HETATM   12  C12 UNL     1       1.936  51.315 -15.350  1.00  0.00     0.032 C 
HETATM   13  N1  UNL     1       3.113  51.620 -14.882  1.00  0.00    -0.271 N 
ATOM     14  H1  UNL     1       3.788  52.207 -15.373  1.00  0.00     0.194 HD
HETATM   15  C23 UNL     1       0.930  50.421 -14.657  1.00  0.00     0.060 C 
HETATM   16  C24 UNL     1       0.220  49.564 -15.697  1.00  0.00     0.020 C 
HETATM   17  C25 UNL     1      -0.488  50.390 -16.818  1.00  0.00    -0.016 C 
HETATM   18  C26 UNL     1      -1.774  51.003 -16.212  1.00  0.00     0.020 C 
HETATM   19  C27 UNL     1      -0.752  49.402 -18.035  1.00  0.00     0.002 C 
HETATM   20  C28 UNL     1      -1.971  48.476 -17.838  1.00  0.00     0.007 C 
HETATM   21  C29 UNL     1      -3.197  48.913 -18.635  1.00  0.00     0.014 C 
HETATM   22  C30 UNL     1      -2.973  48.914 -20.166  1.00  0.00     0.003 C 
HETATM   23  C31 UNL     1      -3.942  49.952 -20.785  1.00  0.00     0.020 C 
ENDROOT
BRANCH   3  24
HETATM   24  O1  UNL     1      -3.009  46.446 -19.843  1.00  0.00    -0.377 OA
HETATM   25  H2  UNL     1      -3.200  45.605 -20.294  1.00  0.00     0.211 HD
ENDBRANCH   3  24
BRANCH  13  26
HETATM   26  O2  UNL     1       3.343  51.046 -13.625  1.00  0.00    -0.271 OA
BRANCH  26  27
HETATM   27  C13 UNL     1       2.383  51.553 -12.703  1.00  0.00     0.303 C 
BRANCH  27  28
HETATM   28  C14 UNL     1       3.093  52.313 -11.596  1.00  0.00     0.243 C 
HETATM   29  O3  UNL     1       3.742  51.760 -10.712  1.00  0.00    -0.271 OA
HETATM   30  N2  UNL     1       2.985  53.684 -11.681  1.00  0.00    -0.356 N 
HETATM   31  H16 UNL     1       2.403  54.063 -12.423  1.00  0.00     0.162 HD
BRANCH  30  32
HETATM   32  C15 UNL     1       3.744  54.597 -10.834  1.00  0.00     0.159 C 
BRANCH  32  33
HETATM   33  C16 UNL     1       2.970  55.113  -9.597  1.00  0.00     0.170 C 
BRANCH  33  34
HETATM   34  O4  UNL     1       2.327  54.046  -8.896  1.00  0.00    -0.389 OA
HETATM   35  H20 UNL     1       1.982  53.419  -9.570  1.00  0.00     0.210 HD
ENDBRANCH  33  34
BRANCH  33  36
HETATM   36  C17 UNL     1       3.915  55.809  -8.646  1.00  0.00    -0.013 A 
HETATM   37  C18 UNL     1       3.647  57.074  -8.116  1.00  0.00     0.013 A 
HETATM   38  C19 UNL     1       4.531  57.647  -7.204  1.00  0.00     0.025 A 
HETATM   39  C20 UNL     1       5.664  56.933  -6.828  1.00  0.00     0.005 A 
HETATM   40  C21 UNL     1       6.637  57.532  -5.856  1.00  0.00     0.068 C 
HETATM   41  N3  UNL     1       5.949  55.706  -7.323  1.00  0.00    -0.369 N 
HETATM   42  C22 UNL     1       5.080  55.180  -8.217  1.00  0.00     0.097 A 
ATOM     43  H3  UNL     1       6.785  55.198  -7.034  1.00  0.00     0.165 HD
ENDBRANCH  33  36
ENDBRANCH  32  33
ENDBRANCH  30  32
ENDBRANCH  27  28
ENDBRANCH  26  27
ENDBRANCH  13  26
TORSDOF 8
ENDMDL
MODEL 9
REMARK minimizedAffinity -8.60656929
REMARK CNNscore 0.305754423
REMARK CNNaffinity 6.58542442
REMARK  8 active torsions:
REMARK  status: ('A' for Active; 'I' for Inactive)
REMARK    1  A    between atoms: C3_3  and  O1_4 
REMARK    2  A    between atoms: N1_14  and  O2_16 
REMARK    3  A    between atoms: O2_16  and  C13_17 
REMARK    4  A    between atoms: C13_17  and  C14_18 
REMARK       I    between atoms: C14_18  and  N2_20 
REMARK    5  A    between atoms: N2_20  and  C15_21 
REMARK    6  A    between atoms: C15_21  and  C16_22 
REMARK    7  A    between atoms: C16_22  and  O4_23 
REMARK    8  A    between atoms: C16_22  and  C17_24 
ROOT
HETATM    1  C1  UNL     1      -3.426  47.967 -10.020  1.00  0.00     0.015 C 
HETATM    2  C2  UNL     1      -3.159  48.786 -10.857  1.00  0.00    -0.078 C 
HETATM    3  C3  UNL     1      -2.861  49.794 -11.892  1.00  0.00     0.128 C 
HETATM    4  C4  UNL     1      -2.748  51.196 -11.283  1.00  0.00     0.052 C 
HETATM    5  C5  UNL     1      -1.998  51.975 -12.352  1.00  0.00     0.010 C 
HETATM    6  C6  UNL     1      -0.867  51.015 -12.739  1.00  0.00     0.002 C 
HETATM    7  C7  UNL     1      -0.173  51.412 -14.059  1.00  0.00    -0.004 C 
HETATM    8  C8  UNL     1       1.258  50.875 -14.127  1.00  0.00     0.010 C 
HETATM    9  C9  UNL     1       2.025  51.477 -15.303  1.00  0.00     0.035 C 
HETATM   10  C10 UNL     1       1.190  51.688 -16.546  1.00  0.00    -0.069 C 
HETATM   11  C11 UNL     1       1.629  52.546 -17.486  1.00  0.00     0.030 C 
HETATM   12  C12 UNL     1       0.934  52.698 -18.789  1.00  0.00     0.032 C 
HETATM   13  N1  UNL     1       1.325  53.659 -19.577  1.00  0.00    -0.271 N 
ATOM     14  H1  UNL     1       2.037  54.346 -19.330  1.00  0.00     0.194 HD
HETATM   15  C23 UNL     1      -0.142  51.686 -19.120  1.00  0.00     0.060 C 
HETATM   16  C24 UNL     1      -0.960  51.397 -17.867  1.00  0.00     0.020 C 
HETATM   17  C25 UNL     1      -0.108  50.888 -16.661  1.00  0.00    -0.016 C 
HETATM   18  C26 UNL     1       0.280  49.416 -16.942  1.00  0.00     0.020 C 
HETATM   19  C27 UNL     1      -0.982  51.089 -15.349  1.00  0.00     0.002 C 
HETATM   20  C28 UNL     1      -2.062  50.007 -15.143  1.00  0.00     0.007 C 
HETATM   21  C29 UNL     1      -1.690  48.976 -14.080  1.00  0.00     0.014 C 
HETATM   22  C30 UNL     1      -1.497  49.583 -12.670  1.00  0.00     0.003 C 
HETATM   23  C31 UNL     1      -0.520  48.666 -11.892  1.00  0.00     0.020 C 
ENDROOT
BRANCH   3  24
HETATM   24  O1  UNL     1      -3.971  49.819 -12.790  1.00  0.00    -0.377 OA
HETATM   25  H2  UNL     1      -4.776  49.872 -12.244  1.00  0.00     0.211 HD
ENDBRANCH   3  24
BRANCH  13  26
HETATM   26  O2  UNL     1       0.649  53.639 -20.804  1.00  0.00    -0.271 OA
BRANCH  26  27
HETATM   27  C13 UNL     1       1.404  54.380 -21.758  1.00  0.00     0.303 C 
BRANCH  27  28
HETATM   28  C14 UNL     1       1.043  53.920 -23.160  1.00  0.00     0.243 C 
HETATM   29  O3  UNL     1       1.163  54.635 -24.152  1.00  0.00    -0.271 OA
HETATM   30  N2  UNL     1       0.603  52.617 -23.242  1.00  0.00    -0.356 N 
HETATM   31  H16 UNL     1       0.500  52.102 -22.372  1.00  0.00     0.162 HD
BRANCH  30  32
HETATM   32  C15 UNL     1       0.389  51.925 -24.508  1.00  0.00     0.159 C 
BRANCH  32  33
HETATM   33  C16 UNL     1      -1.099  51.722 -24.880  1.00  0.00     0.170 C 
BRANCH  33  34
HETATM   34  O4  UNL     1      -1.267  50.650 -25.811  1.00  0.00    -0.389 OA
HETATM   35  H20 UNL     1      -0.516  50.692 -26.444  1.00  0.00     0.210 HD
ENDBRANCH  33  34
BRANCH  33  36
HETATM   36  C17 UNL     1      -1.907  51.411 -23.642  1.00  0.00    -0.013 A 
HETATM   37  C18 UNL     1      -2.973  52.211 -23.223  1.00  0.00     0.013 A 
HETATM   38  C19 UNL     1      -3.715  51.848 -22.101  1.00  0.00     0.025 A 
HETATM   39  C20 UNL     1      -3.382  50.679 -21.426  1.00  0.00     0.005 A 
HETATM   40  C21 UNL     1      -4.158  50.271 -20.208  1.00  0.00     0.068 C 
HETATM   41  N3  UNL     1      -2.357  49.883 -21.809  1.00  0.00    -0.369 N 
HETATM   42  C22 UNL     1      -1.645  50.267 -22.894  1.00  0.00     0.097 A 
ATOM     43  H3  UNL     1      -2.130  49.028 -21.301  1.00  0.00     0.165 HD
ENDBRANCH  33  36
ENDBRANCH  32  33
ENDBRANCH  30  32
ENDBRANCH  27  28
ENDBRANCH  26  27
ENDBRANCH  13  26
TORSDOF 8
ENDMDL
