MODEL 1
REMARK minimizedAffinity -9.24183369
REMARK  6 active torsions:
REMARK  status: ('A' for Active; 'I' for Inactive)
REMARK    1  A    between atoms: C4_4  and  C5_5 
REMARK    2  A    between atoms: C5_5  and  C6_6 
REMARK    3  A    between atoms: C6_6  and  C7_7 
REMARK    4  A    between atoms: C7_7  and  C9_9 
REMARK    5  A    between atoms: C12_12  and  C13_13 
REMARK    6  A    between atoms: C13_13  and  O2_15 
ROOT
HETATM    1  C9  UNL     1      -1.547  51.900 -23.167  1.00  0.00    -0.001 C 
HETATM    2  C10 UNL     1      -0.896  51.449 -24.505  1.00  0.00     0.007 C 
HETATM    3  C11 UNL     1      -1.887  50.475 -25.174  1.00  0.00     0.026 C 
HETATM    4  C12 UNL     1      -3.217  50.706 -24.426  1.00  0.00     0.076 C 
HETATM    5  C14 UNL     1      -4.319  49.654 -24.502  1.00  0.00    -0.057 C 
HETATM    6  C15 UNL     1      -5.194  49.506 -23.473  1.00  0.00    -0.067 C 
HETATM    7  C16 UNL     1      -5.062  50.325 -22.183  1.00  0.00     0.036 C 
HETATM    8  C17 UNL     1      -3.837  51.252 -22.028  1.00  0.00     0.015 C 
HETATM    9  C18 UNL     1      -2.679  50.850 -22.950  1.00  0.00    -0.018 C 
HETATM   10  C19 UNL     1      -2.097  49.515 -22.390  1.00  0.00     0.017 C 
HETATM   11  C20 UNL     1      -6.352  48.472 -23.535  1.00  0.00    -0.015 C 
HETATM   12  C21 UNL     1      -5.831  47.221 -22.789  1.00  0.00     0.020 C 
HETATM   13  C22 UNL     1      -7.629  48.998 -22.832  1.00  0.00     0.021 C 
HETATM   14  C23 UNL     1      -8.816  48.058 -22.956  1.00  0.00     0.080 C 
HETATM   15  C24 UNL     1      -9.148  47.773 -24.399  1.00  0.00     0.135 C 
HETATM   16  O3  UNL     1     -10.327  47.769 -24.762  1.00  0.00    -0.297 OA
HETATM   17  C25 UNL     1      -8.002  47.364 -25.339  1.00  0.00     0.018 C 
HETATM   18  C26 UNL     1      -7.807  45.847 -25.222  1.00  0.00     0.023 C 
HETATM   19  C27 UNL     1      -8.476  47.650 -26.789  1.00  0.00     0.023 C 
HETATM   20  C28 UNL     1      -6.729  48.227 -25.043  1.00  0.00     0.013 C 
HETATM   21  C29 UNL     1      -5.481  47.784 -25.825  1.00  0.00     0.011 C 
HETATM   22  C30 UNL     1      -4.400  48.863 -25.787  1.00  0.00     0.036 C 
ENDROOT
BRANCH   1  23
HETATM   23  C7  UNL     1      -0.521  52.289 -22.061  1.00  0.00    -0.014 C 
HETATM   24  C8  UNL     1       0.875  52.688 -22.548  1.00  0.00     0.010 C 
BRANCH  23  25
HETATM   25  C6  UNL     1      -0.453  51.203 -20.959  1.00  0.00     0.008 C 
BRANCH  25  26
HETATM   26  C5  UNL     1      -1.100  51.588 -19.619  1.00  0.00     0.028 C 
BRANCH  26  27
HETATM   27  C4  UNL     1      -0.744  50.680 -18.477  1.00  0.00    -0.025 C 
HETATM   28  C2  UNL     1       0.150  50.890 -17.491  1.00  0.00    -0.091 C 
HETATM   29  C1  UNL     1       1.022  52.108 -17.350  1.00  0.00     0.042 C 
HETATM   30  C3  UNL     1       0.348  49.864 -16.405  1.00  0.00     0.042 C 
ENDBRANCH  26  27
ENDBRANCH  25  26
ENDBRANCH  23  25
ENDBRANCH   1  23
BRANCH   4  31
HETATM   31  C13 UNL     1      -3.894  51.987 -25.008  1.00  0.00     0.153 C 
HETATM   32  O1  UNL     1      -3.390  52.854 -25.703  1.00  0.00    -0.649 OA
BRANCH  31  33
HETATM   33  O2  UNL     1      -5.176  52.157 -24.615  1.00  0.00    -0.776 OA
HETATM   34  H21 UNL     1      -5.422  53.018 -25.016  1.00  0.00     0.167 HD
ENDBRANCH  31  33
ENDBRANCH   4  31
TORSDOF 6
ENDMDL
MODEL 2
REMARK minimizedAffinity -9.21963501
REMARK  6 active torsions:
REMARK  status: ('A' for Active; 'I' for Inactive)
REMARK    1  A    between atoms: C4_4  and  C5_5 
REMARK    2  A    between atoms: C5_5  and  C6_6 
REMARK    3  A    between atoms: C6_6  and  C7_7 
REMARK    4  A    between atoms: C7_7  and  C9_9 
REMARK    5  A    between atoms: C12_12  and  C13_13 
REMARK    6  A    between atoms: C13_13  and  O2_15 
ROOT
HETATM    1  C9  UNL     1      -0.214  50.980 -21.259  1.00  0.00    -0.001 C 
HETATM    2  C10 UNL     1      -0.325  51.392 -19.764  1.00  0.00     0.007 C 
HETATM    3  C11 UNL     1      -1.668  50.835 -19.250  1.00  0.00     0.026 C 
HETATM    4  C12 UNL     1      -2.088  49.799 -20.314  1.00  0.00     0.076 C 
HETATM    5  C14 UNL     1      -3.540  49.339 -20.390  1.00  0.00    -0.057 C 
HETATM    6  C15 UNL     1      -4.068  48.938 -21.575  1.00  0.00    -0.067 C 
HETATM    7  C16 UNL     1      -3.260  49.004 -22.877  1.00  0.00     0.036 C 
HETATM    8  C17 UNL     1      -1.857  49.646 -22.835  1.00  0.00     0.015 C 
HETATM    9  C18 UNL     1      -1.673  50.571 -21.626  1.00  0.00    -0.018 C 
HETATM   10  C19 UNL     1      -2.554  51.833 -21.882  1.00  0.00     0.017 C 
HETATM   11  C20 UNL     1      -5.532  48.427 -21.680  1.00  0.00    -0.015 C 
HETATM   12  C21 UNL     1      -6.364  49.647 -22.141  1.00  0.00     0.020 C 
HETATM   13  C22 UNL     1      -5.668  47.286 -22.720  1.00  0.00     0.021 C 
HETATM   14  C23 UNL     1      -7.064  46.690 -22.782  1.00  0.00     0.080 C 
HETATM   15  C24 UNL     1      -7.502  46.167 -21.438  1.00  0.00     0.135 C 
HETATM   16  O3  UNL     1      -8.077  45.077 -21.368  1.00  0.00    -0.297 OA
HETATM   17  C25 UNL     1      -7.331  47.080 -20.213  1.00  0.00     0.018 C 
HETATM   18  C26 UNL     1      -8.567  47.985 -20.116  1.00  0.00     0.023 C 
HETATM   19  C27 UNL     1      -7.336  46.168 -18.957  1.00  0.00     0.023 C 
HETATM   20  C28 UNL     1      -5.958  47.830 -20.288  1.00  0.00     0.013 C 
HETATM   21  C29 UNL     1      -5.765  48.887 -19.188  1.00  0.00     0.011 C 
HETATM   22  C30 UNL     1      -4.299  49.305 -19.084  1.00  0.00     0.036 C 
ENDROOT
BRANCH   1  23
HETATM   23  C7  UNL     1       0.642  51.953 -22.124  1.00  0.00    -0.014 C 
HETATM   24  C8  UNL     1       1.129  53.226 -21.424  1.00  0.00     0.010 C 
BRANCH  23  25
HETATM   25  C6  UNL     1      -0.066  52.275 -23.464  1.00  0.00     0.008 C 
BRANCH  25  26
HETATM   26  C5  UNL     1       0.782  53.054 -24.482  1.00  0.00     0.028 C 
BRANCH  26  27
HETATM   27  C4  UNL     1       0.469  52.738 -25.917  1.00  0.00    -0.025 C 
HETATM   28  C2  UNL     1       1.188  51.998 -26.784  1.00  0.00    -0.091 C 
HETATM   29  C1  UNL     1       2.509  51.343 -26.486  1.00  0.00     0.042 C 
HETATM   30  C3  UNL     1       0.691  51.764 -28.187  1.00  0.00     0.042 C 
ENDBRANCH  26  27
ENDBRANCH  25  26
ENDBRANCH  23  25
ENDBRANCH   1  23
BRANCH   4  31
HETATM   31  C13 UNL     1      -1.299  48.477 -20.052  1.00  0.00     0.153 C 
HETATM   32  O1  UNL     1      -0.862  47.687 -20.873  1.00  0.00    -0.649 OA
BRANCH  31  33
HETATM   33  O2  UNL     1      -1.165  48.168 -18.743  1.00  0.00    -0.776 OA
HETATM   34  H21 UNL     1      -0.707  47.300 -18.762  1.00  0.00     0.167 HD
ENDBRANCH  31  33
ENDBRANCH   4  31
TORSDOF 6
ENDMDL
MODEL 3
REMARK minimizedAffinity -9.21124935
REMARK  6 active torsions:
REMARK  status: ('A' for Active; 'I' for Inactive)
REMARK    1  A    between atoms: C4_4  and  C5_5 
REMARK    2  A    between atoms: C5_5  and  C6_6 
REMARK    3  A    between atoms: C6_6  and  C7_7 
REMARK    4  A    between atoms: C7_7  and  C9_9 
REMARK    5  A    between atoms: C12_12  and  C13_13 
REMARK    6  A    between atoms: C13_13  and  O2_15 
ROOT
HETATM    1  C9  UNL     1      -0.353  50.746 -21.347  1.00  0.00    -0.001 C 
HETATM    2  C10 UNL     1      -0.668  50.524 -19.842  1.00  0.00     0.007 C 
HETATM    3  C11 UNL     1      -2.049  49.841 -19.774  1.00  0.00     0.026 C 
HETATM    4  C12 UNL     1      -2.297  49.333 -21.210  1.00  0.00     0.076 C 
HETATM    5  C14 UNL     1      -3.713  48.979 -21.653  1.00  0.00    -0.057 C 
HETATM    6  C15 UNL     1      -4.071  49.103 -22.958  1.00  0.00    -0.067 C 
HETATM    7  C16 UNL     1      -3.104  49.667 -24.006  1.00  0.00     0.036 C 
HETATM    8  C17 UNL     1      -1.737  50.202 -23.526  1.00  0.00     0.015 C 
HETATM    9  C18 UNL     1      -1.739  50.557 -22.034  1.00  0.00    -0.018 C 
HETATM   10  C19 UNL     1      -2.616  51.837 -21.873  1.00  0.00     0.017 C 
HETATM   11  C20 UNL     1      -5.493  48.715 -23.449  1.00  0.00    -0.015 C 
HETATM   12  C21 UNL     1      -6.295  50.038 -23.484  1.00  0.00     0.020 C 
HETATM   13  C22 UNL     1      -5.460  48.094 -24.869  1.00  0.00     0.021 C 
HETATM   14  C23 UNL     1      -6.818  47.609 -25.347  1.00  0.00     0.080 C 
HETATM   15  C24 UNL     1      -7.411  46.600 -24.396  1.00  0.00     0.135 C 
HETATM   16  O3  UNL     1      -7.958  45.590 -24.847  1.00  0.00    -0.297 OA
HETATM   17  C25 UNL     1      -7.427  46.938 -22.897  1.00  0.00     0.018 C 
HETATM   18  C26 UNL     1      -8.691  47.758 -22.606  1.00  0.00     0.023 C 
HETATM   19  C27 UNL     1      -7.568  45.598 -22.127  1.00  0.00     0.023 C 
HETATM   20  C28 UNL     1      -6.079  47.619 -22.484  1.00  0.00     0.013 C 
HETATM   21  C29 UNL     1      -6.060  48.138 -21.037  1.00  0.00     0.011 C 
HETATM   22  C30 UNL     1      -4.633  48.442 -20.582  1.00  0.00     0.036 C 
ENDROOT
BRANCH   1  23
HETATM   23  C7  UNL     1       0.579  51.963 -21.627  1.00  0.00    -0.014 C 
HETATM   24  C8  UNL     1       0.788  52.935 -20.462  1.00  0.00     0.010 C 
BRANCH  23  25
HETATM   25  C6  UNL     1       0.151  52.705 -22.919  1.00  0.00     0.008 C 
BRANCH  25  26
HETATM   26  C5  UNL     1       1.142  52.606 -24.089  1.00  0.00     0.028 C 
BRANCH  26  27
HETATM   27  C4  UNL     1       0.508  52.271 -25.409  1.00  0.00    -0.025 C 
HETATM   28  C2  UNL     1       1.095  51.772 -26.515  1.00  0.00    -0.091 C 
HETATM   29  C1  UNL     1       2.561  51.468 -26.662  1.00  0.00     0.042 C 
HETATM   30  C3  UNL     1       0.279  51.469 -27.745  1.00  0.00     0.042 C 
ENDBRANCH  26  27
ENDBRANCH  25  26
ENDBRANCH  23  25
ENDBRANCH   1  23
BRANCH   4  31
HETATM   31  C13 UNL     1      -1.511  47.998 -21.402  1.00  0.00     0.153 C 
HETATM   32  O1  UNL     1      -0.384  47.726 -21.021  1.00  0.00    -0.649 OA
BRANCH  31  33
HETATM   33  O2  UNL     1      -2.164  47.078 -22.147  1.00  0.00    -0.776 OA
HETATM   34  H21 UNL     1      -1.519  46.342 -22.213  1.00  0.00     0.167 HD
ENDBRANCH  31  33
ENDBRANCH   4  31
TORSDOF 6
ENDMDL
MODEL 4
REMARK minimizedAffinity -9.07637596
REMARK  6 active torsions:
REMARK  status: ('A' for Active; 'I' for Inactive)
REMARK    1  A    between atoms: C4_4  and  C5_5 
REMARK    2  A    between atoms: C5_5  and  C6_6 
REMARK    3  A    between atoms: C6_6  and  C7_7 
REMARK    4  A    between atoms: C7_7  and  C9_9 
REMARK    5  A    between atoms: C12_12  and  C13_13 
REMARK    6  A    between atoms: C13_13  and  O2_15 
ROOT
HETATM    1  C9  UNL     1      -1.534  51.793 -23.932  1.00  0.00    -0.001 C 
HETATM    2  C10 UNL     1      -1.449  50.792 -25.118  1.00  0.00     0.007 C 
HETATM    3  C11 UNL     1      -2.542  49.731 -24.882  1.00  0.00     0.026 C 
HETATM    4  C12 UNL     1      -3.467  50.361 -23.819  1.00  0.00     0.076 C 
HETATM    5  C14 UNL     1      -4.414  49.474 -23.019  1.00  0.00    -0.057 C 
HETATM    6  C15 UNL     1      -4.779  49.826 -21.759  1.00  0.00    -0.067 C 
HETATM    7  C16 UNL     1      -4.201  51.071 -21.074  1.00  0.00     0.036 C 
HETATM    8  C17 UNL     1      -3.100  51.864 -21.810  1.00  0.00     0.015 C 
HETATM    9  C18 UNL     1      -2.389  51.026 -22.878  1.00  0.00    -0.018 C 
HETATM   10  C19 UNL     1      -1.521  49.971 -22.123  1.00  0.00     0.017 C 
HETATM   11  C20 UNL     1      -5.773  48.965 -20.931  1.00  0.00    -0.015 C 
HETATM   12  C21 UNL     1      -4.891  48.067 -20.030  1.00  0.00     0.020 C 
HETATM   13  C22 UNL     1      -6.691  49.843 -20.044  1.00  0.00     0.021 C 
HETATM   14  C23 UNL     1      -7.744  49.046 -19.292  1.00  0.00     0.080 C 
HETATM   15  C24 UNL     1      -8.609  48.247 -20.234  1.00  0.00     0.135 C 
HETATM   16  O3  UNL     1      -9.830  48.211 -20.055  1.00  0.00    -0.297 OA
HETATM   17  C25 UNL     1      -7.916  47.395 -21.309  1.00  0.00     0.018 C 
HETATM   18  C26 UNL     1      -7.566  46.036 -20.690  1.00  0.00     0.023 C 
HETATM   19  C27 UNL     1      -8.961  47.129 -22.426  1.00  0.00     0.023 C 
HETATM   20  C28 UNL     1      -6.709  48.181 -21.924  1.00  0.00     0.013 C 
HETATM   21  C29 UNL     1      -5.855  47.351 -22.896  1.00  0.00     0.011 C 
HETATM   22  C30 UNL     1      -4.945  48.251 -23.731  1.00  0.00     0.036 C 
ENDROOT
BRANCH   1  23
HETATM   23  C7  UNL     1      -0.182  52.489 -23.590  1.00  0.00    -0.014 C 
HETATM   24  C8  UNL     1       0.946  52.308 -24.610  1.00  0.00     0.010 C 
BRANCH  23  25
HETATM   25  C6  UNL     1       0.281  52.129 -22.156  1.00  0.00     0.008 C 
BRANCH  25  26
HETATM   26  C5  UNL     1       0.386  53.315 -21.185  1.00  0.00     0.028 C 
BRANCH  26  27
HETATM   27  C4  UNL     1       0.891  52.952 -19.818  1.00  0.00    -0.025 C 
HETATM   28  C2  UNL     1       0.216  52.366 -18.808  1.00  0.00    -0.091 C 
HETATM   29  C1  UNL     1      -1.236  51.974 -18.840  1.00  0.00     0.042 C 
HETATM   30  C3  UNL     1       0.909  52.048 -17.508  1.00  0.00     0.042 C 
ENDBRANCH  26  27
ENDBRANCH  25  26
ENDBRANCH  23  25
ENDBRANCH   1  23
BRANCH   4  31
HETATM   31  C13 UNL     1      -4.425  51.366 -24.533  1.00  0.00     0.153 C 
HETATM   32  O1  UNL     1      -4.129  52.294 -25.269  1.00  0.00    -0.649 OA
BRANCH  31  33
HETATM   33  O2  UNL     1      -5.729  51.199 -24.220  1.00  0.00    -0.776 OA
HETATM   34  H21 UNL     1      -6.171  51.932 -24.699  1.00  0.00     0.167 HD
ENDBRANCH  31  33
ENDBRANCH   4  31
TORSDOF 6
ENDMDL
MODEL 5
REMARK minimizedAffinity -9.02185249
REMARK  6 active torsions:
REMARK  status: ('A' for Active; 'I' for Inactive)
REMARK    1  A    between atoms: C4_4  and  C5_5 
REMARK    2  A    between atoms: C5_5  and  C6_6 
REMARK    3  A    between atoms: C6_6  and  C7_7 
REMARK    4  A    between atoms: C7_7  and  C9_9 
REMARK    5  A    between atoms: C12_12  and  C13_13 
REMARK    6  A    between atoms: C13_13  and  O2_15 
ROOT
HETATM    1  C9  UNL     1      -2.031  51.232 -23.085  1.00  0.00    -0.001 C 
HETATM    2  C10 UNL     1      -1.977  50.348 -24.363  1.00  0.00     0.007 C 
HETATM    3  C11 UNL     1      -3.150  49.352 -24.263  1.00  0.00     0.026 C 
HETATM    4  C12 UNL     1      -4.063  49.943 -23.167  1.00  0.00     0.076 C 
HETATM    5  C14 UNL     1      -5.097  49.053 -22.484  1.00  0.00    -0.057 C 
HETATM    6  C15 UNL     1      -5.478  49.307 -21.205  1.00  0.00    -0.067 C 
HETATM    7  C16 UNL     1      -4.836  50.433 -20.385  1.00  0.00     0.036 C 
HETATM    8  C17 UNL     1      -3.658  51.211 -21.008  1.00  0.00     0.015 C 
HETATM    9  C18 UNL     1      -2.973  50.430 -22.136  1.00  0.00    -0.018 C 
HETATM   10  C19 UNL     1      -2.208  49.245 -21.468  1.00  0.00     0.017 C 
HETATM   11  C20 UNL     1      -6.557  48.445 -20.494  1.00  0.00    -0.015 C 
HETATM   12  C21 UNL     1      -5.772  47.400 -19.664  1.00  0.00     0.020 C 
HETATM   13  C22 UNL     1      -7.441  49.297 -19.547  1.00  0.00     0.021 C 
HETATM   14  C23 UNL     1      -8.572  48.511 -18.907  1.00  0.00     0.080 C 
HETATM   15  C24 UNL     1      -9.460  47.874 -19.947  1.00  0.00     0.135 C 
HETATM   16  O3  UNL     1     -10.685  47.911 -19.804  1.00  0.00    -0.297 OA
HETATM   17  C25 UNL     1      -8.793  47.082 -21.083  1.00  0.00     0.018 C 
HETATM   18  C26 UNL     1      -8.561  45.647 -20.593  1.00  0.00     0.023 C 
HETATM   19  C27 UNL     1      -9.816  47.004 -22.248  1.00  0.00     0.023 C 
HETATM   20  C28 UNL     1      -7.513  47.833 -21.584  1.00  0.00     0.013 C 
HETATM   21  C29 UNL     1      -6.688  47.041 -22.612  1.00  0.00     0.011 C 
HETATM   22  C30 UNL     1      -5.690  47.949 -23.328  1.00  0.00     0.036 C 
ENDROOT
BRANCH   1  23
HETATM   23  C7  UNL     1      -0.646  51.789 -22.640  1.00  0.00    -0.014 C 
HETATM   24  C8  UNL     1      -0.522  52.192 -21.168  1.00  0.00     0.010 C 
BRANCH  23  25
HETATM   25  C6  UNL     1      -0.175  52.924 -23.584  1.00  0.00     0.008 C 
BRANCH  25  26
HETATM   26  C5  UNL     1       0.951  52.542 -24.558  1.00  0.00     0.028 C 
BRANCH  26  27
HETATM   27  C4  UNL     1       0.513  52.413 -25.988  1.00  0.00    -0.025 C 
HETATM   28  C2  UNL     1       1.228  51.975 -27.044  1.00  0.00    -0.091 C 
HETATM   29  C1  UNL     1       2.668  51.542 -27.003  1.00  0.00     0.042 C 
HETATM   30  C3  UNL     1       0.600  51.886 -28.411  1.00  0.00     0.042 C 
ENDBRANCH  26  27
ENDBRANCH  25  26
ENDBRANCH  23  25
ENDBRANCH   1  23
BRANCH   4  31
HETATM   31  C13 UNL     1      -4.923  51.081 -23.802  1.00  0.00     0.153 C 
HETATM   32  O1  UNL     1      -4.596  51.877 -24.667  1.00  0.00    -0.649 OA
BRANCH  31  33
HETATM   33  O2  UNL     1      -6.150  51.213 -23.252  1.00  0.00    -0.776 OA
HETATM   34  H21 UNL     1      -6.524  51.991 -23.719  1.00  0.00     0.167 HD
ENDBRANCH  31  33
ENDBRANCH   4  31
TORSDOF 6
ENDMDL
MODEL 6
REMARK minimizedAffinity -8.70997524
REMARK  6 active torsions:
REMARK  status: ('A' for Active; 'I' for Inactive)
REMARK    1  A    between atoms: C4_4  and  C5_5 
REMARK    2  A    between atoms: C5_5  and  C6_6 
REMARK    3  A    between atoms: C6_6  and  C7_7 
REMARK    4  A    between atoms: C7_7  and  C9_9 
REMARK    5  A    between atoms: C12_12  and  C13_13 
REMARK    6  A    between atoms: C13_13  and  O2_15 
ROOT
HETATM    1  C9  UNL     1      -4.044  48.063 -19.390  1.00  0.00    -0.001 C 
HETATM    2  C10 UNL     1      -4.708  47.104 -20.417  1.00  0.00     0.007 C 
HETATM    3  C11 UNL     1      -4.260  47.574 -21.816  1.00  0.00     0.026 C 
HETATM    4  C12 UNL     1      -3.060  48.505 -21.542  1.00  0.00     0.076 C 
HETATM    5  C14 UNL     1      -2.606  49.489 -22.615  1.00  0.00    -0.057 C 
HETATM    6  C15 UNL     1      -2.012  50.658 -22.263  1.00  0.00    -0.067 C 
HETATM    7  C16 UNL     1      -1.845  51.062 -20.792  1.00  0.00     0.036 C 
HETATM    8  C17 UNL     1      -2.473  50.158 -19.711  1.00  0.00     0.015 C 
HETATM    9  C18 UNL     1      -3.591  49.269 -20.268  1.00  0.00    -0.018 C 
HETATM   10  C19 UNL     1      -4.797  50.204 -20.589  1.00  0.00     0.017 C 
HETATM   11  C20 UNL     1      -1.502  51.665 -23.331  1.00  0.00    -0.015 C 
HETATM   12  C21 UNL     1      -2.632  52.711 -23.486  1.00  0.00     0.020 C 
HETATM   13  C22 UNL     1      -0.201  52.373 -22.878  1.00  0.00     0.021 C 
HETATM   14  C23 UNL     1       0.385  53.293 -23.936  1.00  0.00     0.080 C 
HETATM   15  C24 UNL     1       0.665  52.552 -25.219  1.00  0.00     0.135 C 
HETATM   16  O3  UNL     1       1.721  52.760 -25.822  1.00  0.00    -0.297 OA
HETATM   17  C25 UNL     1      -0.444  51.658 -25.798  1.00  0.00     0.018 C 
HETATM   18  C26 UNL     1      -1.362  52.535 -26.659  1.00  0.00     0.023 C 
HETATM   19  C27 UNL     1       0.238  50.641 -26.751  1.00  0.00     0.023 C 
HETATM   20  C28 UNL     1      -1.158  50.872 -24.647  1.00  0.00     0.013 C 
HETATM   21  C29 UNL     1      -2.387  50.072 -25.108  1.00  0.00     0.011 C 
HETATM   22  C30 UNL     1      -2.804  49.052 -24.048  1.00  0.00     0.036 C 
ENDROOT
BRANCH   1  23
HETATM   23  C7  UNL     1      -4.847  48.227 -18.064  1.00  0.00    -0.014 C 
HETATM   24  C8  UNL     1      -4.209  47.622 -16.810  1.00  0.00     0.010 C 
BRANCH  23  25
HETATM   25  C6  UNL     1      -6.313  47.759 -18.241  1.00  0.00     0.008 C 
BRANCH  25  26
HETATM   26  C5  UNL     1      -7.362  48.883 -18.251  1.00  0.00     0.028 C 
BRANCH  26  27
HETATM   27  C4  UNL     1      -8.611  48.555 -19.019  1.00  0.00    -0.025 C 
HETATM   28  C2  UNL     1      -9.802  48.145 -18.539  1.00  0.00    -0.091 C 
HETATM   29  C1  UNL     1     -10.120  47.898 -17.090  1.00  0.00     0.042 C 
HETATM   30  C3  UNL     1     -10.958  47.894 -19.473  1.00  0.00     0.042 C 
ENDBRANCH  26  27
ENDBRANCH  25  26
ENDBRANCH  23  25
ENDBRANCH   1  23
BRANCH   4  31
HETATM   31  C13 UNL     1      -1.796  47.621 -21.300  1.00  0.00     0.153 C 
HETATM   32  O1  UNL     1      -0.861  47.836 -20.546  1.00  0.00    -0.649 OA
BRANCH  31  33
HETATM   33  O2  UNL     1      -1.731  46.527 -22.091  1.00  0.00    -0.776 OA
HETATM   34  H21 UNL     1      -0.868  46.127 -21.852  1.00  0.00     0.167 HD
ENDBRANCH  31  33
ENDBRANCH   4  31
TORSDOF 6
ENDMDL
MODEL 7
REMARK minimizedAffinity -8.62434101
REMARK  6 active torsions:
REMARK  status: ('A' for Active; 'I' for Inactive)
REMARK    1  A    between atoms: C4_4  and  C5_5 
REMARK    2  A    between atoms: C5_5  and  C6_6 
REMARK    3  A    between atoms: C6_6  and  C7_7 
REMARK    4  A    between atoms: C7_7  and  C9_9 
REMARK    5  A    between atoms: C12_12  and  C13_13 
REMARK    6  A    between atoms: C13_13  and  O2_15 
ROOT
HETATM    1  C9  UNL     1      -3.350  49.993 -22.094  1.00  0.00    -0.001 C 
HETATM    2  C10 UNL     1      -2.212  49.709 -23.114  1.00  0.00     0.007 C 
HETATM    3  C11 UNL     1      -2.880  49.108 -24.367  1.00  0.00     0.026 C 
HETATM    4  C12 UNL     1      -4.379  49.435 -24.197  1.00  0.00     0.076 C 
HETATM    5  C14 UNL     1      -5.418  48.659 -25.000  1.00  0.00    -0.057 C 
HETATM    6  C15 UNL     1      -6.668  48.475 -24.503  1.00  0.00    -0.067 C 
HETATM    7  C16 UNL     1      -7.055  48.968 -23.103  1.00  0.00     0.036 C 
HETATM    8  C17 UNL     1      -5.953  49.585 -22.215  1.00  0.00     0.015 C 
HETATM    9  C18 UNL     1      -4.545  49.163 -22.652  1.00  0.00    -0.018 C 
HETATM   10  C19 UNL     1      -4.390  47.654 -22.289  1.00  0.00     0.017 C 
HETATM   11  C20 UNL     1      -7.761  47.723 -25.312  1.00  0.00    -0.015 C 
HETATM   12  C21 UNL     1      -7.737  46.268 -24.787  1.00  0.00     0.020 C 
HETATM   13  C22 UNL     1      -9.168  48.332 -25.079  1.00  0.00     0.021 C 
HETATM   14  C23 UNL     1     -10.251  47.689 -25.928  1.00  0.00     0.080 C 
HETATM   15  C24 UNL     1      -9.927  47.779 -27.398  1.00  0.00     0.135 C 
HETATM   16  O3  UNL     1     -10.817  48.081 -28.198  1.00  0.00    -0.297 OA
HETATM   17  C25 UNL     1      -8.523  47.357 -27.859  1.00  0.00     0.018 C 
HETATM   18  C26 UNL     1      -8.531  45.840 -28.088  1.00  0.00     0.023 C 
HETATM   19  C27 UNL     1      -8.274  48.023 -29.238  1.00  0.00     0.023 C 
HETATM   20  C28 UNL     1      -7.446  47.873 -26.846  1.00  0.00     0.013 C 
HETATM   21  C29 UNL     1      -6.024  47.366 -27.136  1.00  0.00     0.011 C 
HETATM   22  C30 UNL     1      -4.985  48.182 -26.367  1.00  0.00     0.036 C 
ENDROOT
BRANCH   1  23
HETATM   23  C7  UNL     1      -2.895  49.937 -20.604  1.00  0.00    -0.014 C 
HETATM   24  C8  UNL     1      -3.078  51.224 -19.794  1.00  0.00     0.010 C 
BRANCH  23  25
HETATM   25  C6  UNL     1      -1.450  49.389 -20.485  1.00  0.00     0.008 C 
BRANCH  25  26
HETATM   26  C5  UNL     1      -0.377  50.204 -21.224  1.00  0.00     0.028 C 
BRANCH  26  27
HETATM   27  C4  UNL     1       0.007  51.485 -20.540  1.00  0.00    -0.025 C 
HETATM   28  C2  UNL     1       0.373  52.654 -21.102  1.00  0.00    -0.091 C 
HETATM   29  C1  UNL     1       0.503  52.909 -22.578  1.00  0.00     0.042 C 
HETATM   30  C3  UNL     1       0.694  53.849 -20.242  1.00  0.00     0.042 C 
ENDBRANCH  26  27
ENDBRANCH  25  26
ENDBRANCH  23  25
ENDBRANCH   1  23
BRANCH   4  31
HETATM   31  C13 UNL     1      -4.613  50.916 -24.634  1.00  0.00     0.153 C 
HETATM   32  O1  UNL     1      -3.873  51.633 -25.288  1.00  0.00    -0.649 OA
BRANCH  31  33
HETATM   33  O2  UNL     1      -5.753  51.457 -24.151  1.00  0.00    -0.776 OA
HETATM   34  H21 UNL     1      -5.714  52.385 -24.467  1.00  0.00     0.167 HD
ENDBRANCH  31  33
ENDBRANCH   4  31
TORSDOF 6
ENDMDL
MODEL 8
REMARK minimizedAffinity -8.51567459
REMARK  6 active torsions:
REMARK  status: ('A' for Active; 'I' for Inactive)
REMARK    1  A    between atoms: C4_4  and  C5_5 
REMARK    2  A    between atoms: C5_5  and  C6_6 
REMARK    3  A    between atoms: C6_6  and  C7_7 
REMARK    4  A    between atoms: C7_7  and  C9_9 
REMARK    5  A    between atoms: C12_12  and  C13_13 
REMARK    6  A    between atoms: C13_13  and  O2_15 
ROOT
HETATM    1  C9  UNL     1      -0.967  52.397 -21.302  1.00  0.00    -0.001 C 
HETATM    2  C10 UNL     1      -0.158  51.814 -22.494  1.00  0.00     0.007 C 
HETATM    3  C11 UNL     1      -1.055  50.754 -23.163  1.00  0.00     0.026 C 
HETATM    4  C12 UNL     1      -2.467  51.040 -22.609  1.00  0.00     0.076 C 
HETATM    5  C14 UNL     1      -3.546  49.967 -22.698  1.00  0.00    -0.057 C 
HETATM    6  C15 UNL     1      -4.538  49.916 -21.770  1.00  0.00    -0.067 C 
HETATM    7  C16 UNL     1      -4.566  50.874 -20.573  1.00  0.00     0.036 C 
HETATM    8  C17 UNL     1      -3.374  51.835 -20.378  1.00  0.00     0.015 C 
HETATM    9  C18 UNL     1      -2.111  51.357 -21.104  1.00  0.00    -0.018 C 
HETATM   10  C19 UNL     1      -1.593  50.102 -20.335  1.00  0.00     0.017 C 
HETATM   11  C20 UNL     1      -5.674  48.860 -21.854  1.00  0.00    -0.015 C 
HETATM   12  C21 UNL     1      -5.239  47.708 -20.916  1.00  0.00     0.020 C 
HETATM   13  C22 UNL     1      -7.029  49.436 -21.370  1.00  0.00     0.021 C 
HETATM   14  C23 UNL     1      -8.188  48.466 -21.529  1.00  0.00     0.080 C 
HETATM   15  C24 UNL     1      -8.342  48.018 -22.960  1.00  0.00     0.135 C 
HETATM   16  O3  UNL     1      -9.469  47.952 -23.458  1.00  0.00    -0.297 OA
HETATM   17  C25 UNL     1      -7.090  47.529 -23.706  1.00  0.00     0.018 C 
HETATM   18  C26 UNL     1      -6.901  46.038 -23.398  1.00  0.00     0.023 C 
HETATM   19  C27 UNL     1      -7.387  47.645 -25.225  1.00  0.00     0.023 C 
HETATM   20  C28 UNL     1      -5.866  48.443 -23.359  1.00  0.00     0.013 C 
HETATM   21  C29 UNL     1      -4.530  47.940 -23.933  1.00  0.00     0.011 C 
HETATM   22  C30 UNL     1      -3.468  49.038 -23.887  1.00  0.00     0.036 C 
ENDROOT
BRANCH   1  23
HETATM   23  C7  UNL     1      -0.084  52.925 -20.132  1.00  0.00    -0.014 C 
HETATM   24  C8  UNL     1       1.030  53.903 -20.517  1.00  0.00     0.010 C 
BRANCH  23  25
HETATM   25  C6  UNL     1       0.457  51.755 -19.272  1.00  0.00     0.008 C 
BRANCH  25  26
HETATM   26  C5  UNL     1       0.575  52.048 -17.768  1.00  0.00     0.028 C 
BRANCH  26  27
HETATM   27  C4  UNL     1       1.939  52.502 -17.332  1.00  0.00    -0.025 C 
HETATM   28  C2  UNL     1       2.594  52.202 -16.193  1.00  0.00    -0.091 C 
HETATM   29  C1  UNL     1       2.058  51.346 -15.079  1.00  0.00     0.042 C 
HETATM   30  C3  UNL     1       3.983  52.732 -15.946  1.00  0.00     0.042 C 
ENDBRANCH  26  27
ENDBRANCH  25  26
ENDBRANCH  23  25
ENDBRANCH   1  23
BRANCH   4  31
HETATM   31  C13 UNL     1      -3.076  52.237 -23.406  1.00  0.00     0.153 C 
HETATM   32  O1  UNL     1      -2.494  53.046 -24.110  1.00  0.00    -0.649 OA
BRANCH  31  33
HETATM   33  O2  UNL     1      -4.403  52.407 -23.212  1.00  0.00    -0.776 OA
HETATM   34  H21 UNL     1      -4.604  53.216 -23.729  1.00  0.00     0.167 HD
ENDBRANCH  31  33
ENDBRANCH   4  31
TORSDOF 6
ENDMDL
MODEL 9
REMARK minimizedAffinity -8.41839504
REMARK  6 active torsions:
REMARK  status: ('A' for Active; 'I' for Inactive)
REMARK    1  A    between atoms: C4_4  and  C5_5 
REMARK    2  A    between atoms: C5_5  and  C6_6 
REMARK    3  A    between atoms: C6_6  and  C7_7 
REMARK    4  A    between atoms: C7_7  and  C9_9 
REMARK    5  A    between atoms: C12_12  and  C13_13 
REMARK    6  A    between atoms: C13_13  and  O2_15 
ROOT
HETATM    1  C9  UNL     1      -5.932  48.696 -23.295  1.00  0.00    -0.001 C 
HETATM    2  C10 UNL     1      -6.774  48.982 -22.021  1.00  0.00     0.007 C 
HETATM    3  C11 UNL     1      -5.861  49.758 -21.050  1.00  0.00     0.026 C 
HETATM    4  C12 UNL     1      -4.688  50.241 -21.929  1.00  0.00     0.076 C 
HETATM    5  C14 UNL     1      -3.382  50.676 -21.274  1.00  0.00    -0.057 C 
HETATM    6  C15 UNL     1      -2.205  50.540 -21.939  1.00  0.00    -0.067 C 
HETATM    7  C16 UNL     1      -2.138  49.881 -23.323  1.00  0.00     0.036 C 
HETATM    8  C17 UNL     1      -3.430  49.270 -23.905  1.00  0.00     0.015 C 
HETATM    9  C18 UNL     1      -4.470  48.959 -22.822  1.00  0.00    -0.018 C 
HETATM   10  C19 UNL     1      -3.925  47.746 -22.005  1.00  0.00     0.017 C 
HETATM   11  C20 UNL     1      -0.862  51.009 -21.316  1.00  0.00    -0.015 C 
HETATM   12  C21 UNL     1      -0.231  49.742 -20.689  1.00  0.00     0.020 C 
HETATM   13  C22 UNL     1       0.097  51.586 -22.389  1.00  0.00     0.021 C 
HETATM   14  C23 UNL     1       1.384  52.147 -21.808  1.00  0.00     0.080 C 
HETATM   15  C24 UNL     1       1.107  53.221 -20.786  1.00  0.00     0.135 C 
HETATM   16  O3  UNL     1       1.784  54.252 -20.790  1.00  0.00    -0.297 OA
HETATM   17  C25 UNL     1       0.072  52.928 -19.688  1.00  0.00     0.018 C 
HETATM   18  C26 UNL     1       0.786  52.204 -18.539  1.00  0.00     0.023 C 
HETATM   19  C27 UNL     1      -0.408  54.296 -19.134  1.00  0.00     0.023 C 
HETATM   20  C28 UNL     1      -1.157  52.169 -20.295  1.00  0.00     0.013 C 
HETATM   21  C29 UNL     1      -2.175  51.692 -19.247  1.00  0.00     0.011 C 
HETATM   22  C30 UNL     1      -3.498  51.305 -19.905  1.00  0.00     0.036 C 
ENDROOT
BRANCH   1  23
HETATM   23  C7  UNL     1      -6.361  47.411 -24.065  1.00  0.00    -0.014 C 
HETATM   24  C8  UNL     1      -6.848  47.617 -25.502  1.00  0.00     0.010 C 
BRANCH  23  25
HETATM   25  C6  UNL     1      -7.369  46.577 -23.235  1.00  0.00     0.008 C 
BRANCH  25  26
HETATM   26  C5  UNL     1      -6.740  45.543 -22.287  1.00  0.00     0.028 C 
BRANCH  26  27
HETATM   27  C4  UNL     1      -7.205  44.133 -22.514  1.00  0.00    -0.025 C 
HETATM   28  C2  UNL     1      -7.810  43.620 -23.604  1.00  0.00    -0.091 C 
HETATM   29  C1  UNL     1      -8.179  44.391 -24.841  1.00  0.00     0.042 C 
HETATM   30  C3  UNL     1      -8.176  42.159 -23.659  1.00  0.00     0.042 C 
ENDBRANCH  26  27
ENDBRANCH  25  26
ENDBRANCH  23  25
ENDBRANCH   1  23
BRANCH   4  31
HETATM   31  C13 UNL     1      -5.148  51.514 -22.708  1.00  0.00     0.153 C 
HETATM   32  O1  UNL     1      -4.504  52.522 -22.948  1.00  0.00    -0.649 OA
BRANCH  31  33
HETATM   33  O2  UNL     1      -6.445  51.487 -23.087  1.00  0.00    -0.776 OA
HETATM   34  H21 UNL     1      -6.576  52.367 -23.502  1.00  0.00     0.167 HD
ENDBRANCH  31  33
ENDBRANCH   4  31
TORSDOF 6
ENDMDL
