MODEL 1
REMARK minimizedAffinity -8.05020332
REMARK  12 active torsions:
REMARK  status: ('A' for Active; 'I' for Inactive)
REMARK    1  A    between atoms: C2_2  and  C3_3 
REMARK    2  A    between atoms: C3_3  and  C5_5 
REMARK    3  A    between atoms: C3_3  and  C20_20 
REMARK    4  A    between atoms: C6_6  and  C7_7 
REMARK    5  A    between atoms: C7_7  and  C9_9 
REMARK    6  A    between atoms: C9_9  and  C10_10 
REMARK    7  A    between atoms: C10_10  and  C11_11 
REMARK    8  A    between atoms: C12_12  and  C14_14 
REMARK    9  A    between atoms: C14_14  and  C15_15 
REMARK   10  A    between atoms: C15_15  and  C16_16 
REMARK   11  A    between atoms: C20_20  and  C21_21 
REMARK   12  A    between atoms: C21_21  and  C22_22 
ROOT
HETATM    1  C3  UNL     1      -4.946   3.297  11.805  1.00  0.00    -0.010 C 
HETATM    2  C4  UNL     1      -5.755   3.570  10.512  1.00  0.00     0.024 C 
ENDROOT
BRANCH   1   3
HETATM    3  C2  UNL     1      -4.517   1.834  11.704  1.00  0.00    -0.024 C 
HETATM    4  C1  UNL     1      -3.284   1.314  11.630  1.00  0.00     0.008 C 
ENDBRANCH   1   3
BRANCH   1   5
HETATM    5  C5  UNL     1      -3.743   4.245  11.787  1.00  0.00    -0.017 C 
HETATM    6  C6  UNL     1      -3.214   4.919  12.824  1.00  0.00    -0.025 C 
BRANCH   6   7
HETATM    7  C7  UNL     1      -2.012   5.832  12.705  1.00  0.00     0.004 C 
HETATM    8  C8  UNL     1      -1.953   6.744  13.932  1.00  0.00     0.014 C 
BRANCH   7   9
HETATM    9  C9  UNL     1      -0.739   4.977  12.548  1.00  0.00     0.012 C 
BRANCH   9  10
HETATM   10  C10 UNL     1      -0.051   5.086  11.181  1.00  0.00     0.028 C 
BRANCH  10  11
HETATM   11  C11 UNL     1       1.131   6.020  11.204  1.00  0.00    -0.024 C 
HETATM   12  C12 UNL     1       1.162   7.349  10.972  1.00  0.00    -0.087 C 
HETATM   13  C13 UNL     1      -0.052   8.175  10.625  1.00  0.00     0.043 C 
BRANCH  12  14
HETATM   14  C14 UNL     1       2.437   8.186  11.027  1.00  0.00     0.037 C 
BRANCH  14  15
HETATM   15  C15 UNL     1       3.461   8.005   9.897  1.00  0.00     0.031 C 
BRANCH  15  16
HETATM   16  C16 UNL     1       2.805   8.051   8.541  1.00  0.00    -0.024 C 
HETATM   17  C17 UNL     1       2.519   7.011   7.733  1.00  0.00    -0.091 C 
HETATM   18  C18 UNL     1       2.869   5.577   8.019  1.00  0.00     0.042 C 
HETATM   19  C19 UNL     1       1.806   7.229   6.423  1.00  0.00     0.042 C 
ENDBRANCH  15  16
ENDBRANCH  14  15
ENDBRANCH  12  14
ENDBRANCH  10  11
ENDBRANCH   9  10
ENDBRANCH   7   9
ENDBRANCH   6   7
ENDBRANCH   1   5
BRANCH   1  20
HETATM   20  C20 UNL     1      -5.867   3.674  13.016  1.00  0.00     0.018 C 
BRANCH  20  21
HETATM   21  C21 UNL     1      -7.348   3.911  12.680  1.00  0.00     0.011 C 
BRANCH  21  22
HETATM   22  C22 UNL     1      -8.114   5.127  13.285  1.00  0.00     0.022 C 
HETATM   23  C23 UNL     1      -9.065   5.894  12.373  1.00  0.00    -0.084 C 
HETATM   24  C24 UNL     1      -8.972   6.048  11.042  1.00  0.00     0.014 C 
HETATM   25  C25 UNL     1     -10.199   6.566  13.124  1.00  0.00     0.034 C 
HETATM   26  C26 UNL     1      -9.814   6.926  14.563  1.00  0.00     0.009 C 
HETATM   27  C27 UNL     1      -8.333   7.326  14.663  1.00  0.00    -0.010 C 
HETATM   28  C28 UNL     1      -8.052   7.934  16.042  1.00  0.00     0.011 C 
HETATM   29  C29 UNL     1      -7.353   6.142  14.239  1.00  0.00    -0.037 C 
HETATM   30  C30 UNL     1      -6.135   6.815  13.570  1.00  0.00     0.016 C 
HETATM   31  C31 UNL     1      -6.837   5.358  15.468  1.00  0.00     0.016 C 
ENDBRANCH  21  22
ENDBRANCH  20  21
ENDBRANCH   1  20
TORSDOF 12
ENDMDL
MODEL 2
REMARK minimizedAffinity -7.97298956
REMARK  12 active torsions:
REMARK  status: ('A' for Active; 'I' for Inactive)
REMARK    1  A    between atoms: C2_2  and  C3_3 
REMARK    2  A    between atoms: C3_3  and  C5_5 
REMARK    3  A    between atoms: C3_3  and  C20_20 
REMARK    4  A    between atoms: C6_6  and  C7_7 
REMARK    5  A    between atoms: C7_7  and  C9_9 
REMARK    6  A    between atoms: C9_9  and  C10_10 
REMARK    7  A    between atoms: C10_10  and  C11_11 
REMARK    8  A    between atoms: C12_12  and  C14_14 
REMARK    9  A    between atoms: C14_14  and  C15_15 
REMARK   10  A    between atoms: C15_15  and  C16_16 
REMARK   11  A    between atoms: C20_20  and  C21_21 
REMARK   12  A    between atoms: C21_21  and  C22_22 
ROOT
HETATM    1  C3  UNL     1      -2.508   3.433  11.372  1.00  0.00    -0.010 C 
HETATM    2  C4  UNL     1      -3.321   3.659  10.072  1.00  0.00     0.024 C 
ENDROOT
BRANCH   1   3
HETATM    3  C2  UNL     1      -1.802   2.093  11.172  1.00  0.00    -0.024 C 
HETATM    4  C1  UNL     1      -0.494   1.834  11.033  1.00  0.00     0.008 C 
ENDBRANCH   1   3
BRANCH   1   5
HETATM    5  C5  UNL     1      -1.510   4.590  11.480  1.00  0.00    -0.017 C 
HETATM    6  C6  UNL     1      -0.413   4.658  12.255  1.00  0.00    -0.025 C 
BRANCH   6   7
HETATM    7  C7  UNL     1       0.520   5.850  12.286  1.00  0.00     0.004 C 
HETATM    8  C8  UNL     1       1.760   5.537  11.446  1.00  0.00     0.014 C 
BRANCH   7   9
HETATM    9  C9  UNL     1      -0.232   7.097  11.778  1.00  0.00     0.012 C 
BRANCH   9  10
HETATM   10  C10 UNL     1       0.629   8.100  11.000  1.00  0.00     0.028 C 
BRANCH  10  11
HETATM   11  C11 UNL     1       0.651   7.813   9.521  1.00  0.00    -0.024 C 
HETATM   12  C12 UNL     1       1.674   7.941   8.651  1.00  0.00    -0.087 C 
HETATM   13  C13 UNL     1       3.051   8.428   9.031  1.00  0.00     0.043 C 
BRANCH  12  14
HETATM   14  C14 UNL     1       1.563   7.615   7.164  1.00  0.00     0.037 C 
BRANCH  14  15
HETATM   15  C15 UNL     1       2.378   6.428   6.629  1.00  0.00     0.031 C 
BRANCH  15  16
HETATM   16  C16 UNL     1       2.916   5.574   7.749  1.00  0.00    -0.024 C 
HETATM   17  C17 UNL     1       3.546   4.388   7.645  1.00  0.00    -0.091 C 
HETATM   18  C18 UNL     1       3.778   3.646   6.357  1.00  0.00     0.042 C 
HETATM   19  C19 UNL     1       4.072   3.687   8.871  1.00  0.00     0.042 C 
ENDBRANCH  15  16
ENDBRANCH  14  15
ENDBRANCH  12  14
ENDBRANCH  10  11
ENDBRANCH   9  10
ENDBRANCH   7   9
ENDBRANCH   6   7
ENDBRANCH   1   5
BRANCH   1  20
HETATM   20  C20 UNL     1      -3.515   3.522  12.570  1.00  0.00     0.018 C 
BRANCH  20  21
HETATM   21  C21 UNL     1      -4.117   4.912  12.833  1.00  0.00     0.011 C 
BRANCH  21  22
HETATM   22  C22 UNL     1      -5.376   5.072  13.738  1.00  0.00     0.022 C 
HETATM   23  C23 UNL     1      -6.672   4.410  13.278  1.00  0.00    -0.084 C 
HETATM   24  C24 UNL     1      -7.062   4.172  12.016  1.00  0.00     0.014 C 
HETATM   25  C25 UNL     1      -7.592   4.042  14.426  1.00  0.00     0.034 C 
HETATM   26  C26 UNL     1      -7.408   4.958  15.641  1.00  0.00     0.009 C 
HETATM   27  C27 UNL     1      -7.068   6.394  15.212  1.00  0.00    -0.010 C 
HETATM   28  C28 UNL     1      -7.158   7.333  16.421  1.00  0.00     0.011 C 
HETATM   29  C29 UNL     1      -5.699   6.479  14.398  1.00  0.00    -0.037 C 
HETATM   30  C30 UNL     1      -5.886   7.611  13.365  1.00  0.00     0.016 C 
HETATM   31  C31 UNL     1      -4.514   6.870  15.310  1.00  0.00     0.016 C 
ENDBRANCH  21  22
ENDBRANCH  20  21
ENDBRANCH   1  20
TORSDOF 12
ENDMDL
MODEL 3
REMARK minimizedAffinity -7.92660904
REMARK  12 active torsions:
REMARK  status: ('A' for Active; 'I' for Inactive)
REMARK    1  A    between atoms: C2_2  and  C3_3 
REMARK    2  A    between atoms: C3_3  and  C5_5 
REMARK    3  A    between atoms: C3_3  and  C20_20 
REMARK    4  A    between atoms: C6_6  and  C7_7 
REMARK    5  A    between atoms: C7_7  and  C9_9 
REMARK    6  A    between atoms: C9_9  and  C10_10 
REMARK    7  A    between atoms: C10_10  and  C11_11 
REMARK    8  A    between atoms: C12_12  and  C14_14 
REMARK    9  A    between atoms: C14_14  and  C15_15 
REMARK   10  A    between atoms: C15_15  and  C16_16 
REMARK   11  A    between atoms: C20_20  and  C21_21 
REMARK   12  A    between atoms: C21_21  and  C22_22 
ROOT
HETATM    1  C3  UNL     1      -1.237   8.506  15.409  1.00  0.00    -0.010 C 
HETATM    2  C4  UNL     1      -0.765   9.230  14.123  1.00  0.00     0.024 C 
ENDROOT
BRANCH   1   3
HETATM    3  C2  UNL     1      -0.295   7.313  15.564  1.00  0.00    -0.024 C 
HETATM    4  C1  UNL     1       0.055   6.385  14.663  1.00  0.00     0.008 C 
ENDBRANCH   1   3
BRANCH   1   5
HETATM    5  C5  UNL     1      -1.086   9.503  16.563  1.00  0.00    -0.017 C 
HETATM    6  C6  UNL     1       0.037  10.120  16.971  1.00  0.00    -0.025 C 
BRANCH   6   7
HETATM    7  C7  UNL     1       0.083  11.101  18.124  1.00  0.00     0.004 C 
HETATM    8  C8  UNL     1      -1.238  11.031  18.893  1.00  0.00     0.014 C 
BRANCH   7   9
HETATM    9  C9  UNL     1       1.299  10.780  19.016  1.00  0.00     0.012 C 
BRANCH   9  10
HETATM   10  C10 UNL     1       0.978  10.591  20.504  1.00  0.00     0.028 C 
BRANCH  10  11
HETATM   11  C11 UNL     1       2.194  10.749  21.379  1.00  0.00    -0.024 C 
HETATM   12  C12 UNL     1       2.737   9.862  22.238  1.00  0.00    -0.087 C 
HETATM   13  C13 UNL     1       2.186   8.480  22.488  1.00  0.00     0.043 C 
BRANCH  12  14
HETATM   14  C14 UNL     1       3.982  10.150  23.074  1.00  0.00     0.037 C 
BRANCH  14  15
HETATM   15  C15 UNL     1       4.646  11.526  22.919  1.00  0.00     0.031 C 
BRANCH  15  16
HETATM   16  C16 UNL     1       6.148  11.430  22.994  1.00  0.00    -0.024 C 
HETATM   17  C17 UNL     1       7.030  12.444  23.087  1.00  0.00    -0.091 C 
HETATM   18  C18 UNL     1       6.670  13.904  23.067  1.00  0.00     0.042 C 
HETATM   19  C19 UNL     1       8.508  12.169  23.208  1.00  0.00     0.042 C 
ENDBRANCH  15  16
ENDBRANCH  14  15
ENDBRANCH  12  14
ENDBRANCH  10  11
ENDBRANCH   9  10
ENDBRANCH   7   9
ENDBRANCH   6   7
ENDBRANCH   1   5
BRANCH   1  20
HETATM   20  C20 UNL     1      -2.759   8.177  15.225  1.00  0.00     0.018 C 
BRANCH  20  21
HETATM   21  C21 UNL     1      -3.166   6.722  15.511  1.00  0.00     0.011 C 
BRANCH  21  22
HETATM   22  C22 UNL     1      -4.205   5.996  14.602  1.00  0.00     0.022 C 
HETATM   23  C23 UNL     1      -3.692   5.325  13.332  1.00  0.00    -0.084 C 
HETATM   24  C24 UNL     1      -2.630   5.683  12.592  1.00  0.00     0.014 C 
HETATM   25  C25 UNL     1      -4.547   4.152  12.891  1.00  0.00     0.034 C 
HETATM   26  C26 UNL     1      -6.009   4.298  13.329  1.00  0.00     0.009 C 
HETATM   27  C27 UNL     1      -6.455   5.769  13.311  1.00  0.00    -0.010 C 
HETATM   28  C28 UNL     1      -7.976   5.852  13.487  1.00  0.00     0.011 C 
HETATM   29  C29 UNL     1      -5.612   6.673  14.318  1.00  0.00    -0.037 C 
HETATM   30  C30 UNL     1      -5.501   8.062  13.653  1.00  0.00     0.016 C 
HETATM   31  C31 UNL     1      -6.342   6.858  15.669  1.00  0.00     0.016 C 
ENDBRANCH  21  22
ENDBRANCH  20  21
ENDBRANCH   1  20
TORSDOF 12
ENDMDL
MODEL 4
REMARK minimizedAffinity -7.77497292
REMARK  12 active torsions:
REMARK  status: ('A' for Active; 'I' for Inactive)
REMARK    1  A    between atoms: C2_2  and  C3_3 
REMARK    2  A    between atoms: C3_3  and  C5_5 
REMARK    3  A    between atoms: C3_3  and  C20_20 
REMARK    4  A    between atoms: C6_6  and  C7_7 
REMARK    5  A    between atoms: C7_7  and  C9_9 
REMARK    6  A    between atoms: C9_9  and  C10_10 
REMARK    7  A    between atoms: C10_10  and  C11_11 
REMARK    8  A    between atoms: C12_12  and  C14_14 
REMARK    9  A    between atoms: C14_14  and  C15_15 
REMARK   10  A    between atoms: C15_15  and  C16_16 
REMARK   11  A    between atoms: C20_20  and  C21_21 
REMARK   12  A    between atoms: C21_21  and  C22_22 
ROOT
HETATM    1  C3  UNL     1      -7.057   4.781  13.459  1.00  0.00    -0.010 C 
HETATM    2  C4  UNL     1      -7.442   5.067  11.985  1.00  0.00     0.024 C 
ENDROOT
BRANCH   1   3
HETATM    3  C2  UNL     1      -7.458   3.327  13.701  1.00  0.00    -0.024 C 
HETATM    4  C1  UNL     1      -7.484   2.299  12.842  1.00  0.00     0.008 C 
ENDBRANCH   1   3
BRANCH   1   5
HETATM    5  C5  UNL     1      -5.542   4.979  13.569  1.00  0.00    -0.017 C 
HETATM    6  C6  UNL     1      -4.825   6.054  13.195  1.00  0.00    -0.025 C 
BRANCH   6   7
HETATM    7  C7  UNL     1      -3.323   6.157  13.353  1.00  0.00     0.004 C 
HETATM    8  C8  UNL     1      -2.998   6.557  14.794  1.00  0.00     0.014 C 
BRANCH   7   9
HETATM    9  C9  UNL     1      -2.677   4.814  12.957  1.00  0.00     0.012 C 
BRANCH   9  10
HETATM   10  C10 UNL     1      -2.315   4.683  11.473  1.00  0.00     0.028 C 
BRANCH  10  11
HETATM   11  C11 UNL     1      -0.828   4.587  11.249  1.00  0.00    -0.024 C 
HETATM   12  C12 UNL     1       0.094   5.571  11.272  1.00  0.00    -0.087 C 
HETATM   13  C13 UNL     1      -0.223   7.021  11.537  1.00  0.00     0.043 C 
BRANCH  12  14
HETATM   14  C14 UNL     1       1.583   5.338  11.026  1.00  0.00     0.037 C 
BRANCH  14  15
HETATM   15  C15 UNL     1       2.351   6.400  10.226  1.00  0.00     0.031 C 
BRANCH  15  16
HETATM   16  C16 UNL     1       1.984   6.368   8.765  1.00  0.00    -0.024 C 
HETATM   17  C17 UNL     1       2.288   7.283   7.824  1.00  0.00    -0.091 C 
HETATM   18  C18 UNL     1       3.016   8.573   8.081  1.00  0.00     0.042 C 
HETATM   19  C19 UNL     1       1.887   7.069   6.386  1.00  0.00     0.042 C 
ENDBRANCH  15  16
ENDBRANCH  14  15
ENDBRANCH  12  14
ENDBRANCH  10  11
ENDBRANCH   9  10
ENDBRANCH   7   9
ENDBRANCH   6   7
ENDBRANCH   1   5
BRANCH   1  20
HETATM   20  C20 UNL     1      -7.771   5.861  14.343  1.00  0.00     0.018 C 
BRANCH  20  21
HETATM   21  C21 UNL     1      -9.200   6.234  13.915  1.00  0.00     0.011 C 
BRANCH  21  22
HETATM   22  C22 UNL     1      -9.780   7.646  14.233  1.00  0.00     0.022 C 
HETATM   23  C23 UNL     1      -9.395   8.291  15.561  1.00  0.00    -0.084 C 
HETATM   24  C24 UNL     1      -9.089   7.669  16.711  1.00  0.00     0.014 C 
HETATM   25  C25 UNL     1      -9.418   9.807  15.516  1.00  0.00     0.034 C 
HETATM   26  C26 UNL     1     -10.418  10.346  14.487  1.00  0.00     0.009 C 
HETATM   27  C27 UNL     1     -11.658   9.443  14.386  1.00  0.00    -0.010 C 
HETATM   28  C28 UNL     1     -12.745  10.144  13.563  1.00  0.00     0.011 C 
HETATM   29  C29 UNL     1     -11.299   7.967  13.904  1.00  0.00    -0.037 C 
HETATM   30  C30 UNL     1     -12.293   7.029  14.623  1.00  0.00     0.016 C 
HETATM   31  C31 UNL     1     -11.512   7.794  12.382  1.00  0.00     0.016 C 
ENDBRANCH  21  22
ENDBRANCH  20  21
ENDBRANCH   1  20
TORSDOF 12
ENDMDL
MODEL 5
REMARK minimizedAffinity -7.63431501
REMARK  12 active torsions:
REMARK  status: ('A' for Active; 'I' for Inactive)
REMARK    1  A    between atoms: C2_2  and  C3_3 
REMARK    2  A    between atoms: C3_3  and  C5_5 
REMARK    3  A    between atoms: C3_3  and  C20_20 
REMARK    4  A    between atoms: C6_6  and  C7_7 
REMARK    5  A    between atoms: C7_7  and  C9_9 
REMARK    6  A    between atoms: C9_9  and  C10_10 
REMARK    7  A    between atoms: C10_10  and  C11_11 
REMARK    8  A    between atoms: C12_12  and  C14_14 
REMARK    9  A    between atoms: C14_14  and  C15_15 
REMARK   10  A    between atoms: C15_15  and  C16_16 
REMARK   11  A    between atoms: C20_20  and  C21_21 
REMARK   12  A    between atoms: C21_21  and  C22_22 
ROOT
HETATM    1  C3  UNL     1      -5.002   2.910  11.433  1.00  0.00    -0.010 C 
HETATM    2  C4  UNL     1      -5.115   3.367   9.957  1.00  0.00     0.024 C 
ENDROOT
BRANCH   1   3
HETATM    3  C2  UNL     1      -6.154   1.927  11.635  1.00  0.00    -0.024 C 
HETATM    4  C1  UNL     1      -7.215   2.018  12.448  1.00  0.00     0.008 C 
ENDBRANCH   1   3
BRANCH   1   5
HETATM    5  C5  UNL     1      -3.639   2.227  11.585  1.00  0.00    -0.017 C 
HETATM    6  C6  UNL     1      -2.423   2.771  11.398  1.00  0.00    -0.025 C 
BRANCH   6   7
HETATM    7  C7  UNL     1      -1.127   2.011  11.581  1.00  0.00     0.004 C 
HETATM    8  C8  UNL     1      -1.065   0.874  10.558  1.00  0.00     0.014 C 
BRANCH   7   9
HETATM    9  C9  UNL     1       0.059   2.987  11.446  1.00  0.00     0.012 C 
BRANCH   9  10
HETATM   10  C10 UNL     1      -0.311   4.472  11.543  1.00  0.00     0.028 C 
BRANCH  10  11
HETATM   11  C11 UNL     1       0.900   5.360  11.665  1.00  0.00    -0.024 C 
HETATM   12  C12 UNL     1       1.045   6.498  12.374  1.00  0.00    -0.087 C 
HETATM   13  C13 UNL     1      -0.047   7.117  13.212  1.00  0.00     0.043 C 
BRANCH  12  14
HETATM   14  C14 UNL     1       2.337   7.310  12.413  1.00  0.00     0.037 C 
BRANCH  14  15
HETATM   15  C15 UNL     1       3.462   6.912  11.445  1.00  0.00     0.031 C 
BRANCH  15  16
HETATM   16  C16 UNL     1       3.519   7.833  10.253  1.00  0.00    -0.024 C 
HETATM   17  C17 UNL     1       2.991   7.625   9.031  1.00  0.00    -0.091 C 
HETATM   18  C18 UNL     1       2.280   6.371   8.602  1.00  0.00     0.042 C 
HETATM   19  C19 UNL     1       3.094   8.680   7.960  1.00  0.00     0.042 C 
ENDBRANCH  15  16
ENDBRANCH  14  15
ENDBRANCH  12  14
ENDBRANCH  10  11
ENDBRANCH   9  10
ENDBRANCH   7   9
ENDBRANCH   6   7
ENDBRANCH   1   5
BRANCH   1  20
HETATM   20  C20 UNL     1      -5.020   4.202  12.321  1.00  0.00     0.018 C 
BRANCH  20  21
HETATM   21  C21 UNL     1      -5.985   4.176  13.517  1.00  0.00     0.011 C 
BRANCH  21  22
HETATM   22  C22 UNL     1      -6.609   5.497  14.061  1.00  0.00     0.022 C 
HETATM   23  C23 UNL     1      -7.948   5.943  13.482  1.00  0.00    -0.084 C 
HETATM   24  C24 UNL     1      -8.424   5.703  12.249  1.00  0.00     0.014 C 
HETATM   25  C25 UNL     1      -8.766   6.778  14.448  1.00  0.00     0.034 C 
HETATM   26  C26 UNL     1      -7.890   7.552  15.439  1.00  0.00     0.009 C 
HETATM   27  C27 UNL     1      -6.570   7.997  14.789  1.00  0.00    -0.010 C 
HETATM   28  C28 UNL     1      -5.847   8.988  15.710  1.00  0.00     0.011 C 
HETATM   29  C29 UNL     1      -5.684   6.764  14.303  1.00  0.00    -0.037 C 
HETATM   30  C30 UNL     1      -4.951   7.241  13.030  1.00  0.00     0.016 C 
HETATM   31  C31 UNL     1      -4.607   6.385  15.347  1.00  0.00     0.016 C 
ENDBRANCH  21  22
ENDBRANCH  20  21
ENDBRANCH   1  20
TORSDOF 12
ENDMDL
MODEL 6
REMARK minimizedAffinity -7.6287632
REMARK  12 active torsions:
REMARK  status: ('A' for Active; 'I' for Inactive)
REMARK    1  A    between atoms: C2_2  and  C3_3 
REMARK    2  A    between atoms: C3_3  and  C5_5 
REMARK    3  A    between atoms: C3_3  and  C20_20 
REMARK    4  A    between atoms: C6_6  and  C7_7 
REMARK    5  A    between atoms: C7_7  and  C9_9 
REMARK    6  A    between atoms: C9_9  and  C10_10 
REMARK    7  A    between atoms: C10_10  and  C11_11 
REMARK    8  A    between atoms: C12_12  and  C14_14 
REMARK    9  A    between atoms: C14_14  and  C15_15 
REMARK   10  A    between atoms: C15_15  and  C16_16 
REMARK   11  A    between atoms: C20_20  and  C21_21 
REMARK   12  A    between atoms: C21_21  and  C22_22 
ROOT
HETATM    1  C3  UNL     1      -0.599   8.465  13.465  1.00  0.00    -0.010 C 
HETATM    2  C4  UNL     1      -1.363   9.191  12.328  1.00  0.00     0.024 C 
ENDROOT
BRANCH   1   3
HETATM    3  C2  UNL     1      -0.641   9.428  14.650  1.00  0.00    -0.024 C 
HETATM    4  C1  UNL     1      -0.442   9.181  15.952  1.00  0.00     0.008 C 
ENDBRANCH   1   3
BRANCH   1   5
HETATM    5  C5  UNL     1      -1.363   7.170  13.758  1.00  0.00    -0.017 C 
HETATM    6  C6  UNL     1      -2.547   6.782  13.250  1.00  0.00    -0.025 C 
BRANCH   6   7
HETATM    7  C7  UNL     1      -3.220   5.472  13.598  1.00  0.00     0.004 C 
HETATM    8  C8  UNL     1      -4.500   5.760  14.386  1.00  0.00     0.014 C 
BRANCH   7   9
HETATM    9  C9  UNL     1      -3.494   4.681  12.304  1.00  0.00     0.012 C 
BRANCH   9  10
HETATM   10  C10 UNL     1      -4.500   3.532  12.447  1.00  0.00     0.028 C 
BRANCH  10  11
HETATM   11  C11 UNL     1      -5.910   4.024  12.650  1.00  0.00    -0.024 C 
HETATM   12  C12 UNL     1      -7.060   3.320  12.634  1.00  0.00    -0.087 C 
HETATM   13  C13 UNL     1      -7.138   1.833  12.392  1.00  0.00     0.043 C 
BRANCH  12  14
HETATM   14  C14 UNL     1      -8.436   3.945  12.855  1.00  0.00     0.037 C 
BRANCH  14  15
HETATM   15  C15 UNL     1      -8.571   5.462  12.664  1.00  0.00     0.031 C 
BRANCH  15  16
HETATM   16  C16 UNL     1      -8.527   6.194  13.981  1.00  0.00    -0.024 C 
HETATM   17  C17 UNL     1      -9.493   6.957  14.527  1.00  0.00    -0.091 C 
HETATM   18  C18 UNL     1     -10.809   7.279  13.874  1.00  0.00     0.042 C 
HETATM   19  C19 UNL     1      -9.305   7.577  15.888  1.00  0.00     0.042 C 
ENDBRANCH  15  16
ENDBRANCH  14  15
ENDBRANCH  12  14
ENDBRANCH  10  11
ENDBRANCH   9  10
ENDBRANCH   7   9
ENDBRANCH   6   7
ENDBRANCH   1   5
BRANCH   1  20
HETATM   20  C20 UNL     1       0.820   8.099  12.909  1.00  0.00     0.018 C 
BRANCH  20  21
HETATM   21  C21 UNL     1       1.254   8.850  11.640  1.00  0.00     0.011 C 
BRANCH  21  22
HETATM   22  C22 UNL     1       1.689   8.066  10.365  1.00  0.00     0.022 C 
HETATM   23  C23 UNL     1       0.885   8.283   9.087  1.00  0.00    -0.084 C 
HETATM   24  C24 UNL     1      -0.415   8.605   8.986  1.00  0.00     0.014 C 
HETATM   25  C25 UNL     1       1.697   8.056   7.826  1.00  0.00     0.034 C 
HETATM   26  C26 UNL     1       2.835   7.051   8.037  1.00  0.00     0.009 C 
HETATM   27  C27 UNL     1       2.435   5.954   9.036  1.00  0.00    -0.010 C 
HETATM   28  C28 UNL     1       3.478   4.830   9.017  1.00  0.00     0.011 C 
HETATM   29  C29 UNL     1       2.104   6.538  10.482  1.00  0.00    -0.037 C 
HETATM   30  C30 UNL     1       0.986   5.642  11.058  1.00  0.00     0.016 C 
HETATM   31  C31 UNL     1       3.319   6.437  11.432  1.00  0.00     0.016 C 
ENDBRANCH  21  22
ENDBRANCH  20  21
ENDBRANCH   1  20
TORSDOF 12
ENDMDL
MODEL 7
REMARK minimizedAffinity -7.59518719
REMARK  12 active torsions:
REMARK  status: ('A' for Active; 'I' for Inactive)
REMARK    1  A    between atoms: C2_2  and  C3_3 
REMARK    2  A    between atoms: C3_3  and  C5_5 
REMARK    3  A    between atoms: C3_3  and  C20_20 
REMARK    4  A    between atoms: C6_6  and  C7_7 
REMARK    5  A    between atoms: C7_7  and  C9_9 
REMARK    6  A    between atoms: C9_9  and  C10_10 
REMARK    7  A    between atoms: C10_10  and  C11_11 
REMARK    8  A    between atoms: C12_12  and  C14_14 
REMARK    9  A    between atoms: C14_14  and  C15_15 
REMARK   10  A    between atoms: C15_15  and  C16_16 
REMARK   11  A    between atoms: C20_20  and  C21_21 
REMARK   12  A    between atoms: C21_21  and  C22_22 
ROOT
HETATM    1  C3  UNL     1       2.048   7.394   8.690  1.00  0.00    -0.010 C 
HETATM    2  C4  UNL     1       2.323   6.680   7.342  1.00  0.00     0.024 C 
ENDROOT
BRANCH   1   3
HETATM    3  C2  UNL     1       0.976   8.437   8.377  1.00  0.00    -0.024 C 
HETATM    4  C1  UNL     1      -0.195   8.661   8.989  1.00  0.00     0.008 C 
ENDBRANCH   1   3
BRANCH   1   5
HETATM    5  C5  UNL     1       1.537   6.328   9.663  1.00  0.00    -0.017 C 
HETATM    6  C6  UNL     1       0.673   6.492  10.680  1.00  0.00    -0.025 C 
BRANCH   6   7
HETATM    7  C7  UNL     1       0.220   5.367  11.586  1.00  0.00     0.004 C 
HETATM    8  C8  UNL     1       0.825   5.571  12.978  1.00  0.00     0.014 C 
BRANCH   7   9
HETATM    9  C9  UNL     1      -1.321   5.327  11.617  1.00  0.00     0.012 C 
BRANCH   9  10
HETATM   10  C10 UNL     1      -1.926   4.617  12.835  1.00  0.00     0.028 C 
BRANCH  10  11
HETATM   11  C11 UNL     1      -3.248   3.966  12.523  1.00  0.00    -0.024 C 
HETATM   12  C12 UNL     1      -4.493   4.410  12.793  1.00  0.00    -0.087 C 
HETATM   13  C13 UNL     1      -4.792   5.709  13.499  1.00  0.00     0.043 C 
BRANCH  12  14
HETATM   14  C14 UNL     1      -5.761   3.647  12.420  1.00  0.00     0.037 C 
BRANCH  14  15
HETATM   15  C15 UNL     1      -7.079   4.084  13.076  1.00  0.00     0.031 C 
BRANCH  15  16
HETATM   16  C16 UNL     1      -7.995   4.758  12.087  1.00  0.00    -0.024 C 
HETATM   17  C17 UNL     1      -8.853   5.770  12.322  1.00  0.00    -0.091 C 
HETATM   18  C18 UNL     1      -9.107   6.388  13.669  1.00  0.00     0.042 C 
HETATM   19  C19 UNL     1      -9.662   6.368  11.200  1.00  0.00     0.042 C 
ENDBRANCH  15  16
ENDBRANCH  14  15
ENDBRANCH  12  14
ENDBRANCH  10  11
ENDBRANCH   9  10
ENDBRANCH   7   9
ENDBRANCH   6   7
ENDBRANCH   1   5
BRANCH   1  20
HETATM   20  C20 UNL     1       3.422   7.938   9.214  1.00  0.00     0.018 C 
BRANCH  20  21
HETATM   21  C21 UNL     1       4.194   7.000  10.157  1.00  0.00     0.011 C 
BRANCH  21  22
HETATM   22  C22 UNL     1       4.668   7.498  11.556  1.00  0.00     0.022 C 
HETATM   23  C23 UNL     1       3.670   8.275  12.410  1.00  0.00    -0.084 C 
HETATM   24  C24 UNL     1       2.662   9.051  11.983  1.00  0.00     0.014 C 
HETATM   25  C25 UNL     1       3.930   8.141  13.899  1.00  0.00     0.034 C 
HETATM   26  C26 UNL     1       5.407   7.886  14.214  1.00  0.00     0.009 C 
HETATM   27  C27 UNL     1       6.326   8.618  13.223  1.00  0.00    -0.010 C 
HETATM   28  C28 UNL     1       7.775   8.566  13.722  1.00  0.00     0.011 C 
HETATM   29  C29 UNL     1       6.116   8.127  11.721  1.00  0.00    -0.037 C 
HETATM   30  C30 UNL     1       6.350   9.367  10.830  1.00  0.00     0.016 C 
HETATM   31  C31 UNL     1       7.157   7.058  11.317  1.00  0.00     0.016 C 
ENDBRANCH  21  22
ENDBRANCH  20  21
ENDBRANCH   1  20
TORSDOF 12
ENDMDL
MODEL 8
REMARK minimizedAffinity -7.58832693
REMARK  12 active torsions:
REMARK  status: ('A' for Active; 'I' for Inactive)
REMARK    1  A    between atoms: C2_2  and  C3_3 
REMARK    2  A    between atoms: C3_3  and  C5_5 
REMARK    3  A    between atoms: C3_3  and  C20_20 
REMARK    4  A    between atoms: C6_6  and  C7_7 
REMARK    5  A    between atoms: C7_7  and  C9_9 
REMARK    6  A    between atoms: C9_9  and  C10_10 
REMARK    7  A    between atoms: C10_10  and  C11_11 
REMARK    8  A    between atoms: C12_12  and  C14_14 
REMARK    9  A    between atoms: C14_14  and  C15_15 
REMARK   10  A    between atoms: C15_15  and  C16_16 
REMARK   11  A    between atoms: C20_20  and  C21_21 
REMARK   12  A    between atoms: C21_21  and  C22_22 
ROOT
HETATM    1  C3  UNL     1      -2.993   3.313  11.555  1.00  0.00    -0.010 C 
HETATM    2  C4  UNL     1      -3.927   3.603  10.353  1.00  0.00     0.024 C 
ENDROOT
BRANCH   1   3
HETATM    3  C2  UNL     1      -2.541   1.866  11.369  1.00  0.00    -0.024 C 
HETATM    4  C1  UNL     1      -1.378   1.393  10.901  1.00  0.00     0.008 C 
ENDBRANCH   1   3
BRANCH   1   5
HETATM    5  C5  UNL     1      -1.820   4.293  11.455  1.00  0.00    -0.017 C 
HETATM    6  C6  UNL     1      -1.011   4.708  12.446  1.00  0.00    -0.025 C 
BRANCH   6   7
HETATM    7  C7  UNL     1       0.133   5.679  12.243  1.00  0.00     0.004 C 
HETATM    8  C8  UNL     1       1.210   5.011  11.384  1.00  0.00     0.014 C 
BRANCH   7   9
HETATM    9  C9  UNL     1      -0.406   6.974  11.604  1.00  0.00     0.012 C 
BRANCH   9  10
HETATM   10  C10 UNL     1       0.153   8.272  12.201  1.00  0.00     0.028 C 
BRANCH  10  11
HETATM   11  C11 UNL     1       1.461   8.677  11.573  1.00  0.00    -0.024 C 
HETATM   12  C12 UNL     1       2.716   8.437  12.006  1.00  0.00    -0.087 C 
HETATM   13  C13 UNL     1       3.044   7.680  13.269  1.00  0.00     0.043 C 
BRANCH  12  14
HETATM   14  C14 UNL     1       3.968   8.908  11.270  1.00  0.00     0.037 C 
BRANCH  14  15
HETATM   15  C15 UNL     1       4.435   8.091  10.057  1.00  0.00     0.031 C 
BRANCH  15  16
HETATM   16  C16 UNL     1       3.466   8.199   8.908  1.00  0.00    -0.024 C 
HETATM   17  C17 UNL     1       2.829   7.193   8.276  1.00  0.00    -0.091 C 
HETATM   18  C18 UNL     1       3.024   5.731   8.570  1.00  0.00     0.042 C 
HETATM   19  C19 UNL     1       1.842   7.481   7.173  1.00  0.00     0.042 C 
ENDBRANCH  15  16
ENDBRANCH  14  15
ENDBRANCH  12  14
ENDBRANCH  10  11
ENDBRANCH   9  10
ENDBRANCH   7   9
ENDBRANCH   6   7
ENDBRANCH   1   5
BRANCH   1  20
HETATM   20  C20 UNL     1      -3.804   3.631  12.859  1.00  0.00     0.018 C 
BRANCH  20  21
HETATM   21  C21 UNL     1      -5.107   4.423  12.658  1.00  0.00     0.011 C 
BRANCH  21  22
HETATM   22  C22 UNL     1      -5.335   5.775  13.400  1.00  0.00     0.022 C 
HETATM   23  C23 UNL     1      -4.193   6.321  14.251  1.00  0.00    -0.084 C 
HETATM   24  C24 UNL     1      -3.246   5.618  14.893  1.00  0.00     0.014 C 
HETATM   25  C25 UNL     1      -4.212   7.833  14.375  1.00  0.00     0.034 C 
HETATM   26  C26 UNL     1      -5.627   8.411  14.253  1.00  0.00     0.009 C 
HETATM   27  C27 UNL     1      -6.673   7.464  14.863  1.00  0.00    -0.010 C 
HETATM   28  C28 UNL     1      -8.023   8.183  14.969  1.00  0.00     0.011 C 
HETATM   29  C29 UNL     1      -6.721   6.053  14.123  1.00  0.00    -0.037 C 
HETATM   30  C30 UNL     1      -7.062   5.012  15.213  1.00  0.00     0.016 C 
HETATM   31  C31 UNL     1      -7.842   6.000  13.060  1.00  0.00     0.016 C 
ENDBRANCH  21  22
ENDBRANCH  20  21
ENDBRANCH   1  20
TORSDOF 12
ENDMDL
MODEL 9
REMARK minimizedAffinity -7.55627966
REMARK  12 active torsions:
REMARK  status: ('A' for Active; 'I' for Inactive)
REMARK    1  A    between atoms: C2_2  and  C3_3 
REMARK    2  A    between atoms: C3_3  and  C5_5 
REMARK    3  A    between atoms: C3_3  and  C20_20 
REMARK    4  A    between atoms: C6_6  and  C7_7 
REMARK    5  A    between atoms: C7_7  and  C9_9 
REMARK    6  A    between atoms: C9_9  and  C10_10 
REMARK    7  A    between atoms: C10_10  and  C11_11 
REMARK    8  A    between atoms: C12_12  and  C14_14 
REMARK    9  A    between atoms: C14_14  and  C15_15 
REMARK   10  A    between atoms: C15_15  and  C16_16 
REMARK   11  A    between atoms: C20_20  and  C21_21 
REMARK   12  A    between atoms: C21_21  and  C22_22 
ROOT
HETATM    1  C3  UNL     1       2.002   7.316   8.892  1.00  0.00    -0.010 C 
HETATM    2  C4  UNL     1       2.274   6.484   7.613  1.00  0.00     0.024 C 
ENDROOT
BRANCH   1   3
HETATM    3  C2  UNL     1       1.023   8.406   8.458  1.00  0.00    -0.024 C 
HETATM    4  C1  UNL     1      -0.251   8.600   8.827  1.00  0.00     0.008 C 
ENDBRANCH   1   3
BRANCH   1   5
HETATM    5  C5  UNL     1       1.376   6.365   9.917  1.00  0.00    -0.017 C 
HETATM    6  C6  UNL     1       0.577   6.684  10.952  1.00  0.00    -0.025 C 
BRANCH   6   7
HETATM    7  C7  UNL     1      -0.001   5.665  11.910  1.00  0.00     0.004 C 
HETATM    8  C8  UNL     1       0.831   5.658  13.195  1.00  0.00     0.014 C 
BRANCH   7   9
HETATM    9  C9  UNL     1      -1.483   5.998  12.174  1.00  0.00     0.012 C 
BRANCH   9  10
HETATM   10  C10 UNL     1      -2.087   5.326  13.413  1.00  0.00     0.028 C 
BRANCH  10  11
HETATM   11  C11 UNL     1      -3.580   5.153  13.303  1.00  0.00    -0.024 C 
HETATM   12  C12 UNL     1      -4.544   5.577  14.146  1.00  0.00    -0.087 C 
HETATM   13  C13 UNL     1      -4.277   6.337  15.421  1.00  0.00     0.043 C 
BRANCH  12  14
HETATM   14  C14 UNL     1      -6.033   5.332  13.917  1.00  0.00     0.037 C 
BRANCH  14  15
HETATM   15  C15 UNL     1      -6.485   4.937  12.503  1.00  0.00     0.031 C 
BRANCH  15  16
HETATM   16  C16 UNL     1      -6.490   3.441  12.320  1.00  0.00    -0.024 C 
HETATM   17  C17 UNL     1      -5.774   2.722  11.434  1.00  0.00    -0.091 C 
HETATM   18  C18 UNL     1      -4.858   3.303  10.393  1.00  0.00     0.042 C 
HETATM   19  C19 UNL     1      -5.858   1.217  11.420  1.00  0.00     0.042 C 
ENDBRANCH  15  16
ENDBRANCH  14  15
ENDBRANCH  12  14
ENDBRANCH  10  11
ENDBRANCH   9  10
ENDBRANCH   7   9
ENDBRANCH   6   7
ENDBRANCH   1   5
BRANCH   1  20
HETATM   20  C20 UNL     1       3.391   7.798   9.435  1.00  0.00     0.018 C 
BRANCH  20  21
HETATM   21  C21 UNL     1       4.127   6.811  10.355  1.00  0.00     0.011 C 
BRANCH  21  22
HETATM   22  C22 UNL     1       4.739   7.291  11.706  1.00  0.00     0.022 C 
HETATM   23  C23 UNL     1       3.861   8.135  12.625  1.00  0.00    -0.084 C 
HETATM   24  C24 UNL     1       2.870   8.968  12.266  1.00  0.00     0.014 C 
HETATM   25  C25 UNL     1       4.228   8.000  14.090  1.00  0.00     0.034 C 
HETATM   26  C26 UNL     1       5.709   7.657  14.292  1.00  0.00     0.009 C 
HETATM   27  C27 UNL     1       6.588   8.323  13.222  1.00  0.00    -0.010 C 
HETATM   28  C28 UNL     1       8.066   8.187  13.607  1.00  0.00     0.011 C 
HETATM   29  C29 UNL     1       6.231   7.832  11.748  1.00  0.00    -0.037 C 
HETATM   30  C30 UNL     1       6.468   9.046  10.824  1.00  0.00     0.016 C 
HETATM   31  C31 UNL     1       7.171   6.697  11.278  1.00  0.00     0.016 C 
ENDBRANCH  21  22
ENDBRANCH  20  21
ENDBRANCH   1  20
TORSDOF 12
ENDMDL
