MODEL 1
REMARK minimizedAffinity -6.41980791
REMARK  10 active torsions:
REMARK  status: ('A' for Active; 'I' for Inactive)
REMARK    1  A    between atoms: C2_2  and  C3_3 
REMARK    2  A    between atoms: C3_3  and  C4_4 
REMARK    3  A    between atoms: C4_4  and  C5_5 
REMARK    4  A    between atoms: C5_5  and  N1_6 
REMARK    5  A    between atoms: N1_6  and  C6_7 
REMARK    6  A    between atoms: C6_7  and  C7_8 
REMARK    7  A    between atoms: C7_8  and  O1_9 
REMARK    8  A    between atoms: O1_9  and  C8_10 
REMARK    9  A    between atoms: C8_10  and  C9_12 
REMARK   10  A    between atoms: C12_15  and  N2_16 
ROOT
HETATM    1  C8  UNL     1      -2.346  51.995 -27.090  1.00  0.00     0.293 C 
HETATM    2  O2  UNL     1      -3.036  51.408 -27.907  1.00  0.00    -0.259 OA
ENDROOT
BRANCH   1   3
HETATM    3  O1  UNL     1      -2.798  52.839 -26.129  1.00  0.00    -0.316 OA
BRANCH   3   4
HETATM    4  C7  UNL     1      -3.748  52.274 -25.207  1.00  0.00     0.209 C 
BRANCH   4   5
HETATM    5  C6  UNL     1      -3.166  52.216 -23.787  1.00  0.00     0.296 C 
BRANCH   5   6
HETATM    6  N1  UNL     1      -3.350  50.923 -23.110  1.00  0.00     0.085 N 
HETATM    7  H12 UNL     1      -3.276  51.069 -22.102  1.00  0.00     0.315 HD
BRANCH   6   8
HETATM    8  C5  UNL     1      -2.375  49.919 -23.532  1.00  0.00     0.269 C 
BRANCH   8   9
HETATM    9  C4  UNL     1      -3.073  48.693 -24.131  1.00  0.00     0.030 C 
BRANCH   9  10
HETATM   10  C3  UNL     1      -2.985  48.635 -25.658  1.00  0.00     0.001 C 
BRANCH  10  11
HETATM   11  C2  UNL     1      -4.368  48.469 -26.288  1.00  0.00    -0.005 C 
HETATM   12  C1  UNL     1      -4.273  48.250 -27.790  1.00  0.00     0.005 C 
ENDBRANCH  10  11
ENDBRANCH   9  10
ENDBRANCH   8   9
ENDBRANCH   6   8
ENDBRANCH   5   6
ENDBRANCH   4   5
ENDBRANCH   3   4
ENDBRANCH   1   3
BRANCH   1  13
HETATM   13  C9  UNL     1      -0.863  51.881 -27.029  1.00  0.00     0.039 A 
HETATM   14  C10 UNL     1      -0.143  51.969 -28.226  1.00  0.00     0.019 A 
HETATM   15  C11 UNL     1       1.253  51.872 -28.218  1.00  0.00     0.024 A 
HETATM   16  C12 UNL     1       1.946  51.641 -27.028  1.00  0.00     0.005 A 
HETATM   17  C13 UNL     1       1.228  51.612 -25.830  1.00  0.00     0.024 A 
HETATM   18  C14 UNL     1      -0.168  51.709 -25.826  1.00  0.00     0.019 A 
BRANCH  16  19
HETATM   19  N2  UNL     1       3.343  51.664 -27.010  1.00  0.00    -0.303 NA
HETATM   20  H19 UNL     1       3.773  51.384 -27.888  1.00  0.00     0.124 HD
HETATM   21  H20 UNL     1       3.757  51.193 -26.212  1.00  0.00     0.124 HD
ENDBRANCH  16  19
ENDBRANCH   1  13
TORSDOF 10
ENDMDL
MODEL 2
REMARK minimizedAffinity -6.3329215
REMARK  10 active torsions:
REMARK  status: ('A' for Active; 'I' for Inactive)
REMARK    1  A    between atoms: C2_2  and  C3_3 
REMARK    2  A    between atoms: C3_3  and  C4_4 
REMARK    3  A    between atoms: C4_4  and  C5_5 
REMARK    4  A    between atoms: C5_5  and  N1_6 
REMARK    5  A    between atoms: N1_6  and  C6_7 
REMARK    6  A    between atoms: C6_7  and  C7_8 
REMARK    7  A    between atoms: C7_8  and  O1_9 
REMARK    8  A    between atoms: O1_9  and  C8_10 
REMARK    9  A    between atoms: C8_10  and  C9_12 
REMARK   10  A    between atoms: C12_15  and  N2_16 
ROOT
HETATM    1  C8  UNL     1      -2.462  51.552 -27.223  1.00  0.00     0.293 C 
HETATM    2  O2  UNL     1      -3.124  50.680 -27.761  1.00  0.00    -0.259 OA
ENDROOT
BRANCH   1   3
HETATM    3  O1  UNL     1      -2.953  52.605 -26.523  1.00  0.00    -0.316 OA
BRANCH   3   4
HETATM    4  C7  UNL     1      -3.571  52.278 -25.265  1.00  0.00     0.209 C 
BRANCH   4   5
HETATM    5  C6  UNL     1      -2.643  52.627 -24.091  1.00  0.00     0.296 C 
BRANCH   5   6
HETATM    6  N1  UNL     1      -2.563  51.588 -23.054  1.00  0.00     0.085 N 
HETATM    7  H12 UNL     1      -3.466  51.529 -22.580  1.00  0.00     0.315 HD
BRANCH   6   8
HETATM    8  C5  UNL     1      -1.512  51.848 -22.071  1.00  0.00     0.269 C 
BRANCH   8   9
HETATM    9  C4  UNL     1      -0.184  52.177 -22.762  1.00  0.00     0.030 C 
BRANCH   9  10
HETATM   10  C3  UNL     1       0.978  52.357 -21.780  1.00  0.00     0.001 C 
BRANCH  10  11
HETATM   11  C2  UNL     1       0.741  53.550 -20.853  1.00  0.00    -0.005 C 
HETATM   12  C1  UNL     1       0.735  53.127 -19.392  1.00  0.00     0.005 C 
ENDBRANCH  10  11
ENDBRANCH   9  10
ENDBRANCH   8   9
ENDBRANCH   6   8
ENDBRANCH   5   6
ENDBRANCH   4   5
ENDBRANCH   3   4
ENDBRANCH   1   3
BRANCH   1  13
HETATM   13  C9  UNL     1      -0.974  51.599 -27.262  1.00  0.00     0.039 A 
HETATM   14  C10 UNL     1      -0.264  50.919 -26.266  1.00  0.00     0.019 A 
HETATM   15  C11 UNL     1       1.135  50.931 -26.264  1.00  0.00     0.024 A 
HETATM   16  C12 UNL     1       1.844  51.655 -27.225  1.00  0.00     0.005 A 
HETATM   17  C13 UNL     1       1.132  52.284 -28.250  1.00  0.00     0.024 A 
HETATM   18  C14 UNL     1      -0.267  52.277 -28.262  1.00  0.00     0.019 A 
BRANCH  16  19
HETATM   19  N2  UNL     1       3.238  51.566 -27.288  1.00  0.00    -0.303 NA
HETATM   20  H19 UNL     1       3.681  51.376 -26.394  1.00  0.00     0.124 HD
HETATM   21  H20 UNL     1       3.682  52.333 -27.782  1.00  0.00     0.124 HD
ENDBRANCH  16  19
ENDBRANCH   1  13
TORSDOF 10
ENDMDL
MODEL 3
REMARK minimizedAffinity -6.25713301
REMARK  10 active torsions:
REMARK  status: ('A' for Active; 'I' for Inactive)
REMARK    1  A    between atoms: C2_2  and  C3_3 
REMARK    2  A    between atoms: C3_3  and  C4_4 
REMARK    3  A    between atoms: C4_4  and  C5_5 
REMARK    4  A    between atoms: C5_5  and  N1_6 
REMARK    5  A    between atoms: N1_6  and  C6_7 
REMARK    6  A    between atoms: C6_7  and  C7_8 
REMARK    7  A    between atoms: C7_8  and  O1_9 
REMARK    8  A    between atoms: O1_9  and  C8_10 
REMARK    9  A    between atoms: C8_10  and  C9_12 
REMARK   10  A    between atoms: C12_15  and  N2_16 
ROOT
HETATM    1  C8  UNL     1      -2.356  51.938 -26.956  1.00  0.00     0.293 C 
HETATM    2  O2  UNL     1      -3.064  51.351 -27.758  1.00  0.00    -0.259 OA
ENDROOT
BRANCH   1   3
HETATM    3  O1  UNL     1      -2.789  52.747 -25.958  1.00  0.00    -0.316 OA
BRANCH   3   4
HETATM    4  C7  UNL     1      -3.555  52.101 -24.926  1.00  0.00     0.209 C 
BRANCH   4   5
HETATM    5  C6  UNL     1      -3.015  52.463 -23.533  1.00  0.00     0.296 C 
BRANCH   5   6
HETATM    6  N1  UNL     1      -3.529  51.616 -22.447  1.00  0.00     0.085 N 
HETATM    7  H12 UNL     1      -4.196  52.159 -21.897  1.00  0.00     0.315 HD
BRANCH   6   8
HETATM    8  C5  UNL     1      -2.471  51.111 -21.573  1.00  0.00     0.269 C 
BRANCH   8   9
HETATM    9  C4  UNL     1      -1.095  51.266 -22.230  1.00  0.00     0.030 C 
BRANCH   9  10
HETATM   10  C3  UNL     1      -0.033  51.828 -21.281  1.00  0.00     0.001 C 
BRANCH  10  11
HETATM   11  C2  UNL     1       0.675  53.036 -21.894  1.00  0.00    -0.005 C 
HETATM   12  C1  UNL     1       1.173  53.993 -20.821  1.00  0.00     0.005 C 
ENDBRANCH  10  11
ENDBRANCH   9  10
ENDBRANCH   8   9
ENDBRANCH   6   8
ENDBRANCH   5   6
ENDBRANCH   4   5
ENDBRANCH   3   4
ENDBRANCH   1   3
BRANCH   1  13
HETATM   13  C9  UNL     1      -0.869  51.861 -26.958  1.00  0.00     0.039 A 
HETATM   14  C10 UNL     1      -0.207  51.884 -28.191  1.00  0.00     0.019 A 
HETATM   15  C11 UNL     1       1.190  51.819 -28.243  1.00  0.00     0.024 A 
HETATM   16  C12 UNL     1       1.942  51.683 -27.074  1.00  0.00     0.005 A 
HETATM   17  C13 UNL     1       1.280  51.718 -25.844  1.00  0.00     0.024 A 
HETATM   18  C14 UNL     1      -0.116  51.784 -25.781  1.00  0.00     0.019 A 
BRANCH  16  19
HETATM   19  N2  UNL     1       3.338  51.737 -27.124  1.00  0.00    -0.303 NA
HETATM   20  H19 UNL     1       3.734  51.410 -28.001  1.00  0.00     0.124 HD
HETATM   21  H20 UNL     1       3.799  51.330 -26.318  1.00  0.00     0.124 HD
ENDBRANCH  16  19
ENDBRANCH   1  13
TORSDOF 10
ENDMDL
MODEL 4
REMARK minimizedAffinity -6.12645292
REMARK  10 active torsions:
REMARK  status: ('A' for Active; 'I' for Inactive)
REMARK    1  A    between atoms: C2_2  and  C3_3 
REMARK    2  A    between atoms: C3_3  and  C4_4 
REMARK    3  A    between atoms: C4_4  and  C5_5 
REMARK    4  A    between atoms: C5_5  and  N1_6 
REMARK    5  A    between atoms: N1_6  and  C6_7 
REMARK    6  A    between atoms: C6_7  and  C7_8 
REMARK    7  A    between atoms: C7_8  and  O1_9 
REMARK    8  A    between atoms: O1_9  and  C8_10 
REMARK    9  A    between atoms: C8_10  and  C9_12 
REMARK   10  A    between atoms: C12_15  and  N2_16 
ROOT
HETATM    1  C8  UNL     1       0.368  53.356 -25.023  1.00  0.00     0.293 C 
HETATM    2  O2  UNL     1      -0.510  54.003 -25.570  1.00  0.00    -0.259 OA
ENDROOT
BRANCH   1   3
HETATM    3  O1  UNL     1       1.224  52.501 -25.637  1.00  0.00    -0.316 OA
BRANCH   3   4
HETATM    4  C7  UNL     1       0.967  52.264 -27.033  1.00  0.00     0.209 C 
BRANCH   4   5
HETATM    5  C6  UNL     1      -0.090  51.165 -27.217  1.00  0.00     0.296 C 
BRANCH   5   6
HETATM    6  N1  UNL     1      -1.397  51.654 -27.682  1.00  0.00     0.085 N 
HETATM    7  H12 UNL     1      -1.385  52.675 -27.675  1.00  0.00     0.315 HD
BRANCH   6   8
HETATM    8  C5  UNL     1      -2.507  51.173 -26.862  1.00  0.00     0.269 C 
BRANCH   8   9
HETATM    9  C4  UNL     1      -3.218  49.994 -27.536  1.00  0.00     0.030 C 
BRANCH   9  10
HETATM   10  C3  UNL     1      -2.918  48.648 -26.870  1.00  0.00     0.001 C 
BRANCH  10  11
HETATM   11  C2  UNL     1      -3.427  48.617 -25.429  1.00  0.00    -0.005 C 
HETATM   12  C1  UNL     1      -4.930  48.391 -25.373  1.00  0.00     0.005 C 
ENDBRANCH  10  11
ENDBRANCH   9  10
ENDBRANCH   8   9
ENDBRANCH   6   8
ENDBRANCH   5   6
ENDBRANCH   4   5
ENDBRANCH   3   4
ENDBRANCH   1   3
BRANCH   1  13
HETATM   13  C9  UNL     1       0.633  53.399 -23.559  1.00  0.00     0.039 A 
HETATM   14  C10 UNL     1       0.173  52.338 -22.772  1.00  0.00     0.019 A 
HETATM   15  C11 UNL     1       0.402  52.333 -21.391  1.00  0.00     0.024 A 
HETATM   16  C12 UNL     1       1.052  53.402 -20.772  1.00  0.00     0.005 A 
HETATM   17  C13 UNL     1       1.559  54.431 -21.569  1.00  0.00     0.024 A 
HETATM   18  C14 UNL     1       1.337  54.446 -22.951  1.00  0.00     0.019 A 
BRANCH  16  19
HETATM   19  N2  UNL     1       1.381  53.336 -19.415  1.00  0.00    -0.303 NA
HETATM   20  H19 UNL     1       0.751  52.761 -18.863  1.00  0.00     0.124 HD
HETATM   21  H20 UNL     1       1.556  54.238 -18.984  1.00  0.00     0.124 HD
ENDBRANCH  16  19
ENDBRANCH   1  13
TORSDOF 10
ENDMDL
MODEL 5
REMARK minimizedAffinity -6.09333849
REMARK  10 active torsions:
REMARK  status: ('A' for Active; 'I' for Inactive)
REMARK    1  A    between atoms: C2_2  and  C3_3 
REMARK    2  A    between atoms: C3_3  and  C4_4 
REMARK    3  A    between atoms: C4_4  and  C5_5 
REMARK    4  A    between atoms: C5_5  and  N1_6 
REMARK    5  A    between atoms: N1_6  and  C6_7 
REMARK    6  A    between atoms: C6_7  and  C7_8 
REMARK    7  A    between atoms: C7_8  and  O1_9 
REMARK    8  A    between atoms: O1_9  and  C8_10 
REMARK    9  A    between atoms: C8_10  and  C9_12 
REMARK   10  A    between atoms: C12_15  and  N2_16 
ROOT
HETATM    1  C8  UNL     1      -2.213  52.037 -25.762  1.00  0.00     0.293 C 
HETATM    2  O2  UNL     1      -3.012  52.863 -26.172  1.00  0.00    -0.259 OA
ENDROOT
BRANCH   1   3
HETATM    3  O1  UNL     1      -2.456  51.100 -24.813  1.00  0.00    -0.316 OA
BRANCH   3   4
HETATM    4  C7  UNL     1      -3.085  51.584 -23.613  1.00  0.00     0.209 C 
BRANCH   4   5
HETATM    5  C6  UNL     1      -2.035  51.959 -22.556  1.00  0.00     0.296 C 
BRANCH   5   6
HETATM    6  N1  UNL     1      -1.607  50.839 -21.705  1.00  0.00     0.085 N 
HETATM    7  H12 UNL     1      -2.356  50.624 -21.045  1.00  0.00     0.315 HD
BRANCH   6   8
HETATM    8  C5  UNL     1      -0.375  51.123 -20.970  1.00  0.00     0.269 C 
BRANCH   8   9
HETATM    9  C4  UNL     1      -0.626  52.139 -19.850  1.00  0.00     0.030 C 
BRANCH   9  10
HETATM   10  C3  UNL     1       0.314  53.347 -19.909  1.00  0.00     0.001 C 
BRANCH  10  11
HETATM   11  C2  UNL     1       1.359  53.182 -21.014  1.00  0.00    -0.005 C 
HETATM   12  C1  UNL     1       1.577  54.483 -21.772  1.00  0.00     0.005 C 
ENDBRANCH  10  11
ENDBRANCH   9  10
ENDBRANCH   8   9
ENDBRANCH   6   8
ENDBRANCH   5   6
ENDBRANCH   4   5
ENDBRANCH   3   4
ENDBRANCH   1   3
BRANCH   1  13
HETATM   13  C9  UNL     1      -0.809  51.938 -26.248  1.00  0.00     0.039 A 
HETATM   14  C10 UNL     1       0.224  52.017 -25.307  1.00  0.00     0.019 A 
HETATM   15  C11 UNL     1       1.559  51.923 -25.716  1.00  0.00     0.024 A 
HETATM   16  C12 UNL     1       1.884  51.797 -27.068  1.00  0.00     0.005 A 
HETATM   17  C13 UNL     1       0.849  51.661 -27.996  1.00  0.00     0.024 A 
HETATM   18  C14 UNL     1      -0.490  51.752 -27.598  1.00  0.00     0.019 A 
BRANCH  16  19
HETATM   19  N2  UNL     1       3.210  51.586 -27.457  1.00  0.00    -0.303 NA
HETATM   20  H19 UNL     1       3.896  51.989 -26.825  1.00  0.00     0.124 HD
HETATM   21  H20 UNL     1       3.401  51.814 -28.427  1.00  0.00     0.124 HD
ENDBRANCH  16  19
ENDBRANCH   1  13
TORSDOF 10
ENDMDL
MODEL 6
REMARK minimizedAffinity -6.07689524
REMARK  10 active torsions:
REMARK  status: ('A' for Active; 'I' for Inactive)
REMARK    1  A    between atoms: C2_2  and  C3_3 
REMARK    2  A    between atoms: C3_3  and  C4_4 
REMARK    3  A    between atoms: C4_4  and  C5_5 
REMARK    4  A    between atoms: C5_5  and  N1_6 
REMARK    5  A    between atoms: N1_6  and  C6_7 
REMARK    6  A    between atoms: C6_7  and  C7_8 
REMARK    7  A    between atoms: C7_8  and  O1_9 
REMARK    8  A    between atoms: O1_9  and  C8_10 
REMARK    9  A    between atoms: C8_10  and  C9_12 
REMARK   10  A    between atoms: C12_15  and  N2_16 
ROOT
HETATM    1  C8  UNL     1      -2.173  52.289 -25.662  1.00  0.00     0.293 C 
HETATM    2  O2  UNL     1      -3.043  52.861 -26.299  1.00  0.00    -0.259 OA
ENDROOT
BRANCH   1   3
HETATM    3  O1  UNL     1      -2.320  51.746 -24.428  1.00  0.00    -0.316 OA
BRANCH   3   4
HETATM    4  C7  UNL     1      -3.330  52.351 -23.601  1.00  0.00     0.209 C 
BRANCH   4   5
HETATM    5  C6  UNL     1      -4.043  51.294 -22.744  1.00  0.00     0.296 C 
BRANCH   5   6
HETATM    6  N1  UNL     1      -5.510  51.329 -22.836  1.00  0.00     0.085 N 
HETATM    7  H12 UNL     1      -5.897  51.326 -21.891  1.00  0.00     0.315 HD
BRANCH   6   8
HETATM    8  C5  UNL     1      -6.059  50.205 -23.593  1.00  0.00     0.269 C 
BRANCH   8   9
HETATM    9  C4  UNL     1      -5.049  49.055 -23.678  1.00  0.00     0.030 C 
BRANCH   9  10
HETATM   10  C3  UNL     1      -4.896  48.490 -25.093  1.00  0.00     0.001 C 
BRANCH  10  11
HETATM   11  C2  UNL     1      -3.488  48.732 -25.638  1.00  0.00    -0.005 C 
HETATM   12  C1  UNL     1      -3.398  48.391 -27.118  1.00  0.00     0.005 C 
ENDBRANCH  10  11
ENDBRANCH   9  10
ENDBRANCH   8   9
ENDBRANCH   6   8
ENDBRANCH   5   6
ENDBRANCH   4   5
ENDBRANCH   3   4
ENDBRANCH   1   3
BRANCH   1  13
HETATM   13  C9  UNL     1      -0.779  52.107 -26.151  1.00  0.00     0.039 A 
HETATM   14  C10 UNL     1       0.261  52.146 -25.215  1.00  0.00     0.019 A 
HETATM   15  C11 UNL     1       1.587  51.975 -25.626  1.00  0.00     0.024 A 
HETATM   16  C12 UNL     1       1.899  51.810 -26.977  1.00  0.00     0.005 A 
HETATM   17  C13 UNL     1       0.855  51.715 -27.900  1.00  0.00     0.024 A 
HETATM   18  C14 UNL     1      -0.476  51.883 -27.499  1.00  0.00     0.019 A 
BRANCH  16  19
HETATM   19  N2  UNL     1       3.211  51.522 -27.367  1.00  0.00    -0.303 NA
HETATM   20  H19 UNL     1       3.920  51.898 -26.744  1.00  0.00     0.124 HD
HETATM   21  H20 UNL     1       3.409  51.724 -28.342  1.00  0.00     0.124 HD
ENDBRANCH  16  19
ENDBRANCH   1  13
TORSDOF 10
ENDMDL
MODEL 7
REMARK minimizedAffinity -6.01941347
REMARK  10 active torsions:
REMARK  status: ('A' for Active; 'I' for Inactive)
REMARK    1  A    between atoms: C2_2  and  C3_3 
REMARK    2  A    between atoms: C3_3  and  C4_4 
REMARK    3  A    between atoms: C4_4  and  C5_5 
REMARK    4  A    between atoms: C5_5  and  N1_6 
REMARK    5  A    between atoms: N1_6  and  C6_7 
REMARK    6  A    between atoms: C6_7  and  C7_8 
REMARK    7  A    between atoms: C7_8  and  O1_9 
REMARK    8  A    between atoms: O1_9  and  C8_10 
REMARK    9  A    between atoms: C8_10  and  C9_12 
REMARK   10  A    between atoms: C12_15  and  N2_16 
ROOT
HETATM    1  C8  UNL     1      -2.403  51.921 -26.707  1.00  0.00     0.293 C 
HETATM    2  O2  UNL     1      -3.005  52.829 -26.158  1.00  0.00    -0.259 OA
ENDROOT
BRANCH   1   3
HETATM    3  O1  UNL     1      -2.965  50.839 -27.299  1.00  0.00    -0.316 OA
BRANCH   3   4
HETATM    4  C7  UNL     1      -2.698  49.576 -26.661  1.00  0.00     0.209 C 
BRANCH   4   5
HETATM    5  C6  UNL     1      -4.002  48.902 -26.209  1.00  0.00     0.296 C 
BRANCH   5   6
HETATM    6  N1  UNL     1      -4.779  49.681 -25.232  1.00  0.00     0.085 N 
HETATM    7  H12 UNL     1      -4.932  50.618 -25.610  1.00  0.00     0.315 HD
BRANCH   6   8
HETATM    8  C5  UNL     1      -4.118  49.781 -23.932  1.00  0.00     0.269 C 
BRANCH   8   9
HETATM    9  C4  UNL     1      -3.789  48.390 -23.375  1.00  0.00     0.030 C 
BRANCH   9  10
HETATM   10  C3  UNL     1      -3.252  48.426 -21.942  1.00  0.00     0.001 C 
BRANCH  10  11
HETATM   11  C2  UNL     1      -2.177  47.361 -21.726  1.00  0.00    -0.005 C 
HETATM   12  C1  UNL     1      -0.993  47.915 -20.948  1.00  0.00     0.005 C 
ENDBRANCH  10  11
ENDBRANCH   9  10
ENDBRANCH   8   9
ENDBRANCH   6   8
ENDBRANCH   5   6
ENDBRANCH   4   5
ENDBRANCH   3   4
ENDBRANCH   1   3
BRANCH   1  13
HETATM   13  C9  UNL     1      -0.919  51.858 -26.805  1.00  0.00     0.039 A 
HETATM   14  C10 UNL     1      -0.339  51.867 -28.078  1.00  0.00     0.019 A 
HETATM   15  C11 UNL     1       1.052  51.814 -28.220  1.00  0.00     0.024 A 
HETATM   16  C12 UNL     1       1.880  51.705 -27.101  1.00  0.00     0.005 A 
HETATM   17  C13 UNL     1       1.300  51.755 -25.831  1.00  0.00     0.024 A 
HETATM   18  C14 UNL     1      -0.090  51.809 -25.678  1.00  0.00     0.019 A 
BRANCH  16  19
HETATM   19  N2  UNL     1       3.269  51.772 -27.243  1.00  0.00    -0.303 NA
HETATM   20  H19 UNL     1       3.611  51.433 -28.138  1.00  0.00     0.124 HD
HETATM   21  H20 UNL     1       3.787  51.382 -26.462  1.00  0.00     0.124 HD
ENDBRANCH  16  19
ENDBRANCH   1  13
TORSDOF 10
ENDMDL
MODEL 8
REMARK minimizedAffinity -5.8670764
REMARK  10 active torsions:
REMARK  status: ('A' for Active; 'I' for Inactive)
REMARK    1  A    between atoms: C2_2  and  C3_3 
REMARK    2  A    between atoms: C3_3  and  C4_4 
REMARK    3  A    between atoms: C4_4  and  C5_5 
REMARK    4  A    between atoms: C5_5  and  N1_6 
REMARK    5  A    between atoms: N1_6  and  C6_7 
REMARK    6  A    between atoms: C6_7  and  C7_8 
REMARK    7  A    between atoms: C7_8  and  O1_9 
REMARK    8  A    between atoms: O1_9  and  C8_10 
REMARK    9  A    between atoms: C8_10  and  C9_12 
REMARK   10  A    between atoms: C12_15  and  N2_16 
ROOT
HETATM    1  C8  UNL     1      -0.469  52.400 -23.176  1.00  0.00     0.293 C 
HETATM    2  O2  UNL     1       0.113  52.948 -24.098  1.00  0.00    -0.259 OA
ENDROOT
BRANCH   1   3
HETATM    3  O1  UNL     1      -1.574  51.621 -23.286  1.00  0.00    -0.316 OA
BRANCH   3   4
HETATM    4  C7  UNL     1      -1.669  50.849 -24.497  1.00  0.00     0.209 C 
BRANCH   4   5
HETATM    5  C6  UNL     1      -2.762  51.410 -25.420  1.00  0.00     0.296 C 
BRANCH   5   6
HETATM    6  N1  UNL     1      -2.427  52.701 -26.039  1.00  0.00     0.085 N 
HETATM    7  H12 UNL     1      -3.248  53.306 -25.998  1.00  0.00     0.315 HD
BRANCH   6   8
HETATM    8  C5  UNL     1      -1.987  52.567 -27.427  1.00  0.00     0.269 C 
BRANCH   8   9
HETATM    9  C4  UNL     1      -0.518  52.976 -27.580  1.00  0.00     0.030 C 
BRANCH   9  10
HETATM   10  C3  UNL     1       0.380  51.831 -28.057  1.00  0.00     0.001 C 
BRANCH  10  11
HETATM   11  C2  UNL     1       1.031  51.108 -26.878  1.00  0.00    -0.005 C 
HETATM   12  C1  UNL     1       2.475  51.544 -26.686  1.00  0.00     0.005 C 
ENDBRANCH  10  11
ENDBRANCH   9  10
ENDBRANCH   8   9
ENDBRANCH   6   8
ENDBRANCH   5   6
ENDBRANCH   4   5
ENDBRANCH   3   4
ENDBRANCH   1   3
BRANCH   1  13
HETATM   13  C9  UNL     1      -0.051  52.516 -21.752  1.00  0.00     0.039 A 
HETATM   14  C10 UNL     1       0.926  53.463 -21.425  1.00  0.00     0.019 A 
HETATM   15  C11 UNL     1       1.349  53.612 -20.100  1.00  0.00     0.024 A 
HETATM   16  C12 UNL     1       0.838  52.791 -19.092  1.00  0.00     0.005 A 
HETATM   17  C13 UNL     1      -0.177  51.888 -19.414  1.00  0.00     0.024 A 
HETATM   18  C14 UNL     1      -0.608  51.732 -20.736  1.00  0.00     0.019 A 
BRANCH  16  19
HETATM   19  N2  UNL     1       1.176  53.024 -17.755  1.00  0.00    -0.303 NA
HETATM   20  H19 UNL     1       2.092  53.443 -17.627  1.00  0.00     0.124 HD
HETATM   21  H20 UNL     1       1.028  52.227 -17.144  1.00  0.00     0.124 HD
ENDBRANCH  16  19
ENDBRANCH   1  13
TORSDOF 10
ENDMDL
MODEL 9
REMARK minimizedAffinity -5.8104763
REMARK  10 active torsions:
REMARK  status: ('A' for Active; 'I' for Inactive)
REMARK    1  A    between atoms: C2_2  and  C3_3 
REMARK    2  A    between atoms: C3_3  and  C4_4 
REMARK    3  A    between atoms: C4_4  and  C5_5 
REMARK    4  A    between atoms: C5_5  and  N1_6 
REMARK    5  A    between atoms: N1_6  and  C6_7 
REMARK    6  A    between atoms: C6_7  and  C7_8 
REMARK    7  A    between atoms: C7_8  and  O1_9 
REMARK    8  A    between atoms: O1_9  and  C8_10 
REMARK    9  A    between atoms: C8_10  and  C9_12 
REMARK   10  A    between atoms: C12_15  and  N2_16 
ROOT
HETATM    1  C8  UNL     1      -2.301  51.505 -26.790  1.00  0.00     0.293 C 
HETATM    2  O2  UNL     1      -2.967  50.545 -27.142  1.00  0.00    -0.259 OA
ENDROOT
BRANCH   1   3
HETATM    3  O1  UNL     1      -2.780  52.633 -26.209  1.00  0.00    -0.316 OA
BRANCH   3   4
HETATM    4  C7  UNL     1      -3.626  52.426 -25.063  1.00  0.00     0.209 C 
BRANCH   4   5
HETATM    5  C6  UNL     1      -2.793  52.335 -23.775  1.00  0.00     0.296 C 
BRANCH   5   6
HETATM    6  N1  UNL     1      -3.418  51.543 -22.706  1.00  0.00     0.085 N 
HETATM    7  H12 UNL     1      -3.501  52.127 -21.872  1.00  0.00     0.315 HD
BRANCH   6   8
HETATM    8  C5  UNL     1      -2.664  50.333 -22.381  1.00  0.00     0.269 C 
BRANCH   8   9
HETATM    9  C4  UNL     1      -2.610  49.381 -23.581  1.00  0.00     0.030 C 
BRANCH   9  10
HETATM   10  C3  UNL     1      -3.844  48.482 -23.693  1.00  0.00     0.001 C 
BRANCH  10  11
HETATM   11  C2  UNL     1      -4.377  48.446 -25.126  1.00  0.00    -0.005 C 
HETATM   12  C1  UNL     1      -5.859  48.109 -25.161  1.00  0.00     0.005 C 
ENDBRANCH  10  11
ENDBRANCH   9  10
ENDBRANCH   8   9
ENDBRANCH   6   8
ENDBRANCH   5   6
ENDBRANCH   4   5
ENDBRANCH   3   4
ENDBRANCH   1   3
BRANCH   1  13
HETATM   13  C9  UNL     1      -0.825  51.591 -26.960  1.00  0.00     0.039 A 
HETATM   14  C10 UNL     1      -0.016  51.364 -25.841  1.00  0.00     0.019 A 
HETATM   15  C11 UNL     1       1.377  51.430 -25.953  1.00  0.00     0.024 A 
HETATM   16  C12 UNL     1       1.981  51.766 -27.166  1.00  0.00     0.005 A 
HETATM   17  C13 UNL     1       1.172  51.935 -28.293  1.00  0.00     0.024 A 
HETATM   18  C14 UNL     1      -0.222  51.871 -28.192  1.00  0.00     0.019 A 
BRANCH  16  19
HETATM   19  N2  UNL     1       3.372  51.714 -27.300  1.00  0.00    -0.303 NA
HETATM   20  H19 UNL     1       3.877  51.891 -26.437  1.00  0.00     0.124 HD
HETATM   21  H20 UNL     1       3.736  52.255 -28.077  1.00  0.00     0.124 HD
ENDBRANCH  16  19
ENDBRANCH   1  13
TORSDOF 10
ENDMDL
