MODEL 1
REMARK minimizedAffinity -6.30994225
REMARK CNNscore 0.173572063
REMARK CNNaffinity 6.52108145
REMARK  10 active torsions:
REMARK  status: ('A' for Active; 'I' for Inactive)
REMARK    1  A    between atoms: C16_18  and  C17_19 
REMARK    2  A    between atoms: C26_30  and  C27_31 
REMARK    3  A    between atoms: C27_31  and  O1_33 
REMARK    4  A    between atoms: C30_35  and  C31_36 
REMARK    5  A    between atoms: C31_36  and  O3_38 
REMARK    6  A    between atoms: C37_44  and  O4_45 
REMARK    7  A    between atoms: C41_49  and  C42_50 
REMARK    8  A    between atoms: C41_49  and  C43_52 
REMARK    9  A    between atoms: C42_50  and  O5_51 
REMARK   10  A    between atoms: C43_52  and  O7_54 
ROOT
HETATM    1  C17 UNL     1     -16.957  -1.365  28.005  1.00  0.00     0.013 A 
HETATM    2  C18 UNL     1     -16.545  -2.585  28.599  1.00  0.00     0.053 A 
HETATM    3  N3  UNL     1     -15.504  -2.834  29.465  1.00  0.00    -0.357 N 
HETATM    4  C19 UNL     1     -15.460  -4.162  29.824  1.00  0.00     0.038 A 
HETATM    5  C20 UNL     1     -16.485  -4.803  29.145  1.00  0.00    -0.020 A 
HETATM    6  C21 UNL     1     -16.819  -6.256  29.230  1.00  0.00     0.072 C 
HETATM    7  C22 UNL     1     -15.621  -7.180  28.960  1.00  0.00     0.277 C 
HETATM    8  N4  UNL     1     -14.404  -7.005  29.765  1.00  0.00     0.096 N 
HETATM    9  C23 UNL     1     -13.248  -6.544  28.976  1.00  0.00     0.277 C 
HETATM   10  C24 UNL     1     -12.287  -5.747  29.884  1.00  0.00     0.016 C 
HETATM   11  C25 UNL     1     -12.020  -6.567  31.155  1.00  0.00     0.015 C 
HETATM   12  C26 UNL     1     -13.340  -6.728  31.938  1.00  0.00     0.049 C 
HETATM   13  C29 UNL     1     -14.532  -6.253  31.037  1.00  0.00     0.253 C 
HETATM   14  C30 UNL     1     -14.418  -4.691  30.810  1.00  0.00     0.122 C 
HETATM   15  C33 UNL     1     -12.970  -4.419  30.270  1.00  0.00     0.035 C 
HETATM   16  C34 UNL     1     -17.172  -3.807  28.378  1.00  0.00    -0.000 A 
HETATM   17  C35 UNL     1     -18.278  -3.844  27.515  1.00  0.00     0.017 A 
HETATM   18  C36 UNL     1     -18.728  -2.666  26.912  1.00  0.00     0.038 A 
HETATM   19  C37 UNL     1     -18.089  -1.447  27.148  1.00  0.00     0.077 A 
HETATM   20  H19 UNL     1     -14.857  -2.128  29.792  1.00  0.00     0.166 HD
ENDROOT
BRANCH   1  21
HETATM   21  C16 UNL     1     -16.254  -0.018  28.252  1.00  0.00     0.075 C 
HETATM   22  C9  UNL     1     -16.724   0.627  29.541  1.00  0.00     0.025 A 
HETATM   23  C8  UNL     1     -17.232   1.879  29.871  1.00  0.00    -0.020 A 
HETATM   24  N2  UNL     1     -16.607  -0.078  30.722  1.00  0.00    -0.358 N 
HETATM   25  C7  UNL     1     -17.588   2.987  28.932  1.00  0.00     0.079 C 
HETATM   26  C15 UNL     1     -17.334   1.939  31.297  1.00  0.00    -0.001 A 
HETATM   27  C6  UNL     1     -16.414   3.831  28.364  1.00  0.00     0.248 C 
HETATM   28  N1  UNL     1     -16.836   4.630  27.172  1.00  0.00     0.094 N 
HETATM   29  C41 UNL     1     -15.093   3.080  27.976  1.00  0.00     0.107 C 
HETATM   30  C4  UNL     1     -17.075   3.824  25.963  1.00  0.00     0.306 C 
HETATM   31  C5  UNL     1     -17.957   5.527  27.438  1.00  0.00     0.310 C 
HETATM   32  C3  UNL     1     -15.914   2.896  25.632  1.00  0.00    -0.051 C 
HETATM   33  C2  UNL     1     -15.330   2.779  24.423  1.00  0.00    -0.026 C 
HETATM   34  C40 UNL     1     -15.384   2.071  26.819  1.00  0.00     0.039 C 
HETATM   35  C1  UNL     1     -15.676   3.490  23.153  1.00  0.00     0.036 C 
HETATM   36  C39 UNL     1     -16.373   0.875  27.006  1.00  0.00     0.026 C 
HETATM   37  C10 UNL     1     -16.952   0.694  31.798  1.00  0.00     0.043 A 
HETATM   38  C14 UNL     1     -17.708   2.949  32.207  1.00  0.00     0.014 A 
HETATM   39  C11 UNL     1     -16.938   0.400  33.168  1.00  0.00     0.030 A 
HETATM   40  C12 UNL     1     -17.312   1.417  34.052  1.00  0.00     0.002 A 
HETATM   41  C13 UNL     1     -17.685   2.679  33.581  1.00  0.00     0.001 A 
HETATM   42  H13 UNL     1     -16.248  -1.024  30.786  1.00  0.00     0.166 HD
BRANCH  29  43
HETATM   43  C42 UNL     1     -14.031   4.162  27.528  1.00  0.00     0.186 C 
BRANCH  43  44
HETATM   44  O5  UNL     1     -13.671   5.068  28.570  1.00  0.00    -0.399 OA
HETATM   45  H51 UNL     1     -13.081   4.586  29.173  1.00  0.00     0.209 HD
ENDBRANCH  43  44
ENDBRANCH  29  43
BRANCH  29  46
HETATM   46  C43 UNL     1     -14.339   2.445  29.153  1.00  0.00     0.272 C 
HETATM   47  O6  UNL     1     -14.493   2.757  30.329  1.00  0.00    -0.264 OA
BRANCH  46  48
HETATM   48  O7  UNL     1     -13.523   1.422  28.739  1.00  0.00    -0.326 OA
HETATM   49  C44 UNL     1     -12.151   1.789  28.608  1.00  0.00     0.213 C 
ENDBRANCH  46  48
ENDBRANCH  29  46
ENDBRANCH   1  21
BRANCH  19  50
HETATM   50  O4  UNL     1     -18.497  -0.260  26.592  1.00  0.00    -0.355 OA
HETATM   51  C38 UNL     1     -19.725  -0.239  25.876  1.00  0.00     0.210 C 
ENDBRANCH  19  50
BRANCH  14  52
HETATM   52  C31 UNL     1     -14.650  -3.906  32.124  1.00  0.00     0.275 C 
HETATM   53  O2  UNL     1     -13.744  -3.570  32.884  1.00  0.00    -0.264 OA
BRANCH  52  54
HETATM   54  O3  UNL     1     -15.962  -3.576  32.297  1.00  0.00    -0.326 OA
HETATM   55  C32 UNL     1     -16.642  -4.335  33.300  1.00  0.00     0.213 C 
ENDBRANCH  52  54
ENDBRANCH  14  52
BRANCH  12  56
HETATM   56  C27 UNL     1     -13.477  -8.124  32.583  1.00  0.00     0.120 C 
HETATM   57  C28 UNL     1     -14.657  -8.346  33.518  1.00  0.00     0.040 C 
BRANCH  56  58
HETATM   58  O1  UNL     1     -12.273  -8.437  33.295  1.00  0.00    -0.396 OA
HETATM   59  H34 UNL     1     -12.250  -7.894  34.095  1.00  0.00     0.210 HD
ENDBRANCH  56  58
ENDBRANCH  12  56
TORSDOF 10
ENDMDL
MODEL 2
REMARK minimizedAffinity -6.76913309
REMARK CNNscore 0.153868839
REMARK CNNaffinity 6.45776606
REMARK  10 active torsions:
REMARK  status: ('A' for Active; 'I' for Inactive)
REMARK    1  A    between atoms: C16_18  and  C17_19 
REMARK    2  A    between atoms: C26_30  and  C27_31 
REMARK    3  A    between atoms: C27_31  and  O1_33 
REMARK    4  A    between atoms: C30_35  and  C31_36 
REMARK    5  A    between atoms: C31_36  and  O3_38 
REMARK    6  A    between atoms: C37_44  and  O4_45 
REMARK    7  A    between atoms: C41_49  and  C42_50 
REMARK    8  A    between atoms: C41_49  and  C43_52 
REMARK    9  A    between atoms: C42_50  and  O5_51 
REMARK   10  A    between atoms: C43_52  and  O7_54 
ROOT
HETATM    1  C17 UNL     1     -16.958  -1.092  27.812  1.00  0.00     0.013 A 
HETATM    2  C18 UNL     1     -16.637  -2.373  28.328  1.00  0.00     0.053 A 
HETATM    3  N3  UNL     1     -15.705  -2.732  29.274  1.00  0.00    -0.357 N 
HETATM    4  C19 UNL     1     -15.727  -4.089  29.507  1.00  0.00     0.038 A 
HETATM    5  C20 UNL     1     -16.681  -4.633  28.662  1.00  0.00    -0.020 A 
HETATM    6  C21 UNL     1     -17.050  -6.078  28.570  1.00  0.00     0.072 C 
HETATM    7  C22 UNL     1     -15.848  -7.007  28.345  1.00  0.00     0.277 C 
HETATM    8  N4  UNL     1     -14.725  -6.944  29.291  1.00  0.00     0.096 N 
HETATM    9  C23 UNL     1     -13.480  -6.445  28.681  1.00  0.00     0.277 C 
HETATM   10  C24 UNL     1     -12.611  -5.766  29.761  1.00  0.00     0.016 C 
HETATM   11  C25 UNL     1     -12.503  -6.708  30.969  1.00  0.00     0.015 C 
HETATM   12  C26 UNL     1     -13.905  -6.902  31.585  1.00  0.00     0.049 C 
HETATM   13  C29 UNL     1     -14.980  -6.310  30.608  1.00  0.00     0.253 C 
HETATM   14  C30 UNL     1     -14.811  -4.738  30.546  1.00  0.00     0.122 C 
HETATM   15  C33 UNL     1     -13.308  -4.460  30.196  1.00  0.00     0.035 C 
HETATM   16  C34 UNL     1     -17.259  -3.550  27.923  1.00  0.00    -0.000 A 
HETATM   17  C35 UNL     1     -18.263  -3.473  26.945  1.00  0.00     0.017 A 
HETATM   18  C36 UNL     1     -18.620  -2.232  26.413  1.00  0.00     0.038 A 
HETATM   19  C37 UNL     1     -17.988  -1.059  26.833  1.00  0.00     0.077 A 
HETATM   20  H19 UNL     1     -15.085  -2.080  29.736  1.00  0.00     0.166 HD
ENDROOT
BRANCH   1  21
HETATM   21  C16 UNL     1     -16.261   0.205  28.263  1.00  0.00     0.075 C 
HETATM   22  C9  UNL     1     -17.266   1.265  28.670  1.00  0.00     0.025 A 
HETATM   23  C8  UNL     1     -17.478   2.591  28.309  1.00  0.00    -0.020 A 
HETATM   24  N2  UNL     1     -18.183   0.970  29.658  1.00  0.00    -0.358 N 
HETATM   25  C7  UNL     1     -16.770   3.362  27.241  1.00  0.00     0.079 C 
HETATM   26  C15 UNL     1     -18.491   3.114  29.173  1.00  0.00    -0.001 A 
HETATM   27  C6  UNL     1     -15.347   3.886  27.576  1.00  0.00     0.248 C 
HETATM   28  N1  UNL     1     -14.602   4.289  26.343  1.00  0.00     0.094 N 
HETATM   29  C41 UNL     1     -14.399   2.951  28.406  1.00  0.00     0.107 C 
HETATM   30  C4  UNL     1     -14.180   3.158  25.500  1.00  0.00     0.306 C 
HETATM   31  C5  UNL     1     -15.290   5.307  25.554  1.00  0.00     0.310 C 
HETATM   32  C3  UNL     1     -13.431   2.086  26.281  1.00  0.00    -0.051 C 
HETATM   33  C2  UNL     1     -12.251   1.542  25.922  1.00  0.00    -0.026 C 
HETATM   34  C40 UNL     1     -14.106   1.648  27.594  1.00  0.00     0.039 C 
HETATM   35  C1  UNL     1     -11.428   1.831  24.707  1.00  0.00     0.036 C 
HETATM   36  C39 UNL     1     -15.247   0.656  27.198  1.00  0.00     0.026 C 
HETATM   37  C10 UNL     1     -18.924   2.072  29.992  1.00  0.00     0.043 A 
HETATM   38  C14 UNL     1     -19.071   4.389  29.337  1.00  0.00     0.014 A 
HETATM   39  C11 UNL     1     -19.922   2.234  30.963  1.00  0.00     0.030 A 
HETATM   40  C12 UNL     1     -20.483   3.507  31.108  1.00  0.00     0.002 A 
HETATM   41  C13 UNL     1     -20.059   4.575  30.312  1.00  0.00     0.001 A 
HETATM   42  H13 UNL     1     -18.252   0.071  30.120  1.00  0.00     0.166 HD
BRANCH  29  43
HETATM   43  C42 UNL     1     -13.065   3.746  28.700  1.00  0.00     0.186 C 
BRANCH  43  44
HETATM   44  O5  UNL     1     -12.246   3.131  29.694  1.00  0.00    -0.399 OA
HETATM   45  H51 UNL     1     -11.820   2.365  29.276  1.00  0.00     0.209 HD
ENDBRANCH  43  44
ENDBRANCH  29  43
BRANCH  29  46
HETATM   46  C43 UNL     1     -14.861   2.672  29.844  1.00  0.00     0.272 C 
HETATM   47  O6  UNL     1     -14.955   1.554  30.340  1.00  0.00    -0.264 OA
BRANCH  46  48
HETATM   48  O7  UNL     1     -15.080   3.834  30.539  1.00  0.00    -0.326 OA
HETATM   49  C44 UNL     1     -15.237   4.986  29.714  1.00  0.00     0.213 C 
ENDBRANCH  46  48
ENDBRANCH  29  46
ENDBRANCH   1  21
BRANCH  19  50
HETATM   50  O4  UNL     1     -18.309   0.186  26.351  1.00  0.00    -0.355 OA
HETATM   51  C38 UNL     1     -19.634   0.407  25.886  1.00  0.00     0.210 C 
ENDBRANCH  19  50
BRANCH  14  52
HETATM   52  C31 UNL     1     -15.174  -4.073  31.896  1.00  0.00     0.275 C 
HETATM   53  O2  UNL     1     -16.323  -3.799  32.231  1.00  0.00    -0.264 OA
BRANCH  52  54
HETATM   54  O3  UNL     1     -14.077  -3.897  32.689  1.00  0.00    -0.326 OA
HETATM   55  C32 UNL     1     -14.372  -3.564  34.048  1.00  0.00     0.213 C 
ENDBRANCH  52  54
ENDBRANCH  14  52
BRANCH  12  56
HETATM   56  C27 UNL     1     -14.140  -8.348  32.074  1.00  0.00     0.120 C 
HETATM   57  C28 UNL     1     -14.136  -8.584  33.577  1.00  0.00     0.040 C 
BRANCH  56  58
HETATM   58  O1  UNL     1     -13.165  -9.213  31.479  1.00  0.00    -0.396 OA
HETATM   59  H34 UNL     1     -12.313  -9.038  31.903  1.00  0.00     0.210 HD
ENDBRANCH  56  58
ENDBRANCH  12  56
TORSDOF 10
ENDMDL
MODEL 3
REMARK minimizedAffinity -6.63334131
REMARK CNNscore 0.121481813
REMARK CNNaffinity 5.902668
REMARK  10 active torsions:
REMARK  status: ('A' for Active; 'I' for Inactive)
REMARK    1  A    between atoms: C16_18  and  C17_19 
REMARK    2  A    between atoms: C26_30  and  C27_31 
REMARK    3  A    between atoms: C27_31  and  O1_33 
REMARK    4  A    between atoms: C30_35  and  C31_36 
REMARK    5  A    between atoms: C31_36  and  O3_38 
REMARK    6  A    between atoms: C37_44  and  O4_45 
REMARK    7  A    between atoms: C41_49  and  C42_50 
REMARK    8  A    between atoms: C41_49  and  C43_52 
REMARK    9  A    between atoms: C42_50  and  O5_51 
REMARK   10  A    between atoms: C43_52  and  O7_54 
ROOT
HETATM    1  C17 UNL     1      -0.798  11.827  18.483  1.00  0.00     0.013 A 
HETATM    2  C18 UNL     1      -1.893  12.635  18.883  1.00  0.00     0.053 A 
HETATM    3  N3  UNL     1      -1.901  13.895  19.435  1.00  0.00    -0.357 N 
HETATM    4  C19 UNL     1      -3.186  14.335  19.658  1.00  0.00     0.038 A 
HETATM    5  C20 UNL     1      -4.040  13.315  19.268  1.00  0.00    -0.020 A 
HETATM    6  C21 UNL     1      -5.532  13.349  19.328  1.00  0.00     0.072 C 
HETATM    7  C22 UNL     1      -6.084  13.725  20.713  1.00  0.00     0.277 C 
HETATM    8  N4  UNL     1      -5.633  14.979  21.330  1.00  0.00     0.096 N 
HETATM    9  C23 UNL     1      -4.836  14.770  22.552  1.00  0.00     0.277 C 
HETATM   10  C24 UNL     1      -3.862  15.953  22.742  1.00  0.00     0.016 C 
HETATM   11  C25 UNL     1      -4.649  17.264  22.602  1.00  0.00     0.015 C 
HETATM   12  C26 UNL     1      -5.201  17.371  21.165  1.00  0.00     0.049 C 
HETATM   13  C29 UNL     1      -5.015  15.993  20.441  1.00  0.00     0.253 C 
HETATM   14  C30 UNL     1      -3.470  15.725  20.230  1.00  0.00     0.122 C 
HETATM   15  C33 UNL     1      -2.789  15.884  21.635  1.00  0.00     0.035 C 
HETATM   16  C34 UNL     1      -3.225  12.246  18.774  1.00  0.00    -0.000 A 
HETATM   17  C35 UNL     1      -3.509  10.979  18.240  1.00  0.00     0.017 A 
HETATM   18  C36 UNL     1      -2.464  10.151  17.823  1.00  0.00     0.038 A 
HETATM   19  C37 UNL     1      -1.133  10.558  17.937  1.00  0.00     0.077 A 
HETATM   20  H19 UNL     1      -1.067  14.427  19.649  1.00  0.00     0.166 HD
ENDROOT
BRANCH   1  21
HETATM   21  C16 UNL     1       0.673  12.264  18.612  1.00  0.00     0.075 C 
HETATM   22  C9  UNL     1       1.287  11.778  19.910  1.00  0.00     0.025 A 
HETATM   23  C8  UNL     1       1.971  12.396  20.951  1.00  0.00    -0.020 A 
HETATM   24  N2  UNL     1       1.272  10.427  20.191  1.00  0.00    -0.358 N 
HETATM   25  C7  UNL     1       2.208  13.861  21.135  1.00  0.00     0.079 C 
HETATM   26  C15 UNL     1       2.447  11.366  21.823  1.00  0.00    -0.001 A 
HETATM   27  C6  UNL     1       3.330  14.506  20.275  1.00  0.00     0.248 C 
HETATM   28  N1  UNL     1       3.219  15.997  20.253  1.00  0.00     0.094 N 
HETATM   29  C41 UNL     1       3.480  14.028  18.789  1.00  0.00     0.107 C 
HETATM   30  C4  UNL     1       2.082  16.503  19.465  1.00  0.00     0.306 C 
HETATM   31  C5  UNL     1       3.253  16.605  21.580  1.00  0.00     0.310 C 
HETATM   32  C3  UNL     1       2.028  15.916  18.061  1.00  0.00    -0.051 C 
HETATM   33  C2  UNL     1       1.886  16.626  16.925  1.00  0.00    -0.026 C 
HETATM   34  C40 UNL     1       2.186  14.386  17.991  1.00  0.00     0.039 C 
HETATM   35  C1  UNL     1       1.733  18.106  16.768  1.00  0.00     0.036 C 
HETATM   36  C39 UNL     1       0.796  13.778  18.369  1.00  0.00     0.026 C 
HETATM   37  C10 UNL     1       1.978  10.149  21.330  1.00  0.00     0.043 A 
HETATM   38  C14 UNL     1       3.245  11.363  22.985  1.00  0.00     0.014 A 
HETATM   39  C11 UNL     1       2.256   8.922  21.948  1.00  0.00     0.030 A 
HETATM   40  C12 UNL     1       3.050   8.943  23.099  1.00  0.00     0.002 A 
HETATM   41  C13 UNL     1       3.547  10.146  23.609  1.00  0.00     0.001 A 
HETATM   42  H13 UNL     1       0.848   9.727  19.593  1.00  0.00     0.166 HD
BRANCH  29  43
HETATM   43  C42 UNL     1       4.744  14.750  18.171  1.00  0.00     0.186 C 
BRANCH  43  44
HETATM   44  O5  UNL     1       5.050  14.319  16.846  1.00  0.00    -0.399 OA
HETATM   45  H51 UNL     1       4.397  14.729  16.255  1.00  0.00     0.209 HD
ENDBRANCH  43  44
ENDBRANCH  29  43
BRANCH  29  46
HETATM   46  C43 UNL     1       3.906  12.563  18.619  1.00  0.00     0.272 C 
HETATM   47  O6  UNL     1       3.579  11.847  17.679  1.00  0.00    -0.264 OA
BRANCH  46  48
HETATM   48  O7  UNL     1       4.768  12.168  19.611  1.00  0.00    -0.326 OA
HETATM   49  C44 UNL     1       5.947  11.523  19.135  1.00  0.00     0.213 C 
ENDBRANCH  46  48
ENDBRANCH  29  46
ENDBRANCH   1  21
BRANCH  19  50
HETATM   50  O4  UNL     1      -0.070   9.788  17.533  1.00  0.00    -0.355 OA
HETATM   51  C38 UNL     1      -0.112   9.211  16.234  1.00  0.00     0.210 C 
ENDBRANCH  19  50
BRANCH  14  52
HETATM   52  C31 UNL     1      -2.850  16.725  19.224  1.00  0.00     0.275 C 
HETATM   53  O2  UNL     1      -2.143  17.674  19.557  1.00  0.00    -0.264 OA
BRANCH  52  54
HETATM   54  O3  UNL     1      -3.125  16.386  17.932  1.00  0.00    -0.326 OA
HETATM   55  C32 UNL     1      -3.811  17.392  17.183  1.00  0.00     0.213 C 
ENDBRANCH  52  54
ENDBRANCH  14  52
BRANCH  12  56
HETATM   56  C27 UNL     1      -6.617  17.987  21.121  1.00  0.00     0.120 C 
HETATM   57  C28 UNL     1      -7.503  17.782  22.341  1.00  0.00     0.040 C 
BRANCH  56  58
HETATM   58  O1  UNL     1      -7.312  17.492  19.970  1.00  0.00    -0.396 OA
HETATM   59  H34 UNL     1      -7.546  16.569  20.137  1.00  0.00     0.210 HD
ENDBRANCH  56  58
ENDBRANCH  12  56
TORSDOF 10
ENDMDL
MODEL 4
REMARK minimizedAffinity -6.68999195
REMARK CNNscore 0.103454746
REMARK CNNaffinity 5.41843557
REMARK  10 active torsions:
REMARK  status: ('A' for Active; 'I' for Inactive)
REMARK    1  A    between atoms: C16_18  and  C17_19 
REMARK    2  A    between atoms: C26_30  and  C27_31 
REMARK    3  A    between atoms: C27_31  and  O1_33 
REMARK    4  A    between atoms: C30_35  and  C31_36 
REMARK    5  A    between atoms: C31_36  and  O3_38 
REMARK    6  A    between atoms: C37_44  and  O4_45 
REMARK    7  A    between atoms: C41_49  and  C42_50 
REMARK    8  A    between atoms: C41_49  and  C43_52 
REMARK    9  A    between atoms: C42_50  and  O5_51 
REMARK   10  A    between atoms: C43_52  and  O7_54 
ROOT
HETATM    1  C17 UNL     1     -18.365   0.535  13.368  1.00  0.00     0.013 A 
HETATM    2  C18 UNL     1     -18.231   1.938  13.520  1.00  0.00     0.053 A 
HETATM    3  N3  UNL     1     -17.538   2.659  14.465  1.00  0.00    -0.357 N 
HETATM    4  C19 UNL     1     -17.648   4.012  14.241  1.00  0.00     0.038 A 
HETATM    5  C20 UNL     1     -18.465   4.178  13.133  1.00  0.00    -0.020 A 
HETATM    6  C21 UNL     1     -18.862   5.483  12.523  1.00  0.00     0.072 C 
HETATM    7  C22 UNL     1     -19.470   6.473  13.528  1.00  0.00     0.277 C 
HETATM    8  N4  UNL     1     -18.698   6.816  14.730  1.00  0.00     0.096 N 
HETATM    9  C23 UNL     1     -19.327   6.347  15.977  1.00  0.00     0.277 C 
HETATM   10  C24 UNL     1     -18.240   6.103  17.045  1.00  0.00     0.016 C 
HETATM   11  C25 UNL     1     -17.329   7.338  17.109  1.00  0.00     0.015 C 
HETATM   12  C26 UNL     1     -16.597   7.497  15.760  1.00  0.00     0.049 C 
HETATM   13  C29 UNL     1     -17.243   6.527  14.710  1.00  0.00     0.253 C 
HETATM   14  C30 UNL     1     -16.936   5.032  15.130  1.00  0.00     0.122 C 
HETATM   15  C33 UNL     1     -17.405   4.878  16.619  1.00  0.00     0.035 C 
HETATM   16  C34 UNL     1     -18.828   2.870  12.675  1.00  0.00    -0.000 A 
HETATM   17  C35 UNL     1     -19.612   2.401  11.610  1.00  0.00     0.017 A 
HETATM   18  C36 UNL     1     -19.767   1.026  11.415  1.00  0.00     0.038 A 
HETATM   19  C37 UNL     1     -19.158   0.104  12.270  1.00  0.00     0.077 A 
HETATM   20  H19 UNL     1     -17.016   2.243  15.225  1.00  0.00     0.166 HD
ENDROOT
BRANCH   1  21
HETATM   21  C16 UNL     1     -17.705  -0.489  14.310  1.00  0.00     0.075 C 
HETATM   22  C9  UNL     1     -16.972  -1.567  13.536  1.00  0.00     0.025 A 
HETATM   23  C8  UNL     1     -17.002  -2.957  13.542  1.00  0.00    -0.020 A 
HETATM   24  N2  UNL     1     -15.990  -1.194  12.640  1.00  0.00    -0.358 N 
HETATM   25  C7  UNL     1     -17.934  -3.838  14.312  1.00  0.00     0.079 C 
HETATM   26  C15 UNL     1     -15.947  -3.413  12.691  1.00  0.00    -0.001 A 
HETATM   27  C6  UNL     1     -17.632  -4.033  15.823  1.00  0.00     0.248 C 
HETATM   28  N1  UNL     1     -18.810  -4.595  16.553  1.00  0.00     0.094 N 
HETATM   29  C41 UNL     1     -17.132  -2.788  16.636  1.00  0.00     0.107 C 
HETATM   30  C4  UNL     1     -19.923  -3.646  16.716  1.00  0.00     0.306 C 
HETATM   31  C5  UNL     1     -19.277  -5.869  16.012  1.00  0.00     0.310 C 
HETATM   32  C3  UNL     1     -19.483  -2.313  17.308  1.00  0.00    -0.051 C 
HETATM   33  C2  UNL     1     -20.070  -1.691  18.349  1.00  0.00    -0.026 C 
HETATM   34  C40 UNL     1     -18.242  -1.688  16.644  1.00  0.00     0.039 C 
HETATM   35  C1  UNL     1     -21.264  -2.127  19.138  1.00  0.00     0.036 C 
HETATM   36  C39 UNL     1     -18.736  -1.014  15.324  1.00  0.00     0.026 C 
HETATM   37  C10 UNL     1     -15.345  -2.287  12.129  1.00  0.00     0.043 A 
HETATM   38  C14 UNL     1     -15.443  -4.687  12.358  1.00  0.00     0.014 A 
HETATM   39  C11 UNL     1     -14.268  -2.369  11.234  1.00  0.00     0.030 A 
HETATM   40  C12 UNL     1     -13.786  -3.643  10.919  1.00  0.00     0.002 A 
HETATM   41  C13 UNL     1     -14.358  -4.789  11.477  1.00  0.00     0.001 A 
HETATM   42  H13 UNL     1     -15.738  -0.233  12.440  1.00  0.00     0.166 HD
BRANCH  29  43
HETATM   43  C42 UNL     1     -16.800  -3.268  18.105  1.00  0.00     0.186 C 
BRANCH  43  44
HETATM   44  O5  UNL     1     -16.269  -2.233  18.932  1.00  0.00    -0.399 OA
HETATM   45  H51 UNL     1     -17.011  -1.656  19.176  1.00  0.00     0.209 HD
ENDBRANCH  43  44
ENDBRANCH  29  43
BRANCH  29  46
HETATM   46  C43 UNL     1     -15.756  -2.251  16.218  1.00  0.00     0.272 C 
HETATM   47  O6  UNL     1     -15.442  -1.065  16.218  1.00  0.00    -0.264 OA
BRANCH  46  48
HETATM   48  O7  UNL     1     -14.885  -3.268  15.918  1.00  0.00    -0.326 OA
HETATM   49  C44 UNL     1     -13.665  -2.833  15.322  1.00  0.00     0.213 C 
ENDBRANCH  46  48
ENDBRANCH  29  46
ENDBRANCH   1  21
BRANCH  19  50
HETATM   50  O4  UNL     1     -19.268  -1.256  12.116  1.00  0.00    -0.355 OA
HETATM   51  C38 UNL     1     -20.568  -1.832  12.124  1.00  0.00     0.210 C 
ENDBRANCH  19  50
BRANCH  14  52
HETATM   52  C31 UNL     1     -15.427   4.707  15.013  1.00  0.00     0.275 C 
HETATM   53  O2  UNL     1     -14.990   3.582  14.784  1.00  0.00    -0.264 OA
BRANCH  52  54
HETATM   54  O3  UNL     1     -14.653   5.826  15.123  1.00  0.00    -0.326 OA
HETATM   55  C32 UNL     1     -13.542   5.873  14.223  1.00  0.00     0.213 C 
ENDBRANCH  52  54
ENDBRANCH  14  52
BRANCH  12  56
HETATM   56  C27 UNL     1     -16.455   8.975  15.335  1.00  0.00     0.120 C 
HETATM   57  C28 UNL     1     -17.554   9.933  15.771  1.00  0.00     0.040 C 
BRANCH  56  58
HETATM   58  O1  UNL     1     -16.332   9.048  13.910  1.00  0.00    -0.396 OA
HETATM   59  H34 UNL     1     -17.199   8.855  13.526  1.00  0.00     0.210 HD
ENDBRANCH  56  58
ENDBRANCH  12  56
TORSDOF 10
ENDMDL
MODEL 5
REMARK minimizedAffinity -6.54601765
REMARK CNNscore 0.0962262675
REMARK CNNaffinity 6.19253206
REMARK  10 active torsions:
REMARK  status: ('A' for Active; 'I' for Inactive)
REMARK    1  A    between atoms: C16_18  and  C17_19 
REMARK    2  A    between atoms: C26_30  and  C27_31 
REMARK    3  A    between atoms: C27_31  and  O1_33 
REMARK    4  A    between atoms: C30_35  and  C31_36 
REMARK    5  A    between atoms: C31_36  and  O3_38 
REMARK    6  A    between atoms: C37_44  and  O4_45 
REMARK    7  A    between atoms: C41_49  and  C42_50 
REMARK    8  A    between atoms: C41_49  and  C43_52 
REMARK    9  A    between atoms: C42_50  and  O5_51 
REMARK   10  A    between atoms: C43_52  and  O7_54 
ROOT
HETATM    1  C17 UNL     1     -12.918   8.527  21.339  1.00  0.00     0.013 A 
HETATM    2  C18 UNL     1     -12.726   8.980  20.009  1.00  0.00     0.053 A 
HETATM    3  N3  UNL     1     -13.428   8.674  18.866  1.00  0.00    -0.357 N 
HETATM    4  C19 UNL     1     -12.927   9.350  17.777  1.00  0.00     0.038 A 
HETATM    5  C20 UNL     1     -11.845  10.094  18.220  1.00  0.00    -0.020 A 
HETATM    6  C21 UNL     1     -10.992  10.988  17.380  1.00  0.00     0.072 C 
HETATM    7  C22 UNL     1     -10.423  10.299  16.129  1.00  0.00     0.277 C 
HETATM    8  N4  UNL     1     -11.359   9.653  15.198  1.00  0.00     0.096 N 
HETATM    9  C23 UNL     1     -11.200   8.190  15.139  1.00  0.00     0.277 C 
HETATM   10  C24 UNL     1     -12.545   7.539  14.749  1.00  0.00     0.016 C 
HETATM   11  C25 UNL     1     -13.101   8.262  13.513  1.00  0.00     0.015 C 
HETATM   12  C26 UNL     1     -13.407   9.729  13.881  1.00  0.00     0.049 C 
HETATM   13  C29 UNL     1     -12.787  10.045  15.286  1.00  0.00     0.253 C 
HETATM   14  C30 UNL     1     -13.557   9.213  16.389  1.00  0.00     0.122 C 
HETATM   15  C33 UNL     1     -13.529   7.715  15.925  1.00  0.00     0.035 C 
HETATM   16  C34 UNL     1     -11.722   9.866  19.628  1.00  0.00    -0.000 A 
HETATM   17  C35 UNL     1     -10.842  10.341  20.613  1.00  0.00     0.017 A 
HETATM   18  C36 UNL     1     -10.996   9.930  21.940  1.00  0.00     0.038 A 
HETATM   19  C37 UNL     1     -12.012   9.043  22.305  1.00  0.00     0.077 A 
HETATM   20  H19 UNL     1     -14.211   8.034  18.835  1.00  0.00     0.166 HD
ENDROOT
BRANCH   1  21
HETATM   21  C16 UNL     1     -14.029   7.544  21.751  1.00  0.00     0.075 C 
HETATM   22  C9  UNL     1     -15.220   8.267  22.349  1.00  0.00     0.025 A 
HETATM   23  C8  UNL     1     -15.938   8.140  23.533  1.00  0.00    -0.020 A 
HETATM   24  N2  UNL     1     -15.845   9.249  21.608  1.00  0.00    -0.358 N 
HETATM   25  C7  UNL     1     -15.626   7.243  24.688  1.00  0.00     0.079 C 
HETATM   26  C15 UNL     1     -17.068   9.013  23.445  1.00  0.00    -0.001 A 
HETATM   27  C6  UNL     1     -15.995   5.742  24.533  1.00  0.00     0.248 C 
HETATM   28  N1  UNL     1     -15.305   4.896  25.556  1.00  0.00     0.094 N 
HETATM   29  C41 UNL     1     -15.757   5.071  23.136  1.00  0.00     0.107 C 
HETATM   30  C4  UNL     1     -13.857   4.746  25.332  1.00  0.00     0.306 C 
HETATM   31  C5  UNL     1     -15.587   5.297  26.931  1.00  0.00     0.310 C 
HETATM   32  C3  UNL     1     -13.521   4.299  23.915  1.00  0.00    -0.051 C 
HETATM   33  C2  UNL     1     -12.698   3.281  23.594  1.00  0.00    -0.026 C 
HETATM   34  C40 UNL     1     -14.231   5.088  22.800  1.00  0.00     0.039 C 
HETATM   35  C1  UNL     1     -11.927   2.386  24.513  1.00  0.00     0.036 C 
HETATM   36  C39 UNL     1     -13.445   6.428  22.633  1.00  0.00     0.026 C 
HETATM   37  C10 UNL     1     -16.972   9.705  22.238  1.00  0.00     0.043 A 
HETATM   38  C14 UNL     1     -18.173   9.267  24.284  1.00  0.00     0.014 A 
HETATM   39  C11 UNL     1     -17.920  10.653  21.829  1.00  0.00     0.030 A 
HETATM   40  C12 UNL     1     -19.007  10.888  22.677  1.00  0.00     0.002 A 
HETATM   41  C13 UNL     1     -19.139  10.200  23.886  1.00  0.00     0.001 A 
HETATM   42  H13 UNL     1     -15.543   9.546  20.687  1.00  0.00     0.166 HD
BRANCH  29  43
HETATM   43  C42 UNL     1     -16.304   3.589  23.209  1.00  0.00     0.186 C 
BRANCH  43  44
HETATM   44  O5  UNL     1     -17.717   3.515  23.387  1.00  0.00    -0.399 OA
HETATM   45  H51 UNL     1     -18.123   3.733  22.532  1.00  0.00     0.209 HD
ENDBRANCH  43  44
ENDBRANCH  29  43
BRANCH  29  46
HETATM   46  C43 UNL     1     -16.631   5.616  21.997  1.00  0.00     0.272 C 
HETATM   47  O6  UNL     1     -17.716   6.166  22.154  1.00  0.00    -0.264 OA
BRANCH  46  48
HETATM   48  O7  UNL     1     -16.013   5.486  20.779  1.00  0.00    -0.326 OA
HETATM   49  C44 UNL     1     -16.908   5.490  19.669  1.00  0.00     0.213 C 
ENDBRANCH  46  48
ENDBRANCH  29  46
ENDBRANCH   1  21
BRANCH  19  50
HETATM   50  O4  UNL     1     -12.214   8.618  23.595  1.00  0.00    -0.355 OA
HETATM   51  C38 UNL     1     -11.186   8.846  24.549  1.00  0.00     0.210 C 
ENDBRANCH  19  50
BRANCH  14  52
HETATM   52  C31 UNL     1     -15.021   9.693  16.546  1.00  0.00     0.275 C 
HETATM   53  O2  UNL     1     -15.965   8.936  16.758  1.00  0.00    -0.264 OA
BRANCH  52  54
HETATM   54  O3  UNL     1     -15.121  11.052  16.492  1.00  0.00    -0.326 OA
HETATM   55  C32 UNL     1     -16.267  11.539  15.789  1.00  0.00     0.213 C 
ENDBRANCH  52  54
ENDBRANCH  14  52
BRANCH  12  56
HETATM   56  C27 UNL     1     -13.060  10.709  12.738  1.00  0.00     0.120 C 
HETATM   57  C28 UNL     1     -14.127  11.717  12.339  1.00  0.00     0.040 C 
BRANCH  56  58
HETATM   58  O1  UNL     1     -12.686   9.963  11.573  1.00  0.00    -0.396 OA
HETATM   59  H34 UNL     1     -13.486   9.565  11.204  1.00  0.00     0.210 HD
ENDBRANCH  56  58
ENDBRANCH  12  56
TORSDOF 10
ENDMDL
MODEL 6
REMARK minimizedAffinity -6.54317045
REMARK CNNscore 0.0952136517
REMARK CNNaffinity 4.48292685
REMARK  10 active torsions:
REMARK  status: ('A' for Active; 'I' for Inactive)
REMARK    1  A    between atoms: C16_18  and  C17_19 
REMARK    2  A    between atoms: C26_30  and  C27_31 
REMARK    3  A    between atoms: C27_31  and  O1_33 
REMARK    4  A    between atoms: C30_35  and  C31_36 
REMARK    5  A    between atoms: C31_36  and  O3_38 
REMARK    6  A    between atoms: C37_44  and  O4_45 
REMARK    7  A    between atoms: C41_49  and  C42_50 
REMARK    8  A    between atoms: C41_49  and  C43_52 
REMARK    9  A    between atoms: C42_50  and  O5_51 
REMARK   10  A    between atoms: C43_52  and  O7_54 
ROOT
HETATM    1  C17 UNL     1       5.084  14.075  17.183  1.00  0.00     0.013 A 
HETATM    2  C18 UNL     1       3.716  13.701  17.172  1.00  0.00     0.053 A 
HETATM    3  N3  UNL     1       3.147  12.448  17.156  1.00  0.00    -0.357 N 
HETATM    4  C19 UNL     1       1.773  12.525  17.171  1.00  0.00     0.038 A 
HETATM    5  C20 UNL     1       1.438  13.870  17.165  1.00  0.00    -0.020 A 
HETATM    6  C21 UNL     1       0.053  14.429  17.180  1.00  0.00     0.072 C 
HETATM    7  C22 UNL     1      -0.852  13.863  16.074  1.00  0.00     0.277 C 
HETATM    8  N4  UNL     1      -1.013  12.406  15.977  1.00  0.00     0.096 N 
HETATM    9  C23 UNL     1      -0.444  11.840  14.741  1.00  0.00     0.277 C 
HETATM   10  C24 UNL     1      -0.021  10.377  14.990  1.00  0.00     0.016 C 
HETATM   11  C25 UNL     1      -1.187   9.635  15.660  1.00  0.00     0.015 C 
HETATM   12  C26 UNL     1      -1.454  10.261  17.045  1.00  0.00     0.049 C 
HETATM   13  C29 UNL     1      -0.646  11.599  17.167  1.00  0.00     0.253 C 
HETATM   14  C30 UNL     1       0.901  11.268  17.197  1.00  0.00     0.122 C 
HETATM   15  C33 UNL     1       1.195  10.376  15.940  1.00  0.00     0.035 C 
HETATM   16  C34 UNL     1       2.663  14.611  17.172  1.00  0.00    -0.000 A 
HETATM   17  C35 UNL     1       2.965  15.982  17.181  1.00  0.00     0.017 A 
HETATM   18  C36 UNL     1       4.299  16.399  17.201  1.00  0.00     0.038 A 
HETATM   19  C37 UNL     1       5.343  15.472  17.204  1.00  0.00     0.077 A 
HETATM   20  H19 UNL     1       3.674  11.586  17.134  1.00  0.00     0.166 HD
ENDROOT
BRANCH   1  21
HETATM   21  C16 UNL     1       6.243  13.061  17.179  1.00  0.00     0.075 C 
HETATM   22  C9  UNL     1       6.934  12.998  18.527  1.00  0.00     0.025 A 
HETATM   23  C8  UNL     1       8.254  13.115  18.947  1.00  0.00    -0.020 A 
HETATM   24  N2  UNL     1       6.184  12.705  19.648  1.00  0.00    -0.358 N 
HETATM   25  C7  UNL     1       9.441  13.477  18.111  1.00  0.00     0.079 C 
HETATM   26  C15 UNL     1       8.291  12.794  20.341  1.00  0.00    -0.001 A 
HETATM   27  C6  UNL     1      10.032  12.360  17.208  1.00  0.00     0.248 C 
HETATM   28  N1  UNL     1      10.939  12.922  16.159  1.00  0.00     0.094 N 
HETATM   29  C41 UNL     1       9.030  11.394  16.487  1.00  0.00     0.107 C 
HETATM   30  C4  UNL     1      10.239  13.659  15.094  1.00  0.00     0.306 C 
HETATM   31  C5  UNL     1      12.046  13.704  16.703  1.00  0.00     0.310 C 
HETATM   32  C3  UNL     1       9.096  12.864  14.477  1.00  0.00    -0.051 C 
HETATM   33  C2  UNL     1       8.894  12.684  13.157  1.00  0.00    -0.026 C 
HETATM   34  C40 UNL     1       8.141  12.208  15.492  1.00  0.00     0.039 C 
HETATM   35  C1  UNL     1       9.701  13.215  12.015  1.00  0.00     0.036 C 
HETATM   36  C39 UNL     1       7.178  13.334  15.989  1.00  0.00     0.026 C 
HETATM   37  C10 UNL     1       6.979  12.560  20.753  1.00  0.00     0.043 A 
HETATM   38  C14 UNL     1       9.329  12.672  21.287  1.00  0.00     0.014 A 
HETATM   39  C11 UNL     1       6.647  12.221  22.072  1.00  0.00     0.030 A 
HETATM   40  C12 UNL     1       7.693  12.105  22.992  1.00  0.00     0.002 A 
HETATM   41  C13 UNL     1       9.019  12.319  22.606  1.00  0.00     0.001 A 
HETATM   42  H13 UNL     1       5.182  12.552  19.638  1.00  0.00     0.166 HD
BRANCH  29  43
HETATM   43  C42 UNL     1       9.875  10.297  15.723  1.00  0.00     0.186 C 
BRANCH  43  44
HETATM   44  O5  UNL     1      10.093   9.115  16.491  1.00  0.00    -0.399 OA
HETATM   45  H51 UNL     1       9.258   8.619  16.494  1.00  0.00     0.209 HD
ENDBRANCH  43  44
ENDBRANCH  29  43
BRANCH  29  46
HETATM   46  C43 UNL     1       8.213  10.491  17.422  1.00  0.00     0.272 C 
HETATM   47  O6  UNL     1       8.566  10.152  18.547  1.00  0.00    -0.264 OA
BRANCH  46  48
HETATM   48  O7  UNL     1       6.995  10.168  16.879  1.00  0.00    -0.326 OA
HETATM   49  C44 UNL     1       6.943   8.868  16.298  1.00  0.00     0.213 C 
ENDBRANCH  46  48
ENDBRANCH  29  46
ENDBRANCH   1  21
BRANCH  19  50
HETATM   50  O4  UNL     1       6.669  15.829  17.236  1.00  0.00    -0.355 OA
HETATM   51  C38 UNL     1       7.110  16.692  18.275  1.00  0.00     0.210 C 
ENDBRANCH  19  50
BRANCH  14  52
HETATM   52  C31 UNL     1       1.296  10.512  18.489  1.00  0.00     0.275 C 
HETATM   53  O2  UNL     1       2.208   9.691  18.543  1.00  0.00    -0.264 OA
BRANCH  52  54
HETATM   54  O3  UNL     1       0.560  10.918  19.563  1.00  0.00    -0.326 OA
HETATM   55  C32 UNL     1       1.333  11.364  20.681  1.00  0.00     0.213 C 
ENDBRANCH  52  54
ENDBRANCH  14  52
BRANCH  12  56
HETATM   56  C27 UNL     1      -2.960  10.332  17.379  1.00  0.00     0.120 C 
HETATM   57  C28 UNL     1      -3.342  10.451  18.848  1.00  0.00     0.040 C 
BRANCH  56  58
HETATM   58  O1  UNL     1      -3.621   9.184  16.834  1.00  0.00    -0.396 OA
HETATM   59  H34 UNL     1      -3.375   8.416  17.369  1.00  0.00     0.210 HD
ENDBRANCH  56  58
ENDBRANCH  12  56
TORSDOF 10
ENDMDL
MODEL 7
REMARK minimizedAffinity -6.69976091
REMARK CNNscore 0.0934212282
REMARK CNNaffinity 6.05492926
REMARK  10 active torsions:
REMARK  status: ('A' for Active; 'I' for Inactive)
REMARK    1  A    between atoms: C16_18  and  C17_19 
REMARK    2  A    between atoms: C26_30  and  C27_31 
REMARK    3  A    between atoms: C27_31  and  O1_33 
REMARK    4  A    between atoms: C30_35  and  C31_36 
REMARK    5  A    between atoms: C31_36  and  O3_38 
REMARK    6  A    between atoms: C37_44  and  O4_45 
REMARK    7  A    between atoms: C41_49  and  C42_50 
REMARK    8  A    between atoms: C41_49  and  C43_52 
REMARK    9  A    between atoms: C42_50  and  O5_51 
REMARK   10  A    between atoms: C43_52  and  O7_54 
ROOT
HETATM    1  C17 UNL     1     -11.592  10.339  19.539  1.00  0.00     0.013 A 
HETATM    2  C18 UNL     1     -10.780  11.268  20.237  1.00  0.00     0.053 A 
HETATM    3  N3  UNL     1     -10.060  12.340  19.761  1.00  0.00    -0.357 N 
HETATM    4  C19 UNL     1      -9.419  13.004  20.781  1.00  0.00     0.038 A 
HETATM    5  C20 UNL     1      -9.704  12.323  21.954  1.00  0.00    -0.020 A 
HETATM    6  C21 UNL     1      -9.219  12.687  23.320  1.00  0.00     0.072 C 
HETATM    7  C22 UNL     1      -7.695  12.862  23.406  1.00  0.00     0.277 C 
HETATM    8  N4  UNL     1      -7.044  13.807  22.489  1.00  0.00     0.096 N 
HETATM    9  C23 UNL     1      -6.145  13.152  21.522  1.00  0.00     0.277 C 
HETATM   10  C24 UNL     1      -6.058  14.003  20.238  1.00  0.00     0.016 C 
HETATM   11  C25 UNL     1      -5.766  15.459  20.632  1.00  0.00     0.015 C 
HETATM   12  C26 UNL     1      -6.954  16.009  21.450  1.00  0.00     0.049 C 
HETATM   13  C29 UNL     1      -7.905  14.822  21.833  1.00  0.00     0.253 C 
HETATM   14  C30 UNL     1      -8.582  14.257  20.519  1.00  0.00     0.122 C 
HETATM   15  C33 UNL     1      -7.420  13.937  19.516  1.00  0.00     0.035 C 
HETATM   16  C34 UNL     1     -10.567  11.232  21.612  1.00  0.00    -0.000 A 
HETATM   17  C35 UNL     1     -11.187  10.218  22.358  1.00  0.00     0.017 A 
HETATM   18  C36 UNL     1     -12.005   9.284  21.716  1.00  0.00     0.038 A 
HETATM   19  C37 UNL     1     -12.210   9.337  20.336  1.00  0.00     0.077 A 
HETATM   20  H19 UNL     1     -10.012  12.602  18.785  1.00  0.00     0.166 HD
ENDROOT
BRANCH   1  21
HETATM   21  C16 UNL     1     -11.819  10.383  18.017  1.00  0.00     0.075 C 
HETATM   22  C9  UNL     1     -10.656   9.768  17.262  1.00  0.00     0.025 A 
HETATM   23  C8  UNL     1      -9.835  10.200  16.226  1.00  0.00    -0.020 A 
HETATM   24  N2  UNL     1     -10.287   8.469  17.548  1.00  0.00    -0.358 N 
HETATM   25  C7  UNL     1      -9.809  11.556  15.597  1.00  0.00     0.079 C 
HETATM   26  C15 UNL     1      -9.020   9.091  15.835  1.00  0.00    -0.001 A 
HETATM   27  C6  UNL     1     -10.935  11.881  14.578  1.00  0.00     0.248 C 
HETATM   28  N1  UNL     1     -11.036  13.350  14.316  1.00  0.00     0.094 N 
HETATM   29  C41 UNL     1     -12.382  11.365  14.896  1.00  0.00     0.107 C 
HETATM   30  C4  UNL     1     -11.588  14.123  15.441  1.00  0.00     0.306 C 
HETATM   31  C5  UNL     1      -9.793  13.942  13.828  1.00  0.00     0.310 C 
HETATM   32  C3  UNL     1     -12.903  13.556  15.960  1.00  0.00    -0.051 C 
HETATM   33  C2  UNL     1     -14.027  14.267  16.177  1.00  0.00    -0.026 C 
HETATM   34  C40 UNL     1     -12.901  12.036  16.208  1.00  0.00     0.039 C 
HETATM   35  C1  UNL     1     -14.247  15.735  15.989  1.00  0.00     0.036 C 
HETATM   36  C39 UNL     1     -12.187  11.811  17.580  1.00  0.00     0.026 C 
HETATM   37  C10 UNL     1      -9.314   8.030  16.692  1.00  0.00     0.043 A 
HETATM   38  C14 UNL     1      -8.064   8.894  14.817  1.00  0.00     0.014 A 
HETATM   39  C11 UNL     1      -8.688   6.780  16.593  1.00  0.00     0.030 A 
HETATM   40  C12 UNL     1      -7.743   6.608  15.576  1.00  0.00     0.002 A 
HETATM   41  C13 UNL     1      -7.439   7.647  14.693  1.00  0.00     0.001 A 
HETATM   42  H13 UNL     1     -10.728   7.896  18.258  1.00  0.00     0.166 HD
BRANCH  29  43
HETATM   43  C42 UNL     1     -13.310  11.730  13.669  1.00  0.00     0.186 C 
BRANCH  43  44
HETATM   44  O5  UNL     1     -12.857  11.180  12.432  1.00  0.00    -0.399 OA
HETATM   45  H51 UNL     1     -13.072  10.233  12.447  1.00  0.00     0.209 HD
ENDBRANCH  43  44
ENDBRANCH  29  43
BRANCH  29  46
HETATM   46  C43 UNL     1     -12.540   9.838  14.898  1.00  0.00     0.272 C 
HETATM   47  O6  UNL     1     -13.333   9.221  15.601  1.00  0.00    -0.264 OA
BRANCH  46  48
HETATM   48  O7  UNL     1     -11.738   9.244  13.956  1.00  0.00    -0.326 OA
HETATM   49  C44 UNL     1     -11.879   7.828  13.881  1.00  0.00     0.213 C 
ENDBRANCH  46  48
ENDBRANCH  29  46
ENDBRANCH   1  21
BRANCH  19  50
HETATM   50  O4  UNL     1     -13.012   8.452  19.658  1.00  0.00    -0.355 OA
HETATM   51  C38 UNL     1     -13.792   7.535  20.413  1.00  0.00     0.210 C 
ENDBRANCH  19  50
BRANCH  14  52
HETATM   52  C31 UNL     1      -9.555  15.286  19.894  1.00  0.00     0.275 C 
HETATM   53  O2  UNL     1      -9.300  15.935  18.882  1.00  0.00    -0.264 OA
BRANCH  52  54
HETATM   54  O3  UNL     1     -10.747  15.329  20.556  1.00  0.00    -0.326 OA
HETATM   55  C32 UNL     1     -11.103  16.619  21.062  1.00  0.00     0.213 C 
ENDBRANCH  52  54
ENDBRANCH  14  52
BRANCH  12  56
HETATM   56  C27 UNL     1      -6.501  16.930  22.603  1.00  0.00     0.120 C 
HETATM   57  C28 UNL     1      -5.160  16.622  23.254  1.00  0.00     0.040 C 
BRANCH  56  58
HETATM   58  O1  UNL     1      -7.506  16.938  23.625  1.00  0.00    -0.396 OA
HETATM   59  H34 UNL     1      -7.475  16.085  24.080  1.00  0.00     0.210 HD
ENDBRANCH  56  58
ENDBRANCH  12  56
TORSDOF 10
ENDMDL
MODEL 8
REMARK minimizedAffinity -6.58864021
REMARK CNNscore 0.0899395272
REMARK CNNaffinity 5.81542349
REMARK  10 active torsions:
REMARK  status: ('A' for Active; 'I' for Inactive)
REMARK    1  A    between atoms: C16_18  and  C17_19 
REMARK    2  A    between atoms: C26_30  and  C27_31 
REMARK    3  A    between atoms: C27_31  and  O1_33 
REMARK    4  A    between atoms: C30_35  and  C31_36 
REMARK    5  A    between atoms: C31_36  and  O3_38 
REMARK    6  A    between atoms: C37_44  and  O4_45 
REMARK    7  A    between atoms: C41_49  and  C42_50 
REMARK    8  A    between atoms: C41_49  and  C43_52 
REMARK    9  A    between atoms: C42_50  and  O5_51 
REMARK   10  A    between atoms: C43_52  and  O7_54 
ROOT
HETATM    1  C17 UNL     1     -16.466  10.063  16.606  1.00  0.00     0.013 A 
HETATM    2  C18 UNL     1     -16.126   9.883  17.971  1.00  0.00     0.053 A 
HETATM    3  N3  UNL     1     -15.030   9.268  18.531  1.00  0.00    -0.357 N 
HETATM    4  C19 UNL     1     -15.070   9.329  19.905  1.00  0.00     0.038 A 
HETATM    5  C20 UNL     1     -16.246   9.977  20.251  1.00  0.00    -0.020 A 
HETATM    6  C21 UNL     1     -16.710  10.271  21.640  1.00  0.00     0.072 C 
HETATM    7  C22 UNL     1     -16.737   9.036  22.555  1.00  0.00     0.277 C 
HETATM    8  N4  UNL     1     -15.506   8.248  22.705  1.00  0.00     0.096 N 
HETATM    9  C23 UNL     1     -15.615   6.889  22.148  1.00  0.00     0.277 C 
HETATM   10  C24 UNL     1     -14.220   6.396  21.710  1.00  0.00     0.016 C 
HETATM   11  C25 UNL     1     -13.231   6.633  22.861  1.00  0.00     0.015 C 
HETATM   12  C26 UNL     1     -13.106   8.150  23.115  1.00  0.00     0.049 C 
HETATM   13  C29 UNL     1     -14.230   8.897  22.316  1.00  0.00     0.253 C 
HETATM   14  C30 UNL     1     -13.946   8.751  20.766  1.00  0.00     0.122 C 
HETATM   15  C33 UNL     1     -13.776   7.218  20.482  1.00  0.00     0.035 C 
HETATM   16  C34 UNL     1     -16.908  10.331  19.031  1.00  0.00    -0.000 A 
HETATM   17  C35 UNL     1     -18.108  10.999  18.740  1.00  0.00     0.017 A 
HETATM   18  C36 UNL     1     -18.482  11.208  17.410  1.00  0.00     0.038 A 
HETATM   19  C37 UNL     1     -17.683  10.754  16.358  1.00  0.00     0.077 A 
HETATM   20  H19 UNL     1     -14.292   8.828  17.997  1.00  0.00     0.166 HD
ENDROOT
BRANCH   1  21
HETATM   21  C16 UNL     1     -15.596   9.560  15.439  1.00  0.00     0.075 C 
HETATM   22  C9  UNL     1     -15.663   8.051  15.304  1.00  0.00     0.025 A 
HETATM   23  C8  UNL     1     -14.712   7.039  15.241  1.00  0.00    -0.020 A 
HETATM   24  N2  UNL     1     -16.895   7.450  15.139  1.00  0.00    -0.358 N 
HETATM   25  C7  UNL     1     -13.233   7.176  15.418  1.00  0.00     0.079 C 
HETATM   26  C15 UNL     1     -15.400   5.821  14.943  1.00  0.00    -0.001 A 
HETATM   27  C6  UNL     1     -12.430   7.738  14.213  1.00  0.00     0.248 C 
HETATM   28  N1  UNL     1     -11.062   8.185  14.623  1.00  0.00     0.094 N 
HETATM   29  C41 UNL     1     -13.072   8.904  13.385  1.00  0.00     0.107 C 
HETATM   30  C4  UNL     1     -11.051   9.416  15.432  1.00  0.00     0.306 C 
HETATM   31  C5  UNL     1     -10.268   7.133  15.252  1.00  0.00     0.310 C 
HETATM   32  C3  UNL     1     -11.844  10.550  14.795  1.00  0.00    -0.051 C 
HETATM   33  C2  UNL     1     -11.399  11.810  14.622  1.00  0.00    -0.026 C 
HETATM   34  C40 UNL     1     -13.249  10.160  14.298  1.00  0.00     0.039 C 
HETATM   35  C1  UNL     1     -10.077  12.389  15.014  1.00  0.00     0.036 C 
HETATM   36  C39 UNL     1     -14.174  10.132  15.557  1.00  0.00     0.026 C 
HETATM   37  C10 UNL     1     -16.765   6.108  14.903  1.00  0.00     0.043 A 
HETATM   38  C14 UNL     1     -14.979   4.498  14.693  1.00  0.00     0.014 A 
HETATM   39  C11 UNL     1     -17.738   5.134  14.639  1.00  0.00     0.030 A 
HETATM   40  C12 UNL     1     -17.297   3.830  14.393  1.00  0.00     0.002 A 
HETATM   41  C13 UNL     1     -15.936   3.514  14.411  1.00  0.00     0.001 A 
HETATM   42  H13 UNL     1     -17.776   7.951  15.129  1.00  0.00     0.166 HD
BRANCH  29  43
HETATM   43  C42 UNL     1     -12.115   9.221  12.167  1.00  0.00     0.186 C 
BRANCH  43  44
HETATM   44  O5  UNL     1     -12.574  10.298  11.351  1.00  0.00    -0.399 OA
HETATM   45  H51 UNL     1     -12.398  11.119  11.838  1.00  0.00     0.209 HD
ENDBRANCH  43  44
ENDBRANCH  29  43
BRANCH  29  46
HETATM   46  C43 UNL     1     -14.351   8.530  12.623  1.00  0.00     0.272 C 
HETATM   47  O6  UNL     1     -14.628   7.398  12.241  1.00  0.00    -0.264 OA
BRANCH  46  48
HETATM   48  O7  UNL     1     -15.192   9.605  12.486  1.00  0.00    -0.326 OA
HETATM   49  C44 UNL     1     -16.350   9.342  11.697  1.00  0.00     0.213 C 
ENDBRANCH  46  48
ENDBRANCH  29  46
ENDBRANCH   1  21
BRANCH  19  50
HETATM   50  O4  UNL     1     -17.998  10.944  15.035  1.00  0.00    -0.355 OA
HETATM   51  C38 UNL     1     -19.152  10.295  14.517  1.00  0.00     0.210 C 
ENDBRANCH  19  50
BRANCH  14  52
HETATM   52  C31 UNL     1     -12.665   9.514  20.348  1.00  0.00     0.275 C 
HETATM   53  O2  UNL     1     -12.634  10.346  19.445  1.00  0.00    -0.264 OA
BRANCH  52  54
HETATM   54  O3  UNL     1     -11.603   9.203  21.145  1.00  0.00    -0.326 OA
HETATM   55  C32 UNL     1     -10.807  10.322  21.543  1.00  0.00     0.213 C 
ENDBRANCH  52  54
ENDBRANCH  14  52
BRANCH  12  56
HETATM   56  C27 UNL     1     -12.986   8.489  24.617  1.00  0.00     0.120 C 
HETATM   57  C28 UNL     1     -11.606   8.859  25.139  1.00  0.00     0.040 C 
BRANCH  56  58
HETATM   58  O1  UNL     1     -13.482   7.390  25.391  1.00  0.00    -0.396 OA
HETATM   59  H34 UNL     1     -12.835   6.673  25.338  1.00  0.00     0.210 HD
ENDBRANCH  56  58
ENDBRANCH  12  56
TORSDOF 10
ENDMDL
MODEL 9
REMARK minimizedAffinity -7.11020279
REMARK CNNscore 0.0804643705
REMARK CNNaffinity 4.9353776
REMARK  10 active torsions:
REMARK  status: ('A' for Active; 'I' for Inactive)
REMARK    1  A    between atoms: C16_18  and  C17_19 
REMARK    2  A    between atoms: C26_30  and  C27_31 
REMARK    3  A    between atoms: C27_31  and  O1_33 
REMARK    4  A    between atoms: C30_35  and  C31_36 
REMARK    5  A    between atoms: C31_36  and  O3_38 
REMARK    6  A    between atoms: C37_44  and  O4_45 
REMARK    7  A    between atoms: C41_49  and  C42_50 
REMARK    8  A    between atoms: C41_49  and  C43_52 
REMARK    9  A    between atoms: C42_50  and  O5_51 
REMARK   10  A    between atoms: C43_52  and  O7_54 
ROOT
HETATM    1  C17 UNL     1       6.003  11.793  20.451  1.00  0.00     0.013 A 
HETATM    2  C18 UNL     1       4.703  11.507  19.965  1.00  0.00     0.053 A 
HETATM    3  N3  UNL     1       4.256  11.375  18.670  1.00  0.00    -0.357 N 
HETATM    4  C19 UNL     1       2.914  11.071  18.633  1.00  0.00     0.038 A 
HETATM    5  C20 UNL     1       2.467  11.036  19.944  1.00  0.00    -0.020 A 
HETATM    6  C21 UNL     1       1.071  10.741  20.387  1.00  0.00     0.072 C 
HETATM    7  C22 UNL     1       0.010  11.618  19.705  1.00  0.00     0.277 C 
HETATM    8  N4  UNL     1      -0.037  11.647  18.236  1.00  0.00     0.096 N 
HETATM    9  C23 UNL     1       0.310  12.962  17.671  1.00  0.00     0.277 C 
HETATM   10  C24 UNL     1       0.905  12.777  16.258  1.00  0.00     0.016 C 
HETATM   11  C25 UNL     1      -0.025  11.859  15.450  1.00  0.00     0.015 C 
HETATM   12  C26 UNL     1      -0.052  10.463  16.107  1.00  0.00     0.049 C 
HETATM   13  C29 UNL     1       0.641  10.544  17.511  1.00  0.00     0.253 C 
HETATM   14  C30 UNL     1       2.183  10.835  17.311  1.00  0.00     0.122 C 
HETATM   15  C33 UNL     1       2.287  12.105  16.396  1.00  0.00     0.035 C 
HETATM   16  C34 UNL     1       3.596  11.304  20.784  1.00  0.00    -0.000 A 
HETATM   17  C35 UNL     1       3.769  11.390  22.174  1.00  0.00     0.017 A 
HETATM   18  C36 UNL     1       5.035  11.661  22.702  1.00  0.00     0.038 A 
HETATM   19  C37 UNL     1       6.135  11.859  21.865  1.00  0.00     0.077 A 
HETATM   20  H19 UNL     1       4.843  11.489  17.854  1.00  0.00     0.166 HD
ENDROOT
BRANCH   1  21
HETATM   21  C16 UNL     1       7.222  12.020  19.537  1.00  0.00     0.075 C 
HETATM   22  C9  UNL     1       7.371  13.481  19.160  1.00  0.00     0.025 A 
HETATM   23  C8  UNL     1       7.498  14.165  17.956  1.00  0.00    -0.020 A 
HETATM   24  N2  UNL     1       7.476  14.422  20.164  1.00  0.00    -0.358 N 
HETATM   25  C7  UNL     1       7.400  13.594  16.577  1.00  0.00     0.079 C 
HETATM   26  C15 UNL     1       7.772  15.534  18.266  1.00  0.00    -0.001 A 
HETATM   27  C6  UNL     1       8.640  12.824  16.045  1.00  0.00     0.248 C 
HETATM   28  N1  UNL     1       8.300  11.987  14.852  1.00  0.00     0.094 N 
HETATM   29  C41 UNL     1       9.418  11.905  17.050  1.00  0.00     0.107 C 
HETATM   30  C4  UNL     1       7.478  10.806  15.163  1.00  0.00     0.306 C 
HETATM   31  C5  UNL     1       7.728  12.752  13.747  1.00  0.00     0.310 C 
HETATM   32  C3  UNL     1       8.057   9.962  16.291  1.00  0.00    -0.051 C 
HETATM   33  C2  UNL     1       8.239   8.627  16.251  1.00  0.00    -0.026 C 
HETATM   34  C40 UNL     1       8.482  10.755  17.541  1.00  0.00     0.039 C 
HETATM   35  C1  UNL     1       7.913   7.679  15.141  1.00  0.00     0.036 C 
HETATM   36  C39 UNL     1       7.175  11.050  18.345  1.00  0.00     0.026 C 
HETATM   37  C10 UNL     1       7.734  15.666  19.654  1.00  0.00     0.043 A 
HETATM   38  C14 UNL     1       8.061  16.672  17.486  1.00  0.00     0.014 A 
HETATM   39  C11 UNL     1       7.958  16.886  20.307  1.00  0.00     0.030 A 
HETATM   40  C12 UNL     1       8.243  18.001  19.512  1.00  0.00     0.002 A 
HETATM   41  C13 UNL     1       8.302  17.898  18.121  1.00  0.00     0.001 A 
HETATM   42  H13 UNL     1       7.433  14.205  21.153  1.00  0.00     0.166 HD
BRANCH  29  43
HETATM   43  C42 UNL     1      10.683  11.324  16.299  1.00  0.00     0.186 C 
BRANCH  43  44
HETATM   44  O5  UNL     1      11.795  11.089  17.162  1.00  0.00    -0.399 OA
HETATM   45  H51 UNL     1      11.596  10.285  17.669  1.00  0.00     0.209 HD
ENDBRANCH  43  44
ENDBRANCH  29  43
BRANCH  29  46
HETATM   46  C43 UNL     1      10.114  12.646  18.200  1.00  0.00     0.272 C 
HETATM   47  O6  UNL     1      10.521  13.802  18.139  1.00  0.00    -0.264 OA
BRANCH  46  48
HETATM   48  O7  UNL     1      10.158  11.885  19.340  1.00  0.00    -0.326 OA
HETATM   49  C44 UNL     1      10.942  12.450  20.388  1.00  0.00     0.213 C 
ENDBRANCH  46  48
ENDBRANCH  29  46
ENDBRANCH   1  21
BRANCH  19  50
HETATM   50  O4  UNL     1       7.401  12.116  22.331  1.00  0.00    -0.355 OA
HETATM   51  C38 UNL     1       7.559  13.100  23.344  1.00  0.00     0.210 C 
ENDBRANCH  19  50
BRANCH  14  52
HETATM   52  C31 UNL     1       2.905   9.639  16.642  1.00  0.00     0.275 C 
HETATM   53  O2  UNL     1       3.924   9.753  15.966  1.00  0.00    -0.264 OA
BRANCH  52  54
HETATM   54  O3  UNL     1       2.316   8.449  16.953  1.00  0.00    -0.326 OA
HETATM   55  C32 UNL     1       2.294   7.496  15.886  1.00  0.00     0.213 C 
ENDBRANCH  52  54
ENDBRANCH  14  52
BRANCH  12  56
HETATM   56  C27 UNL     1      -1.455   9.820  16.067  1.00  0.00     0.120 C 
HETATM   57  C28 UNL     1      -1.530   8.305  16.195  1.00  0.00     0.040 C 
BRANCH  56  58
HETATM   58  O1  UNL     1      -2.117  10.203  14.855  1.00  0.00    -0.396 OA
HETATM   59  H34 UNL     1      -1.701   9.724  14.124  1.00  0.00     0.210 HD
ENDBRANCH  56  58
ENDBRANCH  12  56
TORSDOF 10
ENDMDL
