MODEL 1
REMARK minimizedAffinity -8.81915379
REMARK  9 active torsions:
REMARK  status: ('A' for Active; 'I' for Inactive)
REMARK    1  A    between atoms: C12_14  and  C13_15 
REMARK    2  A    between atoms: C13_15  and  C15_17 
REMARK    3  A    between atoms: C15_17  and  C16_18 
REMARK    4  A    between atoms: C16_18  and  C17_19 
REMARK    5  A    between atoms: C18_20  and  C20_22 
REMARK    6  A    between atoms: C26_29  and  C27_30 
REMARK    7  A    between atoms: C27_30  and  C28_31 
REMARK    8  A    between atoms: C28_31  and  C29_32 
REMARK    9  A    between atoms: C29_32  and  O5_34 
ROOT
HETATM    1  C1  UNL     1       5.372   8.176  10.328  1.00  0.00     0.025 C 
HETATM    2  C2  UNL     1       4.838   8.193  11.556  1.00  0.00     0.015 C 
HETATM    3  C3  UNL     1       5.370   9.074  12.617  1.00  0.00     0.289 C 
HETATM    4  O1  UNL     1       6.372   9.763  12.552  1.00  0.00    -0.260 OA
HETATM    5  O2  UNL     1       4.554   8.968  13.697  1.00  0.00    -0.311 OA
HETATM    6  C4  UNL     1       3.367   8.220  13.365  1.00  0.00     0.142 C 
HETATM    7  C5  UNL     1       2.212   9.205  13.238  1.00  0.00     0.039 C 
HETATM    8  C6  UNL     1       0.899   8.625  12.689  1.00  0.00     0.006 C 
HETATM    9  C7  UNL     1       1.105   7.686  11.476  1.00  0.00    -0.027 A 
HETATM   10  C8  UNL     1      -0.184   7.018  10.955  1.00  0.00     0.011 C 
HETATM   11  C9  UNL     1      -1.162   6.522  12.032  1.00  0.00     0.011 C 
HETATM   12  C10 UNL     1      -1.434   7.606  13.086  1.00  0.00    -0.032 C 
HETATM   13  C11 UNL     1      -2.124   8.808  12.380  1.00  0.00     0.016 C 
HETATM   14  C12 UNL     1      -2.279   7.196  14.338  1.00  0.00    -0.002 C 
HETATM   15  C21 UNL     1      -1.761   8.161  15.449  1.00  0.00     0.006 C 
HETATM   16  C22 UNL     1      -0.489   8.842  14.912  1.00  0.00     0.011 C 
HETATM   17  C23 UNL     1      -0.034   7.952  13.745  1.00  0.00    -0.032 C 
HETATM   18  C24 UNL     1       0.688   6.717  14.374  1.00  0.00     0.016 C 
HETATM   19  C25 UNL     1       1.964   8.216  10.353  1.00  0.00     0.022 A 
HETATM   20  C26 UNL     1       2.516   7.079  11.197  1.00  0.00    -0.021 A 
HETATM   21  C30 UNL     1       3.698   7.410  12.120  1.00  0.00     0.063 C 
ENDROOT
BRANCH  14  22
HETATM   22  C13 UNL     1      -3.832   7.047  14.325  1.00  0.00    -0.014 C 
HETATM   23  C14 UNL     1      -4.608   7.899  13.309  1.00  0.00     0.010 C 
BRANCH  22  24
HETATM   24  C15 UNL     1      -4.339   5.590  14.227  1.00  0.00     0.008 C 
BRANCH  24  25
HETATM   25  C16 UNL     1      -4.619   5.119  12.797  1.00  0.00     0.028 C 
BRANCH  25  26
HETATM   26  C17 UNL     1      -5.814   4.204  12.757  1.00  0.00    -0.017 C 
HETATM   27  C18 UNL     1      -7.108   4.560  12.862  1.00  0.00    -0.028 C 
HETATM   28  C19 UNL     1      -7.663   5.943  13.004  1.00  0.00     0.051 C 
BRANCH  27  29
HETATM   29  C20 UNL     1      -8.118   3.463  12.814  1.00  0.00     0.265 C 
HETATM   30  O3  UNL     1      -7.885   2.332  13.221  1.00  0.00    -0.302 OA
ENDBRANCH  27  29
ENDBRANCH  25  26
ENDBRANCH  24  25
ENDBRANCH  22  24
ENDBRANCH  14  22
BRANCH  20  31
HETATM   31  C27 UNL     1       2.594   5.652  10.631  1.00  0.00     0.021 C 
BRANCH  31  32
HETATM   32  C28 UNL     1       3.419   5.490   9.360  1.00  0.00     0.111 C 
BRANCH  32  33
HETATM   33  C29 UNL     1       3.744   4.043   9.137  1.00  0.00     0.139 C 
HETATM   34  O4  UNL     1       4.490   3.595   8.285  1.00  0.00    -0.650 OA
BRANCH  33  35
HETATM   35  O5  UNL     1       3.136   3.228  10.021  1.00  0.00    -0.776 OA
HETATM   36  H41 UNL     1       3.435   2.330   9.763  1.00  0.00     0.167 HD
ENDBRANCH  33  35
ENDBRANCH  32  33
ENDBRANCH  31  32
ENDBRANCH  20  31
TORSDOF 9
ENDMDL
MODEL 2
REMARK minimizedAffinity -8.59973431
REMARK  9 active torsions:
REMARK  status: ('A' for Active; 'I' for Inactive)
REMARK    1  A    between atoms: C12_14  and  C13_15 
REMARK    2  A    between atoms: C13_15  and  C15_17 
REMARK    3  A    between atoms: C15_17  and  C16_18 
REMARK    4  A    between atoms: C16_18  and  C17_19 
REMARK    5  A    between atoms: C18_20  and  C20_22 
REMARK    6  A    between atoms: C26_29  and  C27_30 
REMARK    7  A    between atoms: C27_30  and  C28_31 
REMARK    8  A    between atoms: C28_31  and  C29_32 
REMARK    9  A    between atoms: C29_32  and  O5_34 
ROOT
HETATM    1  C1  UNL     1       3.422   6.159   9.645  1.00  0.00     0.025 C 
HETATM    2  C2  UNL     1       3.187   6.697  10.849  1.00  0.00     0.015 C 
HETATM    3  C3  UNL     1       3.958   7.860  11.338  1.00  0.00     0.289 C 
HETATM    4  O1  UNL     1       4.923   8.368  10.798  1.00  0.00    -0.260 OA
HETATM    5  O2  UNL     1       3.413   8.255  12.517  1.00  0.00    -0.311 OA
HETATM    6  C4  UNL     1       2.175   7.560  12.764  1.00  0.00     0.142 C 
HETATM    7  C5  UNL     1       1.031   8.530  12.504  1.00  0.00     0.039 C 
HETATM    8  C6  UNL     1      -0.378   7.918  12.517  1.00  0.00     0.006 C 
HETATM    9  C7  UNL     1      -0.468   6.572  11.759  1.00  0.00    -0.027 A 
HETATM   10  C8  UNL     1      -1.847   5.886  11.827  1.00  0.00     0.011 C 
HETATM   11  C9  UNL     1      -2.554   5.940  13.191  1.00  0.00     0.011 C 
HETATM   12  C10 UNL     1      -2.565   7.365  13.762  1.00  0.00    -0.032 C 
HETATM   13  C11 UNL     1      -3.389   8.268  12.801  1.00  0.00     0.016 C 
HETATM   14  C12 UNL     1      -3.100   7.551  15.222  1.00  0.00    -0.002 C 
HETATM   15  C21 UNL     1      -2.331   8.811  15.726  1.00  0.00     0.006 C 
HETATM   16  C22 UNL     1      -1.212   9.105  14.710  1.00  0.00     0.011 C 
HETATM   17  C23 UNL     1      -1.048   7.796  13.922  1.00  0.00    -0.032 C 
HETATM   18  C24 UNL     1      -0.211   6.830  14.821  1.00  0.00     0.016 C 
HETATM   19  C25 UNL     1       0.113   6.544  10.365  1.00  0.00     0.022 A 
HETATM   20  C26 UNL     1       0.835   5.767  11.453  1.00  0.00    -0.021 A 
HETATM   21  C30 UNL     1       2.202   6.306  11.901  1.00  0.00     0.063 C 
ENDROOT
BRANCH  14  22
HETATM   22  C13 UNL     1      -4.616   7.563  15.594  1.00  0.00    -0.014 C 
HETATM   23  C14 UNL     1      -5.474   8.688  14.996  1.00  0.00     0.010 C 
BRANCH  22  24
HETATM   24  C15 UNL     1      -5.346   6.220  15.367  1.00  0.00     0.008 C 
BRANCH  24  25
HETATM   25  C16 UNL     1      -6.312   6.225  14.179  1.00  0.00     0.028 C 
BRANCH  25  26
HETATM   26  C17 UNL     1      -5.860   5.262  13.114  1.00  0.00    -0.017 C 
HETATM   27  C18 UNL     1      -6.330   4.020  12.895  1.00  0.00    -0.028 C 
HETATM   28  C19 UNL     1      -7.430   3.321  13.631  1.00  0.00     0.051 C 
BRANCH  27  29
HETATM   29  C20 UNL     1      -5.704   3.245  11.785  1.00  0.00     0.265 C 
HETATM   30  O3  UNL     1      -4.511   3.317  11.518  1.00  0.00    -0.302 OA
ENDBRANCH  27  29
ENDBRANCH  25  26
ENDBRANCH  24  25
ENDBRANCH  22  24
ENDBRANCH  14  22
BRANCH  20  31
HETATM   31  C27 UNL     1       0.767   4.232  11.494  1.00  0.00     0.021 C 
BRANCH  31  32
HETATM   32  C28 UNL     1      -0.574   3.642  11.912  1.00  0.00     0.111 C 
BRANCH  32  33
HETATM   33  C29 UNL     1      -0.854   2.393  11.129  1.00  0.00     0.139 C 
HETATM   34  O4  UNL     1      -0.297   1.318  11.266  1.00  0.00    -0.650 OA
BRANCH  33  35
HETATM   35  O5  UNL     1      -1.845   2.550  10.232  1.00  0.00    -0.776 OA
HETATM   36  H41 UNL     1      -1.921   1.671   9.803  1.00  0.00     0.167 HD
ENDBRANCH  33  35
ENDBRANCH  32  33
ENDBRANCH  31  32
ENDBRANCH  20  31
TORSDOF 9
ENDMDL
MODEL 3
REMARK minimizedAffinity -8.5632658
REMARK  9 active torsions:
REMARK  status: ('A' for Active; 'I' for Inactive)
REMARK    1  A    between atoms: C12_14  and  C13_15 
REMARK    2  A    between atoms: C13_15  and  C15_17 
REMARK    3  A    between atoms: C15_17  and  C16_18 
REMARK    4  A    between atoms: C16_18  and  C17_19 
REMARK    5  A    between atoms: C18_20  and  C20_22 
REMARK    6  A    between atoms: C26_29  and  C27_30 
REMARK    7  A    between atoms: C27_30  and  C28_31 
REMARK    8  A    between atoms: C28_31  and  C29_32 
REMARK    9  A    between atoms: C29_32  and  O5_34 
ROOT
HETATM    1  C1  UNL     1      -5.826   5.617  14.128  1.00  0.00     0.025 C 
HETATM    2  C2  UNL     1      -5.143   6.714  13.778  1.00  0.00     0.015 C 
HETATM    3  C3  UNL     1      -5.609   8.067  14.150  1.00  0.00     0.289 C 
HETATM    4  O1  UNL     1      -6.667   8.346  14.683  1.00  0.00    -0.260 OA
HETATM    5  O2  UNL     1      -4.654   8.955  13.774  1.00  0.00    -0.311 OA
HETATM    6  C4  UNL     1      -3.459   8.270  13.352  1.00  0.00     0.142 C 
HETATM    7  C5  UNL     1      -2.421   8.412  14.457  1.00  0.00     0.039 C 
HETATM    8  C6  UNL     1      -1.144   7.575  14.283  1.00  0.00     0.006 C 
HETATM    9  C7  UNL     1      -1.420   6.126  13.816  1.00  0.00    -0.027 A 
HETATM   10  C8  UNL     1      -0.156   5.285  13.547  1.00  0.00     0.011 C 
HETATM   11  C9  UNL     1       0.993   6.015  12.832  1.00  0.00     0.011 C 
HETATM   12  C10 UNL     1       1.301   7.364  13.498  1.00  0.00    -0.032 C 
HETATM   13  C11 UNL     1       1.786   7.089  14.949  1.00  0.00     0.016 C 
HETATM   14  C12 UNL     1       2.333   8.299  12.783  1.00  0.00    -0.002 C 
HETATM   15  C21 UNL     1       1.880   9.728  13.217  1.00  0.00     0.006 C 
HETATM   16  C22 UNL     1       0.494   9.591  13.875  1.00  0.00     0.011 C 
HETATM   17  C23 UNL     1      -0.027   8.224  13.406  1.00  0.00    -0.032 C 
HETATM   18  C24 UNL     1      -0.551   8.418  11.946  1.00  0.00     0.016 C 
HETATM   19  C25 UNL     1      -2.460   5.355  14.595  1.00  0.00     0.022 A 
HETATM   20  C26 UNL     1      -2.797   5.769  13.172  1.00  0.00    -0.021 A 
HETATM   21  C30 UNL     1      -3.875   6.849  12.999  1.00  0.00     0.063 C 
ENDROOT
BRANCH  14  22
HETATM   22  C13 UNL     1       3.879   8.096  12.849  1.00  0.00    -0.014 C 
HETATM   23  C14 UNL     1       4.521   8.060  14.244  1.00  0.00     0.010 C 
BRANCH  22  24
HETATM   24  C15 UNL     1       4.404   6.889  12.040  1.00  0.00     0.008 C 
BRANCH  24  25
HETATM   25  C16 UNL     1       5.166   7.270  10.767  1.00  0.00     0.028 C 
BRANCH  25  26
HETATM   26  C17 UNL     1       4.266   7.987   9.797  1.00  0.00    -0.017 C 
HETATM   27  C18 UNL     1       3.329   7.434   9.005  1.00  0.00    -0.028 C 
HETATM   28  C19 UNL     1       2.938   5.990   8.928  1.00  0.00     0.051 C 
BRANCH  27  29
HETATM   29  C20 UNL     1       2.573   8.353   8.106  1.00  0.00     0.265 C 
HETATM   30  O3  UNL     1       3.117   9.234   7.451  1.00  0.00    -0.302 OA
ENDBRANCH  27  29
ENDBRANCH  25  26
ENDBRANCH  24  25
ENDBRANCH  22  24
ENDBRANCH  14  22
BRANCH  20  31
HETATM   31  C27 UNL     1      -2.821   4.729  12.040  1.00  0.00     0.021 C 
BRANCH  31  32
HETATM   32  C28 UNL     1      -3.208   3.314  12.451  1.00  0.00     0.111 C 
BRANCH  32  33
HETATM   33  C29 UNL     1      -4.199   2.746  11.479  1.00  0.00     0.139 C 
HETATM   34  O4  UNL     1      -4.982   3.382  10.796  1.00  0.00    -0.650 OA
BRANCH  33  35
HETATM   35  O5  UNL     1      -4.134   1.404  11.390  1.00  0.00    -0.776 OA
HETATM   36  H41 UNL     1      -4.822   1.175  10.729  1.00  0.00     0.167 HD
ENDBRANCH  33  35
ENDBRANCH  32  33
ENDBRANCH  31  32
ENDBRANCH  20  31
TORSDOF 9
ENDMDL
MODEL 4
REMARK minimizedAffinity -8.52110481
REMARK  9 active torsions:
REMARK  status: ('A' for Active; 'I' for Inactive)
REMARK    1  A    between atoms: C12_14  and  C13_15 
REMARK    2  A    between atoms: C13_15  and  C15_17 
REMARK    3  A    between atoms: C15_17  and  C16_18 
REMARK    4  A    between atoms: C16_18  and  C17_19 
REMARK    5  A    between atoms: C18_20  and  C20_22 
REMARK    6  A    between atoms: C26_29  and  C27_30 
REMARK    7  A    between atoms: C27_30  and  C28_31 
REMARK    8  A    between atoms: C28_31  and  C29_32 
REMARK    9  A    between atoms: C29_32  and  O5_34 
ROOT
HETATM    1  C1  UNL     1      -6.925   6.140  13.936  1.00  0.00     0.025 C 
HETATM    2  C2  UNL     1      -5.834   5.383  13.760  1.00  0.00     0.015 C 
HETATM    3  C3  UNL     1      -5.906   4.073  13.079  1.00  0.00     0.289 C 
HETATM    4  O1  UNL     1      -6.917   3.496  12.722  1.00  0.00    -0.260 OA
HETATM    5  O2  UNL     1      -4.638   3.607  12.936  1.00  0.00    -0.311 OA
HETATM    6  C4  UNL     1      -3.680   4.622  13.293  1.00  0.00     0.142 C 
HETATM    7  C5  UNL     1      -3.071   5.167  12.008  1.00  0.00     0.039 C 
HETATM    8  C6  UNL     1      -2.172   6.402  12.167  1.00  0.00     0.006 C 
HETATM    9  C7  UNL     1      -2.760   7.467  13.124  1.00  0.00    -0.027 A 
HETATM   10  C8  UNL     1      -1.843   8.681  13.376  1.00  0.00     0.011 C 
HETATM   11  C9  UNL     1      -0.349   8.365  13.556  1.00  0.00     0.011 C 
HETATM   12  C10 UNL     1       0.168   7.445  12.440  1.00  0.00    -0.032 C 
HETATM   13  C11 UNL     1       0.035   8.199  11.087  1.00  0.00     0.016 C 
HETATM   14  C12 UNL     1       1.629   6.898  12.579  1.00  0.00    -0.002 C 
HETATM   15  C21 UNL     1       1.575   5.540  11.813  1.00  0.00     0.006 C 
HETATM   16  C22 UNL     1       0.092   5.220  11.545  1.00  0.00     0.011 C 
HETATM   17  C23 UNL     1      -0.682   6.109  12.530  1.00  0.00    -0.032 C 
HETATM   18  C24 UNL     1      -0.608   5.409  13.925  1.00  0.00     0.016 C 
HETATM   19  C25 UNL     1      -4.192   7.879  12.876  1.00  0.00     0.022 A 
HETATM   20  C26 UNL     1      -3.889   7.070  14.126  1.00  0.00    -0.021 A 
HETATM   21  C30 UNL     1      -4.417   5.628  14.166  1.00  0.00     0.063 C 
ENDROOT
BRANCH  14  22
HETATM   22  C13 UNL     1       2.903   7.738  12.256  1.00  0.00    -0.014 C 
HETATM   23  C14 UNL     1       3.411   8.689  13.351  1.00  0.00     0.010 C 
BRANCH  22  24
HETATM   24  C15 UNL     1       4.101   6.916  11.731  1.00  0.00     0.008 C 
BRANCH  24  25
HETATM   25  C16 UNL     1       4.771   7.507  10.487  1.00  0.00     0.028 C 
BRANCH  25  26
HETATM   26  C17 UNL     1       3.745   8.046   9.528  1.00  0.00    -0.017 C 
HETATM   27  C18 UNL     1       2.998   7.336   8.662  1.00  0.00    -0.028 C 
HETATM   28  C19 UNL     1       2.986   5.851   8.474  1.00  0.00     0.051 C 
BRANCH  27  29
HETATM   29  C20 UNL     1       2.056   8.102   7.794  1.00  0.00     0.265 C 
HETATM   30  O3  UNL     1       1.191   8.840   8.247  1.00  0.00    -0.302 OA
ENDBRANCH  27  29
ENDBRANCH  25  26
ENDBRANCH  24  25
ENDBRANCH  22  24
ENDBRANCH  14  22
BRANCH  20  31
HETATM   31  C27 UNL     1      -3.900   7.737  15.511  1.00  0.00     0.021 C 
BRANCH  31  32
HETATM   32  C28 UNL     1      -4.796   8.962  15.647  1.00  0.00     0.111 C 
BRANCH  32  33
HETATM   33  C29 UNL     1      -4.053  10.071  16.332  1.00  0.00     0.139 C 
HETATM   34  O4  UNL     1      -4.056  11.246  16.009  1.00  0.00    -0.650 OA
BRANCH  33  35
HETATM   35  O5  UNL     1      -3.366   9.652  17.411  1.00  0.00    -0.776 OA
HETATM   36  H41 UNL     1      -2.941  10.466  17.754  1.00  0.00     0.167 HD
ENDBRANCH  33  35
ENDBRANCH  32  33
ENDBRANCH  31  32
ENDBRANCH  20  31
TORSDOF 9
ENDMDL
MODEL 5
REMARK minimizedAffinity -8.37518406
REMARK  9 active torsions:
REMARK  status: ('A' for Active; 'I' for Inactive)
REMARK    1  A    between atoms: C12_14  and  C13_15 
REMARK    2  A    between atoms: C13_15  and  C15_17 
REMARK    3  A    between atoms: C15_17  and  C16_18 
REMARK    4  A    between atoms: C16_18  and  C17_19 
REMARK    5  A    between atoms: C18_20  and  C20_22 
REMARK    6  A    between atoms: C26_29  and  C27_30 
REMARK    7  A    between atoms: C27_30  and  C28_31 
REMARK    8  A    between atoms: C28_31  and  C29_32 
REMARK    9  A    between atoms: C29_32  and  O5_34 
ROOT
HETATM    1  C1  UNL     1      -0.822   2.558  11.355  1.00  0.00     0.025 C 
HETATM    2  C2  UNL     1      -1.951   3.236  11.595  1.00  0.00     0.015 C 
HETATM    3  C3  UNL     1      -3.244   2.543  11.779  1.00  0.00     0.289 C 
HETATM    4  O1  UNL     1      -3.456   1.354  11.626  1.00  0.00    -0.260 OA
HETATM    5  O2  UNL     1      -4.169   3.471  12.133  1.00  0.00    -0.311 OA
HETATM    6  C4  UNL     1      -3.539   4.738  12.409  1.00  0.00     0.142 C 
HETATM    7  C5  UNL     1      -3.522   4.935  13.919  1.00  0.00     0.039 C 
HETATM    8  C6  UNL     1      -2.708   6.136  14.425  1.00  0.00     0.006 C 
HETATM    9  C7  UNL     1      -1.337   6.286  13.722  1.00  0.00    -0.027 A 
HETATM   10  C8  UNL     1      -0.532   7.531  14.144  1.00  0.00     0.011 C 
HETATM   11  C9  UNL     1      -1.344   8.825  14.319  1.00  0.00     0.011 C 
HETATM   12  C10 UNL     1      -2.588   8.593  15.190  1.00  0.00    -0.032 C 
HETATM   13  C11 UNL     1      -2.116   8.172  16.609  1.00  0.00     0.016 C 
HETATM   14  C12 UNL     1      -3.605   9.777  15.320  1.00  0.00    -0.002 C 
HETATM   15  C21 UNL     1      -4.964   9.053  15.570  1.00  0.00     0.006 C 
HETATM   16  C22 UNL     1      -4.750   7.556  15.278  1.00  0.00     0.011 C 
HETATM   17  C23 UNL     1      -3.463   7.503  14.441  1.00  0.00    -0.032 C 
HETATM   18  C24 UNL     1      -3.856   7.904  12.983  1.00  0.00     0.016 C 
HETATM   19  C25 UNL     1      -0.475   5.047  13.657  1.00  0.00     0.022 A 
HETATM   20  C26 UNL     1      -1.081   5.563  12.362  1.00  0.00    -0.021 A 
HETATM   21  C30 UNL     1      -2.182   4.707  11.720  1.00  0.00     0.063 C 
ENDROOT
BRANCH  14  22
HETATM   22  C13 UNL     1      -3.383  11.012  16.248  1.00  0.00    -0.014 C 
HETATM   23  C14 UNL     1      -4.334  12.205  16.065  1.00  0.00     0.010 C 
BRANCH  22  24
HETATM   24  C15 UNL     1      -3.304  10.679  17.755  1.00  0.00     0.008 C 
BRANCH  24  25
HETATM   25  C16 UNL     1      -2.196  11.424  18.505  1.00  0.00     0.028 C 
BRANCH  25  26
HETATM   26  C17 UNL     1      -0.840  11.058  17.963  1.00  0.00    -0.017 C 
HETATM   27  C18 UNL     1       0.288  10.868  18.673  1.00  0.00    -0.028 C 
HETATM   28  C19 UNL     1       0.452  10.941  20.159  1.00  0.00     0.051 C 
BRANCH  27  29
HETATM   29  C20 UNL     1       1.521  10.529  17.905  1.00  0.00     0.265 C 
HETATM   30  O3  UNL     1       2.396   9.795  18.349  1.00  0.00    -0.302 OA
ENDBRANCH  27  29
ENDBRANCH  25  26
ENDBRANCH  24  25
ENDBRANCH  22  24
ENDBRANCH  14  22
BRANCH  20  31
HETATM   31  C27 UNL     1      -0.204   6.272  11.317  1.00  0.00     0.021 C 
BRANCH  31  32
HETATM   32  C28 UNL     1       1.120   5.590  10.995  1.00  0.00     0.111 C 
BRANCH  32  33
HETATM   33  C29 UNL     1       1.725   6.196   9.763  1.00  0.00     0.139 C 
HETATM   34  O4  UNL     1       1.447   7.281   9.283  1.00  0.00    -0.650 OA
BRANCH  33  35
HETATM   35  O5  UNL     1       2.676   5.419   9.211  1.00  0.00    -0.776 OA
HETATM   36  H41 UNL     1       2.980   5.930   8.432  1.00  0.00     0.167 HD
ENDBRANCH  33  35
ENDBRANCH  32  33
ENDBRANCH  31  32
ENDBRANCH  20  31
TORSDOF 9
ENDMDL
MODEL 6
REMARK minimizedAffinity -8.35799503
REMARK  9 active torsions:
REMARK  status: ('A' for Active; 'I' for Inactive)
REMARK    1  A    between atoms: C12_14  and  C13_15 
REMARK    2  A    between atoms: C13_15  and  C15_17 
REMARK    3  A    between atoms: C15_17  and  C16_18 
REMARK    4  A    between atoms: C16_18  and  C17_19 
REMARK    5  A    between atoms: C18_20  and  C20_22 
REMARK    6  A    between atoms: C26_29  and  C27_30 
REMARK    7  A    between atoms: C27_30  and  C28_31 
REMARK    8  A    between atoms: C28_31  and  C29_32 
REMARK    9  A    between atoms: C29_32  and  O5_34 
ROOT
HETATM    1  C1  UNL     1      -5.904   5.855  14.314  1.00  0.00     0.025 C 
HETATM    2  C2  UNL     1      -5.157   6.848  13.815  1.00  0.00     0.015 C 
HETATM    3  C3  UNL     1      -5.467   8.265  14.100  1.00  0.00     0.289 C 
HETATM    4  O1  UNL     1      -6.446   8.689  14.686  1.00  0.00    -0.260 OA
HETATM    5  O2  UNL     1      -4.471   9.024  13.573  1.00  0.00    -0.311 OA
HETATM    6  C4  UNL     1      -3.383   8.194  13.122  1.00  0.00     0.142 C 
HETATM    7  C5  UNL     1      -2.246   8.324  14.125  1.00  0.00     0.039 C 
HETATM    8  C6  UNL     1      -1.069   7.356  13.928  1.00  0.00     0.006 C 
HETATM    9  C7  UNL     1      -1.514   5.907  13.616  1.00  0.00    -0.027 A 
HETATM   10  C8  UNL     1      -0.358   4.928  13.325  1.00  0.00     0.011 C 
HETATM   11  C9  UNL     1       0.786   5.483  12.461  1.00  0.00     0.011 C 
HETATM   12  C10 UNL     1       1.271   6.845  12.978  1.00  0.00    -0.032 C 
HETATM   13  C11 UNL     1       1.852   6.645  14.405  1.00  0.00     0.016 C 
HETATM   14  C12 UNL     1       2.317   7.615  12.103  1.00  0.00    -0.002 C 
HETATM   15  C21 UNL     1       2.034   9.111  12.442  1.00  0.00     0.006 C 
HETATM   16  C22 UNL     1       0.703   9.164  13.215  1.00  0.00     0.011 C 
HETATM   17  C23 UNL     1       0.022   7.820  12.912  1.00  0.00    -0.032 C 
HETATM   18  C24 UNL     1      -0.605   7.943  11.486  1.00  0.00     0.016 C 
HETATM   19  C25 UNL     1      -2.548   5.307  14.539  1.00  0.00     0.022 A 
HETATM   20  C26 UNL     1      -2.967   5.634  13.115  1.00  0.00    -0.021 A 
HETATM   21  C30 UNL     1      -3.954   6.796  12.931  1.00  0.00     0.063 C 
ENDROOT
BRANCH  14  22
HETATM   22  C13 UNL     1       3.839   7.268  12.067  1.00  0.00    -0.014 C 
HETATM   23  C14 UNL     1       4.455   6.965  10.692  1.00  0.00     0.010 C 
BRANCH  22  24
HETATM   24  C15 UNL     1       4.748   8.283  12.795  1.00  0.00     0.008 C 
BRANCH  24  25
HETATM   25  C16 UNL     1       6.201   7.825  12.950  1.00  0.00     0.028 C 
BRANCH  25  26
HETATM   26  C17 UNL     1       6.711   8.113  14.337  1.00  0.00    -0.017 C 
HETATM   27  C18 UNL     1       7.996   8.128  14.738  1.00  0.00    -0.028 C 
HETATM   28  C19 UNL     1       9.214   7.901  13.898  1.00  0.00     0.051 C 
BRANCH  27  29
HETATM   29  C20 UNL     1       8.252   8.422  16.178  1.00  0.00     0.265 C 
HETATM   30  O3  UNL     1       7.381   8.833  16.934  1.00  0.00    -0.302 OA
ENDBRANCH  27  29
ENDBRANCH  25  26
ENDBRANCH  24  25
ENDBRANCH  22  24
ENDBRANCH  14  22
BRANCH  20  31
HETATM   31  C27 UNL     1      -3.182   4.512  12.086  1.00  0.00     0.021 C 
BRANCH  31  32
HETATM   32  C28 UNL     1      -4.405   3.632  12.314  1.00  0.00     0.111 C 
BRANCH  32  33
HETATM   33  C29 UNL     1      -4.235   2.320  11.608  1.00  0.00     0.139 C 
HETATM   34  O4  UNL     1      -3.270   1.580  11.685  1.00  0.00    -0.650 OA
BRANCH  33  35
HETATM   35  O5  UNL     1      -5.304   1.986  10.861  1.00  0.00    -0.776 OA
HETATM   36  H41 UNL     1      -5.061   1.121  10.468  1.00  0.00     0.167 HD
ENDBRANCH  33  35
ENDBRANCH  32  33
ENDBRANCH  31  32
ENDBRANCH  20  31
TORSDOF 9
ENDMDL
MODEL 7
REMARK minimizedAffinity -8.3546257
REMARK  9 active torsions:
REMARK  status: ('A' for Active; 'I' for Inactive)
REMARK    1  A    between atoms: C12_14  and  C13_15 
REMARK    2  A    between atoms: C13_15  and  C15_17 
REMARK    3  A    between atoms: C15_17  and  C16_18 
REMARK    4  A    between atoms: C16_18  and  C17_19 
REMARK    5  A    between atoms: C18_20  and  C20_22 
REMARK    6  A    between atoms: C26_29  and  C27_30 
REMARK    7  A    between atoms: C27_30  and  C28_31 
REMARK    8  A    between atoms: C28_31  and  C29_32 
REMARK    9  A    between atoms: C29_32  and  O5_34 
ROOT
HETATM    1  C1  UNL     1      -7.150   5.820  13.515  1.00  0.00     0.025 C 
HETATM    2  C2  UNL     1      -5.990   5.152  13.479  1.00  0.00     0.015 C 
HETATM    3  C3  UNL     1      -5.871   3.848  12.792  1.00  0.00     0.289 C 
HETATM    4  O1  UNL     1      -6.780   3.199  12.308  1.00  0.00    -0.260 OA
HETATM    5  O2  UNL     1      -4.563   3.484  12.812  1.00  0.00    -0.311 OA
HETATM    6  C4  UNL     1      -3.740   4.566  13.290  1.00  0.00     0.142 C 
HETATM    7  C5  UNL     1      -3.017   5.171  12.094  1.00  0.00     0.039 C 
HETATM    8  C6  UNL     1      -2.246   6.470  12.368  1.00  0.00     0.006 C 
HETATM    9  C7  UNL     1      -3.032   7.476  13.244  1.00  0.00    -0.027 A 
HETATM   10  C8  UNL     1      -2.252   8.754  13.612  1.00  0.00     0.011 C 
HETATM   11  C9  UNL     1      -0.774   8.553  13.981  1.00  0.00     0.011 C 
HETATM   12  C10 UNL     1      -0.048   7.688  12.939  1.00  0.00    -0.032 C 
HETATM   13  C11 UNL     1      -0.066   8.445  11.581  1.00  0.00     0.016 C 
HETATM   14  C12 UNL     1       1.421   7.255  13.263  1.00  0.00    -0.002 C 
HETATM   15  C21 UNL     1       1.572   5.905  12.494  1.00  0.00     0.006 C 
HETATM   16  C22 UNL     1       0.165   5.475  12.039  1.00  0.00     0.011 C 
HETATM   17  C23 UNL     1      -0.795   6.290  12.918  1.00  0.00    -0.032 C 
HETATM   18  C24 UNL     1      -0.845   5.581  14.310  1.00  0.00     0.016 C 
HETATM   19  C25 UNL     1      -4.448   7.778  12.815  1.00  0.00     0.022 A 
HETATM   20  C26 UNL     1      -4.245   6.980  14.092  1.00  0.00    -0.021 A 
HETATM   21  C30 UNL     1      -4.659   5.502  14.062  1.00  0.00     0.063 C 
ENDROOT
BRANCH  14  22
HETATM   22  C13 UNL     1       2.657   8.195  13.106  1.00  0.00    -0.014 C 
HETATM   23  C14 UNL     1       3.363   8.643  14.395  1.00  0.00     0.010 C 
BRANCH  22  24
HETATM   24  C15 UNL     1       3.728   7.691  12.114  1.00  0.00     0.008 C 
BRANCH  24  25
HETATM   25  C16 UNL     1       3.636   8.316  10.719  1.00  0.00     0.028 C 
BRANCH  25  26
HETATM   26  C17 UNL     1       3.529   7.254   9.659  1.00  0.00    -0.017 C 
HETATM   27  C18 UNL     1       2.625   7.195   8.663  1.00  0.00    -0.028 C 
HETATM   28  C19 UNL     1       1.543   8.183   8.355  1.00  0.00     0.051 C 
BRANCH  27  29
HETATM   29  C20 UNL     1       2.708   6.024   7.742  1.00  0.00     0.265 C 
HETATM   30  O3  UNL     1       3.271   4.981   8.047  1.00  0.00    -0.302 OA
ENDBRANCH  27  29
ENDBRANCH  25  26
ENDBRANCH  24  25
ENDBRANCH  22  24
ENDBRANCH  14  22
BRANCH  20  31
HETATM   31  C27 UNL     1      -4.484   7.629  15.466  1.00  0.00     0.021 C 
BRANCH  31  32
HETATM   32  C28 UNL     1      -5.449   8.808  15.480  1.00  0.00     0.111 C 
BRANCH  32  33
HETATM   33  C29 UNL     1      -6.843   8.330  15.761  1.00  0.00     0.139 C 
HETATM   34  O4  UNL     1      -7.866   8.760  15.258  1.00  0.00    -0.650 OA
BRANCH  33  35
HETATM   35  O5  UNL     1      -6.879   7.312  16.640  1.00  0.00    -0.776 OA
HETATM   36  H41 UNL     1      -7.834   7.103  16.725  1.00  0.00     0.167 HD
ENDBRANCH  33  35
ENDBRANCH  32  33
ENDBRANCH  31  32
ENDBRANCH  20  31
TORSDOF 9
ENDMDL
MODEL 8
REMARK minimizedAffinity -8.31123161
REMARK  9 active torsions:
REMARK  status: ('A' for Active; 'I' for Inactive)
REMARK    1  A    between atoms: C12_14  and  C13_15 
REMARK    2  A    between atoms: C13_15  and  C15_17 
REMARK    3  A    between atoms: C15_17  and  C16_18 
REMARK    4  A    between atoms: C16_18  and  C17_19 
REMARK    5  A    between atoms: C18_20  and  C20_22 
REMARK    6  A    between atoms: C26_29  and  C27_30 
REMARK    7  A    between atoms: C27_30  and  C28_31 
REMARK    8  A    between atoms: C28_31  and  C29_32 
REMARK    9  A    between atoms: C29_32  and  O5_34 
ROOT
HETATM    1  C1  UNL     1      -7.097   5.141  13.109  1.00  0.00     0.025 C 
HETATM    2  C2  UNL     1      -5.861   4.626  13.137  1.00  0.00     0.015 C 
HETATM    3  C3  UNL     1      -5.499   3.441  12.330  1.00  0.00     0.289 C 
HETATM    4  O1  UNL     1      -6.259   2.753  11.673  1.00  0.00    -0.260 OA
HETATM    5  O2  UNL     1      -4.164   3.238  12.463  1.00  0.00    -0.311 OA
HETATM    6  C4  UNL     1      -3.546   4.343  13.151  1.00  0.00     0.142 C 
HETATM    7  C5  UNL     1      -2.791   5.174  12.122  1.00  0.00     0.039 C 
HETATM    8  C6  UNL     1      -2.232   6.513  12.627  1.00  0.00     0.006 C 
HETATM    9  C7  UNL     1      -3.231   7.300  13.509  1.00  0.00    -0.027 A 
HETATM   10  C8  UNL     1      -2.671   8.607  14.105  1.00  0.00     0.011 C 
HETATM   11  C9  UNL     1      -1.224   8.540  14.621  1.00  0.00     0.011 C 
HETATM   12  C10 UNL     1      -0.287   7.906  13.583  1.00  0.00    -0.032 C 
HETATM   13  C11 UNL     1      -0.266   8.817  12.324  1.00  0.00     0.016 C 
HETATM   14  C12 UNL     1       1.186   7.615  14.028  1.00  0.00    -0.002 C 
HETATM   15  C21 UNL     1       1.594   6.399  13.139  1.00  0.00     0.006 C 
HETATM   16  C22 UNL     1       0.311   5.863  12.476  1.00  0.00     0.011 C 
HETATM   17  C23 UNL     1      -0.835   6.441  13.320  1.00  0.00    -0.032 C 
HETATM   18  C24 UNL     1      -0.932   5.564  14.610  1.00  0.00     0.016 C 
HETATM   19  C25 UNL     1      -4.624   7.480  12.952  1.00  0.00     0.022 A 
HETATM   20  C26 UNL     1      -4.448   6.561  14.149  1.00  0.00    -0.021 A 
HETATM   21  C30 UNL     1      -4.656   5.058  13.908  1.00  0.00     0.063 C 
ENDROOT
BRANCH  14  22
HETATM   22  C13 UNL     1       2.295   8.709  14.122  1.00  0.00    -0.014 C 
HETATM   23  C14 UNL     1       3.197   8.686  15.366  1.00  0.00     0.010 C 
BRANCH  22  24
HETATM   24  C15 UNL     1       3.193   8.825  12.871  1.00  0.00     0.008 C 
BRANCH  24  25
HETATM   25  C16 UNL     1       3.021   7.682  11.867  1.00  0.00     0.028 C 
BRANCH  25  26
HETATM   26  C17 UNL     1       2.762   8.215  10.484  1.00  0.00    -0.017 C 
HETATM   27  C18 UNL     1       2.634   7.497   9.352  1.00  0.00    -0.028 C 
HETATM   28  C19 UNL     1       2.683   6.007   9.209  1.00  0.00     0.051 C 
BRANCH  27  29
HETATM   29  C20 UNL     1       2.400   8.257   8.090  1.00  0.00     0.265 C 
HETATM   30  O3  UNL     1       3.236   9.010   7.607  1.00  0.00    -0.302 OA
ENDBRANCH  27  29
ENDBRANCH  25  26
ENDBRANCH  24  25
ENDBRANCH  22  24
ENDBRANCH  14  22
BRANCH  20  31
HETATM   31  C27 UNL     1      -4.911   7.000  15.548  1.00  0.00     0.021 C 
BRANCH  31  32
HETATM   32  C28 UNL     1      -6.232   7.758  15.597  1.00  0.00     0.111 C 
BRANCH  32  33
HETATM   33  C29 UNL     1      -7.272   6.938  16.302  1.00  0.00     0.139 C 
HETATM   34  O4  UNL     1      -8.468   7.166  16.336  1.00  0.00    -0.650 OA
BRANCH  33  35
HETATM   35  O5  UNL     1      -6.758   5.850  16.906  1.00  0.00    -0.776 OA
HETATM   36  H41 UNL     1      -7.535   5.415  17.316  1.00  0.00     0.167 HD
ENDBRANCH  33  35
ENDBRANCH  32  33
ENDBRANCH  31  32
ENDBRANCH  20  31
TORSDOF 9
ENDMDL
MODEL 9
REMARK minimizedAffinity -8.23690128
REMARK  9 active torsions:
REMARK  status: ('A' for Active; 'I' for Inactive)
REMARK    1  A    between atoms: C12_14  and  C13_15 
REMARK    2  A    between atoms: C13_15  and  C15_17 
REMARK    3  A    between atoms: C15_17  and  C16_18 
REMARK    4  A    between atoms: C16_18  and  C17_19 
REMARK    5  A    between atoms: C18_20  and  C20_22 
REMARK    6  A    between atoms: C26_29  and  C27_30 
REMARK    7  A    between atoms: C27_30  and  C28_31 
REMARK    8  A    between atoms: C28_31  and  C29_32 
REMARK    9  A    between atoms: C29_32  and  O5_34 
ROOT
HETATM    1  C1  UNL     1      -7.251   3.850  14.049  1.00  0.00     0.025 C 
HETATM    2  C2  UNL     1      -6.922   5.148  14.043  1.00  0.00     0.015 C 
HETATM    3  C3  UNL     1      -7.664   6.136  14.855  1.00  0.00     0.289 C 
HETATM    4  O1  UNL     1      -8.678   5.931  15.496  1.00  0.00    -0.260 OA
HETATM    5  O2  UNL     1      -7.026   7.330  14.745  1.00  0.00    -0.311 OA
HETATM    6  C4  UNL     1      -5.762   7.171  14.071  1.00  0.00     0.142 C 
HETATM    7  C5  UNL     1      -4.657   7.264  15.114  1.00  0.00     0.039 C 
HETATM    8  C6  UNL     1      -3.244   6.917  14.622  1.00  0.00     0.006 C 
HETATM    9  C7  UNL     1      -3.202   5.657  13.723  1.00  0.00    -0.027 A 
HETATM   10  C8  UNL     1      -1.812   5.331  13.139  1.00  0.00     0.011 C 
HETATM   11  C9  UNL     1      -0.993   6.536  12.649  1.00  0.00     0.011 C 
HETATM   12  C10 UNL     1      -0.952   7.653  13.703  1.00  0.00    -0.032 C 
HETATM   13  C11 UNL     1      -0.225   7.106  14.963  1.00  0.00     0.016 C 
HETATM   14  C12 UNL     1      -0.298   9.012  13.284  1.00  0.00    -0.002 C 
HETATM   15  C21 UNL     1      -1.038  10.055  14.179  1.00  0.00     0.006 C 
HETATM   16  C22 UNL     1      -2.244   9.340  14.817  1.00  0.00     0.011 C 
HETATM   17  C23 UNL     1      -2.456   8.088  13.954  1.00  0.00    -0.032 C 
HETATM   18  C24 UNL     1      -3.201   8.552  12.660  1.00  0.00     0.016 C 
HETATM   19  C25 UNL     1      -3.898   4.427  14.255  1.00  0.00     0.022 A 
HETATM   20  C26 UNL     1      -4.514   5.135  13.059  1.00  0.00    -0.021 A 
HETATM   21  C30 UNL     1      -5.845   5.864  13.295  1.00  0.00     0.063 C 
ENDROOT
BRANCH  14  22
HETATM   22  C13 UNL     1       1.244   9.246  13.212  1.00  0.00    -0.014 C 
HETATM   23  C14 UNL     1       2.010   9.281  14.543  1.00  0.00     0.010 C 
BRANCH  22  24
HETATM   24  C15 UNL     1       1.993   8.303  12.243  1.00  0.00     0.008 C 
BRANCH  24  25
HETATM   25  C16 UNL     1       1.386   8.236  10.839  1.00  0.00     0.028 C 
BRANCH  25  26
HETATM   26  C17 UNL     1       1.950   7.075  10.065  1.00  0.00    -0.017 C 
HETATM   27  C18 UNL     1       2.483   7.111   8.829  1.00  0.00    -0.028 C 
HETATM   28  C19 UNL     1       2.672   8.310   7.953  1.00  0.00     0.051 C 
BRANCH  27  29
HETATM   29  C20 UNL     1       2.959   5.817   8.259  1.00  0.00     0.265 C 
HETATM   30  O3  UNL     1       2.595   5.401   7.167  1.00  0.00    -0.302 OA
ENDBRANCH  27  29
ENDBRANCH  25  26
ENDBRANCH  24  25
ENDBRANCH  22  24
ENDBRANCH  14  22
BRANCH  20  31
HETATM   31  C27 UNL     1      -4.423   4.519  11.653  1.00  0.00     0.021 C 
BRANCH  31  32
HETATM   32  C28 UNL     1      -5.384   3.370  11.372  1.00  0.00     0.111 C 
BRANCH  32  33
HETATM   33  C29 UNL     1      -4.660   2.060  11.457  1.00  0.00     0.139 C 
HETATM   34  O4  UNL     1      -3.508   1.896  11.820  1.00  0.00    -0.650 OA
BRANCH  33  35
HETATM   35  O5  UNL     1      -5.432   1.012  11.111  1.00  0.00    -0.776 OA
HETATM   36  H41 UNL     1      -4.841   0.236  11.215  1.00  0.00     0.167 HD
ENDBRANCH  33  35
ENDBRANCH  32  33
ENDBRANCH  31  32
ENDBRANCH  20  31
TORSDOF 9
ENDMDL
