MODEL 1
REMARK minimizedAffinity -8.08796406
REMARK CNNscore 0.597242057
REMARK CNNaffinity 7.1662426
REMARK  19 active torsions:
REMARK  status: ('A' for Active; 'I' for Inactive)
REMARK    1  A    between atoms: C3_3  and  C4_4 
REMARK    2  A    between atoms: C5_5  and  C6_6 
REMARK    3  A    between atoms: C7_8  and  O2_9 
REMARK    4  A    between atoms: C7_8  and  C8_10 
REMARK    5  A    between atoms: C8_10  and  C10_12 
REMARK       I    between atoms: C10_12  and  N1_14 
REMARK    6  A    between atoms: N1_14  and  C11_15 
REMARK    7  A    between atoms: C11_15  and  C12_16 
REMARK    8  A    between atoms: C13_17  and  C14_18 
REMARK    9  A    between atoms: C15_19  and  C17_21 
REMARK   10  A    between atoms: C17_21  and  O4_22 
REMARK   11  A    between atoms: C17_21  and  C19_24 
REMARK   12  A    between atoms: C19_24  and  C21_26 
REMARK   13  A    between atoms: C23_28  and  O5_29 
REMARK   14  A    between atoms: C24_30  and  C25_31 
REMARK   15  A    between atoms: C26_32  and  C27_33 
REMARK   16  A    between atoms: C28_34  and  C29_35 
REMARK   17  A    between atoms: C30_36  and  C31_37 
REMARK   18  A    between atoms: C31_37  and  O7_39 
REMARK   19  A    between atoms: C33_42  and  O9_43 
ROOT
HETATM    1  C12 UNL     1     -11.614   9.751  19.258  1.00  0.00    -0.007 C 
HETATM    2  C13 UNL     1     -10.910  10.002  18.143  1.00  0.00    -0.002 C 
ENDROOT
BRANCH   2   3
HETATM    3  C14 UNL     1     -11.183   9.353  16.882  1.00  0.00     0.005 C 
HETATM    4  C15 UNL     1     -10.633   9.636  15.684  1.00  0.00    -0.055 C 
HETATM    5  C16 UNL     1      -9.684  10.784  15.427  1.00  0.00     0.046 C 
BRANCH   4   6
HETATM    6  C17 UNL     1     -10.873   8.753  14.453  1.00  0.00     0.155 C 
BRANCH   6   7
HETATM    7  O4  UNL     1     -11.319   9.548  13.334  1.00  0.00    -0.386 OA
HETATM    8  C18 UNL     1     -12.625  10.080  13.529  1.00  0.00     0.202 C 
ENDBRANCH   6   7
BRANCH   6   9
HETATM    9  C19 UNL     1      -9.618   7.950  13.999  1.00  0.00     0.044 C 
HETATM   10  C20 UNL     1      -9.986   6.563  13.455  1.00  0.00     0.015 C 
BRANCH   9  11
HETATM   11  C21 UNL     1      -8.627   7.835  15.177  1.00  0.00     0.131 C 
HETATM   12  C22 UNL     1      -8.890   6.687  16.161  1.00  0.00     0.067 C 
HETATM   13  C23 UNL     1      -7.578   5.931  16.245  1.00  0.00     0.153 C 
HETATM   14  C24 UNL     1      -6.564   6.923  15.668  1.00  0.00     0.173 C 
HETATM   15  O8  UNL     1      -7.292   7.649  14.670  1.00  0.00    -0.374 OA
BRANCH  13  16
HETATM   16  O5  UNL     1      -7.720   4.740  15.463  1.00  0.00    -0.393 OA
HETATM   17  H35 UNL     1      -6.873   4.263  15.523  1.00  0.00     0.210 HD
ENDBRANCH  13  16
BRANCH  14  18
HETATM   18  C25 UNL     1      -5.356   6.321  15.013  1.00  0.00     0.007 C 
HETATM   19  C26 UNL     1      -5.394   5.525  13.932  1.00  0.00    -0.001 C 
BRANCH  19  20
HETATM   20  C27 UNL     1      -4.207   4.929  13.358  1.00  0.00    -0.000 C 
HETATM   21  C28 UNL     1      -3.259   5.645  12.732  1.00  0.00     0.000 C 
BRANCH  21  22
HETATM   22  C29 UNL     1      -2.084   5.036  12.147  1.00  0.00     0.007 C 
HETATM   23  C30 UNL     1      -2.032   3.980  11.321  1.00  0.00     0.081 C 
BRANCH  23  24
HETATM   24  C31 UNL     1      -3.169   3.194  10.821  1.00  0.00     0.165 C 
HETATM   25  O6  UNL     1      -3.837   2.366  11.406  1.00  0.00    -0.647 OA
BRANCH  24  26
HETATM   26  O7  UNL     1      -3.412   3.520   9.540  1.00  0.00    -0.773 OA
HETATM   27  H43 UNL     1      -4.169   2.949   9.295  1.00  0.00     0.167 HD
ENDBRANCH  24  26
ENDBRANCH  23  24
ENDBRANCH  21  22
ENDBRANCH  19  20
ENDBRANCH  14  18
ENDBRANCH   9  11
ENDBRANCH   6   9
ENDBRANCH   4   6
ENDBRANCH   2   3
BRANCH   1  28
HETATM   28  C11 UNL     1     -11.252  10.298  20.604  1.00  0.00     0.149 C 
BRANCH  28  29
HETATM   29  N1  UNL     1     -11.381   9.255  21.587  1.00  0.00    -0.357 N 
HETATM   30  C10 UNL     1     -11.564   9.519  22.921  1.00  0.00     0.227 C 
HETATM   31  O3  UNL     1     -11.591  10.659  23.377  1.00  0.00    -0.273 OA
HETATM   32  H14 UNL     1     -11.590   8.308  21.274  1.00  0.00     0.162 HD
BRANCH  30  33
HETATM   33  C8  UNL     1     -11.688   8.274  23.794  1.00  0.00     0.136 C 
HETATM   34  C9  UNL     1     -11.448   8.641  25.263  1.00  0.00     0.026 C 
BRANCH  33  35
HETATM   35  C7  UNL     1     -13.012   7.506  23.538  1.00  0.00     0.176 C 
HETATM   36  O1  UNL     1     -12.837   6.212  24.133  1.00  0.00    -0.344 OA
HETATM   37  C6  UNL     1     -14.056   5.502  24.343  1.00  0.00     0.158 C 
HETATM   38  C34 UNL     1     -14.846   6.156  25.517  1.00  0.00     0.008 C 
HETATM   39  C33 UNL     1     -14.665   7.704  25.455  1.00  0.00     0.134 C 
HETATM   40  C35 UNL     1     -16.328   5.735  25.417  1.00  0.00     0.020 C 
HETATM   41  C36 UNL     1     -14.327   5.697  26.901  1.00  0.00     0.020 C 
HETATM   42  C32 UNL     1     -14.282   8.202  24.064  1.00  0.00     0.101 C 
BRANCH  37  43
HETATM   43  C5  UNL     1     -13.668   4.061  24.539  1.00  0.00     0.006 C 
HETATM   44  C4  UNL     1     -12.476   3.537  24.210  1.00  0.00    -0.002 C 
BRANCH  44  45
HETATM   45  C3  UNL     1     -12.144   2.154  24.457  1.00  0.00    -0.005 C 
HETATM   46  C2  UNL     1     -12.153   1.529  25.644  1.00  0.00    -0.031 C 
HETATM   47  C1  UNL     1     -12.479   2.086  26.990  1.00  0.00     0.036 C 
ENDBRANCH  44  45
ENDBRANCH  37  43
BRANCH  39  48
HETATM   48  O9  UNL     1     -15.845   8.396  25.866  1.00  0.00    -0.395 OA
HETATM   49  H47 UNL     1     -15.968   8.233  26.818  1.00  0.00     0.210 HD
ENDBRANCH  39  48
BRANCH  35  50
HETATM   50  O2  UNL     1     -13.108   7.311  22.118  1.00  0.00    -0.364 OA
HETATM   51  H9  UNL     1     -14.027   7.067  21.917  1.00  0.00     0.213 HD
ENDBRANCH  35  50
ENDBRANCH  33  35
ENDBRANCH  30  33
ENDBRANCH  28  29
ENDBRANCH   1  28
TORSDOF 19
ENDMDL
MODEL 2
REMARK minimizedAffinity -8.22201729
REMARK CNNscore 0.550976872
REMARK CNNaffinity 6.5206418
REMARK  19 active torsions:
REMARK  status: ('A' for Active; 'I' for Inactive)
REMARK    1  A    between atoms: C3_3  and  C4_4 
REMARK    2  A    between atoms: C5_5  and  C6_6 
REMARK    3  A    between atoms: C7_8  and  O2_9 
REMARK    4  A    between atoms: C7_8  and  C8_10 
REMARK    5  A    between atoms: C8_10  and  C10_12 
REMARK       I    between atoms: C10_12  and  N1_14 
REMARK    6  A    between atoms: N1_14  and  C11_15 
REMARK    7  A    between atoms: C11_15  and  C12_16 
REMARK    8  A    between atoms: C13_17  and  C14_18 
REMARK    9  A    between atoms: C15_19  and  C17_21 
REMARK   10  A    between atoms: C17_21  and  O4_22 
REMARK   11  A    between atoms: C17_21  and  C19_24 
REMARK   12  A    between atoms: C19_24  and  C21_26 
REMARK   13  A    between atoms: C23_28  and  O5_29 
REMARK   14  A    between atoms: C24_30  and  C25_31 
REMARK   15  A    between atoms: C26_32  and  C27_33 
REMARK   16  A    between atoms: C28_34  and  C29_35 
REMARK   17  A    between atoms: C30_36  and  C31_37 
REMARK   18  A    between atoms: C31_37  and  O7_39 
REMARK   19  A    between atoms: C33_42  and  O9_43 
ROOT
HETATM    1  C12 UNL     1       0.124  10.801  17.586  1.00  0.00    -0.007 C 
HETATM    2  C13 UNL     1       0.257  11.211  18.858  1.00  0.00    -0.002 C 
ENDROOT
BRANCH   2   3
HETATM    3  C14 UNL     1       1.215  10.633  19.771  1.00  0.00     0.005 C 
HETATM    4  C15 UNL     1       1.832  11.246  20.801  1.00  0.00    -0.055 C 
HETATM    5  C16 UNL     1       1.701  12.716  21.125  1.00  0.00     0.046 C 
BRANCH   4   6
HETATM    6  C17 UNL     1       2.693  10.472  21.808  1.00  0.00     0.155 C 
BRANCH   6   7
HETATM    7  O4  UNL     1       2.608   9.052  21.564  1.00  0.00    -0.386 OA
HETATM    8  C18 UNL     1       2.074   8.338  22.674  1.00  0.00     0.202 C 
ENDBRANCH   6   7
BRANCH   6   9
HETATM    9  C19 UNL     1       4.198  10.872  21.790  1.00  0.00     0.044 C 
HETATM   10  C20 UNL     1       4.950  10.343  23.018  1.00  0.00     0.015 C 
BRANCH   9  11
HETATM   11  C21 UNL     1       4.320  12.407  21.688  1.00  0.00     0.131 C 
HETATM   12  C22 UNL     1       4.570  13.146  23.009  1.00  0.00     0.067 C 
HETATM   13  C23 UNL     1       5.799  13.999  22.757  1.00  0.00     0.153 C 
HETATM   14  C24 UNL     1       5.900  14.027  21.230  1.00  0.00     0.173 C 
HETATM   15  O8  UNL     1       5.409  12.749  20.809  1.00  0.00    -0.374 OA
BRANCH  13  16
HETATM   16  O5  UNL     1       6.907  13.351  23.391  1.00  0.00    -0.393 OA
HETATM   17  H35 UNL     1       7.689  13.906  23.223  1.00  0.00     0.210 HD
ENDBRANCH  13  16
BRANCH  14  18
HETATM   18  C25 UNL     1       7.279  14.201  20.666  1.00  0.00     0.007 C 
HETATM   19  C26 UNL     1       8.217  13.241  20.639  1.00  0.00    -0.001 C 
BRANCH  19  20
HETATM   20  C27 UNL     1       9.551  13.465  20.125  1.00  0.00    -0.000 C 
HETATM   21  C28 UNL     1       9.898  13.206  18.854  1.00  0.00     0.000 C 
BRANCH  21  22
HETATM   22  C29 UNL     1      11.240  13.419  18.357  1.00  0.00     0.007 C 
HETATM   23  C30 UNL     1      12.369  12.812  18.752  1.00  0.00     0.081 C 
BRANCH  23  24
HETATM   24  C31 UNL     1      12.498  11.785  19.797  1.00  0.00     0.165 C 
HETATM   25  O6  UNL     1      11.940  10.711  19.880  1.00  0.00    -0.647 OA
BRANCH  24  26
HETATM   26  O7  UNL     1      13.377  12.198  20.726  1.00  0.00    -0.773 OA
HETATM   27  H43 UNL     1      13.391  11.463  21.374  1.00  0.00     0.167 HD
ENDBRANCH  24  26
ENDBRANCH  23  24
ENDBRANCH  21  22
ENDBRANCH  19  20
ENDBRANCH  14  18
ENDBRANCH   9  11
ENDBRANCH   6   9
ENDBRANCH   4   6
ENDBRANCH   2   3
BRANCH   1  28
HETATM   28  C11 UNL     1      -0.960  11.282  16.673  1.00  0.00     0.149 C 
BRANCH  28  29
HETATM   29  N1  UNL     1      -1.935  10.237  16.507  1.00  0.00    -0.357 N 
HETATM   30  C10 UNL     1      -2.428   9.877  15.278  1.00  0.00     0.227 C 
HETATM   31  O3  UNL     1      -2.104  10.445  14.238  1.00  0.00    -0.273 OA
HETATM   32  H14 UNL     1      -2.086   9.581  17.273  1.00  0.00     0.162 HD
BRANCH  30  33
HETATM   33  C8  UNL     1      -3.443   8.740  15.320  1.00  0.00     0.136 C 
HETATM   34  C9  UNL     1      -4.483   8.928  14.209  1.00  0.00     0.026 C 
BRANCH  33  35
HETATM   35  C7  UNL     1      -2.765   7.345  15.327  1.00  0.00     0.176 C 
HETATM   36  O1  UNL     1      -3.156   6.710  14.101  1.00  0.00    -0.344 OA
HETATM   37  C6  UNL     1      -2.344   5.595  13.741  1.00  0.00     0.158 C 
HETATM   38  C34 UNL     1      -0.947   6.098  13.267  1.00  0.00     0.008 C 
HETATM   39  C33 UNL     1      -0.522   7.321  14.137  1.00  0.00     0.134 C 
HETATM   40  C35 UNL     1       0.062   4.933  13.363  1.00  0.00     0.020 C 
HETATM   41  C36 UNL     1      -0.963   6.576  11.796  1.00  0.00     0.020 C 
HETATM   42  C32 UNL     1      -1.232   7.366  15.487  1.00  0.00     0.101 C 
BRANCH  37  43
HETATM   43  C5  UNL     1      -3.136   4.815  12.726  1.00  0.00     0.006 C 
HETATM   44  C4  UNL     1      -4.353   4.288  12.944  1.00  0.00    -0.002 C 
BRANCH  44  45
HETATM   45  C3  UNL     1      -5.084   3.581  11.920  1.00  0.00    -0.005 C 
HETATM   46  C2  UNL     1      -4.798   2.367  11.427  1.00  0.00    -0.031 C 
HETATM   47  C1  UNL     1      -3.668   1.458  11.781  1.00  0.00     0.036 C 
ENDBRANCH  44  45
ENDBRANCH  37  43
BRANCH  39  48
HETATM   48  O9  UNL     1       0.886   7.344  14.374  1.00  0.00    -0.395 OA
HETATM   49  H47 UNL     1       1.327   7.523  13.525  1.00  0.00     0.210 HD
ENDBRANCH  39  48
BRANCH  35  50
HETATM   50  O2  UNL     1      -3.363   6.600  16.400  1.00  0.00    -0.364 OA
HETATM   51  H9  UNL     1      -2.790   5.837  16.583  1.00  0.00     0.213 HD
ENDBRANCH  35  50
ENDBRANCH  33  35
ENDBRANCH  30  33
ENDBRANCH  28  29
ENDBRANCH   1  28
TORSDOF 19
ENDMDL
MODEL 3
REMARK minimizedAffinity -8.24930477
REMARK CNNscore 0.490174025
REMARK CNNaffinity 7.60310698
REMARK  19 active torsions:
REMARK  status: ('A' for Active; 'I' for Inactive)
REMARK    1  A    between atoms: C3_3  and  C4_4 
REMARK    2  A    between atoms: C5_5  and  C6_6 
REMARK    3  A    between atoms: C7_8  and  O2_9 
REMARK    4  A    between atoms: C7_8  and  C8_10 
REMARK    5  A    between atoms: C8_10  and  C10_12 
REMARK       I    between atoms: C10_12  and  N1_14 
REMARK    6  A    between atoms: N1_14  and  C11_15 
REMARK    7  A    between atoms: C11_15  and  C12_16 
REMARK    8  A    between atoms: C13_17  and  C14_18 
REMARK    9  A    between atoms: C15_19  and  C17_21 
REMARK   10  A    between atoms: C17_21  and  O4_22 
REMARK   11  A    between atoms: C17_21  and  C19_24 
REMARK   12  A    between atoms: C19_24  and  C21_26 
REMARK   13  A    between atoms: C23_28  and  O5_29 
REMARK   14  A    between atoms: C24_30  and  C25_31 
REMARK   15  A    between atoms: C26_32  and  C27_33 
REMARK   16  A    between atoms: C28_34  and  C29_35 
REMARK   17  A    between atoms: C30_36  and  C31_37 
REMARK   18  A    between atoms: C31_37  and  O7_39 
REMARK   19  A    between atoms: C33_42  and  O9_43 
ROOT
HETATM    1  C12 UNL     1      -8.381   6.357  15.158  1.00  0.00    -0.007 C 
HETATM    2  C13 UNL     1      -7.791   5.274  15.689  1.00  0.00    -0.002 C 
ENDROOT
BRANCH   2   3
HETATM    3  C14 UNL     1      -7.099   4.288  14.891  1.00  0.00     0.005 C 
HETATM    4  C15 UNL     1      -7.187   4.113  13.557  1.00  0.00    -0.055 C 
HETATM    5  C16 UNL     1      -8.131   4.872  12.653  1.00  0.00     0.046 C 
BRANCH   4   6
HETATM    6  C17 UNL     1      -6.261   3.149  12.803  1.00  0.00     0.155 C 
BRANCH   6   7
HETATM    7  O4  UNL     1      -7.021   2.304  11.914  1.00  0.00    -0.386 OA
HETATM    8  C18 UNL     1      -7.032   0.943  12.332  1.00  0.00     0.202 C 
ENDBRANCH   6   7
BRANCH   6   9
HETATM    9  C19 UNL     1      -5.159   3.861  11.963  1.00  0.00     0.044 C 
HETATM   10  C20 UNL     1      -5.301   3.571  10.463  1.00  0.00     0.015 C 
BRANCH   9  11
HETATM   11  C21 UNL     1      -3.767   3.437  12.476  1.00  0.00     0.131 C 
HETATM   12  C22 UNL     1      -3.197   2.147  11.872  1.00  0.00     0.067 C 
HETATM   13  C23 UNL     1      -1.823   2.527  11.355  1.00  0.00     0.153 C 
HETATM   14  C24 UNL     1      -1.532   3.849  12.069  1.00  0.00     0.173 C 
HETATM   15  O8  UNL     1      -2.812   4.480  12.203  1.00  0.00    -0.374 OA
BRANCH  13  16
HETATM   16  O5  UNL     1      -1.923   2.657   9.932  1.00  0.00    -0.393 OA
HETATM   17  H35 UNL     1      -1.037   2.901   9.611  1.00  0.00     0.210 HD
ENDBRANCH  13  16
BRANCH  14  18
HETATM   18  C25 UNL     1      -0.622   4.800  11.348  1.00  0.00     0.007 C 
HETATM   19  C26 UNL     1      -0.549   6.118  11.594  1.00  0.00    -0.001 C 
BRANCH  19  20
HETATM   20  C27 UNL     1       0.312   7.006  10.843  1.00  0.00    -0.000 C 
HETATM   21  C28 UNL     1       0.142   7.256   9.535  1.00  0.00     0.000 C 
BRANCH  21  22
HETATM   22  C29 UNL     1       1.021   8.133   8.792  1.00  0.00     0.007 C 
HETATM   23  C30 UNL     1       2.263   7.876   8.357  1.00  0.00     0.081 C 
BRANCH  23  24
HETATM   24  C31 UNL     1       3.023   6.631   8.545  1.00  0.00     0.165 C 
HETATM   25  O6  UNL     1       3.852   6.366   9.391  1.00  0.00    -0.647 OA
BRANCH  24  26
HETATM   26  O7  UNL     1       2.669   5.742   7.601  1.00  0.00    -0.773 OA
HETATM   27  H43 UNL     1       3.223   4.960   7.799  1.00  0.00     0.167 HD
ENDBRANCH  24  26
ENDBRANCH  23  24
ENDBRANCH  21  22
ENDBRANCH  19  20
ENDBRANCH  14  18
ENDBRANCH   9  11
ENDBRANCH   6   9
ENDBRANCH   4   6
ENDBRANCH   2   3
BRANCH   1  28
HETATM   28  C11 UNL     1      -9.228   7.306  15.947  1.00  0.00     0.149 C 
BRANCH  28  29
HETATM   29  N1  UNL     1     -10.417   7.612  15.198  1.00  0.00    -0.357 N 
HETATM   30  C10 UNL     1     -11.338   8.536  15.621  1.00  0.00     0.227 C 
HETATM   31  O3  UNL     1     -11.234   9.140  16.687  1.00  0.00    -0.273 OA
HETATM   32  H14 UNL     1     -10.467   7.329  14.219  1.00  0.00     0.162 HD
BRANCH  30  33
HETATM   33  C8  UNL     1     -12.521   8.720  14.676  1.00  0.00     0.136 C 
HETATM   34  C9  UNL     1     -12.073   9.477  13.421  1.00  0.00     0.026 C 
BRANCH  33  35
HETATM   35  C7  UNL     1     -13.255   7.384  14.386  1.00  0.00     0.176 C 
HETATM   36  O1  UNL     1     -14.328   7.309  15.335  1.00  0.00    -0.344 OA
HETATM   37  C6  UNL     1     -15.339   6.364  14.993  1.00  0.00     0.158 C 
HETATM   38  C34 UNL     1     -16.173   6.902  13.792  1.00  0.00     0.008 C 
HETATM   39  C33 UNL     1     -15.225   7.653  12.806  1.00  0.00     0.134 C 
HETATM   40  C35 UNL     1     -16.899   5.717  13.118  1.00  0.00     0.020 C 
HETATM   41  C36 UNL     1     -17.255   7.915  14.236  1.00  0.00     0.020 C 
HETATM   42  C32 UNL     1     -13.767   7.223  12.941  1.00  0.00     0.101 C 
BRANCH  37  43
HETATM   43  C5  UNL     1     -16.110   6.104  16.260  1.00  0.00     0.006 C 
HETATM   44  C4  UNL     1     -15.840   6.667  17.450  1.00  0.00    -0.002 C 
BRANCH  44  45
HETATM   45  C3  UNL     1     -16.638   6.411  18.625  1.00  0.00    -0.005 C 
HETATM   46  C2  UNL     1     -17.579   5.465  18.762  1.00  0.00    -0.031 C 
HETATM   47  C1  UNL     1     -18.053   4.467  17.757  1.00  0.00     0.036 C 
ENDBRANCH  44  45
ENDBRANCH  37  43
BRANCH  39  48
HETATM   48  O9  UNL     1     -15.619   7.473  11.446  1.00  0.00    -0.395 OA
HETATM   49  H47 UNL     1     -16.467   7.934  11.319  1.00  0.00     0.210 HD
ENDBRANCH  39  48
BRANCH  35  50
HETATM   50  O2  UNL     1     -12.333   6.329  14.703  1.00  0.00    -0.364 OA
HETATM   51  H9  UNL     1     -12.669   5.513  14.296  1.00  0.00     0.213 HD
ENDBRANCH  35  50
ENDBRANCH  33  35
ENDBRANCH  30  33
ENDBRANCH  28  29
ENDBRANCH   1  28
TORSDOF 19
ENDMDL
MODEL 4
REMARK minimizedAffinity -8.14111423
REMARK CNNscore 0.480782956
REMARK CNNaffinity 7.30903101
REMARK  19 active torsions:
REMARK  status: ('A' for Active; 'I' for Inactive)
REMARK    1  A    between atoms: C3_3  and  C4_4 
REMARK    2  A    between atoms: C5_5  and  C6_6 
REMARK    3  A    between atoms: C7_8  and  O2_9 
REMARK    4  A    between atoms: C7_8  and  C8_10 
REMARK    5  A    between atoms: C8_10  and  C10_12 
REMARK       I    between atoms: C10_12  and  N1_14 
REMARK    6  A    between atoms: N1_14  and  C11_15 
REMARK    7  A    between atoms: C11_15  and  C12_16 
REMARK    8  A    between atoms: C13_17  and  C14_18 
REMARK    9  A    between atoms: C15_19  and  C17_21 
REMARK   10  A    between atoms: C17_21  and  O4_22 
REMARK   11  A    between atoms: C17_21  and  C19_24 
REMARK   12  A    between atoms: C19_24  and  C21_26 
REMARK   13  A    between atoms: C23_28  and  O5_29 
REMARK   14  A    between atoms: C24_30  and  C25_31 
REMARK   15  A    between atoms: C26_32  and  C27_33 
REMARK   16  A    between atoms: C28_34  and  C29_35 
REMARK   17  A    between atoms: C30_36  and  C31_37 
REMARK   18  A    between atoms: C31_37  and  O7_39 
REMARK   19  A    between atoms: C33_42  and  O9_43 
ROOT
HETATM    1  C12 UNL     1      -8.765   6.347  15.669  1.00  0.00    -0.007 C 
HETATM    2  C13 UNL     1      -9.166   6.912  14.519  1.00  0.00    -0.002 C 
ENDROOT
BRANCH   2   3
HETATM    3  C14 UNL     1     -10.422   7.613  14.388  1.00  0.00     0.005 C 
HETATM    4  C15 UNL     1     -10.744   8.813  14.913  1.00  0.00    -0.055 C 
HETATM    5  C16 UNL     1      -9.857   9.608  15.842  1.00  0.00     0.046 C 
BRANCH   4   6
HETATM    6  C17 UNL     1     -12.050   9.532  14.550  1.00  0.00     0.155 C 
BRANCH   6   7
HETATM    7  O4  UNL     1     -11.805  10.930  14.284  1.00  0.00    -0.386 OA
HETATM    8  C18 UNL     1     -12.663  11.785  15.030  1.00  0.00     0.202 C 
ENDBRANCH   6   7
BRANCH   6   9
HETATM    9  C19 UNL     1     -12.778   8.930  13.311  1.00  0.00     0.044 C 
HETATM   10  C20 UNL     1     -12.503   9.734  12.033  1.00  0.00     0.015 C 
BRANCH   9  11
HETATM   11  C21 UNL     1     -14.293   8.847  13.595  1.00  0.00     0.131 C 
HETATM   12  C22 UNL     1     -15.213   9.192  12.417  1.00  0.00     0.067 C 
HETATM   13  C23 UNL     1     -16.152   8.008  12.290  1.00  0.00     0.153 C 
HETATM   14  C24 UNL     1     -16.000   7.294  13.636  1.00  0.00     0.173 C 
HETATM   15  O8  UNL     1     -14.635   7.511  14.011  1.00  0.00    -0.374 OA
BRANCH  13  16
HETATM   16  O5  UNL     1     -15.708   7.226  11.176  1.00  0.00    -0.393 OA
HETATM   17  H35 UNL     1     -16.317   6.470  11.104  1.00  0.00     0.210 HD
ENDBRANCH  13  16
BRANCH  14  18
HETATM   18  C25 UNL     1     -16.247   5.814  13.626  1.00  0.00     0.007 C 
HETATM   19  C26 UNL     1     -17.458   5.245  13.509  1.00  0.00    -0.001 C 
BRANCH  19  20
HETATM   20  C27 UNL     1     -17.655   3.812  13.548  1.00  0.00    -0.000 C 
HETATM   21  C28 UNL     1     -16.650   2.941  13.730  1.00  0.00     0.000 C 
BRANCH  21  22
HETATM   22  C29 UNL     1     -16.858   1.509  13.750  1.00  0.00     0.007 C 
HETATM   23  C30 UNL     1     -16.368   0.620  14.627  1.00  0.00     0.081 C 
BRANCH  23  24
HETATM   24  C31 UNL     1     -15.494   0.904  15.775  1.00  0.00     0.165 C 
HETATM   25  O6  UNL     1     -15.755   0.856  16.959  1.00  0.00    -0.647 OA
BRANCH  24  26
HETATM   26  O7  UNL     1     -14.272   1.249  15.335  1.00  0.00    -0.773 OA
HETATM   27  H43 UNL     1     -13.770   1.424  16.157  1.00  0.00     0.167 HD
ENDBRANCH  24  26
ENDBRANCH  23  24
ENDBRANCH  21  22
ENDBRANCH  19  20
ENDBRANCH  14  18
ENDBRANCH   9  11
ENDBRANCH   6   9
ENDBRANCH   4   6
ENDBRANCH   2   3
BRANCH   1  28
HETATM   28  C11 UNL     1      -7.542   5.491  15.784  1.00  0.00     0.149 C 
BRANCH  28  29
HETATM   29  N1  UNL     1      -6.477   6.085  15.021  1.00  0.00    -0.357 N 
HETATM   30  C10 UNL     1      -5.971   5.505  13.885  1.00  0.00     0.227 C 
HETATM   31  O3  UNL     1      -6.362   4.420  13.461  1.00  0.00    -0.273 OA
HETATM   32  H14 UNL     1      -6.255   7.069  15.171  1.00  0.00     0.162 HD
BRANCH  30  33
HETATM   33  C8  UNL     1      -4.854   6.301  13.219  1.00  0.00     0.136 C 
HETATM   34  C9  UNL     1      -5.146   7.802  13.331  1.00  0.00     0.026 C 
BRANCH  33  35
HETATM   35  C7  UNL     1      -3.449   5.887  13.731  1.00  0.00     0.176 C 
HETATM   36  O1  UNL     1      -2.508   6.632  12.946  1.00  0.00    -0.344 OA
HETATM   37  C6  UNL     1      -1.199   6.687  13.507  1.00  0.00     0.158 C 
HETATM   38  C34 UNL     1      -1.204   7.622  14.754  1.00  0.00     0.008 C 
HETATM   39  C33 UNL     1      -2.545   7.437  15.528  1.00  0.00     0.134 C 
HETATM   40  C35 UNL     1       0.026   7.295  15.628  1.00  0.00     0.020 C 
HETATM   41  C36 UNL     1      -1.111   9.117  14.365  1.00  0.00     0.020 C 
HETATM   42  C32 UNL     1      -3.217   6.097  15.239  1.00  0.00     0.101 C 
BRANCH  37  43
HETATM   43  C5  UNL     1      -0.282   7.097  12.386  1.00  0.00     0.006 C 
HETATM   44  C4  UNL     1      -0.130   6.421  11.234  1.00  0.00    -0.002 C 
BRANCH  44  45
HETATM   45  C3  UNL     1       0.735   6.883  10.175  1.00  0.00    -0.005 C 
HETATM   46  C2  UNL     1       0.502   7.906   9.341  1.00  0.00    -0.031 C 
HETATM   47  C1  UNL     1      -0.690   8.802   9.273  1.00  0.00     0.036 C 
ENDBRANCH  44  45
ENDBRANCH  37  43
BRANCH  39  48
HETATM   48  O9  UNL     1      -2.367   7.551  16.940  1.00  0.00    -0.395 OA
HETATM   49  H47 UNL     1      -2.134   8.476  17.136  1.00  0.00     0.210 HD
ENDBRANCH  39  48
BRANCH  35  50
HETATM   50  O2  UNL     1      -3.280   4.501  13.393  1.00  0.00    -0.364 OA
HETATM   51  H9  UNL     1      -2.535   4.160  13.916  1.00  0.00     0.213 HD
ENDBRANCH  35  50
ENDBRANCH  33  35
ENDBRANCH  30  33
ENDBRANCH  28  29
ENDBRANCH   1  28
TORSDOF 19
ENDMDL
MODEL 5
REMARK minimizedAffinity -8.4521265
REMARK CNNscore 0.441436231
REMARK CNNaffinity 6.62543535
REMARK  19 active torsions:
REMARK  status: ('A' for Active; 'I' for Inactive)
REMARK    1  A    between atoms: C3_3  and  C4_4 
REMARK    2  A    between atoms: C5_5  and  C6_6 
REMARK    3  A    between atoms: C7_8  and  O2_9 
REMARK    4  A    between atoms: C7_8  and  C8_10 
REMARK    5  A    between atoms: C8_10  and  C10_12 
REMARK       I    between atoms: C10_12  and  N1_14 
REMARK    6  A    between atoms: N1_14  and  C11_15 
REMARK    7  A    between atoms: C11_15  and  C12_16 
REMARK    8  A    between atoms: C13_17  and  C14_18 
REMARK    9  A    between atoms: C15_19  and  C17_21 
REMARK   10  A    between atoms: C17_21  and  O4_22 
REMARK   11  A    between atoms: C17_21  and  C19_24 
REMARK   12  A    between atoms: C19_24  and  C21_26 
REMARK   13  A    between atoms: C23_28  and  O5_29 
REMARK   14  A    between atoms: C24_30  and  C25_31 
REMARK   15  A    between atoms: C26_32  and  C27_33 
REMARK   16  A    between atoms: C28_34  and  C29_35 
REMARK   17  A    between atoms: C30_36  and  C31_37 
REMARK   18  A    between atoms: C31_37  and  O7_39 
REMARK   19  A    between atoms: C33_42  and  O9_43 
ROOT
HETATM    1  C12 UNL     1       0.290   7.250  15.276  1.00  0.00    -0.007 C 
HETATM    2  C13 UNL     1      -0.127   8.385  15.860  1.00  0.00    -0.002 C 
ENDROOT
BRANCH   2   3
HETATM    3  C14 UNL     1       0.770   9.290  16.540  1.00  0.00     0.005 C 
HETATM    4  C15 UNL     1       0.645  10.628  16.654  1.00  0.00    -0.055 C 
HETATM    5  C16 UNL     1      -0.432  11.448  15.983  1.00  0.00     0.046 C 
BRANCH   4   6
HETATM    6  C17 UNL     1       1.570  11.455  17.557  1.00  0.00     0.155 C 
BRANCH   6   7
HETATM    7  O4  UNL     1       2.604  12.094  16.778  1.00  0.00    -0.386 OA
HETATM    8  C18 UNL     1       3.530  11.162  16.231  1.00  0.00     0.202 C 
ENDBRANCH   6   7
BRANCH   6   9
HETATM    9  C19 UNL     1       0.834  12.558  18.373  1.00  0.00     0.044 C 
HETATM   10  C20 UNL     1       1.415  13.954  18.111  1.00  0.00     0.015 C 
BRANCH   9  11
HETATM   11  C21 UNL     1       0.892  12.211  19.876  1.00  0.00     0.131 C 
HETATM   12  C22 UNL     1       0.703  10.729  20.226  1.00  0.00     0.067 C 
HETATM   13  C23 UNL     1       1.900  10.372  21.086  1.00  0.00     0.153 C 
HETATM   14  C24 UNL     1       2.439  11.737  21.521  1.00  0.00     0.173 C 
HETATM   15  O8  UNL     1       2.167  12.605  20.415  1.00  0.00    -0.374 OA
BRANCH  13  16
HETATM   16  O5  UNL     1       2.811   9.633  20.265  1.00  0.00    -0.393 OA
HETATM   17  H35 UNL     1       3.575   9.409  20.826  1.00  0.00     0.210 HD
ENDBRANCH  13  16
BRANCH  14  18
HETATM   18  C25 UNL     1       3.911  11.800  21.808  1.00  0.00     0.007 C 
HETATM   19  C26 UNL     1       4.507  11.217  22.861  1.00  0.00    -0.001 C 
BRANCH  19  20
HETATM   20  C27 UNL     1       5.924  11.340  23.124  1.00  0.00    -0.000 C 
HETATM   21  C28 UNL     1       6.605  12.482  22.938  1.00  0.00     0.000 C 
BRANCH  21  22
HETATM   22  C29 UNL     1       8.026  12.589  23.188  1.00  0.00     0.007 C 
HETATM   23  C30 UNL     1       9.031  12.390  22.322  1.00  0.00     0.081 C 
BRANCH  23  24
HETATM   24  C31 UNL     1       8.911  12.009  20.906  1.00  0.00     0.165 C 
HETATM   25  O6  UNL     1       7.987  12.200  20.143  1.00  0.00    -0.647 OA
BRANCH  24  26
HETATM   26  O7  UNL     1      10.031  11.377  20.516  1.00  0.00    -0.773 OA
HETATM   27  H43 UNL     1       9.858  11.158  19.576  1.00  0.00     0.167 HD
ENDBRANCH  24  26
ENDBRANCH  23  24
ENDBRANCH  21  22
ENDBRANCH  19  20
ENDBRANCH  14  18
ENDBRANCH   9  11
ENDBRANCH   6   9
ENDBRANCH   4   6
ENDBRANCH   2   3
BRANCH   1  28
HETATM   28  C11 UNL     1      -0.641   6.229  14.700  1.00  0.00     0.149 C 
BRANCH  28  29
HETATM   29  N1  UNL     1      -1.996   6.690  14.847  1.00  0.00    -0.357 N 
HETATM   30  C10 UNL     1      -2.755   7.100  13.780  1.00  0.00     0.227 C 
HETATM   31  O3  UNL     1      -2.322   7.140  12.630  1.00  0.00    -0.273 OA
HETATM   32  H14 UNL     1      -2.494   6.481  15.711  1.00  0.00     0.162 HD
BRANCH  30  33
HETATM   33  C8  UNL     1      -4.167   7.540  14.149  1.00  0.00     0.136 C 
HETATM   34  C9  UNL     1      -4.796   8.311  12.982  1.00  0.00     0.026 C 
BRANCH  33  35
HETATM   35  C7  UNL     1      -5.033   6.363  14.672  1.00  0.00     0.176 C 
HETATM   36  O1  UNL     1      -6.397   6.781  14.524  1.00  0.00    -0.344 OA
HETATM   37  C6  UNL     1      -7.340   5.713  14.586  1.00  0.00     0.158 C 
HETATM   38  C34 UNL     1      -7.251   4.862  13.283  1.00  0.00     0.008 C 
HETATM   39  C33 UNL     1      -5.760   4.767  12.835  1.00  0.00     0.134 C 
HETATM   40  C35 UNL     1      -7.872   3.474  13.551  1.00  0.00     0.020 C 
HETATM   41  C36 UNL     1      -8.033   5.500  12.110  1.00  0.00     0.020 C 
HETATM   42  C32 UNL     1      -4.779   5.009  13.980  1.00  0.00     0.101 C 
BRANCH  37  43
HETATM   43  C5  UNL     1      -8.675   6.354  14.857  1.00  0.00     0.006 C 
HETATM   44  C4  UNL     1      -8.875   7.674  15.009  1.00  0.00    -0.002 C 
BRANCH  44  45
HETATM   45  C3  UNL     1     -10.186   8.237  15.230  1.00  0.00    -0.005 C 
HETATM   46  C2  UNL     1     -11.221   8.211  14.378  1.00  0.00    -0.031 C 
HETATM   47  C1  UNL     1     -11.287   7.627  13.005  1.00  0.00     0.036 C 
ENDBRANCH  44  45
ENDBRANCH  37  43
BRANCH  39  48
HETATM   48  O9  UNL     1      -5.458   3.499  12.252  1.00  0.00    -0.395 OA
HETATM   49  H47 UNL     1      -5.938   3.439  11.407  1.00  0.00     0.210 HD
ENDBRANCH  39  48
BRANCH  35  50
HETATM   50  O2  UNL     1      -4.773   6.254  16.080  1.00  0.00    -0.364 OA
HETATM   51  H9  UNL     1      -5.096   5.385  16.372  1.00  0.00     0.213 HD
ENDBRANCH  35  50
ENDBRANCH  33  35
ENDBRANCH  30  33
ENDBRANCH  28  29
ENDBRANCH   1  28
TORSDOF 19
ENDMDL
MODEL 6
REMARK minimizedAffinity -8.54300594
REMARK CNNscore 0.397508025
REMARK CNNaffinity 6.86940908
REMARK  19 active torsions:
REMARK  status: ('A' for Active; 'I' for Inactive)
REMARK    1  A    between atoms: C3_3  and  C4_4 
REMARK    2  A    between atoms: C5_5  and  C6_6 
REMARK    3  A    between atoms: C7_8  and  O2_9 
REMARK    4  A    between atoms: C7_8  and  C8_10 
REMARK    5  A    between atoms: C8_10  and  C10_12 
REMARK       I    between atoms: C10_12  and  N1_14 
REMARK    6  A    between atoms: N1_14  and  C11_15 
REMARK    7  A    between atoms: C11_15  and  C12_16 
REMARK    8  A    between atoms: C13_17  and  C14_18 
REMARK    9  A    between atoms: C15_19  and  C17_21 
REMARK   10  A    between atoms: C17_21  and  O4_22 
REMARK   11  A    between atoms: C17_21  and  C19_24 
REMARK   12  A    between atoms: C19_24  and  C21_26 
REMARK   13  A    between atoms: C23_28  and  O5_29 
REMARK   14  A    between atoms: C24_30  and  C25_31 
REMARK   15  A    between atoms: C26_32  and  C27_33 
REMARK   16  A    between atoms: C28_34  and  C29_35 
REMARK   17  A    between atoms: C30_36  and  C31_37 
REMARK   18  A    between atoms: C31_37  and  O7_39 
REMARK   19  A    between atoms: C33_42  and  O9_43 
ROOT
HETATM    1  C12 UNL     1      -7.471   4.564  13.650  1.00  0.00    -0.007 C 
HETATM    2  C13 UNL     1      -7.946   5.658  13.033  1.00  0.00    -0.002 C 
ENDROOT
BRANCH   2   3
HETATM    3  C14 UNL     1      -9.255   6.204  13.306  1.00  0.00     0.005 C 
HETATM    4  C15 UNL     1      -9.582   7.098  14.261  1.00  0.00    -0.055 C 
HETATM    5  C16 UNL     1      -8.626   7.620  15.309  1.00  0.00     0.046 C 
BRANCH   4   6
HETATM    6  C17 UNL     1     -10.975   7.737  14.331  1.00  0.00     0.155 C 
BRANCH   6   7
HETATM    7  O4  UNL     1     -10.894   9.082  14.847  1.00  0.00    -0.386 OA
HETATM    8  C18 UNL     1     -11.521   9.218  16.117  1.00  0.00     0.202 C 
ENDBRANCH   6   7
BRANCH   6   9
HETATM    9  C19 UNL     1     -11.712   7.794  12.959  1.00  0.00     0.044 C 
HETATM   10  C20 UNL     1     -11.964   9.236  12.499  1.00  0.00     0.015 C 
BRANCH   9  11
HETATM   11  C21 UNL     1     -13.036   7.006  13.054  1.00  0.00     0.131 C 
HETATM   12  C22 UNL     1     -13.648   6.895  14.456  1.00  0.00     0.067 C 
HETATM   13  C23 UNL     1     -15.074   7.388  14.304  1.00  0.00     0.153 C 
HETATM   14  C24 UNL     1     -15.306   7.329  12.791  1.00  0.00     0.173 C 
HETATM   15  O8  UNL     1     -14.029   7.626  12.215  1.00  0.00    -0.374 OA
BRANCH  13  16
HETATM   16  O5  UNL     1     -15.128   8.715  14.838  1.00  0.00    -0.393 OA
HETATM   17  H35 UNL     1     -16.046   9.022  14.735  1.00  0.00     0.210 HD
ENDBRANCH  13  16
BRANCH  14  18
HETATM   18  C25 UNL     1     -16.301   8.308  12.241  1.00  0.00     0.007 C 
HETATM   19  C26 UNL     1     -17.627   8.101  12.195  1.00  0.00    -0.001 C 
BRANCH  19  20
HETATM   20  C27 UNL     1     -18.547   9.055  11.614  1.00  0.00    -0.000 C 
HETATM   21  C28 UNL     1     -18.223   9.846  10.579  1.00  0.00     0.000 C 
BRANCH  21  22
HETATM   22  C29 UNL     1     -19.147  10.808  10.018  1.00  0.00     0.007 C 
HETATM   23  C30 UNL     1     -19.643  10.841   8.772  1.00  0.00     0.081 C 
BRANCH  23  24
HETATM   24  C31 UNL     1     -19.351   9.898   7.682  1.00  0.00     0.165 C 
HETATM   25  O6  UNL     1     -20.000   8.943   7.309  1.00  0.00    -0.647 OA
BRANCH  24  26
HETATM   26  O7  UNL     1     -18.192  10.238   7.092  1.00  0.00    -0.773 OA
HETATM   27  H43 UNL     1     -18.079   9.560   6.395  1.00  0.00     0.167 HD
ENDBRANCH  24  26
ENDBRANCH  23  24
ENDBRANCH  21  22
ENDBRANCH  19  20
ENDBRANCH  14  18
ENDBRANCH   9  11
ENDBRANCH   6   9
ENDBRANCH   4   6
ENDBRANCH   2   3
BRANCH   1  28
HETATM   28  C11 UNL     1      -6.184   3.898  13.275  1.00  0.00     0.149 C 
BRANCH  28  29
HETATM   29  N1  UNL     1      -5.245   4.899  12.843  1.00  0.00    -0.357 N 
HETATM   30  C10 UNL     1      -4.620   5.751  13.718  1.00  0.00     0.227 C 
HETATM   31  O3  UNL     1      -4.847   5.749  14.926  1.00  0.00    -0.273 OA
HETATM   32  H14 UNL     1      -4.841   4.822  11.910  1.00  0.00     0.162 HD
BRANCH  30  33
HETATM   33  C8  UNL     1      -3.654   6.728  13.058  1.00  0.00     0.136 C 
HETATM   34  C9  UNL     1      -3.748   8.097  13.742  1.00  0.00     0.026 C 
BRANCH  33  35
HETATM   35  C7  UNL     1      -2.213   6.161  12.969  1.00  0.00     0.176 C 
HETATM   36  O1  UNL     1      -1.463   7.109  12.198  1.00  0.00    -0.344 OA
HETATM   37  C6  UNL     1      -0.049   6.971  12.324  1.00  0.00     0.158 C 
HETATM   38  C34 UNL     1       0.400   7.461  13.733  1.00  0.00     0.008 C 
HETATM   39  C33 UNL     1      -0.676   7.050  14.785  1.00  0.00     0.134 C 
HETATM   40  C35 UNL     1       1.788   6.862  14.051  1.00  0.00     0.020 C 
HETATM   41  C36 UNL     1       0.534   9.001  13.804  1.00  0.00     0.020 C 
HETATM   42  C32 UNL     1      -1.538   5.877  14.325  1.00  0.00     0.101 C 
BRANCH  37  43
HETATM   43  C5  UNL     1       0.547   7.709  11.155  1.00  0.00     0.006 C 
HETATM   44  C4  UNL     1       0.109   7.619   9.888  1.00  0.00    -0.002 C 
BRANCH  44  45
HETATM   45  C3  UNL     1       0.695   8.381   8.811  1.00  0.00    -0.005 C 
HETATM   46  C2  UNL     1       1.721   8.007   8.033  1.00  0.00    -0.031 C 
HETATM   47  C1  UNL     1       2.522   6.748   8.085  1.00  0.00     0.036 C 
ENDBRANCH  44  45
ENDBRANCH  37  43
BRANCH  39  48
HETATM   48  O9  UNL     1      -0.091   6.707  16.042  1.00  0.00    -0.395 OA
HETATM   49  H47 UNL     1       0.283   7.519  16.426  1.00  0.00     0.210 HD
ENDBRANCH  39  48
BRANCH  35  50
HETATM   50  O2  UNL     1      -2.292   4.953  12.195  1.00  0.00    -0.364 OA
HETATM   51  H9  UNL     1      -1.469   4.457  12.339  1.00  0.00     0.213 HD
ENDBRANCH  35  50
ENDBRANCH  33  35
ENDBRANCH  30  33
ENDBRANCH  28  29
ENDBRANCH   1  28
TORSDOF 19
ENDMDL
MODEL 7
REMARK minimizedAffinity -8.13567448
REMARK CNNscore 0.369779289
REMARK CNNaffinity 6.98076773
REMARK  19 active torsions:
REMARK  status: ('A' for Active; 'I' for Inactive)
REMARK    1  A    between atoms: C3_3  and  C4_4 
REMARK    2  A    between atoms: C5_5  and  C6_6 
REMARK    3  A    between atoms: C7_8  and  O2_9 
REMARK    4  A    between atoms: C7_8  and  C8_10 
REMARK    5  A    between atoms: C8_10  and  C10_12 
REMARK       I    between atoms: C10_12  and  N1_14 
REMARK    6  A    between atoms: N1_14  and  C11_15 
REMARK    7  A    between atoms: C11_15  and  C12_16 
REMARK    8  A    between atoms: C13_17  and  C14_18 
REMARK    9  A    between atoms: C15_19  and  C17_21 
REMARK   10  A    between atoms: C17_21  and  O4_22 
REMARK   11  A    between atoms: C17_21  and  C19_24 
REMARK   12  A    between atoms: C19_24  and  C21_26 
REMARK   13  A    between atoms: C23_28  and  O5_29 
REMARK   14  A    between atoms: C24_30  and  C25_31 
REMARK   15  A    between atoms: C26_32  and  C27_33 
REMARK   16  A    between atoms: C28_34  and  C29_35 
REMARK   17  A    between atoms: C30_36  and  C31_37 
REMARK   18  A    between atoms: C31_37  and  O7_39 
REMARK   19  A    between atoms: C33_42  and  O9_43 
ROOT
HETATM    1  C12 UNL     1      -0.436   6.002  13.537  1.00  0.00    -0.007 C 
HETATM    2  C13 UNL     1      -0.913   5.770  12.303  1.00  0.00    -0.002 C 
ENDROOT
BRANCH   2   3
HETATM    3  C14 UNL     1      -0.154   6.049  11.106  1.00  0.00     0.005 C 
HETATM    4  C15 UNL     1       0.374   7.233  10.733  1.00  0.00    -0.055 C 
HETATM    5  C16 UNL     1       0.167   8.534  11.472  1.00  0.00     0.046 C 
BRANCH   4   6
HETATM    6  C17 UNL     1       1.315   7.356   9.527  1.00  0.00     0.155 C 
BRANCH   6   7
HETATM    7  O4  UNL     1       0.707   8.150   8.486  1.00  0.00    -0.386 OA
HETATM    8  C18 UNL     1      -0.598   8.599   8.834  1.00  0.00     0.202 C 
ENDBRANCH   6   7
BRANCH   6   9
HETATM    9  C19 UNL     1       2.696   7.990   9.868  1.00  0.00     0.044 C 
HETATM   10  C20 UNL     1       3.563   8.192   8.618  1.00  0.00     0.015 C 
BRANCH   9  11
HETATM   11  C21 UNL     1       3.424   7.109  10.906  1.00  0.00     0.131 C 
HETATM   12  C22 UNL     1       4.546   6.218  10.357  1.00  0.00     0.067 C 
HETATM   13  C23 UNL     1       5.757   6.539  11.212  1.00  0.00     0.153 C 
HETATM   14  C24 UNL     1       5.151   7.236  12.432  1.00  0.00     0.173 C 
HETATM   15  O8  UNL     1       4.015   7.943  11.920  1.00  0.00    -0.374 OA
BRANCH  13  16
HETATM   16  O5  UNL     1       6.615   7.385  10.439  1.00  0.00    -0.393 OA
HETATM   17  H35 UNL     1       7.388   7.585  10.996  1.00  0.00     0.210 HD
ENDBRANCH  13  16
BRANCH  14  18
HETATM   18  C25 UNL     1       6.036   8.228  13.129  1.00  0.00     0.007 C 
HETATM   19  C26 UNL     1       5.873   9.559  13.081  1.00  0.00    -0.001 C 
BRANCH  19  20
HETATM   20  C27 UNL     1       6.777  10.482  13.733  1.00  0.00    -0.000 C 
HETATM   21  C28 UNL     1       6.870  10.593  15.067  1.00  0.00     0.000 C 
BRANCH  21  22
HETATM   22  C29 UNL     1       7.766  11.532  15.708  1.00  0.00     0.007 C 
HETATM   23  C30 UNL     1       7.807  11.875  17.004  1.00  0.00     0.081 C 
BRANCH  23  24
HETATM   24  C31 UNL     1       6.937  11.371  18.077  1.00  0.00     0.165 C 
HETATM   25  O6  UNL     1       7.031  10.341  18.712  1.00  0.00    -0.647 OA
BRANCH  24  26
HETATM   26  O7  UNL     1       5.945  12.250  18.300  1.00  0.00    -0.773 OA
HETATM   27  H43 UNL     1       5.421  11.832  19.014  1.00  0.00     0.167 HD
ENDBRANCH  24  26
ENDBRANCH  23  24
ENDBRANCH  21  22
ENDBRANCH  19  20
ENDBRANCH  14  18
ENDBRANCH   9  11
ENDBRANCH   6   9
ENDBRANCH   4   6
ENDBRANCH   2   3
BRANCH   1  28
HETATM   28  C11 UNL     1      -1.260   5.862  14.779  1.00  0.00     0.149 C 
BRANCH  28  29
HETATM   29  N1  UNL     1      -2.144   6.992  14.888  1.00  0.00    -0.357 N 
HETATM   30  C10 UNL     1      -3.422   6.883  15.377  1.00  0.00     0.227 C 
HETATM   31  O3  UNL     1      -3.915   5.811  15.720  1.00  0.00    -0.273 OA
HETATM   32  H14 UNL     1      -1.750   7.930  14.839  1.00  0.00     0.162 HD
BRANCH  30  33
HETATM   33  C8  UNL     1      -4.189   8.200  15.421  1.00  0.00     0.136 C 
HETATM   34  C9  UNL     1      -3.250   9.363  15.078  1.00  0.00     0.026 C 
BRANCH  33  35
HETATM   35  C7  UNL     1      -5.484   8.156  14.566  1.00  0.00     0.176 C 
HETATM   36  O1  UNL     1      -5.617   6.798  14.124  1.00  0.00    -0.344 OA
HETATM   37  C6  UNL     1      -6.923   6.467  13.655  1.00  0.00     0.158 C 
HETATM   38  C34 UNL     1      -7.904   6.380  14.863  1.00  0.00     0.008 C 
HETATM   39  C33 UNL     1      -7.537   7.484  15.902  1.00  0.00     0.134 C 
HETATM   40  C35 UNL     1      -9.351   6.525  14.342  1.00  0.00     0.020 C 
HETATM   41  C36 UNL     1      -7.811   5.021  15.598  1.00  0.00     0.020 C 
HETATM   42  C32 UNL     1      -6.757   8.643  15.286  1.00  0.00     0.101 C 
BRANCH  37  43
HETATM   43  C5  UNL     1      -6.767   5.206  12.848  1.00  0.00     0.006 C 
HETATM   44  C4  UNL     1      -5.723   4.365  12.935  1.00  0.00    -0.002 C 
BRANCH  44  45
HETATM   45  C3  UNL     1      -5.644   3.147  12.163  1.00  0.00    -0.005 C 
HETATM   46  C2  UNL     1      -4.750   2.865  11.205  1.00  0.00    -0.031 C 
HETATM   47  C1  UNL     1      -3.641   3.717  10.681  1.00  0.00     0.036 C 
ENDBRANCH  44  45
ENDBRANCH  37  43
BRANCH  39  48
HETATM   48  O9  UNL     1      -8.694   8.018  16.545  1.00  0.00    -0.395 OA
HETATM   49  H47 UNL     1      -9.073   7.318  17.104  1.00  0.00     0.210 HD
ENDBRANCH  39  48
BRANCH  35  50
HETATM   50  O2  UNL     1      -5.237   8.959  13.402  1.00  0.00    -0.364 OA
HETATM   51  H9  UNL     1      -6.096   9.152  12.990  1.00  0.00     0.213 HD
ENDBRANCH  35  50
ENDBRANCH  33  35
ENDBRANCH  30  33
ENDBRANCH  28  29
ENDBRANCH   1  28
TORSDOF 19
ENDMDL
MODEL 8
REMARK minimizedAffinity -8.34100819
REMARK CNNscore 0.359636515
REMARK CNNaffinity 7.12580633
REMARK  19 active torsions:
REMARK  status: ('A' for Active; 'I' for Inactive)
REMARK    1  A    between atoms: C3_3  and  C4_4 
REMARK    2  A    between atoms: C5_5  and  C6_6 
REMARK    3  A    between atoms: C7_8  and  O2_9 
REMARK    4  A    between atoms: C7_8  and  C8_10 
REMARK    5  A    between atoms: C8_10  and  C10_12 
REMARK       I    between atoms: C10_12  and  N1_14 
REMARK    6  A    between atoms: N1_14  and  C11_15 
REMARK    7  A    between atoms: C11_15  and  C12_16 
REMARK    8  A    between atoms: C13_17  and  C14_18 
REMARK    9  A    between atoms: C15_19  and  C17_21 
REMARK   10  A    between atoms: C17_21  and  O4_22 
REMARK   11  A    between atoms: C17_21  and  C19_24 
REMARK   12  A    between atoms: C19_24  and  C21_26 
REMARK   13  A    between atoms: C23_28  and  O5_29 
REMARK   14  A    between atoms: C24_30  and  C25_31 
REMARK   15  A    between atoms: C26_32  and  C27_33 
REMARK   16  A    between atoms: C28_34  and  C29_35 
REMARK   17  A    between atoms: C30_36  and  C31_37 
REMARK   18  A    between atoms: C31_37  and  O7_39 
REMARK   19  A    between atoms: C33_42  and  O9_43 
ROOT
HETATM    1  C12 UNL     1      -9.018   6.751  15.439  1.00  0.00    -0.007 C 
HETATM    2  C13 UNL     1      -8.369   6.801  14.264  1.00  0.00    -0.002 C 
ENDROOT
BRANCH   2   3
HETATM    3  C14 UNL     1      -7.841   5.625  13.612  1.00  0.00     0.005 C 
HETATM    4  C15 UNL     1      -6.545   5.341  13.368  1.00  0.00    -0.055 C 
HETATM    5  C16 UNL     1      -5.394   6.279  13.651  1.00  0.00     0.046 C 
BRANCH   4   6
HETATM    6  C17 UNL     1      -6.102   3.974  12.831  1.00  0.00     0.155 C 
BRANCH   6   7
HETATM    7  O4  UNL     1      -7.222   3.263  12.263  1.00  0.00    -0.386 OA
HETATM    8  C18 UNL     1      -7.444   2.005  12.891  1.00  0.00     0.202 C 
ENDBRANCH   6   7
BRANCH   6   9
HETATM    9  C19 UNL     1      -4.987   4.054  11.746  1.00  0.00     0.044 C 
HETATM   10  C20 UNL     1      -5.352   3.263  10.483  1.00  0.00     0.015 C 
BRANCH   9  11
HETATM   11  C21 UNL     1      -3.653   3.556  12.342  1.00  0.00     0.131 C 
HETATM   12  C22 UNL     1      -3.168   2.188  11.843  1.00  0.00     0.067 C 
HETATM   13  C23 UNL     1      -1.750   2.425  11.361  1.00  0.00     0.153 C 
HETATM   14  C24 UNL     1      -1.379   3.763  12.004  1.00  0.00     0.173 C 
HETATM   15  O8  UNL     1      -2.607   4.500  12.046  1.00  0.00    -0.374 OA
BRANCH  13  16
HETATM   16  O5  UNL     1      -1.787   2.470   9.930  1.00  0.00    -0.393 OA
HETATM   17  H35 UNL     1      -0.873   2.622   9.631  1.00  0.00     0.210 HD
ENDBRANCH  13  16
BRANCH  14  18
HETATM   18  C25 UNL     1      -0.369   4.590  11.264  1.00  0.00     0.007 C 
HETATM   19  C26 UNL     1       0.957   4.540  11.475  1.00  0.00    -0.001 C 
BRANCH  19  20
HETATM   20  C27 UNL     1       1.893   5.388  10.769  1.00  0.00    -0.000 C 
HETATM   21  C28 UNL     1       1.984   6.710  10.980  1.00  0.00     0.000 C 
BRANCH  21  22
HETATM   22  C29 UNL     1       2.913   7.551  10.256  1.00  0.00     0.007 C 
HETATM   23  C30 UNL     1       2.979   7.749   8.931  1.00  0.00     0.081 C 
BRANCH  23  24
HETATM   24  C31 UNL     1       2.116   7.145   7.904  1.00  0.00     0.165 C 
HETATM   25  O6  UNL     1       1.146   7.621   7.352  1.00  0.00    -0.647 OA
BRANCH  24  26
HETATM   26  O7  UNL     1       2.557   5.908   7.619  1.00  0.00    -0.773 OA
HETATM   27  H43 UNL     1       1.925   5.588   6.942  1.00  0.00     0.167 HD
ENDBRANCH  24  26
ENDBRANCH  23  24
ENDBRANCH  21  22
ENDBRANCH  19  20
ENDBRANCH  14  18
ENDBRANCH   9  11
ENDBRANCH   6   9
ENDBRANCH   4   6
ENDBRANCH   2   3
BRANCH   1  28
HETATM   28  C11 UNL     1      -9.439   7.969  16.200  1.00  0.00     0.149 C 
BRANCH  28  29
HETATM   29  N1  UNL     1     -10.841   8.202  15.978  1.00  0.00    -0.357 N 
HETATM   30  C10 UNL     1     -11.303   9.053  15.005  1.00  0.00     0.227 C 
HETATM   31  O3  UNL     1     -10.554   9.704  14.281  1.00  0.00    -0.273 OA
HETATM   32  H14 UNL     1     -11.516   7.549  16.374  1.00  0.00     0.162 HD
BRANCH  30  33
HETATM   33  C8  UNL     1     -12.822   9.150  14.928  1.00  0.00     0.136 C 
HETATM   34  C9  UNL     1     -13.240  10.606  14.689  1.00  0.00     0.026 C 
BRANCH  33  35
HETATM   35  C7  UNL     1     -13.427   8.141  13.917  1.00  0.00     0.176 C 
HETATM   36  O1  UNL     1     -13.976   7.075  14.704  1.00  0.00    -0.344 OA
HETATM   37  C6  UNL     1     -14.901   6.251  13.999  1.00  0.00     0.158 C 
HETATM   38  C34 UNL     1     -16.229   7.034  13.770  1.00  0.00     0.008 C 
HETATM   39  C33 UNL     1     -15.897   8.530  13.476  1.00  0.00     0.134 C 
HETATM   40  C35 UNL     1     -17.008   6.369  12.615  1.00  0.00     0.020 C 
HETATM   41  C36 UNL     1     -17.145   7.013  15.018  1.00  0.00     0.020 C 
HETATM   42  C32 UNL     1     -14.476   8.731  12.955  1.00  0.00     0.101 C 
BRANCH  37  43
HETATM   43  C5  UNL     1     -15.021   4.981  14.799  1.00  0.00     0.006 C 
HETATM   44  C4  UNL     1     -15.757   3.916  14.439  1.00  0.00    -0.002 C 
BRANCH  44  45
HETATM   45  C3  UNL     1     -15.804   2.707  15.228  1.00  0.00    -0.005 C 
HETATM   46  C2  UNL     1     -16.902   2.014  15.562  1.00  0.00    -0.031 C 
HETATM   47  C1  UNL     1     -18.329   2.310  15.236  1.00  0.00     0.036 C 
ENDBRANCH  44  45
ENDBRANCH  37  43
BRANCH  39  48
HETATM   48  O9  UNL     1     -16.803   9.102  12.532  1.00  0.00    -0.395 OA
HETATM   49  H47 UNL     1     -17.677   9.157  12.955  1.00  0.00     0.210 HD
ENDBRANCH  39  48
BRANCH  35  50
HETATM   50  O2  UNL     1     -12.327   7.595  13.171  1.00  0.00    -0.364 OA
HETATM   51  H9  UNL     1     -12.692   7.165  12.380  1.00  0.00     0.213 HD
ENDBRANCH  35  50
ENDBRANCH  33  35
ENDBRANCH  30  33
ENDBRANCH  28  29
ENDBRANCH   1  28
TORSDOF 19
ENDMDL
MODEL 9
REMARK minimizedAffinity -8.1596632
REMARK CNNscore 0.346284032
REMARK CNNaffinity 6.60973597
REMARK  19 active torsions:
REMARK  status: ('A' for Active; 'I' for Inactive)
REMARK    1  A    between atoms: C3_3  and  C4_4 
REMARK    2  A    between atoms: C5_5  and  C6_6 
REMARK    3  A    between atoms: C7_8  and  O2_9 
REMARK    4  A    between atoms: C7_8  and  C8_10 
REMARK    5  A    between atoms: C8_10  and  C10_12 
REMARK       I    between atoms: C10_12  and  N1_14 
REMARK    6  A    between atoms: N1_14  and  C11_15 
REMARK    7  A    between atoms: C11_15  and  C12_16 
REMARK    8  A    between atoms: C13_17  and  C14_18 
REMARK    9  A    between atoms: C15_19  and  C17_21 
REMARK   10  A    between atoms: C17_21  and  O4_22 
REMARK   11  A    between atoms: C17_21  and  C19_24 
REMARK   12  A    between atoms: C19_24  and  C21_26 
REMARK   13  A    between atoms: C23_28  and  O5_29 
REMARK   14  A    between atoms: C24_30  and  C25_31 
REMARK   15  A    between atoms: C26_32  and  C27_33 
REMARK   16  A    between atoms: C28_34  and  C29_35 
REMARK   17  A    between atoms: C30_36  and  C31_37 
REMARK   18  A    between atoms: C31_37  and  O7_39 
REMARK   19  A    between atoms: C33_42  and  O9_43 
ROOT
HETATM    1  C12 UNL     1      -3.581   5.782  12.690  1.00  0.00    -0.007 C 
HETATM    2  C13 UNL     1      -4.773   5.229  12.967  1.00  0.00    -0.002 C 
ENDROOT
BRANCH   2   3
HETATM    3  C14 UNL     1      -5.761   5.875  13.799  1.00  0.00     0.005 C 
HETATM    4  C15 UNL     1      -7.099   5.873  13.627  1.00  0.00    -0.055 C 
HETATM    5  C16 UNL     1      -7.809   5.264  12.441  1.00  0.00     0.046 C 
BRANCH   4   6
HETATM    6  C17 UNL     1      -8.052   6.446  14.684  1.00  0.00     0.155 C 
BRANCH   6   7
HETATM    7  O4  UNL     1      -7.779   5.874  15.980  1.00  0.00    -0.386 OA
HETATM    8  C18 UNL     1      -7.716   4.453  15.947  1.00  0.00     0.202 C 
ENDBRANCH   6   7
BRANCH   6   9
HETATM    9  C19 UNL     1      -7.985   7.996  14.820  1.00  0.00     0.044 C 
HETATM   10  C20 UNL     1      -6.689   8.459  15.499  1.00  0.00     0.015 C 
BRANCH   9  11
HETATM   11  C21 UNL     1      -9.222   8.498  15.594  1.00  0.00     0.131 C 
HETATM   12  C22 UNL     1      -9.558   9.986  15.424  1.00  0.00     0.067 C 
HETATM   13  C23 UNL     1     -11.013  10.016  14.998  1.00  0.00     0.153 C 
HETATM   14  C24 UNL     1     -11.517   8.619  15.372  1.00  0.00     0.173 C 
HETATM   15  O8  UNL     1     -10.387   7.760  15.178  1.00  0.00    -0.374 OA
BRANCH  13  16
HETATM   16  O5  UNL     1     -11.042  10.275  13.590  1.00  0.00    -0.393 OA
HETATM   17  H35 UNL     1     -11.978  10.292  13.328  1.00  0.00     0.210 HD
ENDBRANCH  13  16
BRANCH  14  18
HETATM   18  C25 UNL     1     -12.650   8.086  14.545  1.00  0.00     0.007 C 
HETATM   19  C26 UNL     1     -13.289   6.930  14.784  1.00  0.00    -0.001 C 
BRANCH  19  20
HETATM   20  C27 UNL     1     -14.349   6.432  13.934  1.00  0.00    -0.000 C 
HETATM   21  C28 UNL     1     -15.546   6.051  14.406  1.00  0.00     0.000 C 
BRANCH  21  22
HETATM   22  C29 UNL     1     -16.592   5.538  13.547  1.00  0.00     0.007 C 
HETATM   23  C30 UNL     1     -17.161   6.144  12.494  1.00  0.00     0.081 C 
BRANCH  23  24
HETATM   24  C31 UNL     1     -16.849   7.483  11.973  1.00  0.00     0.165 C 
HETATM   25  O6  UNL     1     -16.048   7.798  11.117  1.00  0.00    -0.647 OA
BRANCH  24  26
HETATM   26  O7  UNL     1     -17.613   8.396  12.596  1.00  0.00    -0.773 OA
HETATM   27  H43 UNL     1     -17.334   9.245  12.195  1.00  0.00     0.167 HD
ENDBRANCH  24  26
ENDBRANCH  23  24
ENDBRANCH  21  22
ENDBRANCH  19  20
ENDBRANCH  14  18
ENDBRANCH   9  11
ENDBRANCH   6   9
ENDBRANCH   4   6
ENDBRANCH   2   3
BRANCH   1  28
HETATM   28  C11 UNL     1      -2.490   5.067  11.956  1.00  0.00     0.149 C 
BRANCH  28  29
HETATM   29  N1  UNL     1      -1.218   5.603  12.362  1.00  0.00    -0.357 N 
HETATM   30  C10 UNL     1      -0.992   6.951  12.488  1.00  0.00     0.227 C 
HETATM   31  O3  UNL     1      -1.845   7.796  12.226  1.00  0.00    -0.273 OA
HETATM   32  H14 UNL     1      -0.542   4.981  12.804  1.00  0.00     0.162 HD
BRANCH  30  33
HETATM   33  C8  UNL     1       0.419   7.309  12.940  1.00  0.00     0.136 C 
HETATM   34  C9  UNL     1       1.184   6.037  13.321  1.00  0.00     0.026 C 
BRANCH  33  35
HETATM   35  C7  UNL     1       1.155   8.210  11.913  1.00  0.00     0.176 C 
HETATM   36  O1  UNL     1       2.406   7.561  11.646  1.00  0.00    -0.344 OA
HETATM   37  C6  UNL     1       3.053   8.016  10.460  1.00  0.00     0.158 C 
HETATM   38  C34 UNL     1       2.285   7.490   9.210  1.00  0.00     0.008 C 
HETATM   39  C33 UNL     1       0.753   7.510   9.505  1.00  0.00     0.134 C 
HETATM   40  C35 UNL     1       2.658   8.361   7.991  1.00  0.00     0.020 C 
HETATM   41  C36 UNL     1       2.658   6.028   8.865  1.00  0.00     0.020 C 
HETATM   42  C32 UNL     1       0.375   8.489  10.614  1.00  0.00     0.101 C 
BRANCH  37  43
HETATM   43  C5  UNL     1       4.489   7.579  10.576  1.00  0.00     0.006 C 
HETATM   44  C4  UNL     1       5.513   8.388  10.900  1.00  0.00    -0.002 C 
BRANCH  44  45
HETATM   45  C3  UNL     1       6.866   7.905  11.035  1.00  0.00    -0.005 C 
HETATM   46  C2  UNL     1       7.413   7.353  12.128  1.00  0.00    -0.031 C 
HETATM   47  C1  UNL     1       6.791   7.114  13.464  1.00  0.00     0.036 C 
ENDBRANCH  44  45
ENDBRANCH  37  43
BRANCH  39  48
HETATM   48  O9  UNL     1      -0.010   7.837   8.343  1.00  0.00    -0.395 OA
HETATM   49  H47 UNL     1       0.077   7.099   7.715  1.00  0.00     0.210 HD
ENDBRANCH  39  48
BRANCH  35  50
HETATM   50  O2  UNL     1       1.452   9.444  12.585  1.00  0.00    -0.364 OA
HETATM   51  H9  UNL     1       1.677  10.102  11.906  1.00  0.00     0.213 HD
ENDBRANCH  35  50
ENDBRANCH  33  35
ENDBRANCH  30  33
ENDBRANCH  28  29
ENDBRANCH   1  28
TORSDOF 19
ENDMDL
