MODEL 1
REMARK minimizedAffinity -9.98214245
REMARK CNNscore 0.428180367
REMARK CNNaffinity 7.63618279
REMARK  11 active torsions:
REMARK  status: ('A' for Active; 'I' for Inactive)
REMARK    1  A    between atoms: C3_3  and  O1_4 
REMARK    2  A    between atoms: N1_14  and  O2_16 
REMARK    3  A    between atoms: O2_16  and  C13_17 
REMARK    4  A    between atoms: C13_17  and  C14_18 
REMARK       I    between atoms: C14_18  and  N2_20 
REMARK    5  A    between atoms: N2_20  and  C15_21 
REMARK    6  A    between atoms: C15_21  and  C16_22 
REMARK    7  A    between atoms: C15_21  and  C17_25 
REMARK    8  A    between atoms: C16_22  and  O5_24 
REMARK    9  A    between atoms: C17_25  and  O6_26 
REMARK   10  A    between atoms: C17_25  and  C18_27 
REMARK   11  A    between atoms: C22_31  and  N3_32 
ROOT
HETATM    1  C1  UNL     1       2.010  51.450 -27.846  1.00  0.00     0.015 C 
HETATM    2  C2  UNL     1       1.245  52.067 -27.155  1.00  0.00    -0.078 C 
HETATM    3  C3  UNL     1       0.318  52.838 -26.314  1.00  0.00     0.128 C 
HETATM    4  C4  UNL     1       0.785  52.883 -24.860  1.00  0.00     0.052 C 
HETATM    5  C5  UNL     1      -0.454  53.285 -24.066  1.00  0.00     0.010 C 
HETATM    6  C6  UNL     1      -1.683  52.864 -24.902  1.00  0.00     0.002 C 
HETATM    7  C7  UNL     1      -2.647  51.895 -24.186  1.00  0.00    -0.004 C 
HETATM    8  C8  UNL     1      -3.324  52.530 -22.965  1.00  0.00     0.010 C 
HETATM    9  C9  UNL     1      -4.388  51.592 -22.405  1.00  0.00     0.035 C 
HETATM   10  C10 UNL     1      -3.856  50.208 -22.100  1.00  0.00    -0.069 C 
HETATM   11  C11 UNL     1      -4.216  49.609 -20.950  1.00  0.00     0.030 C 
HETATM   12  C12 UNL     1      -3.890  48.191 -20.662  1.00  0.00     0.032 C 
HETATM   13  N1  UNL     1      -4.451  47.644 -19.620  1.00  0.00    -0.271 N 
ATOM     14  H1  UNL     1      -5.053  48.142 -18.964  1.00  0.00     0.194 HD
HETATM   15  C24 UNL     1      -3.017  47.440 -21.644  1.00  0.00     0.060 C 
HETATM   16  C25 UNL     1      -2.173  48.381 -22.496  1.00  0.00     0.020 C 
HETATM   17  C26 UNL     1      -2.982  49.530 -23.167  1.00  0.00    -0.016 C 
HETATM   18  C27 UNL     1      -3.916  48.948 -24.252  1.00  0.00     0.020 C 
HETATM   19  C28 UNL     1      -1.960  50.570 -23.766  1.00  0.00     0.002 C 
HETATM   20  C29 UNL     1      -1.051  50.022 -24.891  1.00  0.00     0.007 C 
HETATM   21  C30 UNL     1      -1.255  50.710 -26.239  1.00  0.00     0.014 C 
HETATM   22  C31 UNL     1      -1.137  52.265 -26.241  1.00  0.00     0.003 C 
HETATM   23  C32 UNL     1      -1.991  52.766 -27.433  1.00  0.00     0.020 C 
ENDROOT
BRANCH   3  24
HETATM   24  O1  UNL     1       0.324  54.181 -26.809  1.00  0.00    -0.377 OA
HETATM   25  H2  UNL     1      -0.239  54.726 -26.236  1.00  0.00     0.211 HD
ENDBRANCH   3  24
BRANCH  13  26
HETATM   26  O2  UNL     1      -4.124  46.283 -19.514  1.00  0.00    -0.271 OA
BRANCH  26  27
HETATM   27  C13 UNL     1      -3.379  46.077 -18.318  1.00  0.00     0.303 C 
BRANCH  27  28
HETATM   28  C14 UNL     1      -3.255  47.373 -17.534  1.00  0.00     0.244 C 
HETATM   29  O3  UNL     1      -4.225  48.055 -17.207  1.00  0.00    -0.271 OA
HETATM   30  N2  UNL     1      -1.961  47.771 -17.293  1.00  0.00    -0.342 N 
HETATM   31  H16 UNL     1      -1.195  47.132 -17.498  1.00  0.00     0.163 HD
BRANCH  30  32
HETATM   32  C15 UNL     1      -1.651  49.042 -16.629  1.00  0.00     0.216 C 
BRANCH  32  33
HETATM   33  C16 UNL     1      -2.519  49.221 -15.384  1.00  0.00     0.166 C 
HETATM   34  O4  UNL     1      -2.418  48.594 -14.337  1.00  0.00    -0.648 OA
BRANCH  33  35
HETATM   35  O5  UNL     1      -3.453  50.191 -15.490  1.00  0.00    -0.775 OA
HETATM   36  H18 UNL     1      -3.963  50.132 -14.650  1.00  0.00     0.167 HD
ENDBRANCH  33  35
ENDBRANCH  32  33
BRANCH  32  37
HETATM   37  C17 UNL     1      -1.810  50.253 -17.593  1.00  0.00     0.184 C 
BRANCH  37  38
HETATM   38  O6  UNL     1      -2.981  51.014 -17.248  1.00  0.00    -0.388 OA
HETATM   39  H20 UNL     1      -2.791  51.480 -16.412  1.00  0.00     0.210 HD
ENDBRANCH  37  38
BRANCH  37  40
HETATM   40  C18 UNL     1      -0.573  51.140 -17.715  1.00  0.00    -0.025 A 
HETATM   41  C19 UNL     1       0.254  51.436 -16.615  1.00  0.00     0.010 A 
HETATM   42  C20 UNL     1       1.378  52.261 -16.752  1.00  0.00     0.003 A 
HETATM   43  C21 UNL     1       1.695  52.821 -17.986  1.00  0.00     0.036 A 
HETATM   44  C22 UNL     1       0.868  52.561 -19.083  1.00  0.00     0.103 A 
HETATM   45  C23 UNL     1      -0.262  51.736 -18.952  1.00  0.00     0.045 A 
BRANCH  44  46
HETATM   46  N3  UNL     1       1.182  53.166 -20.385  1.00  0.00    -0.116 N 
HETATM   47  O7  UNL     1       1.436  52.401 -21.330  1.00  0.00    -0.532 OA
HETATM   48  O8  UNL     1       1.176  54.407 -20.466  1.00  0.00    -0.532 OA
ENDBRANCH  44  46
ENDBRANCH  37  40
ENDBRANCH  32  37
ENDBRANCH  30  32
ENDBRANCH  27  28
ENDBRANCH  26  27
ENDBRANCH  13  26
TORSDOF 11
ENDMDL
MODEL 2
REMARK minimizedAffinity -9.92624378
REMARK CNNscore 0.324851274
REMARK CNNaffinity 7.16470575
REMARK  11 active torsions:
REMARK  status: ('A' for Active; 'I' for Inactive)
REMARK    1  A    between atoms: C3_3  and  O1_4 
REMARK    2  A    between atoms: N1_14  and  O2_16 
REMARK    3  A    between atoms: O2_16  and  C13_17 
REMARK    4  A    between atoms: C13_17  and  C14_18 
REMARK       I    between atoms: C14_18  and  N2_20 
REMARK    5  A    between atoms: N2_20  and  C15_21 
REMARK    6  A    between atoms: C15_21  and  C16_22 
REMARK    7  A    between atoms: C15_21  and  C17_25 
REMARK    8  A    between atoms: C16_22  and  O5_24 
REMARK    9  A    between atoms: C17_25  and  O6_26 
REMARK   10  A    between atoms: C17_25  and  C18_27 
REMARK   11  A    between atoms: C22_31  and  N3_32 
ROOT
HETATM    1  C1  UNL     1       2.028  51.541 -27.781  1.00  0.00     0.015 C 
HETATM    2  C2  UNL     1       1.245  52.141 -27.094  1.00  0.00    -0.078 C 
HETATM    3  C3  UNL     1       0.297  52.892 -26.258  1.00  0.00     0.128 C 
HETATM    4  C4  UNL     1       0.715  52.881 -24.789  1.00  0.00     0.052 C 
HETATM    5  C5  UNL     1      -0.547  53.269 -24.024  1.00  0.00     0.010 C 
HETATM    6  C6  UNL     1      -1.750  52.889 -24.915  1.00  0.00     0.002 C 
HETATM    7  C7  UNL     1      -2.746  51.906 -24.266  1.00  0.00    -0.004 C 
HETATM    8  C8  UNL     1      -3.459  52.505 -23.047  1.00  0.00     0.010 C 
HETATM    9  C9  UNL     1      -4.550  51.558 -22.556  1.00  0.00     0.035 C 
HETATM   10  C10 UNL     1      -4.041  50.159 -22.283  1.00  0.00    -0.069 C 
HETATM   11  C11 UNL     1      -4.446  49.524 -21.168  1.00  0.00     0.030 C 
HETATM   12  C12 UNL     1      -4.142  48.093 -20.918  1.00  0.00     0.032 C 
HETATM   13  N1  UNL     1      -4.743  47.516 -19.916  1.00  0.00    -0.271 N 
ATOM     14  H1  UNL     1      -5.362  47.997 -19.264  1.00  0.00     0.194 HD
HETATM   15  C24 UNL     1      -3.243  47.369 -21.897  1.00  0.00     0.060 C 
HETATM   16  C25 UNL     1      -2.362  48.330 -22.686  1.00  0.00     0.020 C 
HETATM   17  C26 UNL     1      -3.137  49.510 -23.343  1.00  0.00    -0.016 C 
HETATM   18  C27 UNL     1      -4.039  48.975 -24.479  1.00  0.00     0.020 C 
HETATM   19  C28 UNL     1      -2.086  50.560 -23.870  1.00  0.00     0.002 C 
HETATM   20  C29 UNL     1      -1.144  50.043 -24.982  1.00  0.00     0.007 C 
HETATM   21  C30 UNL     1      -1.296  50.779 -26.312  1.00  0.00     0.014 C 
HETATM   22  C31 UNL     1      -1.165  52.332 -26.255  1.00  0.00     0.003 C 
HETATM   23  C32 UNL     1      -1.973  52.883 -27.456  1.00  0.00     0.020 C 
ENDROOT
BRANCH   3  24
HETATM   24  O1  UNL     1       0.332  54.251 -26.706  1.00  0.00    -0.377 OA
HETATM   25  H2  UNL     1      -0.245  54.782 -26.133  1.00  0.00     0.211 HD
ENDBRANCH   3  24
BRANCH  13  26
HETATM   26  O2  UNL     1      -4.432  46.149 -19.848  1.00  0.00    -0.271 OA
BRANCH  26  27
HETATM   27  C13 UNL     1      -3.138  45.997 -19.272  1.00  0.00     0.303 C 
BRANCH  27  28
HETATM   28  C14 UNL     1      -3.015  46.824 -18.002  1.00  0.00     0.244 C 
HETATM   29  O3  UNL     1      -3.641  46.571 -16.975  1.00  0.00    -0.271 OA
HETATM   30  N2  UNL     1      -2.213  47.934 -18.121  1.00  0.00    -0.342 N 
HETATM   31  H16 UNL     1      -1.643  48.051 -18.957  1.00  0.00     0.163 HD
BRANCH  30  32
HETATM   32  C15 UNL     1      -2.051  48.895 -17.025  1.00  0.00     0.216 C 
BRANCH  32  33
HETATM   33  C16 UNL     1      -3.224  49.874 -16.994  1.00  0.00     0.166 C 
HETATM   34  O4  UNL     1      -3.171  51.053 -16.666  1.00  0.00    -0.648 OA
BRANCH  33  35
HETATM   35  O5  UNL     1      -4.401  49.348 -17.397  1.00  0.00    -0.775 OA
HETATM   36  H18 UNL     1      -5.054  50.071 -17.252  1.00  0.00     0.167 HD
ENDBRANCH  33  35
ENDBRANCH  32  33
BRANCH  32  37
HETATM   37  C17 UNL     1      -0.697  49.657 -17.118  1.00  0.00     0.184 C 
BRANCH  37  38
HETATM   38  O6  UNL     1       0.383  48.806 -16.697  1.00  0.00    -0.388 OA
HETATM   39  H20 UNL     1       0.514  48.133 -17.392  1.00  0.00     0.210 HD
ENDBRANCH  37  38
BRANCH  37  40
HETATM   40  C18 UNL     1      -0.416  50.300 -18.474  1.00  0.00    -0.025 A 
HETATM   41  C19 UNL     1      -0.385  49.557 -19.669  1.00  0.00     0.010 A 
HETATM   42  C20 UNL     1      -0.115  50.170 -20.900  1.00  0.00     0.003 A 
HETATM   43  C21 UNL     1       0.143  51.536 -20.965  1.00  0.00     0.036 A 
HETATM   44  C22 UNL     1       0.144  52.284 -19.784  1.00  0.00     0.103 A 
HETATM   45  C23 UNL     1      -0.124  51.675 -18.546  1.00  0.00     0.045 A 
BRANCH  44  46
HETATM   46  N3  UNL     1       0.438  53.723 -19.839  1.00  0.00    -0.116 N 
HETATM   47  O7  UNL     1       1.359  54.096 -20.585  1.00  0.00    -0.532 OA
HETATM   48  O8  UNL     1      -0.250  54.484 -19.137  1.00  0.00    -0.532 OA
ENDBRANCH  44  46
ENDBRANCH  37  40
ENDBRANCH  32  37
ENDBRANCH  30  32
ENDBRANCH  27  28
ENDBRANCH  26  27
ENDBRANCH  13  26
TORSDOF 11
ENDMDL
MODEL 3
REMARK minimizedAffinity -8.84670544
REMARK CNNscore 0.317196399
REMARK CNNaffinity 6.21771574
REMARK  11 active torsions:
REMARK  status: ('A' for Active; 'I' for Inactive)
REMARK    1  A    between atoms: C3_3  and  O1_4 
REMARK    2  A    between atoms: N1_14  and  O2_16 
REMARK    3  A    between atoms: O2_16  and  C13_17 
REMARK    4  A    between atoms: C13_17  and  C14_18 
REMARK       I    between atoms: C14_18  and  N2_20 
REMARK    5  A    between atoms: N2_20  and  C15_21 
REMARK    6  A    between atoms: C15_21  and  C16_22 
REMARK    7  A    between atoms: C15_21  and  C17_25 
REMARK    8  A    between atoms: C16_22  and  O5_24 
REMARK    9  A    between atoms: C17_25  and  O6_26 
REMARK   10  A    between atoms: C17_25  and  C18_27 
REMARK   11  A    between atoms: C22_31  and  N3_32 
ROOT
HETATM    1  C1  UNL     1      -1.895  51.124 -17.848  1.00  0.00     0.015 C 
HETATM    2  C2  UNL     1      -1.705  50.986 -19.027  1.00  0.00    -0.078 C 
HETATM    3  C3  UNL     1      -1.458  50.829 -20.468  1.00  0.00     0.128 C 
HETATM    4  C4  UNL     1      -2.237  51.858 -21.286  1.00  0.00     0.052 C 
HETATM    5  C5  UNL     1      -2.254  51.294 -22.703  1.00  0.00     0.010 C 
HETATM    6  C6  UNL     1      -2.079  49.764 -22.583  1.00  0.00     0.002 C 
HETATM    7  C7  UNL     1      -3.219  48.935 -23.208  1.00  0.00    -0.004 C 
HETATM    8  C8  UNL     1      -3.307  49.104 -24.730  1.00  0.00     0.010 C 
HETATM    9  C9  UNL     1      -4.332  48.134 -25.310  1.00  0.00     0.035 C 
HETATM   10  C10 UNL     1      -5.690  48.242 -24.650  1.00  0.00    -0.069 C 
HETATM   11  C11 UNL     1      -6.793  48.229 -25.420  1.00  0.00     0.030 C 
HETATM   12  C12 UNL     1      -8.158  48.147 -24.845  1.00  0.00     0.032 C 
HETATM   13  N1  UNL     1      -9.147  47.937 -25.668  1.00  0.00    -0.271 N 
ATOM     14  H1  UNL     1      -9.048  47.881 -26.682  1.00  0.00     0.194 HD
HETATM   15  C24 UNL     1      -8.308  48.205 -23.340  1.00  0.00     0.060 C 
HETATM   16  C25 UNL     1      -7.110  48.866 -22.670  1.00  0.00     0.020 C 
HETATM   17  C26 UNL     1      -5.734  48.290 -23.114  1.00  0.00    -0.016 C 
HETATM   18  C27 UNL     1      -5.576  46.846 -22.586  1.00  0.00     0.020 C 
HETATM   19  C28 UNL     1      -4.599  49.243 -22.573  1.00  0.00     0.002 C 
HETATM   20  C29 UNL     1      -4.505  49.339 -21.032  1.00  0.00     0.007 C 
HETATM   21  C30 UNL     1      -3.185  48.824 -20.461  1.00  0.00     0.014 C 
HETATM   22  C31 UNL     1      -1.888  49.447 -21.063  1.00  0.00     0.003 C 
HETATM   23  C32 UNL     1      -0.770  48.391 -20.877  1.00  0.00     0.020 C 
ENDROOT
BRANCH   3  24
HETATM   24  O1  UNL     1      -0.064  51.077 -20.681  1.00  0.00    -0.377 OA
HETATM   25  H2  UNL     1       0.117  51.034 -21.634  1.00  0.00     0.211 HD
ENDBRANCH   3  24
BRANCH  13  26
HETATM   26  O2  UNL     1     -10.364  47.797 -24.985  1.00  0.00    -0.271 OA
BRANCH  26  27
HETATM   27  C13 UNL     1     -11.246  46.998 -25.767  1.00  0.00     0.303 C 
BRANCH  27  28
HETATM   28  C14 UNL     1     -12.657  47.046 -25.201  1.00  0.00     0.244 C 
HETATM   29  O3  UNL     1     -13.640  47.341 -25.877  1.00  0.00    -0.271 OA
HETATM   30  N2  UNL     1     -12.736  46.818 -23.848  1.00  0.00    -0.342 N 
HETATM   31  H16 UNL     1     -11.912  46.487 -23.348  1.00  0.00     0.163 HD
BRANCH  30  32
HETATM   32  C15 UNL     1     -14.004  46.914 -23.117  1.00  0.00     0.216 C 
BRANCH  32  33
HETATM   33  C16 UNL     1     -13.748  47.155 -21.630  1.00  0.00     0.166 C 
HETATM   34  O4  UNL     1     -13.669  48.245 -21.078  1.00  0.00    -0.648 OA
BRANCH  33  35
HETATM   35  O5  UNL     1     -13.630  46.028 -20.895  1.00  0.00    -0.775 OA
HETATM   36  H18 UNL     1     -13.401  46.349 -19.992  1.00  0.00     0.167 HD
ENDBRANCH  33  35
ENDBRANCH  32  33
BRANCH  32  37
HETATM   37  C17 UNL     1     -14.891  45.654 -23.328  1.00  0.00     0.184 C 
BRANCH  37  38
HETATM   38  O6  UNL     1     -14.620  44.676 -22.308  1.00  0.00    -0.388 OA
HETATM   39  H20 UNL     1     -14.993  45.015 -21.473  1.00  0.00     0.210 HD
ENDBRANCH  37  38
BRANCH  37  40
HETATM   40  C18 UNL     1     -16.386  45.938 -23.457  1.00  0.00    -0.025 A 
HETATM   41  C19 UNL     1     -16.910  46.778 -24.458  1.00  0.00     0.010 A 
HETATM   42  C20 UNL     1     -18.286  47.030 -24.549  1.00  0.00     0.003 A 
HETATM   43  C21 UNL     1     -19.168  46.461 -23.635  1.00  0.00     0.036 A 
HETATM   44  C22 UNL     1     -18.661  45.648 -22.617  1.00  0.00     0.103 A 
HETATM   45  C23 UNL     1     -17.283  45.393 -22.519  1.00  0.00     0.045 A 
BRANCH  44  46
HETATM   46  N3  UNL     1     -19.583  45.061 -21.634  1.00  0.00    -0.116 N 
HETATM   47  O7  UNL     1     -20.345  44.161 -22.024  1.00  0.00    -0.532 OA
HETATM   48  O8  UNL     1     -19.548  45.500 -20.471  1.00  0.00    -0.532 OA
ENDBRANCH  44  46
ENDBRANCH  37  40
ENDBRANCH  32  37
ENDBRANCH  30  32
ENDBRANCH  27  28
ENDBRANCH  26  27
ENDBRANCH  13  26
TORSDOF 11
ENDMDL
MODEL 4
REMARK minimizedAffinity -8.99637127
REMARK CNNscore 0.277549863
REMARK CNNaffinity 6.357903
REMARK  11 active torsions:
REMARK  status: ('A' for Active; 'I' for Inactive)
REMARK    1  A    between atoms: C3_3  and  O1_4 
REMARK    2  A    between atoms: N1_14  and  O2_16 
REMARK    3  A    between atoms: O2_16  and  C13_17 
REMARK    4  A    between atoms: C13_17  and  C14_18 
REMARK       I    between atoms: C14_18  and  N2_20 
REMARK    5  A    between atoms: N2_20  and  C15_21 
REMARK    6  A    between atoms: C15_21  and  C16_22 
REMARK    7  A    between atoms: C15_21  and  C17_25 
REMARK    8  A    between atoms: C16_22  and  O5_24 
REMARK    9  A    between atoms: C17_25  and  O6_26 
REMARK   10  A    between atoms: C17_25  and  C18_27 
REMARK   11  A    between atoms: C22_31  and  N3_32 
ROOT
HETATM    1  C1  UNL     1      -0.021  51.666 -28.263  1.00  0.00     0.015 C 
HETATM    2  C2  UNL     1      -1.068  51.525 -27.690  1.00  0.00    -0.078 C 
HETATM    3  C3  UNL     1      -2.358  51.357 -27.005  1.00  0.00     0.128 C 
HETATM    4  C4  UNL     1      -2.730  52.601 -26.199  1.00  0.00     0.052 C 
HETATM    5  C5  UNL     1      -3.795  52.122 -25.217  1.00  0.00     0.010 C 
HETATM    6  C6  UNL     1      -3.580  50.605 -25.021  1.00  0.00     0.002 C 
HETATM    7  C7  UNL     1      -3.329  50.174 -23.562  1.00  0.00    -0.004 C 
HETATM    8  C8  UNL     1      -4.542  50.420 -22.656  1.00  0.00     0.010 C 
HETATM    9  C9  UNL     1      -4.300  49.818 -21.275  1.00  0.00     0.035 C 
HETATM   10  C10 UNL     1      -3.013  50.297 -20.638  1.00  0.00    -0.069 C 
HETATM   11  C11 UNL     1      -3.017  50.639 -19.337  1.00  0.00     0.030 C 
HETATM   12  C12 UNL     1      -1.768  50.941 -18.595  1.00  0.00     0.032 C 
HETATM   13  N1  UNL     1      -1.851  51.064 -17.300  1.00  0.00    -0.271 N 
ATOM     14  H1  UNL     1      -2.724  51.021 -16.774  1.00  0.00     0.194 HD
HETATM   15  C24 UNL     1      -0.466  50.983 -19.367  1.00  0.00     0.060 C 
HETATM   16  C25 UNL     1      -0.689  51.235 -20.853  1.00  0.00     0.020 C 
HETATM   17  C26 UNL     1      -1.745  50.296 -21.507  1.00  0.00    -0.016 C 
HETATM   18  C27 UNL     1      -1.199  48.850 -21.557  1.00  0.00     0.020 C 
HETATM   19  C28 UNL     1      -2.077  50.850 -22.945  1.00  0.00     0.002 C 
HETATM   20  C29 UNL     1      -0.890  50.855 -23.936  1.00  0.00     0.007 C 
HETATM   21  C30 UNL     1      -1.096  49.952 -25.151  1.00  0.00     0.014 C 
HETATM   22  C31 UNL     1      -2.405  50.187 -25.967  1.00  0.00     0.003 C 
HETATM   23  C32 UNL     1      -2.735  48.842 -26.661  1.00  0.00     0.020 C 
ENDROOT
BRANCH   3  24
HETATM   24  O1  UNL     1      -3.351  51.191 -28.022  1.00  0.00    -0.377 OA
HETATM   25  H2  UNL     1      -4.223  51.133 -27.599  1.00  0.00     0.211 HD
ENDBRANCH   3  24
BRANCH  13  26
HETATM   26  O2  UNL     1      -0.589  51.263 -16.720  1.00  0.00    -0.271 OA
BRANCH  26  27
HETATM   27  C13 UNL     1      -0.620  50.803 -15.373  1.00  0.00     0.303 C 
BRANCH  27  28
HETATM   28  C14 UNL     1       0.546  51.377 -14.584  1.00  0.00     0.244 C 
HETATM   29  O3  UNL     1       0.833  52.573 -14.585  1.00  0.00    -0.271 OA
HETATM   30  N2  UNL     1       1.313  50.438 -13.935  1.00  0.00    -0.342 N 
HETATM   31  H16 UNL     1       0.985  49.474 -13.885  1.00  0.00     0.163 HD
BRANCH  30  32
HETATM   32  C15 UNL     1       2.529  50.801 -13.201  1.00  0.00     0.216 C 
BRANCH  32  33
HETATM   33  C16 UNL     1       3.627  49.765 -13.437  1.00  0.00     0.166 C 
HETATM   34  O4  UNL     1       4.780  50.000 -13.776  1.00  0.00    -0.648 OA
BRANCH  33  35
HETATM   35  O5  UNL     1       3.247  48.488 -13.215  1.00  0.00    -0.775 OA
HETATM   36  H18 UNL     1       4.030  47.951 -13.475  1.00  0.00     0.167 HD
ENDBRANCH  33  35
ENDBRANCH  32  33
BRANCH  32  37
HETATM   37  C17 UNL     1       2.255  50.979 -11.679  1.00  0.00     0.184 C 
BRANCH  37  38
HETATM   38  O6  UNL     1       3.289  50.341 -10.909  1.00  0.00    -0.388 OA
HETATM   39  H20 UNL     1       4.099  50.878 -11.005  1.00  0.00     0.210 HD
ENDBRANCH  37  38
BRANCH  37  40
HETATM   40  C18 UNL     1       2.027  52.422 -11.235  1.00  0.00    -0.025 A 
HETATM   41  C19 UNL     1       0.756  53.028 -11.265  1.00  0.00     0.010 A 
HETATM   42  C20 UNL     1       0.575  54.357 -10.860  1.00  0.00     0.003 A 
HETATM   43  C21 UNL     1       1.659  55.116 -10.430  1.00  0.00     0.036 A 
HETATM   44  C22 UNL     1       2.933  54.540 -10.422  1.00  0.00     0.103 A 
HETATM   45  C23 UNL     1       3.122  53.208 -10.828  1.00  0.00     0.045 A 
BRANCH  44  46
HETATM   46  N3  UNL     1       4.087  55.341  -9.991  1.00  0.00    -0.116 N 
HETATM   47  O7  UNL     1       4.960  55.598 -10.838  1.00  0.00    -0.532 OA
HETATM   48  O8  UNL     1       4.125  55.714  -8.806  1.00  0.00    -0.532 OA
ENDBRANCH  44  46
ENDBRANCH  37  40
ENDBRANCH  32  37
ENDBRANCH  30  32
ENDBRANCH  27  28
ENDBRANCH  26  27
ENDBRANCH  13  26
TORSDOF 11
ENDMDL
MODEL 5
REMARK minimizedAffinity -8.9425621
REMARK CNNscore 0.233667403
REMARK CNNaffinity 6.2184391
REMARK  11 active torsions:
REMARK  status: ('A' for Active; 'I' for Inactive)
REMARK    1  A    between atoms: C3_3  and  O1_4 
REMARK    2  A    between atoms: N1_14  and  O2_16 
REMARK    3  A    between atoms: O2_16  and  C13_17 
REMARK    4  A    between atoms: C13_17  and  C14_18 
REMARK       I    between atoms: C14_18  and  N2_20 
REMARK    5  A    between atoms: N2_20  and  C15_21 
REMARK    6  A    between atoms: C15_21  and  C16_22 
REMARK    7  A    between atoms: C15_21  and  C17_25 
REMARK    8  A    between atoms: C16_22  and  O5_24 
REMARK    9  A    between atoms: C17_25  and  O6_26 
REMARK   10  A    between atoms: C17_25  and  C18_27 
REMARK   11  A    between atoms: C22_31  and  N3_32 
ROOT
HETATM    1  C1  UNL     1      -0.499  51.093 -26.614  1.00  0.00     0.015 C 
HETATM    2  C2  UNL     1      -1.486  51.156 -25.931  1.00  0.00    -0.078 C 
HETATM    3  C3  UNL     1      -2.703  51.241 -25.111  1.00  0.00     0.128 C 
HETATM    4  C4  UNL     1      -2.726  52.518 -24.273  1.00  0.00     0.052 C 
HETATM    5  C5  UNL     1      -3.757  52.247 -23.182  1.00  0.00     0.010 C 
HETATM    6  C6  UNL     1      -3.837  50.715 -23.006  1.00  0.00     0.002 C 
HETATM    7  C7  UNL     1      -3.527  50.213 -21.580  1.00  0.00    -0.004 C 
HETATM    8  C8  UNL     1      -4.562  50.683 -20.550  1.00  0.00     0.010 C 
HETATM    9  C9  UNL     1      -4.303  50.018 -19.202  1.00  0.00     0.035 C 
HETATM   10  C10 UNL     1      -2.885  50.213 -18.708  1.00  0.00    -0.069 C 
HETATM   11  C11 UNL     1      -2.682  50.524 -17.415  1.00  0.00     0.030 C 
HETATM   12  C12 UNL     1      -1.326  50.551 -16.812  1.00  0.00     0.032 C 
HETATM   13  N1  UNL     1      -1.246  50.663 -15.516  1.00  0.00    -0.271 N 
ATOM     14  H1  UNL     1      -2.049  50.788 -14.900  1.00  0.00     0.194 HD
HETATM   15  C24 UNL     1      -0.133  50.343 -17.719  1.00  0.00     0.060 C 
HETATM   16  C25 UNL     1      -0.455  50.663 -19.174  1.00  0.00     0.020 C 
HETATM   17  C26 UNL     1      -1.743  49.971 -19.708  1.00  0.00    -0.016 C 
HETATM   18  C27 UNL     1      -1.513  48.446 -19.812  1.00  0.00     0.020 C 
HETATM   19  C28 UNL     1      -2.106  50.609 -21.104  1.00  0.00     0.002 C 
HETATM   20  C29 UNL     1      -1.054  50.391 -22.216  1.00  0.00     0.007 C 
HETATM   21  C30 UNL     1      -1.567  49.572 -23.399  1.00  0.00     0.014 C 
HETATM   22  C31 UNL     1      -2.878  50.085 -24.071  1.00  0.00     0.003 C 
HETATM   23  C32 UNL     1      -3.547  48.849 -24.722  1.00  0.00     0.020 C 
ENDROOT
BRANCH   3  24
HETATM   24  O1  UNL     1      -3.812  51.299 -26.016  1.00  0.00    -0.377 OA
HETATM   25  H2  UNL     1      -4.627  51.412 -25.501  1.00  0.00     0.211 HD
ENDBRANCH   3  24
BRANCH  13  26
HETATM   26  O2  UNL     1       0.084  50.590 -15.075  1.00  0.00    -0.271 OA
BRANCH  26  27
HETATM   27  C13 UNL     1       0.368  51.728 -14.267  1.00  0.00     0.303 C 
BRANCH  27  28
HETATM   28  C14 UNL     1       1.830  51.739 -13.851  1.00  0.00     0.244 C 
HETATM   29  O3  UNL     1       2.738  52.090 -14.602  1.00  0.00    -0.271 OA
HETATM   30  N2  UNL     1       2.068  51.239 -12.592  1.00  0.00    -0.342 N 
HETATM   31  H16 UNL     1       1.281  51.048 -11.974  1.00  0.00     0.163 HD
BRANCH  30  32
HETATM   32  C15 UNL     1       3.426  51.090 -12.061  1.00  0.00     0.216 C 
BRANCH  32  33
HETATM   33  C16 UNL     1       3.954  49.680 -12.326  1.00  0.00     0.166 C 
HETATM   34  O4  UNL     1       3.314  48.640 -12.228  1.00  0.00    -0.648 OA
BRANCH  33  35
HETATM   35  O5  UNL     1       5.243  49.633 -12.725  1.00  0.00    -0.775 OA
HETATM   36  H18 UNL     1       5.446  48.670 -12.782  1.00  0.00     0.167 HD
ENDBRANCH  33  35
ENDBRANCH  32  33
BRANCH  32  37
HETATM   37  C17 UNL     1       3.496  51.429 -10.544  1.00  0.00     0.184 C 
BRANCH  37  38
HETATM   38  O6  UNL     1       4.232  50.414  -9.839  1.00  0.00    -0.388 OA
HETATM   39  H20 UNL     1       5.172  50.512 -10.083  1.00  0.00     0.210 HD
ENDBRANCH  37  38
BRANCH  37  40
HETATM   40  C18 UNL     1       4.014  52.830 -10.225  1.00  0.00    -0.025 A 
HETATM   41  C19 UNL     1       3.563  53.975 -10.909  1.00  0.00     0.010 A 
HETATM   42  C20 UNL     1       4.062  55.248 -10.603  1.00  0.00     0.003 A 
HETATM   43  C21 UNL     1       5.032  55.406  -9.618  1.00  0.00     0.036 A 
HETATM   44  C22 UNL     1       5.513  54.276  -8.949  1.00  0.00     0.103 A 
HETATM   45  C23 UNL     1       5.018  52.997  -9.252  1.00  0.00     0.045 A 
BRANCH  44  46
HETATM   46  N3  UNL     1       6.554  54.431  -7.923  1.00  0.00    -0.116 N 
HETATM   47  O7  UNL     1       6.801  53.452  -7.199  1.00  0.00    -0.532 OA
HETATM   48  O8  UNL     1       7.126  55.532  -7.837  1.00  0.00    -0.532 OA
ENDBRANCH  44  46
ENDBRANCH  37  40
ENDBRANCH  32  37
ENDBRANCH  30  32
ENDBRANCH  27  28
ENDBRANCH  26  27
ENDBRANCH  13  26
TORSDOF 11
ENDMDL
MODEL 6
REMARK minimizedAffinity -9.30750084
REMARK CNNscore 0.224815875
REMARK CNNaffinity 6.49165106
REMARK  11 active torsions:
REMARK  status: ('A' for Active; 'I' for Inactive)
REMARK    1  A    between atoms: C3_3  and  O1_4 
REMARK    2  A    between atoms: N1_14  and  O2_16 
REMARK    3  A    between atoms: O2_16  and  C13_17 
REMARK    4  A    between atoms: C13_17  and  C14_18 
REMARK       I    between atoms: C14_18  and  N2_20 
REMARK    5  A    between atoms: N2_20  and  C15_21 
REMARK    6  A    between atoms: C15_21  and  C16_22 
REMARK    7  A    between atoms: C15_21  and  C17_25 
REMARK    8  A    between atoms: C16_22  and  O5_24 
REMARK    9  A    between atoms: C17_25  and  O6_26 
REMARK   10  A    between atoms: C17_25  and  C18_27 
REMARK   11  A    between atoms: C22_31  and  N3_32 
ROOT
HETATM    1  C1  UNL     1      -0.608  51.137 -26.545  1.00  0.00     0.015 C 
HETATM    2  C2  UNL     1      -1.583  51.187 -25.844  1.00  0.00    -0.078 C 
HETATM    3  C3  UNL     1      -2.786  51.257 -25.001  1.00  0.00     0.128 C 
HETATM    4  C4  UNL     1      -2.815  52.539 -24.171  1.00  0.00     0.052 C 
HETATM    5  C5  UNL     1      -3.820  52.258 -23.058  1.00  0.00     0.010 C 
HETATM    6  C6  UNL     1      -3.869  50.725 -22.871  1.00  0.00     0.002 C 
HETATM    7  C7  UNL     1      -3.523  50.239 -21.448  1.00  0.00    -0.004 C 
HETATM    8  C8  UNL     1      -4.546  50.698 -20.402  1.00  0.00     0.010 C 
HETATM    9  C9  UNL     1      -4.250  50.047 -19.054  1.00  0.00     0.035 C 
HETATM   10  C10 UNL     1      -2.827  50.270 -18.589  1.00  0.00    -0.069 C 
HETATM   11  C11 UNL     1      -2.605  50.593 -17.302  1.00  0.00     0.030 C 
HETATM   12  C12 UNL     1      -1.238  50.648 -16.726  1.00  0.00     0.032 C 
HETATM   13  N1  UNL     1      -1.135  50.770 -15.432  1.00  0.00    -0.271 N 
ATOM     14  H1  UNL     1      -1.928  50.886 -14.801  1.00  0.00     0.194 HD
HETATM   15  C24 UNL     1      -0.059  50.454 -17.654  1.00  0.00     0.060 C 
HETATM   16  C25 UNL     1      -0.414  50.759 -19.104  1.00  0.00     0.020 C 
HETATM   17  C26 UNL     1      -1.700  50.041 -19.609  1.00  0.00    -0.016 C 
HETATM   18  C27 UNL     1      -1.445  48.520 -19.708  1.00  0.00     0.020 C 
HETATM   19  C28 UNL     1      -2.100  50.663 -21.002  1.00  0.00     0.002 C 
HETATM   20  C29 UNL     1      -1.067  50.456 -22.133  1.00  0.00     0.007 C 
HETATM   21  C30 UNL     1      -1.588  49.620 -23.300  1.00  0.00     0.014 C 
HETATM   22  C31 UNL     1      -2.921  50.105 -23.950  1.00  0.00     0.003 C 
HETATM   23  C32 UNL     1      -3.580  48.853 -24.580  1.00  0.00     0.020 C 
ENDROOT
BRANCH   3  24
HETATM   24  O1  UNL     1      -3.912  51.290 -25.884  1.00  0.00    -0.377 OA
HETATM   25  H2  UNL     1      -4.719  51.392 -25.355  1.00  0.00     0.211 HD
ENDBRANCH   3  24
BRANCH  13  26
HETATM   26  O2  UNL     1       0.204  50.724 -15.016  1.00  0.00    -0.271 OA
BRANCH  26  27
HETATM   27  C13 UNL     1       0.615  52.031 -14.626  1.00  0.00     0.303 C 
BRANCH  27  28
HETATM   28  C14 UNL     1       1.869  51.965 -13.769  1.00  0.00     0.244 C 
HETATM   29  O3  UNL     1       2.871  51.331 -14.095  1.00  0.00    -0.271 OA
HETATM   30  N2  UNL     1       1.763  52.601 -12.555  1.00  0.00    -0.342 N 
HETATM   31  H16 UNL     1       0.953  53.189 -12.368  1.00  0.00     0.163 HD
BRANCH  30  32
HETATM   32  C15 UNL     1       2.842  52.563 -11.563  1.00  0.00     0.216 C 
BRANCH  32  33
HETATM   33  C16 UNL     1       2.622  51.419 -10.574  1.00  0.00     0.166 C 
HETATM   34  O4  UNL     1       3.464  50.940  -9.825  1.00  0.00    -0.648 OA
BRANCH  33  35
HETATM   35  O5  UNL     1       1.359  50.942 -10.546  1.00  0.00    -0.775 OA
HETATM   36  H18 UNL     1       1.400  50.178  -9.925  1.00  0.00     0.167 HD
ENDBRANCH  33  35
ENDBRANCH  32  33
BRANCH  32  37
HETATM   37  C17 UNL     1       2.989  53.920 -10.814  1.00  0.00     0.184 C 
BRANCH  37  38
HETATM   38  O6  UNL     1       3.687  54.871 -11.638  1.00  0.00    -0.388 OA
HETATM   39  H20 UNL     1       3.082  55.133 -12.358  1.00  0.00     0.210 HD
ENDBRANCH  37  38
BRANCH  37  40
HETATM   40  C18 UNL     1       1.684  54.493 -10.268  1.00  0.00    -0.025 A 
HETATM   41  C19 UNL     1       0.452  54.327 -10.929  1.00  0.00     0.010 A 
HETATM   42  C20 UNL     1      -0.731  54.872 -10.410  1.00  0.00     0.003 A 
HETATM   43  C21 UNL     1      -0.709  55.607  -9.229  1.00  0.00     0.036 A 
HETATM   44  C22 UNL     1       0.511  55.807  -8.575  1.00  0.00     0.103 A 
HETATM   45  C23 UNL     1       1.700  55.265  -9.090  1.00  0.00     0.045 A 
BRANCH  44  46
HETATM   46  N3  UNL     1       0.547  56.601  -7.339  1.00  0.00    -0.116 N 
HETATM   47  O7  UNL     1      -0.503  57.160  -6.981  1.00  0.00    -0.532 OA
HETATM   48  O8  UNL     1       1.626  56.670  -6.724  1.00  0.00    -0.532 OA
ENDBRANCH  44  46
ENDBRANCH  37  40
ENDBRANCH  32  37
ENDBRANCH  30  32
ENDBRANCH  27  28
ENDBRANCH  26  27
ENDBRANCH  13  26
TORSDOF 11
ENDMDL
MODEL 7
REMARK minimizedAffinity -8.658041
REMARK CNNscore 0.216989368
REMARK CNNaffinity 6.36295557
REMARK  11 active torsions:
REMARK  status: ('A' for Active; 'I' for Inactive)
REMARK    1  A    between atoms: C3_3  and  O1_4 
REMARK    2  A    between atoms: N1_14  and  O2_16 
REMARK    3  A    between atoms: O2_16  and  C13_17 
REMARK    4  A    between atoms: C13_17  and  C14_18 
REMARK       I    between atoms: C14_18  and  N2_20 
REMARK    5  A    between atoms: N2_20  and  C15_21 
REMARK    6  A    between atoms: C15_21  and  C16_22 
REMARK    7  A    between atoms: C15_21  and  C17_25 
REMARK    8  A    between atoms: C16_22  and  O5_24 
REMARK    9  A    between atoms: C17_25  and  O6_26 
REMARK   10  A    between atoms: C17_25  and  C18_27 
REMARK   11  A    between atoms: C22_31  and  N3_32 
ROOT
HETATM    1  C1  UNL     1       0.241  55.593 -26.647  1.00  0.00     0.015 C 
HETATM    2  C2  UNL     1      -0.092  54.478 -26.946  1.00  0.00    -0.078 C 
HETATM    3  C3  UNL     1      -0.494  53.117 -27.331  1.00  0.00     0.128 C 
HETATM    4  C4  UNL     1      -1.979  53.050 -27.685  1.00  0.00     0.052 C 
HETATM    5  C5  UNL     1      -2.331  51.568 -27.603  1.00  0.00     0.010 C 
HETATM    6  C6  UNL     1      -1.312  50.914 -26.643  1.00  0.00     0.002 C 
HETATM    7  C7  UNL     1      -1.939  50.204 -25.426  1.00  0.00    -0.004 C 
HETATM    8  C8  UNL     1      -2.792  48.993 -25.822  1.00  0.00     0.010 C 
HETATM    9  C9  UNL     1      -3.239  48.233 -24.577  1.00  0.00     0.035 C 
HETATM   10  C10 UNL     1      -3.944  49.114 -23.568  1.00  0.00    -0.069 C 
HETATM   11  C11 UNL     1      -5.060  48.658 -22.971  1.00  0.00     0.030 C 
HETATM   12  C12 UNL     1      -5.704  49.377 -21.844  1.00  0.00     0.032 C 
HETATM   13  N1  UNL     1      -6.656  48.760 -21.201  1.00  0.00    -0.271 N 
ATOM     14  H1  UNL     1      -7.022  47.843 -21.458  1.00  0.00     0.194 HD
HETATM   15  C24 UNL     1      -5.151  50.727 -21.443  1.00  0.00     0.060 C 
HETATM   16  C25 UNL     1      -4.370  51.385 -22.575  1.00  0.00     0.020 C 
HETATM   17  C26 UNL     1      -3.297  50.465 -23.227  1.00  0.00    -0.016 C 
HETATM   18  C27 UNL     1      -2.150  50.207 -22.223  1.00  0.00     0.020 C 
HETATM   19  C28 UNL     1      -2.780  51.162 -24.544  1.00  0.00     0.002 C 
HETATM   20  C29 UNL     1      -2.060  52.514 -24.330  1.00  0.00     0.007 C 
HETATM   21  C30 UNL     1      -0.594  52.507 -24.758  1.00  0.00     0.014 C 
HETATM   22  C31 UNL     1      -0.307  52.035 -26.216  1.00  0.00     0.003 C 
HETATM   23  C32 UNL     1       1.139  51.479 -26.219  1.00  0.00     0.020 C 
ENDROOT
BRANCH   3  24
HETATM   24  O1  UNL     1       0.245  52.782 -28.511  1.00  0.00    -0.377 OA
HETATM   25  H2  UNL     1      -0.042  51.907 -28.820  1.00  0.00     0.211 HD
ENDBRANCH   3  24
BRANCH  13  26
HETATM   26  O2  UNL     1      -7.116  49.516 -20.113  1.00  0.00    -0.271 OA
BRANCH  26  27
HETATM   27  C13 UNL     1      -7.010  48.735 -18.927  1.00  0.00     0.303 C 
BRANCH  27  28
HETATM   28  C14 UNL     1      -8.274  47.918 -18.709  1.00  0.00     0.244 C 
HETATM   29  O3  UNL     1      -8.280  46.689 -18.677  1.00  0.00    -0.271 OA
HETATM   30  N2  UNL     1      -9.428  48.662 -18.637  1.00  0.00    -0.342 N 
HETATM   31  H16 UNL     1      -9.365  49.677 -18.575  1.00  0.00     0.163 HD
BRANCH  30  32
HETATM   32  C15 UNL     1     -10.748  48.036 -18.520  1.00  0.00     0.216 C 
BRANCH  32  33
HETATM   33  C16 UNL     1     -10.967  47.508 -17.102  1.00  0.00     0.166 C 
HETATM   34  O4  UNL     1     -12.049  47.276 -16.578  1.00  0.00    -0.648 OA
BRANCH  33  35
HETATM   35  O5  UNL     1      -9.829  47.269 -16.415  1.00  0.00    -0.775 OA
HETATM   36  H18 UNL     1     -10.138  47.009 -15.516  1.00  0.00     0.167 HD
ENDBRANCH  33  35
ENDBRANCH  32  33
BRANCH  32  37
HETATM   37  C17 UNL     1     -10.948  46.904 -19.568  1.00  0.00     0.184 C 
BRANCH  37  38
HETATM   38  O6  UNL     1     -10.911  45.617 -18.925  1.00  0.00    -0.388 OA
HETATM   39  H20 UNL     1     -11.733  45.524 -18.409  1.00  0.00     0.210 HD
ENDBRANCH  37  38
BRANCH  37  40
HETATM   40  C18 UNL     1     -12.184  47.060 -20.451  1.00  0.00    -0.025 A 
HETATM   41  C19 UNL     1     -13.426  47.485 -19.942  1.00  0.00     0.010 A 
HETATM   42  C20 UNL     1     -14.548  47.611 -20.772  1.00  0.00     0.003 A 
HETATM   43  C21 UNL     1     -14.460  47.302 -22.126  1.00  0.00     0.036 A 
HETATM   44  C22 UNL     1     -13.242  46.850 -22.643  1.00  0.00     0.103 A 
HETATM   45  C23 UNL     1     -12.114  46.720 -21.816  1.00  0.00     0.045 A 
BRANCH  44  46
HETATM   46  N3  UNL     1     -13.146  46.500 -24.067  1.00  0.00    -0.116 N 
HETATM   47  O7  UNL     1     -13.544  45.375 -24.413  1.00  0.00    -0.532 OA
HETATM   48  O8  UNL     1     -12.670  47.347 -24.842  1.00  0.00    -0.532 OA
ENDBRANCH  44  46
ENDBRANCH  37  40
ENDBRANCH  32  37
ENDBRANCH  30  32
ENDBRANCH  27  28
ENDBRANCH  26  27
ENDBRANCH  13  26
TORSDOF 11
ENDMDL
MODEL 8
REMARK minimizedAffinity -8.52541924
REMARK CNNscore 0.215753004
REMARK CNNaffinity 6.07657766
REMARK  11 active torsions:
REMARK  status: ('A' for Active; 'I' for Inactive)
REMARK    1  A    between atoms: C3_3  and  O1_4 
REMARK    2  A    between atoms: N1_14  and  O2_16 
REMARK    3  A    between atoms: O2_16  and  C13_17 
REMARK    4  A    between atoms: C13_17  and  C14_18 
REMARK       I    between atoms: C14_18  and  N2_20 
REMARK    5  A    between atoms: N2_20  and  C15_21 
REMARK    6  A    between atoms: C15_21  and  C16_22 
REMARK    7  A    between atoms: C15_21  and  C17_25 
REMARK    8  A    between atoms: C16_22  and  O5_24 
REMARK    9  A    between atoms: C17_25  and  O6_26 
REMARK   10  A    between atoms: C17_25  and  C18_27 
REMARK   11  A    between atoms: C22_31  and  N3_32 
ROOT
HETATM    1  C1  UNL     1       0.513  52.404 -21.710  1.00  0.00     0.015 C 
HETATM    2  C2  UNL     1      -0.061  51.557 -21.080  1.00  0.00    -0.078 C 
HETATM    3  C3  UNL     1      -0.747  50.519 -20.296  1.00  0.00     0.128 C 
HETATM    4  C4  UNL     1      -0.519  49.128 -20.887  1.00  0.00     0.052 C 
HETATM    5  C5  UNL     1      -1.621  48.265 -20.283  1.00  0.00     0.010 C 
HETATM    6  C6  UNL     1      -2.779  49.212 -19.899  1.00  0.00     0.002 C 
HETATM    7  C7  UNL     1      -4.130  48.881 -20.566  1.00  0.00    -0.004 C 
HETATM    8  C8  UNL     1      -4.694  47.528 -20.116  1.00  0.00     0.010 C 
HETATM    9  C9  UNL     1      -6.103  47.334 -20.669  1.00  0.00     0.035 C 
HETATM   10  C10 UNL     1      -6.178  47.507 -22.171  1.00  0.00    -0.069 C 
HETATM   11  C11 UNL     1      -6.903  46.633 -22.893  1.00  0.00     0.030 C 
HETATM   12  C12 UNL     1      -7.178  46.836 -24.337  1.00  0.00     0.032 C 
HETATM   13  N1  UNL     1      -8.051  46.050 -24.901  1.00  0.00    -0.271 N 
ATOM     14  H1  UNL     1      -8.514  45.273 -24.428  1.00  0.00     0.194 HD
HETATM   15  C24 UNL     1      -6.512  48.001 -25.037  1.00  0.00     0.060 C 
HETATM   16  C25 UNL     1      -5.261  48.472 -24.305  1.00  0.00     0.020 C 
HETATM   17  C26 UNL     1      -5.472  48.727 -22.784  1.00  0.00    -0.016 C 
HETATM   18  C27 UNL     1      -6.383  49.959 -22.582  1.00  0.00     0.020 C 
HETATM   19  C28 UNL     1      -4.058  48.923 -22.114  1.00  0.00     0.002 C 
HETATM   20  C29 UNL     1      -3.263  50.153 -22.611  1.00  0.00     0.007 C 
HETATM   21  C30 UNL     1      -2.992  51.192 -21.525  1.00  0.00     0.014 C 
HETATM   22  C31 UNL     1      -2.303  50.667 -20.228  1.00  0.00     0.003 C 
HETATM   23  C32 UNL     1      -2.720  51.631 -19.090  1.00  0.00     0.020 C 
ENDROOT
BRANCH   3  24
HETATM   24  O1  UNL     1      -0.165  50.531 -18.988  1.00  0.00    -0.377 OA
HETATM   25  H2  UNL     1      -0.562  49.816 -18.465  1.00  0.00     0.211 HD
ENDBRANCH   3  24
BRANCH  13  26
HETATM   26  O2  UNL     1      -8.275  46.405 -26.239  1.00  0.00    -0.271 OA
BRANCH  26  27
HETATM   27  C13 UNL     1      -9.148  45.449 -26.834  1.00  0.00     0.303 C 
BRANCH  27  28
HETATM   28  C14 UNL     1     -10.527  46.048 -27.056  1.00  0.00     0.244 C 
HETATM   29  O3  UNL     1     -10.711  47.245 -27.269  1.00  0.00    -0.271 OA
HETATM   30  N2  UNL     1     -11.565  45.158 -26.912  1.00  0.00    -0.342 N 
HETATM   31  H16 UNL     1     -11.361  44.163 -26.828  1.00  0.00     0.163 HD
BRANCH  30  32
HETATM   32  C15 UNL     1     -12.966  45.579 -27.001  1.00  0.00     0.216 C 
BRANCH  32  33
HETATM   33  C16 UNL     1     -13.368  45.799 -28.460  1.00  0.00     0.166 C 
HETATM   34  O4  UNL     1     -14.509  45.787 -28.904  1.00  0.00    -0.648 OA
BRANCH  33  35
HETATM   35  O5  UNL     1     -12.333  46.049 -29.291  1.00  0.00    -0.775 OA
HETATM   36  H18 UNL     1     -12.744  46.094 -30.185  1.00  0.00     0.167 HD
ENDBRANCH  33  35
ENDBRANCH  32  33
BRANCH  32  37
HETATM   37  C17 UNL     1     -13.244  46.854 -26.154  1.00  0.00     0.184 C 
BRANCH  37  38
HETATM   38  O6  UNL     1     -13.352  48.007 -27.008  1.00  0.00    -0.388 OA
HETATM   39  H20 UNL     1     -14.195  47.933 -27.493  1.00  0.00     0.210 HD
ENDBRANCH  37  38
BRANCH  37  40
HETATM   40  C18 UNL     1     -14.431  46.743 -25.200  1.00  0.00    -0.025 A 
HETATM   41  C19 UNL     1     -14.333  47.066 -23.833  1.00  0.00     0.010 A 
HETATM   42  C20 UNL     1     -15.436  46.946 -22.977  1.00  0.00     0.003 A 
HETATM   43  C21 UNL     1     -16.657  46.488 -23.461  1.00  0.00     0.036 A 
HETATM   44  C22 UNL     1     -16.765  46.135 -24.810  1.00  0.00     0.103 A 
HETATM   45  C23 UNL     1     -15.662  46.251 -25.674  1.00  0.00     0.045 A 
BRANCH  44  46
HETATM   46  N3  UNL     1     -18.045  45.629 -25.326  1.00  0.00    -0.116 N 
HETATM   47  O7  UNL     1     -18.989  46.431 -25.413  1.00  0.00    -0.532 OA
HETATM   48  O8  UNL     1     -18.109  44.428 -25.642  1.00  0.00    -0.532 OA
ENDBRANCH  44  46
ENDBRANCH  37  40
ENDBRANCH  32  37
ENDBRANCH  30  32
ENDBRANCH  27  28
ENDBRANCH  26  27
ENDBRANCH  13  26
TORSDOF 11
ENDMDL
MODEL 9
REMARK minimizedAffinity -8.84175205
REMARK CNNscore 0.176508978
REMARK CNNaffinity 6.15297318
REMARK  11 active torsions:
REMARK  status: ('A' for Active; 'I' for Inactive)
REMARK    1  A    between atoms: C3_3  and  O1_4 
REMARK    2  A    between atoms: N1_14  and  O2_16 
REMARK    3  A    between atoms: O2_16  and  C13_17 
REMARK    4  A    between atoms: C13_17  and  C14_18 
REMARK       I    between atoms: C14_18  and  N2_20 
REMARK    5  A    between atoms: N2_20  and  C15_21 
REMARK    6  A    between atoms: C15_21  and  C16_22 
REMARK    7  A    between atoms: C15_21  and  C17_25 
REMARK    8  A    between atoms: C16_22  and  O5_24 
REMARK    9  A    between atoms: C17_25  and  O6_26 
REMARK   10  A    between atoms: C17_25  and  C18_27 
REMARK   11  A    between atoms: C22_31  and  N3_32 
ROOT
HETATM    1  C1  UNL     1       0.984  52.156 -21.518  1.00  0.00     0.015 C 
HETATM    2  C2  UNL     1       0.298  51.389 -20.897  1.00  0.00    -0.078 C 
HETATM    3  C3  UNL     1      -0.528  50.449 -20.125  1.00  0.00     0.128 C 
HETATM    4  C4  UNL     1      -0.379  49.018 -20.641  1.00  0.00     0.052 C 
HETATM    5  C5  UNL     1      -1.591  48.278 -20.084  1.00  0.00     0.010 C 
HETATM    6  C6  UNL     1      -2.687  49.335 -19.825  1.00  0.00     0.002 C 
HETATM    7  C7  UNL     1      -4.012  49.085 -20.576  1.00  0.00    -0.004 C 
HETATM    8  C8  UNL     1      -4.720  47.806 -20.114  1.00  0.00     0.010 C 
HETATM    9  C9  UNL     1      -6.098  47.704 -20.761  1.00  0.00     0.035 C 
HETATM   10  C10 UNL     1      -6.053  47.812 -22.270  1.00  0.00    -0.069 C 
HETATM   11  C11 UNL     1      -6.799  46.968 -23.007  1.00  0.00     0.030 C 
HETATM   12  C12 UNL     1      -6.953  47.125 -24.474  1.00  0.00     0.032 C 
HETATM   13  N1  UNL     1      -7.849  46.388 -25.068  1.00  0.00    -0.271 N 
ATOM     14  H1  UNL     1      -8.408  45.676 -24.600  1.00  0.00     0.194 HD
HETATM   15  C24 UNL     1      -6.143  48.197 -25.171  1.00  0.00     0.060 C 
HETATM   16  C25 UNL     1      -4.910  48.597 -24.368  1.00  0.00     0.020 C 
HETATM   17  C26 UNL     1      -5.204  48.939 -22.878  1.00  0.00    -0.016 C 
HETATM   18  C27 UNL     1      -6.018  50.251 -22.794  1.00  0.00     0.020 C 
HETATM   19  C28 UNL     1      -3.829  49.049 -22.115  1.00  0.00     0.002 C 
HETATM   20  C29 UNL     1      -2.899  50.184 -22.601  1.00  0.00     0.007 C 
HETATM   21  C30 UNL     1      -2.616  51.248 -21.542  1.00  0.00     0.014 C 
HETATM   22  C31 UNL     1      -2.067  50.728 -20.177  1.00  0.00     0.003 C 
HETATM   23  C32 UNL     1      -2.478  51.775 -19.114  1.00  0.00     0.020 C 
ENDROOT
BRANCH   3  24
HETATM   24  O1  UNL     1      -0.040  50.474 -18.779  1.00  0.00    -0.377 OA
HETATM   25  H2  UNL     1      -0.532  49.819 -18.258  1.00  0.00     0.211 HD
ENDBRANCH   3  24
BRANCH  13  26
HETATM   26  O2  UNL     1      -7.948  46.698 -26.433  1.00  0.00    -0.271 OA
BRANCH  26  27
HETATM   27  C13 UNL     1      -8.918  47.725 -26.607  1.00  0.00     0.303 C 
BRANCH  27  28
HETATM   28  C14 UNL     1     -10.261  47.133 -27.004  1.00  0.00     0.244 C 
HETATM   29  O3  UNL     1     -10.562  45.958 -26.800  1.00  0.00    -0.271 OA
HETATM   30  N2  UNL     1     -11.083  47.994 -27.691  1.00  0.00    -0.342 N 
HETATM   31  H16 UNL     1     -10.833  48.980 -27.755  1.00  0.00     0.163 HD
BRANCH  30  32
HETATM   32  C15 UNL     1     -12.378  47.567 -28.230  1.00  0.00     0.216 C 
BRANCH  32  33
HETATM   33  C16 UNL     1     -13.358  47.268 -27.097  1.00  0.00     0.166 C 
HETATM   34  O4  UNL     1     -14.411  46.652 -27.197  1.00  0.00    -0.648 OA
BRANCH  33  35
HETATM   35  O5  UNL     1     -12.969  47.726 -25.887  1.00  0.00    -0.775 OA
HETATM   36  H18 UNL     1     -13.726  47.520 -25.293  1.00  0.00     0.167 HD
ENDBRANCH  33  35
ENDBRANCH  32  33
BRANCH  32  37
HETATM   37  C17 UNL     1     -12.235  46.339 -29.176  1.00  0.00     0.184 C 
BRANCH  37  38
HETATM   38  O6  UNL     1     -13.533  45.872 -29.585  1.00  0.00    -0.388 OA
HETATM   39  H20 UNL     1     -13.897  46.529 -30.207  1.00  0.00     0.210 HD
ENDBRANCH  37  38
BRANCH  37  40
HETATM   40  C18 UNL     1     -11.308  46.555 -30.370  1.00  0.00    -0.025 A 
HETATM   41  C19 UNL     1     -11.347  45.734 -31.513  1.00  0.00     0.010 A 
HETATM   42  C20 UNL     1     -10.479  45.948 -32.591  1.00  0.00     0.003 A 
HETATM   43  C21 UNL     1      -9.543  46.976 -32.548  1.00  0.00     0.036 A 
HETATM   44  C22 UNL     1      -9.470  47.783 -31.409  1.00  0.00     0.103 A 
HETATM   45  C23 UNL     1     -10.337  47.573 -30.323  1.00  0.00     0.045 A 
BRANCH  44  46
HETATM   46  N3  UNL     1      -8.469  48.857 -31.345  1.00  0.00    -0.116 N 
HETATM   47  O7  UNL     1      -8.817  49.941 -30.848  1.00  0.00    -0.532 OA
HETATM   48  O8  UNL     1      -7.334  48.621 -31.794  1.00  0.00    -0.532 OA
ENDBRANCH  44  46
ENDBRANCH  37  40
ENDBRANCH  32  37
ENDBRANCH  30  32
ENDBRANCH  27  28
ENDBRANCH  26  27
ENDBRANCH  13  26
TORSDOF 11
ENDMDL
