MODEL 1
REMARK minimizedAffinity -9.95981598
REMARK  11 active torsions:
REMARK  status: ('A' for Active; 'I' for Inactive)
REMARK    1  A    between atoms: C6_6  and  C8_8 
REMARK    2  A    between atoms: C8_8  and  O1_9 
REMARK    3  A    between atoms: O1_9  and  C9_10 
REMARK    4  A    between atoms: C10_12  and  C11_13 
REMARK    5  A    between atoms: C11_13  and  O3_14 
REMARK    6  A    between atoms: C12_15  and  O4_16 
REMARK    7  A    between atoms: C13_17  and  O5_18 
REMARK    8  A    between atoms: C14_19  and  O6_20 
REMARK    9  A    between atoms: C20_26  and  C21_27 
REMARK   10  A    between atoms: C21_27  and  C22_28 
REMARK   11  A    between atoms: C26_34  and  O9_35 
ROOT
HETATM    1  C1  UNL     1      -5.066   4.427  12.493  1.00  0.00     0.015 C 
HETATM    2  C2  UNL     1      -4.099   4.924  13.282  1.00  0.00    -0.084 C 
HETATM    3  C3  UNL     1      -2.655   4.543  13.068  1.00  0.00     0.034 C 
HETATM    4  C4  UNL     1      -1.703   5.717  13.345  1.00  0.00     0.010 C 
HETATM    5  C5  UNL     1      -2.363   7.081  13.027  1.00  0.00     0.005 C 
HETATM    6  C6  UNL     1      -1.350   8.301  12.869  1.00  0.00    -0.018 C 
HETATM    7  C7  UNL     1      -1.534   8.926  11.461  1.00  0.00     0.018 C 
HETATM    8  C15 UNL     1      -1.623   9.420  13.903  1.00  0.00     0.012 C 
HETATM    9  C16 UNL     1      -1.884   8.838  15.274  1.00  0.00     0.002 C 
HETATM   10  C17 UNL     1      -3.186   8.053  15.315  1.00  0.00     0.010 C 
HETATM   11  C18 UNL     1      -3.608   7.316  14.006  1.00  0.00    -0.032 C 
HETATM   12  C19 UNL     1      -4.646   8.185  13.246  1.00  0.00     0.016 C 
HETATM   13  C20 UNL     1      -4.289   5.925  14.416  1.00  0.00     0.025 C 
ENDROOT
BRANCH   6  14
HETATM   14  C8  UNL     1       0.148   7.873  12.984  1.00  0.00     0.180 C 
BRANCH  14  15
HETATM   15  O1  UNL     1       0.969   8.685  12.138  1.00  0.00    -0.358 OA
BRANCH  15  16
HETATM   16  C9  UNL     1       1.493   7.971  11.014  1.00  0.00     0.291 C 
HETATM   17  O2  UNL     1       2.887   8.231  10.874  1.00  0.00    -0.348 OA
HETATM   18  C10 UNL     1       3.589   7.378   9.944  1.00  0.00     0.179 C 
HETATM   19  C12 UNL     1       2.701   6.353   9.218  1.00  0.00     0.180 C 
HETATM   20  C13 UNL     1       1.765   5.595  10.169  1.00  0.00     0.183 C 
HETATM   21  C14 UNL     1       1.241   6.478  11.304  1.00  0.00     0.204 C 
BRANCH  18  22
HETATM   22  C11 UNL     1       4.772   6.756  10.696  1.00  0.00     0.198 C 
BRANCH  22  23
HETATM   23  O3  UNL     1       4.962   5.411  10.238  1.00  0.00    -0.398 OA
HETATM   24  H17 UNL     1       4.997   5.485   9.266  1.00  0.00     0.209 HD
ENDBRANCH  22  23
ENDBRANCH  18  22
BRANCH  19  25
HETATM   25  O4  UNL     1       3.460   5.430   8.436  1.00  0.00    -0.390 OA
HETATM   26  H19 UNL     1       3.496   4.604   8.965  1.00  0.00     0.210 HD
ENDBRANCH  19  25
BRANCH  20  27
HETATM   27  O5  UNL     1       2.443   4.433  10.681  1.00  0.00    -0.390 OA
HETATM   28  H21 UNL     1       2.548   4.601  11.644  1.00  0.00     0.210 HD
ENDBRANCH  20  27
BRANCH  21  29
HETATM   29  O6  UNL     1       1.912   6.093  12.530  1.00  0.00    -0.388 OA
HETATM   30  H23 UNL     1       1.774   6.850  13.139  1.00  0.00     0.210 HD
ENDBRANCH  21  29
ENDBRANCH  15  16
ENDBRANCH  14  15
ENDBRANCH   6  14
BRANCH  13  31
HETATM   31  C21 UNL     1      -5.750   5.971  14.957  1.00  0.00     0.037 C 
BRANCH  31  32
HETATM   32  C22 UNL     1      -6.821   5.794  13.915  1.00  0.00    -0.010 C 
HETATM   33  C23 UNL     1      -8.047   6.343  13.918  1.00  0.00     0.044 C 
HETATM   34  C24 UNL     1      -8.979   6.114  12.786  1.00  0.00     0.291 C 
HETATM   35  C26 UNL     1      -8.747   7.229  14.881  1.00  0.00     0.181 C 
HETATM   36  O7  UNL     1      -8.705   5.591  11.721  1.00  0.00    -0.260 OA
HETATM   37  O8  UNL     1     -10.194   6.635  13.115  1.00  0.00    -0.315 OA
HETATM   38  C25 UNL     1     -10.192   6.994  14.494  1.00  0.00     0.215 C 
BRANCH  35  39
HETATM   39  O9  UNL     1      -8.517   6.876  16.234  1.00  0.00    -0.389 OA
HETATM   40  H40 UNL     1      -8.895   7.577  16.792  1.00  0.00     0.210 HD
ENDBRANCH  35  39
ENDBRANCH  31  32
ENDBRANCH  13  31
TORSDOF 11
ENDMDL
MODEL 2
REMARK minimizedAffinity -9.91897583
REMARK  11 active torsions:
REMARK  status: ('A' for Active; 'I' for Inactive)
REMARK    1  A    between atoms: C6_6  and  C8_8 
REMARK    2  A    between atoms: C8_8  and  O1_9 
REMARK    3  A    between atoms: O1_9  and  C9_10 
REMARK    4  A    between atoms: C10_12  and  C11_13 
REMARK    5  A    between atoms: C11_13  and  O3_14 
REMARK    6  A    between atoms: C12_15  and  O4_16 
REMARK    7  A    between atoms: C13_17  and  O5_18 
REMARK    8  A    between atoms: C14_19  and  O6_20 
REMARK    9  A    between atoms: C20_26  and  C21_27 
REMARK   10  A    between atoms: C21_27  and  C22_28 
REMARK   11  A    between atoms: C26_34  and  O9_35 
ROOT
HETATM    1  C1  UNL     1      -0.132   8.255   9.174  1.00  0.00     0.015 C 
HETATM    2  C2  UNL     1      -0.281   8.509  10.485  1.00  0.00    -0.084 C 
HETATM    3  C3  UNL     1      -1.550   9.132  11.012  1.00  0.00     0.034 C 
HETATM    4  C4  UNL     1      -1.935   8.574  12.391  1.00  0.00     0.010 C 
HETATM    5  C5  UNL     1      -1.477   7.105  12.565  1.00  0.00     0.005 C 
HETATM    6  C6  UNL     1      -2.186   6.312  13.753  1.00  0.00    -0.018 C 
HETATM    7  C7  UNL     1      -2.885   5.056  13.169  1.00  0.00     0.018 C 
HETATM    8  C15 UNL     1      -1.168   5.818  14.809  1.00  0.00     0.012 C 
HETATM    9  C16 UNL     1      -0.153   6.893  15.129  1.00  0.00     0.002 C 
HETATM   10  C17 UNL     1       0.750   7.186  13.941  1.00  0.00     0.010 C 
HETATM   11  C18 UNL     1       0.122   7.033  12.521  1.00  0.00    -0.032 C 
HETATM   12  C19 UNL     1       0.514   5.648  11.939  1.00  0.00     0.016 C 
HETATM   13  C20 UNL     1       0.725   8.184  11.584  1.00  0.00     0.025 C 
ENDROOT
BRANCH   6  14
HETATM   14  C8  UNL     1      -3.287   7.151  14.478  1.00  0.00     0.180 C 
BRANCH  14  15
HETATM   15  O1  UNL     1      -4.233   6.290  15.120  1.00  0.00    -0.358 OA
BRANCH  15  16
HETATM   16  C9  UNL     1      -5.542   6.372  14.546  1.00  0.00     0.291 C 
HETATM   17  O2  UNL     1      -5.838   5.177  13.830  1.00  0.00    -0.348 OA
HETATM   18  C10 UNL     1      -7.216   5.021  13.422  1.00  0.00     0.179 C 
HETATM   19  C12 UNL     1      -8.132   6.200  13.791  1.00  0.00     0.180 C 
HETATM   20  C13 UNL     1      -7.963   6.653  15.248  1.00  0.00     0.183 C 
HETATM   21  C14 UNL     1      -6.513   6.556  15.729  1.00  0.00     0.204 C 
BRANCH  18  22
HETATM   22  C11 UNL     1      -7.699   3.665  13.954  1.00  0.00     0.198 C 
BRANCH  22  23
HETATM   23  O3  UNL     1      -8.689   3.140  13.060  1.00  0.00    -0.398 OA
HETATM   24  H17 UNL     1      -8.276   3.191  12.178  1.00  0.00     0.209 HD
ENDBRANCH  22  23
ENDBRANCH  18  22
BRANCH  19  25
HETATM   25  O4  UNL     1      -9.506   5.931  13.515  1.00  0.00    -0.390 OA
HETATM   26  H19 UNL     1      -9.910   5.711  14.383  1.00  0.00     0.210 HD
ENDBRANCH  19  25
BRANCH  20  27
HETATM   27  O5  UNL     1      -8.845   5.889  16.090  1.00  0.00    -0.390 OA
HETATM   28  H21 UNL     1      -8.253   5.352  16.662  1.00  0.00     0.210 HD
ENDBRANCH  20  27
BRANCH  21  29
HETATM   29  O6  UNL     1      -6.406   5.431  16.636  1.00  0.00    -0.388 OA
HETATM   30  H23 UNL     1      -5.446   5.234  16.678  1.00  0.00     0.210 HD
ENDBRANCH  21  29
ENDBRANCH  15  16
ENDBRANCH  14  15
ENDBRANCH   6  14
BRANCH  13  31
HETATM   31  C21 UNL     1       2.177   7.992  11.051  1.00  0.00     0.037 C 
BRANCH  31  32
HETATM   32  C22 UNL     1       2.275   7.470   9.643  1.00  0.00    -0.010 C 
HETATM   33  C23 UNL     1       2.749   6.273   9.258  1.00  0.00     0.044 C 
HETATM   34  C24 UNL     1       2.733   5.880   7.827  1.00  0.00     0.291 C 
HETATM   35  C26 UNL     1       3.325   5.132  10.013  1.00  0.00     0.181 C 
HETATM   36  O7  UNL     1       2.171   6.472   6.924  1.00  0.00    -0.260 OA
HETATM   37  O8  UNL     1       3.415   4.708   7.694  1.00  0.00    -0.315 OA
HETATM   38  C25 UNL     1       4.084   4.414   8.918  1.00  0.00     0.215 C 
BRANCH  35  39
HETATM   39  O9  UNL     1       4.194   5.536  11.056  1.00  0.00    -0.389 OA
HETATM   40  H40 UNL     1       4.418   4.746  11.579  1.00  0.00     0.210 HD
ENDBRANCH  35  39
ENDBRANCH  31  32
ENDBRANCH  13  31
TORSDOF 11
ENDMDL
MODEL 3
REMARK minimizedAffinity -9.82347965
REMARK  11 active torsions:
REMARK  status: ('A' for Active; 'I' for Inactive)
REMARK    1  A    between atoms: C6_6  and  C8_8 
REMARK    2  A    between atoms: C8_8  and  O1_9 
REMARK    3  A    between atoms: O1_9  and  C9_10 
REMARK    4  A    between atoms: C10_12  and  C11_13 
REMARK    5  A    between atoms: C11_13  and  O3_14 
REMARK    6  A    between atoms: C12_15  and  O4_16 
REMARK    7  A    between atoms: C13_17  and  O5_18 
REMARK    8  A    between atoms: C14_19  and  O6_20 
REMARK    9  A    between atoms: C20_26  and  C21_27 
REMARK   10  A    between atoms: C21_27  and  C22_28 
REMARK   11  A    between atoms: C26_34  and  O9_35 
ROOT
HETATM    1  C1  UNL     1      -4.200   8.683  14.602  1.00  0.00     0.015 C 
HETATM    2  C2  UNL     1      -3.490   8.265  13.541  1.00  0.00    -0.084 C 
HETATM    3  C3  UNL     1      -2.587   9.213  12.793  1.00  0.00     0.034 C 
HETATM    4  C4  UNL     1      -1.307   8.521  12.299  1.00  0.00     0.010 C 
HETATM    5  C5  UNL     1      -0.874   7.372  13.243  1.00  0.00     0.005 C 
HETATM    6  C6  UNL     1       0.634   6.885  13.066  1.00  0.00    -0.018 C 
HETATM    7  C7  UNL     1       1.371   7.039  14.422  1.00  0.00     0.018 C 
HETATM    8  C15 UNL     1       0.718   5.391  12.668  1.00  0.00     0.012 C 
HETATM    9  C16 UNL     1      -0.305   5.055  11.607  1.00  0.00     0.002 C 
HETATM   10  C17 UNL     1      -1.725   5.153  12.141  1.00  0.00     0.010 C 
HETATM   11  C18 UNL     1      -1.992   6.226  13.242  1.00  0.00    -0.032 C 
HETATM   12  C19 UNL     1      -1.965   5.542  14.636  1.00  0.00     0.016 C 
HETATM   13  C20 UNL     1      -3.449   6.843  12.990  1.00  0.00     0.025 C 
ENDROOT
BRANCH   6  14
HETATM   14  C8  UNL     1       1.430   7.725  12.017  1.00  0.00     0.180 C 
BRANCH  14  15
HETATM   15  O1  UNL     1       2.591   7.012  11.579  1.00  0.00    -0.358 OA
BRANCH  15  16
HETATM   16  C9  UNL     1       3.789   7.793  11.652  1.00  0.00     0.291 C 
HETATM   17  O2  UNL     1       4.350   7.707  12.958  1.00  0.00    -0.348 OA
HETATM   18  C10 UNL     1       5.688   8.234  13.095  1.00  0.00     0.179 C 
HETATM   19  C12 UNL     1       6.272   8.847  11.812  1.00  0.00     0.180 C 
HETATM   20  C13 UNL     1       6.083   7.949  10.582  1.00  0.00     0.183 C 
HETATM   21  C14 UNL     1       4.748   7.199  10.602  1.00  0.00     0.204 C 
BRANCH  18  22
HETATM   22  C11 UNL     1       6.556   7.126  13.708  1.00  0.00     0.198 C 
BRANCH  22  23
HETATM   23  O3  UNL     1       6.032   6.782  14.997  1.00  0.00    -0.398 OA
HETATM   24  H17 UNL     1       5.083   6.619  14.841  1.00  0.00     0.209 HD
ENDBRANCH  22  23
ENDBRANCH  18  22
BRANCH  19  25
HETATM   25  O4  UNL     1       7.647   9.205  11.953  1.00  0.00    -0.390 OA
HETATM   26  H19 UNL     1       8.151   8.491  11.506  1.00  0.00     0.210 HD
ENDBRANCH  19  25
BRANCH  20  27
HETATM   27  O5  UNL     1       7.193   7.037  10.481  1.00  0.00    -0.390 OA
HETATM   28  H21 UNL     1       6.807   6.145  10.631  1.00  0.00     0.210 HD
ENDBRANCH  20  27
BRANCH  21  29
HETATM   29  O6  UNL     1       5.011   5.806  10.905  1.00  0.00    -0.388 OA
HETATM   30  H23 UNL     1       4.144   5.445  11.193  1.00  0.00     0.210 HD
ENDBRANCH  21  29
ENDBRANCH  15  16
ENDBRANCH  14  15
ENDBRANCH   6  14
BRANCH  13  31
HETATM   31  C21 UNL     1      -4.679   5.985  13.415  1.00  0.00     0.037 C 
BRANCH  31  32
HETATM   32  C22 UNL     1      -4.745   4.616  12.794  1.00  0.00    -0.010 C 
HETATM   33  C23 UNL     1      -5.847   3.872  12.599  1.00  0.00     0.044 C 
HETATM   34  C24 UNL     1      -5.757   2.554  11.923  1.00  0.00     0.291 C 
HETATM   35  C26 UNL     1      -7.278   4.095  12.921  1.00  0.00     0.181 C 
HETATM   36  O7  UNL     1      -4.782   2.104  11.349  1.00  0.00    -0.260 OA
HETATM   37  O8  UNL     1      -6.972   1.943  12.005  1.00  0.00    -0.315 OA
HETATM   38  C25 UNL     1      -7.805   2.676  12.898  1.00  0.00     0.215 C 
BRANCH  35  39
HETATM   39  O9  UNL     1      -7.478   4.694  14.189  1.00  0.00    -0.389 OA
HETATM   40  H40 UNL     1      -8.420   4.926  14.263  1.00  0.00     0.210 HD
ENDBRANCH  35  39
ENDBRANCH  31  32
ENDBRANCH  13  31
TORSDOF 11
ENDMDL
MODEL 4
REMARK minimizedAffinity -9.79678726
REMARK  11 active torsions:
REMARK  status: ('A' for Active; 'I' for Inactive)
REMARK    1  A    between atoms: C6_6  and  C8_8 
REMARK    2  A    between atoms: C8_8  and  O1_9 
REMARK    3  A    between atoms: O1_9  and  C9_10 
REMARK    4  A    between atoms: C10_12  and  C11_13 
REMARK    5  A    between atoms: C11_13  and  O3_14 
REMARK    6  A    between atoms: C12_15  and  O4_16 
REMARK    7  A    between atoms: C13_17  and  O5_18 
REMARK    8  A    between atoms: C14_19  and  O6_20 
REMARK    9  A    between atoms: C20_26  and  C21_27 
REMARK   10  A    between atoms: C21_27  and  C22_28 
REMARK   11  A    between atoms: C26_34  and  O9_35 
ROOT
HETATM    1  C1  UNL     1       1.590   7.489   7.514  1.00  0.00     0.015 C 
HETATM    2  C2  UNL     1       1.335   7.875   8.775  1.00  0.00    -0.084 C 
HETATM    3  C3  UNL     1       0.011   8.498   9.141  1.00  0.00     0.034 C 
HETATM    4  C4  UNL     1      -0.458   8.075  10.542  1.00  0.00     0.010 C 
HETATM    5  C5  UNL     1       0.035   6.653  10.907  1.00  0.00     0.005 C 
HETATM    6  C6  UNL     1      -0.734   5.964  12.122  1.00  0.00    -0.018 C 
HETATM    7  C7  UNL     1      -1.346   4.625  11.632  1.00  0.00     0.018 C 
HETATM    8  C15 UNL     1       0.218   5.627  13.295  1.00  0.00     0.012 C 
HETATM    9  C16 UNL     1       1.170   6.771  13.565  1.00  0.00     0.002 C 
HETATM   10  C17 UNL     1       2.150   6.972  12.420  1.00  0.00     0.010 C 
HETATM   11  C18 UNL     1       1.634   6.642  10.984  1.00  0.00    -0.032 C 
HETATM   12  C19 UNL     1       2.114   5.220  10.586  1.00  0.00     0.016 C 
HETATM   13  C20 UNL     1       2.266   7.711   9.972  1.00  0.00     0.025 C 
ENDROOT
BRANCH   6  14
HETATM   14  C8  UNL     1      -1.913   6.829  12.672  1.00  0.00     0.180 C 
BRANCH  14  15
HETATM   15  O1  UNL     1      -2.801   6.027  13.457  1.00  0.00    -0.358 OA
BRANCH  15  16
HETATM   16  C9  UNL     1      -4.128   6.561  13.521  1.00  0.00     0.291 C 
HETATM   17  O2  UNL     1      -5.083   5.523  13.327  1.00  0.00    -0.348 OA
HETATM   18  C10 UNL     1      -6.453   5.875  13.623  1.00  0.00     0.179 C 
HETATM   19  C12 UNL     1      -6.661   7.336  14.056  1.00  0.00     0.180 C 
HETATM   20  C13 UNL     1      -5.659   7.789  15.127  1.00  0.00     0.183 C 
HETATM   21  C14 UNL     1      -4.269   7.181  14.925  1.00  0.00     0.204 C 
BRANCH  18  22
HETATM   22  C11 UNL     1      -6.984   4.845  14.629  1.00  0.00     0.198 C 
BRANCH  22  23
HETATM   23  O3  UNL     1      -7.994   4.051  13.994  1.00  0.00    -0.398 OA
HETATM   24  H17 UNL     1      -7.582   3.745  13.165  1.00  0.00     0.209 HD
ENDBRANCH  22  23
ENDBRANCH  18  22
BRANCH  19  25
HETATM   25  O4  UNL     1      -7.996   7.592  14.492  1.00  0.00    -0.390 OA
HETATM   26  H19 UNL     1      -7.956   7.601  15.473  1.00  0.00     0.210 HD
ENDBRANCH  19  25
BRANCH  20  27
HETATM   27  O5  UNL     1      -6.182   7.477  16.432  1.00  0.00    -0.390 OA
HETATM   28  H21 UNL     1      -5.573   6.795  16.795  1.00  0.00     0.210 HD
ENDBRANCH  20  27
BRANCH  21  29
HETATM   29  O6  UNL     1      -4.063   6.165  15.937  1.00  0.00    -0.388 OA
HETATM   30  H23 UNL     1      -3.320   5.620  15.598  1.00  0.00     0.210 HD
ENDBRANCH  21  29
ENDBRANCH  15  16
ENDBRANCH  14  15
ENDBRANCH   6  14
BRANCH  13  31
HETATM   31  C21 UNL     1       3.759   7.522   9.566  1.00  0.00     0.037 C 
BRANCH  31  32
HETATM   32  C22 UNL     1       4.701   8.567  10.099  1.00  0.00    -0.010 C 
HETATM   33  C23 UNL     1       5.806   8.356  10.836  1.00  0.00     0.044 C 
HETATM   34  C24 UNL     1       6.667   9.493  11.246  1.00  0.00     0.291 C 
HETATM   35  C26 UNL     1       6.435   7.123  11.370  1.00  0.00     0.181 C 
HETATM   36  O7  UNL     1       6.583  10.641  10.849  1.00  0.00    -0.260 OA
HETATM   37  O8  UNL     1       7.610   9.029  12.113  1.00  0.00    -0.315 OA
HETATM   38  C25 UNL     1       7.286   7.692  12.485  1.00  0.00     0.215 C 
BRANCH  35  39
HETATM   39  O9  UNL     1       5.495   6.189  11.871  1.00  0.00    -0.389 OA
HETATM   40  H40 UNL     1       5.973   5.366  12.074  1.00  0.00     0.210 HD
ENDBRANCH  35  39
ENDBRANCH  31  32
ENDBRANCH  13  31
TORSDOF 11
ENDMDL
MODEL 5
REMARK minimizedAffinity -9.72958755
REMARK  11 active torsions:
REMARK  status: ('A' for Active; 'I' for Inactive)
REMARK    1  A    between atoms: C6_6  and  C8_8 
REMARK    2  A    between atoms: C8_8  and  O1_9 
REMARK    3  A    between atoms: O1_9  and  C9_10 
REMARK    4  A    between atoms: C10_12  and  C11_13 
REMARK    5  A    between atoms: C11_13  and  O3_14 
REMARK    6  A    between atoms: C12_15  and  O4_16 
REMARK    7  A    between atoms: C13_17  and  O5_18 
REMARK    8  A    between atoms: C14_19  and  O6_20 
REMARK    9  A    between atoms: C20_26  and  C21_27 
REMARK   10  A    between atoms: C21_27  and  C22_28 
REMARK   11  A    between atoms: C26_34  and  O9_35 
ROOT
HETATM    1  C1  UNL     1       1.096   4.954  11.956  1.00  0.00     0.015 C 
HETATM    2  C2  UNL     1      -0.101   5.560  11.887  1.00  0.00    -0.084 C 
HETATM    3  C3  UNL     1      -1.370   4.803  12.193  1.00  0.00     0.034 C 
HETATM    4  C4  UNL     1      -2.405   5.681  12.911  1.00  0.00     0.010 C 
HETATM    5  C5  UNL     1      -1.731   6.761  13.792  1.00  0.00     0.005 C 
HETATM    6  C6  UNL     1      -2.678   7.427  14.888  1.00  0.00    -0.018 C 
HETATM    7  C7  UNL     1      -2.051   7.209  16.290  1.00  0.00     0.018 C 
HETATM    8  C15 UNL     1      -2.818   8.955  14.683  1.00  0.00     0.012 C 
HETATM    9  C16 UNL     1      -3.016   9.290  13.222  1.00  0.00     0.002 C 
HETATM   10  C17 UNL     1      -1.775   8.979  12.399  1.00  0.00     0.010 C 
HETATM   11  C18 UNL     1      -0.905   7.771  12.864  1.00  0.00    -0.032 C 
HETATM   12  C19 UNL     1       0.295   8.299  13.696  1.00  0.00     0.016 C 
HETATM   13  C20 UNL     1      -0.349   7.028  11.558  1.00  0.00     0.025 C 
ENDROOT
BRANCH   6  14
HETATM   14  C8  UNL     1      -4.108   6.798  14.927  1.00  0.00     0.180 C 
BRANCH  14  15
HETATM   15  O1  UNL     1      -5.090   7.798  15.214  1.00  0.00    -0.358 OA
BRANCH  15  16
HETATM   16  C9  UNL     1      -6.365   7.515  14.629  1.00  0.00     0.291 C 
HETATM   17  O2  UNL     1      -6.306   6.297  13.893  1.00  0.00    -0.348 OA
HETATM   18  C10 UNL     1      -7.580   5.763  13.469  1.00  0.00     0.179 C 
HETATM   19  C12 UNL     1      -8.795   6.628  13.845  1.00  0.00     0.180 C 
HETATM   20  C13 UNL     1      -8.770   7.087  15.309  1.00  0.00     0.183 C 
HETATM   21  C14 UNL     1      -7.355   7.398  15.804  1.00  0.00     0.204 C 
BRANCH  18  22
HETATM   22  C11 UNL     1      -7.663   4.318  13.977  1.00  0.00     0.198 C 
BRANCH  22  23
HETATM   23  O3  UNL     1      -8.692   3.628  13.257  1.00  0.00    -0.398 OA
HETATM   24  H17 UNL     1      -8.490   3.797  12.318  1.00  0.00     0.209 HD
ENDBRANCH  22  23
ENDBRANCH  18  22
BRANCH  19  25
HETATM   25  O4  UNL     1     -10.035   5.985  13.551  1.00  0.00    -0.390 OA
HETATM   26  H19 UNL     1     -10.365   5.645  14.412  1.00  0.00     0.210 HD
ENDBRANCH  19  25
BRANCH  20  27
HETATM   27  O5  UNL     1      -9.405   6.091  16.132  1.00  0.00    -0.390 OA
HETATM   28  H21 UNL     1      -8.687   5.735  16.703  1.00  0.00     0.210 HD
ENDBRANCH  20  27
BRANCH  21  29
HETATM   29  O6  UNL     1      -6.939   6.334  16.696  1.00  0.00    -0.388 OA
HETATM   30  H23 UNL     1      -5.962   6.417  16.746  1.00  0.00     0.210 HD
ENDBRANCH  21  29
ENDBRANCH  15  16
ENDBRANCH  14  15
ENDBRANCH   6  14
BRANCH  13  31
HETATM   31  C21 UNL     1       0.839   7.696  10.800  1.00  0.00     0.037 C 
BRANCH  31  32
HETATM   32  C22 UNL     1       1.619   6.776   9.902  1.00  0.00    -0.010 C 
HETATM   33  C23 UNL     1       1.806   6.909   8.577  1.00  0.00     0.044 C 
HETATM   34  C24 UNL     1       2.650   5.941   7.833  1.00  0.00     0.291 C 
HETATM   35  C26 UNL     1       1.331   7.913   7.593  1.00  0.00     0.181 C 
HETATM   36  O7  UNL     1       3.361   5.082   8.321  1.00  0.00    -0.260 OA
HETATM   37  O8  UNL     1       2.537   6.204   6.502  1.00  0.00    -0.315 OA
HETATM   38  C25 UNL     1       1.486   7.145   6.298  1.00  0.00     0.215 C 
BRANCH  35  39
HETATM   39  O9  UNL     1      -0.015   8.302   7.799  1.00  0.00    -0.389 OA
HETATM   40  H40 UNL     1      -0.202   9.050   7.206  1.00  0.00     0.210 HD
ENDBRANCH  35  39
ENDBRANCH  31  32
ENDBRANCH  13  31
TORSDOF 11
ENDMDL
MODEL 6
REMARK minimizedAffinity -9.70550823
REMARK  11 active torsions:
REMARK  status: ('A' for Active; 'I' for Inactive)
REMARK    1  A    between atoms: C6_6  and  C8_8 
REMARK    2  A    between atoms: C8_8  and  O1_9 
REMARK    3  A    between atoms: O1_9  and  C9_10 
REMARK    4  A    between atoms: C10_12  and  C11_13 
REMARK    5  A    between atoms: C11_13  and  O3_14 
REMARK    6  A    between atoms: C12_15  and  O4_16 
REMARK    7  A    between atoms: C13_17  and  O5_18 
REMARK    8  A    between atoms: C14_19  and  O6_20 
REMARK    9  A    between atoms: C20_26  and  C21_27 
REMARK   10  A    between atoms: C21_27  and  C22_28 
REMARK   11  A    between atoms: C26_34  and  O9_35 
ROOT
HETATM    1  C1  UNL     1       1.877   7.386   7.449  1.00  0.00     0.015 C 
HETATM    2  C2  UNL     1       1.561   7.790   8.690  1.00  0.00    -0.084 C 
HETATM    3  C3  UNL     1       0.194   8.351   8.996  1.00  0.00     0.034 C 
HETATM    4  C4  UNL     1      -0.299   7.939  10.392  1.00  0.00     0.010 C 
HETATM    5  C5  UNL     1       0.255   6.556  10.812  1.00  0.00     0.005 C 
HETATM    6  C6  UNL     1      -0.517   5.857  12.020  1.00  0.00    -0.018 C 
HETATM    7  C7  UNL     1      -1.041   4.476  11.546  1.00  0.00     0.018 C 
HETATM    8  C15 UNL     1       0.412   5.602  13.231  1.00  0.00     0.012 C 
HETATM    9  C16 UNL     1       1.293   6.802  13.501  1.00  0.00     0.002 C 
HETATM   10  C17 UNL     1       2.298   7.026  12.382  1.00  0.00     0.010 C 
HETATM   11  C18 UNL     1       1.849   6.632  10.941  1.00  0.00    -0.032 C 
HETATM   12  C19 UNL     1       2.416   5.228  10.597  1.00  0.00     0.016 C 
HETATM   13  C20 UNL     1       2.458   7.707   9.920  1.00  0.00     0.025 C 
ENDROOT
BRANCH   6  14
HETATM   14  C8  UNL     1      -1.757   6.672  12.507  1.00  0.00     0.180 C 
BRANCH  14  15
HETATM   15  O1  UNL     1      -1.620   7.020  13.888  1.00  0.00    -0.358 OA
BRANCH  15  16
HETATM   16  C9  UNL     1      -2.315   8.222  14.234  1.00  0.00     0.291 C 
HETATM   17  O2  UNL     1      -3.696   8.100  13.909  1.00  0.00    -0.348 OA
HETATM   18  C10 UNL     1      -4.554   9.135  14.440  1.00  0.00     0.179 C 
HETATM   19  C12 UNL     1      -3.823  10.230  15.234  1.00  0.00     0.180 C 
HETATM   20  C13 UNL     1      -2.830   9.662  16.257  1.00  0.00     0.183 C 
HETATM   21  C14 UNL     1      -2.123   8.401  15.753  1.00  0.00     0.204 C 
BRANCH  18  22
HETATM   22  C11 UNL     1      -5.678   8.441  15.221  1.00  0.00     0.198 C 
BRANCH  22  23
HETATM   23  O3  UNL     1      -6.904   9.151  15.005  1.00  0.00    -0.398 OA
HETATM   24  H17 UNL     1      -6.973   9.233  14.036  1.00  0.00     0.209 HD
ENDBRANCH  22  23
ENDBRANCH  18  22
BRANCH  19  25
HETATM   25  O4  UNL     1      -4.724  11.135  15.872  1.00  0.00    -0.390 OA
HETATM   26  H19 UNL     1      -4.749  10.861  16.814  1.00  0.00     0.210 HD
ENDBRANCH  19  25
BRANCH  20  27
HETATM   27  O5  UNL     1      -3.514   9.416  17.500  1.00  0.00    -0.390 OA
HETATM   28  H21 UNL     1      -3.495   8.440  17.614  1.00  0.00     0.210 HD
ENDBRANCH  20  27
BRANCH  21  29
HETATM   29  O6  UNL     1      -2.668   7.259  16.458  1.00  0.00    -0.388 OA
HETATM   30  H23 UNL     1      -2.414   6.483  15.913  1.00  0.00     0.210 HD
ENDBRANCH  21  29
ENDBRANCH  15  16
ENDBRANCH  14  15
ENDBRANCH   6  14
BRANCH  13  31
HETATM   31  C21 UNL     1       3.972   7.588   9.568  1.00  0.00     0.037 C 
BRANCH  31  32
HETATM   32  C22 UNL     1       4.864   8.592  10.245  1.00  0.00    -0.010 C 
HETATM   33  C23 UNL     1       5.943   8.330  11.002  1.00  0.00     0.044 C 
HETATM   34  C24 UNL     1       6.757   9.437  11.563  1.00  0.00     0.291 C 
HETATM   35  C26 UNL     1       6.582   7.062  11.434  1.00  0.00     0.181 C 
HETATM   36  O7  UNL     1       6.659  10.618  11.282  1.00  0.00    -0.260 OA
HETATM   37  O8  UNL     1       7.676   8.907  12.417  1.00  0.00    -0.315 OA
HETATM   38  C25 UNL     1       7.373   7.532  12.636  1.00  0.00     0.215 C 
BRANCH  35  39
HETATM   39  O9  UNL     1       5.647   6.062  11.797  1.00  0.00    -0.389 OA
HETATM   40  H40 UNL     1       6.138   5.233  11.935  1.00  0.00     0.210 HD
ENDBRANCH  35  39
ENDBRANCH  31  32
ENDBRANCH  13  31
TORSDOF 11
ENDMDL
MODEL 7
REMARK minimizedAffinity -9.63649845
REMARK  11 active torsions:
REMARK  status: ('A' for Active; 'I' for Inactive)
REMARK    1  A    between atoms: C6_6  and  C8_8 
REMARK    2  A    between atoms: C8_8  and  O1_9 
REMARK    3  A    between atoms: O1_9  and  C9_10 
REMARK    4  A    between atoms: C10_12  and  C11_13 
REMARK    5  A    between atoms: C11_13  and  O3_14 
REMARK    6  A    between atoms: C12_15  and  O4_16 
REMARK    7  A    between atoms: C13_17  and  O5_18 
REMARK    8  A    between atoms: C14_19  and  O6_20 
REMARK    9  A    between atoms: C20_26  and  C21_27 
REMARK   10  A    between atoms: C21_27  and  C22_28 
REMARK   11  A    between atoms: C26_34  and  O9_35 
ROOT
HETATM    1  C1  UNL     1      -2.783   3.918  10.513  1.00  0.00     0.015 C 
HETATM    2  C2  UNL     1      -2.092   4.238  11.619  1.00  0.00    -0.084 C 
HETATM    3  C3  UNL     1      -0.601   4.464  11.561  1.00  0.00     0.034 C 
HETATM    4  C4  UNL     1      -0.151   5.583  12.513  1.00  0.00     0.010 C 
HETATM    5  C5  UNL     1      -1.250   6.658  12.696  1.00  0.00     0.005 C 
HETATM    6  C6  UNL     1      -0.744   8.044  13.301  1.00  0.00    -0.018 C 
HETATM    7  C7  UNL     1      -1.091   9.182  12.304  1.00  0.00     0.018 C 
HETATM    8  C15 UNL     1      -1.442   8.383  14.640  1.00  0.00     0.012 C 
HETATM    9  C16 UNL     1      -1.524   7.164  15.532  1.00  0.00     0.002 C 
HETATM   10  C17 UNL     1      -2.453   6.106  14.957  1.00  0.00     0.010 C 
HETATM   11  C18 UNL     1      -2.529   6.004  13.401  1.00  0.00    -0.032 C 
HETATM   12  C19 UNL     1      -3.784   6.772  12.903  1.00  0.00     0.016 C 
HETATM   13  C20 UNL     1      -2.674   4.457  13.011  1.00  0.00     0.025 C 
ENDROOT
BRANCH   6  14
HETATM   14  C8  UNL     1       0.802   8.089  13.522  1.00  0.00     0.180 C 
BRANCH  14  15
HETATM   15  O1  UNL     1       1.460   8.614  12.364  1.00  0.00    -0.358 OA
BRANCH  15  16
HETATM   16  C9  UNL     1       1.757   7.611  11.386  1.00  0.00     0.291 C 
HETATM   17  O2  UNL     1       1.447   8.092  10.082  1.00  0.00    -0.348 OA
HETATM   18  C10 UNL     1       1.936   7.284   8.989  1.00  0.00     0.179 C 
HETATM   19  C12 UNL     1       2.676   6.005   9.416  1.00  0.00     0.180 C 
HETATM   20  C13 UNL     1       3.717   6.258  10.515  1.00  0.00     0.183 C 
HETATM   21  C14 UNL     1       3.265   7.321  11.520  1.00  0.00     0.204 C 
BRANCH  18  22
HETATM   22  C11 UNL     1       2.756   8.202   8.073  1.00  0.00     0.198 C 
BRANCH  22  23
HETATM   23  O3  UNL     1       2.363   7.977   6.713  1.00  0.00    -0.398 OA
HETATM   24  H17 UNL     1       1.390   8.051   6.723  1.00  0.00     0.209 HD
ENDBRANCH  22  23
ENDBRANCH  18  22
BRANCH  19  25
HETATM   25  O4  UNL     1       3.279   5.329   8.313  1.00  0.00    -0.390 OA
HETATM   26  H19 UNL     1       4.233   5.557   8.354  1.00  0.00     0.210 HD
ENDBRANCH  19  25
BRANCH  20  27
HETATM   27  O5  UNL     1       4.974   6.612   9.910  1.00  0.00    -0.390 OA
HETATM   28  H21 UNL     1       5.132   7.546  10.174  1.00  0.00     0.210 HD
ENDBRANCH  20  27
BRANCH  21  29
HETATM   29  O6  UNL     1       4.024   8.532  11.277  1.00  0.00    -0.388 OA
HETATM   30  H23 UNL     1       3.512   9.241  11.721  1.00  0.00     0.210 HD
ENDBRANCH  21  29
ENDBRANCH  15  16
ENDBRANCH  14  15
ENDBRANCH   6  14
BRANCH  13  31
HETATM   31  C21 UNL     1      -4.070   3.793  13.204  1.00  0.00     0.037 C 
BRANCH  31  32
HETATM   32  C22 UNL     1      -5.228   4.751  13.270  1.00  0.00    -0.010 C 
HETATM   33  C23 UNL     1      -6.535   4.442  13.219  1.00  0.00     0.044 C 
HETATM   34  C24 UNL     1      -7.566   5.501  13.349  1.00  0.00     0.291 C 
HETATM   35  C26 UNL     1      -7.256   3.153  13.065  1.00  0.00     0.181 C 
HETATM   36  O7  UNL     1      -7.373   6.659  13.671  1.00  0.00    -0.260 OA
HETATM   37  O8  UNL     1      -8.786   4.949  13.096  1.00  0.00    -0.315 OA
HETATM   38  C25 UNL     1      -8.606   3.634  12.578  1.00  0.00     0.215 C 
BRANCH  35  39
HETATM   39  O9  UNL     1      -6.651   2.285  12.123  1.00  0.00    -0.389 OA
HETATM   40  H40 UNL     1      -7.101   1.424  12.182  1.00  0.00     0.210 HD
ENDBRANCH  35  39
ENDBRANCH  31  32
ENDBRANCH  13  31
TORSDOF 11
ENDMDL
MODEL 8
REMARK minimizedAffinity -9.62644863
REMARK  11 active torsions:
REMARK  status: ('A' for Active; 'I' for Inactive)
REMARK    1  A    between atoms: C6_6  and  C8_8 
REMARK    2  A    between atoms: C8_8  and  O1_9 
REMARK    3  A    between atoms: O1_9  and  C9_10 
REMARK    4  A    between atoms: C10_12  and  C11_13 
REMARK    5  A    between atoms: C11_13  and  O3_14 
REMARK    6  A    between atoms: C12_15  and  O4_16 
REMARK    7  A    between atoms: C13_17  and  O5_18 
REMARK    8  A    between atoms: C14_19  and  O6_20 
REMARK    9  A    between atoms: C20_26  and  C21_27 
REMARK   10  A    between atoms: C21_27  and  C22_28 
REMARK   11  A    between atoms: C26_34  and  O9_35 
ROOT
HETATM    1  C1  UNL     1      -2.929   3.693  10.468  1.00  0.00     0.015 C 
HETATM    2  C2  UNL     1      -2.091   3.883  11.501  1.00  0.00    -0.084 C 
HETATM    3  C3  UNL     1      -0.602   3.706  11.331  1.00  0.00     0.034 C 
HETATM    4  C4  UNL     1       0.197   4.719  12.164  1.00  0.00     0.010 C 
HETATM    5  C5  UNL     1      -0.568   6.055  12.333  1.00  0.00     0.005 C 
HETATM    6  C6  UNL     1       0.326   7.291  12.796  1.00  0.00    -0.018 C 
HETATM    7  C7  UNL     1       0.203   8.421  11.739  1.00  0.00     0.018 C 
HETATM    8  C15 UNL     1      -0.151   7.878  14.147  1.00  0.00     0.012 C 
HETATM    9  C16 UNL     1      -0.471   6.777  15.133  1.00  0.00     0.002 C 
HETATM   10  C17 UNL     1      -1.685   5.969  14.701  1.00  0.00     0.010 C 
HETATM   11  C18 UNL     1      -1.912   5.802  13.166  1.00  0.00    -0.032 C 
HETATM   12  C19 UNL     1      -2.962   6.842  12.692  1.00  0.00     0.016 C 
HETATM   13  C20 UNL     1      -2.481   4.327  12.906  1.00  0.00     0.025 C 
ENDROOT
BRANCH   6  14
HETATM   14  C8  UNL     1       1.843   6.941  12.914  1.00  0.00     0.180 C 
BRANCH  14  15
HETATM   15  O1  UNL     1       2.489   7.068  11.643  1.00  0.00    -0.358 OA
BRANCH  15  16
HETATM   16  C9  UNL     1       3.697   7.835  11.704  1.00  0.00     0.291 C 
HETATM   17  O2  UNL     1       4.269   7.745  13.005  1.00  0.00    -0.348 OA
HETATM   18  C10 UNL     1       5.615   8.255  13.129  1.00  0.00     0.179 C 
HETATM   19  C12 UNL     1       6.195   8.858  11.839  1.00  0.00     0.180 C 
HETATM   20  C13 UNL     1       5.983   7.958  10.613  1.00  0.00     0.183 C 
HETATM   21  C14 UNL     1       4.639   7.225  10.648  1.00  0.00     0.204 C 
BRANCH  18  22
HETATM   22  C11 UNL     1       6.473   7.138  13.737  1.00  0.00     0.198 C 
BRANCH  22  23
HETATM   23  O3  UNL     1       5.907   6.746  14.994  1.00  0.00    -0.398 OA
HETATM   24  H17 UNL     1       4.967   6.577  14.798  1.00  0.00     0.209 HD
ENDBRANCH  22  23
ENDBRANCH  18  22
BRANCH  19  25
HETATM   25  O4  UNL     1       7.575   9.198  11.967  1.00  0.00    -0.390 OA
HETATM   26  H19 UNL     1       8.067   8.476  11.518  1.00  0.00     0.210 HD
ENDBRANCH  19  25
BRANCH  20  27
HETATM   27  O5  UNL     1       7.081   7.032  10.506  1.00  0.00    -0.390 OA
HETATM   28  H21 UNL     1       6.685   6.146  10.662  1.00  0.00     0.210 HD
ENDBRANCH  20  27
BRANCH  21  29
HETATM   29  O6  UNL     1       4.887   5.831  10.952  1.00  0.00    -0.388 OA
HETATM   30  H23 UNL     1       4.019   5.481  11.249  1.00  0.00     0.210 HD
ENDBRANCH  21  29
ENDBRANCH  15  16
ENDBRANCH  14  15
ENDBRANCH   6  14
BRANCH  13  31
HETATM   31  C21 UNL     1      -3.982   4.066  13.238  1.00  0.00     0.037 C 
BRANCH  31  32
HETATM   32  C22 UNL     1      -4.799   5.300  13.506  1.00  0.00    -0.010 C 
HETATM   33  C23 UNL     1      -6.140   5.386  13.544  1.00  0.00     0.044 C 
HETATM   34  C24 UNL     1      -6.804   6.671  13.874  1.00  0.00     0.291 C 
HETATM   35  C26 UNL     1      -7.216   4.386  13.330  1.00  0.00     0.181 C 
HETATM   36  O7  UNL     1      -6.260   7.678  14.290  1.00  0.00    -0.260 OA
HETATM   37  O8  UNL     1      -8.145   6.526  13.681  1.00  0.00    -0.315 OA
HETATM   38  C25 UNL     1      -8.391   5.288  13.020  1.00  0.00     0.215 C 
BRANCH  35  39
HETATM   39  O9  UNL     1      -6.952   3.503  12.255  1.00  0.00    -0.389 OA
HETATM   40  H40 UNL     1      -7.630   2.806  12.269  1.00  0.00     0.210 HD
ENDBRANCH  35  39
ENDBRANCH  31  32
ENDBRANCH  13  31
TORSDOF 11
ENDMDL
MODEL 9
REMARK minimizedAffinity -9.56592083
REMARK  11 active torsions:
REMARK  status: ('A' for Active; 'I' for Inactive)
REMARK    1  A    between atoms: C6_6  and  C8_8 
REMARK    2  A    between atoms: C8_8  and  O1_9 
REMARK    3  A    between atoms: O1_9  and  C9_10 
REMARK    4  A    between atoms: C10_12  and  C11_13 
REMARK    5  A    between atoms: C11_13  and  O3_14 
REMARK    6  A    between atoms: C12_15  and  O4_16 
REMARK    7  A    between atoms: C13_17  and  O5_18 
REMARK    8  A    between atoms: C14_19  and  O6_20 
REMARK    9  A    between atoms: C20_26  and  C21_27 
REMARK   10  A    between atoms: C21_27  and  C22_28 
REMARK   11  A    between atoms: C26_34  and  O9_35 
ROOT
HETATM    1  C1  UNL     1       0.010   3.717  12.034  1.00  0.00     0.015 C 
HETATM    2  C2  UNL     1      -0.662   4.863  11.838  1.00  0.00    -0.084 C 
HETATM    3  C3  UNL     1      -2.167   4.903  11.930  1.00  0.00     0.034 C 
HETATM    4  C4  UNL     1      -2.672   6.214  12.550  1.00  0.00     0.010 C 
HETATM    5  C5  UNL     1      -1.661   6.795  13.569  1.00  0.00     0.005 C 
HETATM    6  C6  UNL     1      -2.258   7.890  14.563  1.00  0.00    -0.018 C 
HETATM    7  C7  UNL     1      -2.047   7.409  16.023  1.00  0.00     0.018 C 
HETATM    8  C15 UNL     1      -1.539   9.253  14.424  1.00  0.00     0.012 C 
HETATM    9  C16 UNL     1      -1.320   9.604  12.969  1.00  0.00     0.002 C 
HETATM   10  C17 UNL     1      -0.329   8.662  12.304  1.00  0.00     0.010 C 
HETATM   11  C18 UNL     1      -0.305   7.188  12.816  1.00  0.00    -0.032 C 
HETATM   12  C19 UNL     1       0.861   7.021  13.829  1.00  0.00     0.016 C 
HETATM   13  C20 UNL     1      -0.046   6.230  11.558  1.00  0.00     0.025 C 
ENDROOT
BRANCH   6  14
HETATM   14  C8  UNL     1      -3.792   8.116  14.376  1.00  0.00     0.180 C 
BRANCH  14  15
HETATM   15  O1  UNL     1      -4.535   7.065  15.002  1.00  0.00    -0.358 OA
BRANCH  15  16
HETATM   16  C9  UNL     1      -5.850   6.907  14.456  1.00  0.00     0.291 C 
HETATM   17  O2  UNL     1      -5.944   5.670  13.758  1.00  0.00    -0.348 OA
HETATM   18  C10 UNL     1      -7.281   5.269  13.382  1.00  0.00     0.179 C 
HETATM   19  C12 UNL     1      -8.382   6.273  13.758  1.00  0.00     0.180 C 
HETATM   20  C13 UNL     1      -8.268   6.769  15.206  1.00  0.00     0.183 C 
HETATM   21  C14 UNL     1      -6.814   6.935  15.657  1.00  0.00     0.204 C 
BRANCH  18  22
HETATM   22  C11 UNL     1      -7.508   3.856  13.937  1.00  0.00     0.198 C 
BRANCH  22  23
HETATM   23  O3  UNL     1      -8.620   3.261  13.257  1.00  0.00    -0.398 OA
HETATM   24  H17 UNL     1      -8.420   3.378  12.309  1.00  0.00     0.209 HD
ENDBRANCH  22  23
ENDBRANCH  18  22
BRANCH  19  25
HETATM   25  O4  UNL     1      -9.693   5.763  13.514  1.00  0.00    -0.390 OA
HETATM   26  H19 UNL     1     -10.035   5.487  14.392  1.00  0.00     0.210 HD
ENDBRANCH  19  25
BRANCH  20  27
HETATM   27  O5  UNL     1      -8.986   5.873  16.075  1.00  0.00    -0.390 OA
HETATM   28  H21 UNL     1      -8.297   5.457  16.640  1.00  0.00     0.210 HD
ENDBRANCH  20  27
BRANCH  21  29
HETATM   29  O6  UNL     1      -6.494   5.858  16.573  1.00  0.00    -0.388 OA
HETATM   30  H23 UNL     1      -5.513   5.834  16.597  1.00  0.00     0.210 HD
ENDBRANCH  21  29
ENDBRANCH  15  16
ENDBRANCH  14  15
ENDBRANCH   6  14
BRANCH  13  31
HETATM   31  C21 UNL     1       1.408   6.146  11.003  1.00  0.00     0.037 C 
BRANCH  31  32
HETATM   32  C22 UNL     1       2.461   6.763  11.881  1.00  0.00    -0.010 C 
HETATM   33  C23 UNL     1       3.780   6.837  11.629  1.00  0.00     0.044 C 
HETATM   34  C24 UNL     1       4.691   7.526  12.576  1.00  0.00     0.291 C 
HETATM   35  C26 UNL     1       4.613   6.355  10.500  1.00  0.00     0.181 C 
HETATM   36  O7  UNL     1       4.359   8.208  13.529  1.00  0.00    -0.260 OA
HETATM   37  O8  UNL     1       5.974   7.312  12.173  1.00  0.00    -0.315 OA
HETATM   38  C25 UNL     1       5.983   6.327  11.143  1.00  0.00     0.215 C 
BRANCH  35  39
HETATM   39  O9  UNL     1       4.238   5.070  10.038  1.00  0.00    -0.389 OA
HETATM   40  H40 UNL     1       4.738   4.890   9.223  1.00  0.00     0.210 HD
ENDBRANCH  35  39
ENDBRANCH  31  32
ENDBRANCH  13  31
TORSDOF 11
ENDMDL
