MODEL 1
REMARK minimizedAffinity -7.37611866
REMARK CNNscore 0.66170305
REMARK CNNaffinity 4.27887726
REMARK  11 active torsions:
REMARK  status: ('A' for Active; 'I' for Inactive)
REMARK    1  A    between atoms: C1_2  and  C2_3 
REMARK    2  A    between atoms: C1_2  and  O4_13 
REMARK    3  A    between atoms: C3_4  and  C4_5 
REMARK    4  A    between atoms: C7_8  and  O2_9 
REMARK    5  A    between atoms: C8_10  and  O3_11 
REMARK    6  A    between atoms: O4_13  and  C10_14 
REMARK    7  A    between atoms: C12_16  and  O5_17 
REMARK    8  A    between atoms: C12_16  and  C13_18 
REMARK    9  A    between atoms: C13_18  and  O7_20 
REMARK   10  A    between atoms: C15_22  and  O8_23 
REMARK   11  A    between atoms: C16_24  and  O9_25 
ROOT
HETATM    1  C10 UNL     1     -12.139   7.889  14.398  1.00  0.00     0.166 C 
HETATM    2  C11 UNL     1     -12.999   7.920  13.130  1.00  0.00     0.084 C 
HETATM    3  C12 UNL     1     -14.472   7.633  13.423  1.00  0.00     0.147 C 
HETATM    4  C14 UNL     1     -15.028   8.595  14.479  1.00  0.00     0.083 C 
HETATM    5  C15 UNL     1     -14.190   8.577  15.757  1.00  0.00     0.152 C 
HETATM    6  C16 UNL     1     -12.702   8.835  15.474  1.00  0.00     0.176 C 
ENDROOT
BRANCH   1   7
HETATM    7  O4  UNL     1     -10.804   8.341  14.068  1.00  0.00    -0.310 OA
BRANCH   7   8
HETATM    8  C1  UNL     1      -9.800   7.806  14.803  1.00  0.00     0.283 C 
HETATM    9  O1  UNL     1      -9.430   8.171  15.907  1.00  0.00    -0.260 OA
BRANCH   8  10
HETATM   10  C2  UNL     1      -9.229   6.677  14.042  1.00  0.00     0.083 C 
HETATM   11  C3  UNL     1      -7.999   6.229  14.332  1.00  0.00     0.017 C 
BRANCH  11  12
HETATM   12  C4  UNL     1      -7.340   5.125  13.623  1.00  0.00    -0.033 A 
HETATM   13  C5  UNL     1      -6.038   5.241  13.104  1.00  0.00     0.014 A 
HETATM   14  C6  UNL     1      -5.449   4.182  12.409  1.00  0.00     0.040 A 
HETATM   15  C7  UNL     1      -6.167   3.011  12.227  1.00  0.00     0.098 A 
HETATM   16  C8  UNL     1      -7.461   2.885  12.721  1.00  0.00     0.099 A 
HETATM   17  C9  UNL     1      -8.056   3.936  13.413  1.00  0.00     0.050 A 
BRANCH  15  18
HETATM   18  O2  UNL     1      -5.591   1.976  11.547  1.00  0.00    -0.358 OA
HETATM   19  H5  UNL     1      -6.275   1.275  11.545  1.00  0.00     0.217 HD
ENDBRANCH  15  18
BRANCH  16  20
HETATM   20  O3  UNL     1      -8.113   1.702  12.500  1.00  0.00    -0.358 OA
HETATM   21  H6  UNL     1      -8.993   1.759  12.911  1.00  0.00     0.217 HD
ENDBRANCH  16  20
ENDBRANCH  11  12
ENDBRANCH   8  10
ENDBRANCH   7   8
ENDBRANCH   1   7
BRANCH   6  22
HETATM   22  O9  UNL     1     -11.968   8.664  16.696  1.00  0.00    -0.390 OA
HETATM   23  H18 UNL     1     -12.416   7.933  17.169  1.00  0.00     0.210 HD
ENDBRANCH   6  22
BRANCH   3  24
HETATM   24  O5  UNL     1     -14.580   6.303  13.956  1.00  0.00    -0.379 OA
HETATM   25  H11 UNL     1     -14.621   5.708  13.178  1.00  0.00     0.211 HD
ENDBRANCH   3  24
BRANCH   3  26
HETATM   26  C13 UNL     1     -15.274   7.768  12.120  1.00  0.00     0.176 C 
HETATM   27  O6  UNL     1     -15.516   8.792  11.505  1.00  0.00    -0.648 OA
BRANCH  26  28
HETATM   28  O7  UNL     1     -15.685   6.566  11.655  1.00  0.00    -0.774 OA
HETATM   29  H12 UNL     1     -16.173   6.780  10.830  1.00  0.00     0.167 HD
ENDBRANCH  26  28
ENDBRANCH   3  26
BRANCH   5  30
HETATM   30  O8  UNL     1     -14.317   7.321  16.441  1.00  0.00    -0.393 OA
HETATM   31  H16 UNL     1     -14.464   6.625  15.762  1.00  0.00     0.210 HD
ENDBRANCH   5  30
TORSDOF 11
ENDMDL
MODEL 2
REMARK minimizedAffinity -8.89752483
REMARK CNNscore 0.601266682
REMARK CNNaffinity 4.88835859
REMARK  11 active torsions:
REMARK  status: ('A' for Active; 'I' for Inactive)
REMARK    1  A    between atoms: C1_2  and  C2_3 
REMARK    2  A    between atoms: C1_2  and  O4_13 
REMARK    3  A    between atoms: C3_4  and  C4_5 
REMARK    4  A    between atoms: C7_8  and  O2_9 
REMARK    5  A    between atoms: C8_10  and  O3_11 
REMARK    6  A    between atoms: O4_13  and  C10_14 
REMARK    7  A    between atoms: C12_16  and  O5_17 
REMARK    8  A    between atoms: C12_16  and  C13_18 
REMARK    9  A    between atoms: C13_18  and  O7_20 
REMARK   10  A    between atoms: C15_22  and  O8_23 
REMARK   11  A    between atoms: C16_24  and  O9_25 
ROOT
HETATM    1  C10 UNL     1       0.292   5.095  11.794  1.00  0.00     0.166 C 
HETATM    2  C11 UNL     1      -0.435   5.601  13.046  1.00  0.00     0.084 C 
HETATM    3  C12 UNL     1       0.439   6.538  13.882  1.00  0.00     0.147 C 
HETATM    4  C14 UNL     1       0.958   7.712  13.043  1.00  0.00     0.083 C 
HETATM    5  C15 UNL     1       1.692   7.231  11.791  1.00  0.00     0.152 C 
HETATM    6  C16 UNL     1       0.837   6.265  10.957  1.00  0.00     0.176 C 
ENDROOT
BRANCH   1   7
HETATM    7  O4  UNL     1      -0.649   4.364  10.972  1.00  0.00    -0.310 OA
BRANCH   7   8
HETATM    8  C1  UNL     1      -0.958   3.115  11.393  1.00  0.00     0.283 C 
HETATM    9  O1  UNL     1      -0.283   2.109  11.250  1.00  0.00    -0.260 OA
BRANCH   8  10
HETATM   10  C2  UNL     1      -2.261   3.176  12.084  1.00  0.00     0.083 C 
HETATM   11  C3  UNL     1      -3.364   3.517  11.401  1.00  0.00     0.017 C 
BRANCH  11  12
HETATM   12  C4  UNL     1      -4.700   3.622  12.001  1.00  0.00    -0.033 A 
HETATM   13  C5  UNL     1      -5.094   4.738  12.760  1.00  0.00     0.014 A 
HETATM   14  C6  UNL     1      -6.364   4.795  13.341  1.00  0.00     0.040 A 
HETATM   15  C7  UNL     1      -7.234   3.731  13.169  1.00  0.00     0.098 A 
HETATM   16  C8  UNL     1      -6.855   2.613  12.432  1.00  0.00     0.099 A 
HETATM   17  C9  UNL     1      -5.591   2.547  11.851  1.00  0.00     0.050 A 
BRANCH  15  18
HETATM   18  O2  UNL     1      -8.474   3.786  13.737  1.00  0.00    -0.358 OA
HETATM   19  H5  UNL     1      -8.896   2.940  13.484  1.00  0.00     0.217 HD
ENDBRANCH  15  18
BRANCH  16  20
HETATM   20  O3  UNL     1      -7.763   1.597  12.308  1.00  0.00    -0.358 OA
HETATM   21  H6  UNL     1      -7.363   0.899  11.761  1.00  0.00     0.217 HD
ENDBRANCH  16  20
ENDBRANCH  11  12
ENDBRANCH   8  10
ENDBRANCH   7   8
ENDBRANCH   1   7
BRANCH   6  22
HETATM   22  O9  UNL     1       1.642   5.753   9.883  1.00  0.00    -0.390 OA
HETATM   23  H18 UNL     1       2.543   5.660  10.255  1.00  0.00     0.210 HD
ENDBRANCH   6  22
BRANCH   3  24
HETATM   24  O5  UNL     1       1.583   5.803  14.343  1.00  0.00    -0.379 OA
HETATM   25  H11 UNL     1       1.293   5.348  15.162  1.00  0.00     0.211 HD
ENDBRANCH   3  24
BRANCH   3  26
HETATM   26  C13 UNL     1      -0.388   7.066  15.063  1.00  0.00     0.176 C 
HETATM   27  O6  UNL     1      -1.486   7.594  15.018  1.00  0.00    -0.648 OA
BRANCH  26  28
HETATM   28  O7  UNL     1       0.228   6.845  16.247  1.00  0.00    -0.774 OA
HETATM   29  H12 UNL     1      -0.391   7.216  16.914  1.00  0.00     0.167 HD
ENDBRANCH  26  28
ENDBRANCH   3  26
BRANCH   5  30
HETATM   30  O8  UNL     1       2.924   6.577  12.134  1.00  0.00    -0.393 OA
HETATM   31  H16 UNL     1       2.799   6.145  13.009  1.00  0.00     0.210 HD
ENDBRANCH   5  30
TORSDOF 11
ENDMDL
MODEL 3
REMARK minimizedAffinity -8.47290993
REMARK CNNscore 0.578216434
REMARK CNNaffinity 4.36731195
REMARK  11 active torsions:
REMARK  status: ('A' for Active; 'I' for Inactive)
REMARK    1  A    between atoms: C1_2  and  C2_3 
REMARK    2  A    between atoms: C1_2  and  O4_13 
REMARK    3  A    between atoms: C3_4  and  C4_5 
REMARK    4  A    between atoms: C7_8  and  O2_9 
REMARK    5  A    between atoms: C8_10  and  O3_11 
REMARK    6  A    between atoms: O4_13  and  C10_14 
REMARK    7  A    between atoms: C12_16  and  O5_17 
REMARK    8  A    between atoms: C12_16  and  C13_18 
REMARK    9  A    between atoms: C13_18  and  O7_20 
REMARK   10  A    between atoms: C15_22  and  O8_23 
REMARK   11  A    between atoms: C16_24  and  O9_25 
ROOT
HETATM    1  C10 UNL     1       0.111   6.558  11.007  1.00  0.00     0.166 C 
HETATM    2  C11 UNL     1       1.405   5.918  10.492  1.00  0.00     0.084 C 
HETATM    3  C12 UNL     1       2.633   6.781  10.784  1.00  0.00     0.147 C 
HETATM    4  C14 UNL     1       2.745   7.103  12.279  1.00  0.00     0.083 C 
HETATM    5  C15 UNL     1       1.468   7.748  12.815  1.00  0.00     0.152 C 
HETATM    6  C16 UNL     1       0.221   6.906  12.503  1.00  0.00     0.176 C 
ENDROOT
BRANCH   1   7
HETATM    7  O4  UNL     1      -0.972   5.610  10.854  1.00  0.00    -0.310 OA
BRANCH   7   8
HETATM    8  C1  UNL     1      -0.738   4.362  11.325  1.00  0.00     0.283 C 
HETATM    9  O1  UNL     1       0.350   3.869  11.574  1.00  0.00    -0.260 OA
BRANCH   8  10
HETATM   10  C2  UNL     1      -2.040   3.692  11.509  1.00  0.00     0.083 C 
HETATM   11  C3  UNL     1      -3.119   4.411  11.854  1.00  0.00     0.017 C 
BRANCH  11  12
HETATM   12  C4  UNL     1      -4.451   3.835  12.075  1.00  0.00    -0.033 A 
HETATM   13  C5  UNL     1      -5.372   4.405  12.972  1.00  0.00     0.014 A 
HETATM   14  C6  UNL     1      -6.623   3.817  13.181  1.00  0.00     0.040 A 
HETATM   15  C7  UNL     1      -6.946   2.654  12.499  1.00  0.00     0.098 A 
HETATM   16  C8  UNL     1      -6.040   2.071  11.618  1.00  0.00     0.099 A 
HETATM   17  C9  UNL     1      -4.792   2.649  11.406  1.00  0.00     0.050 A 
BRANCH  15  18
HETATM   18  O2  UNL     1      -8.167   2.079  12.704  1.00  0.00    -0.358 OA
HETATM   19  H5  UNL     1      -8.164   1.289  12.128  1.00  0.00     0.217 HD
ENDBRANCH  15  18
BRANCH  16  20
HETATM   20  O3  UNL     1      -6.424   0.921  10.983  1.00  0.00    -0.358 OA
HETATM   21  H6  UNL     1      -5.699   0.642  10.397  1.00  0.00     0.217 HD
ENDBRANCH  16  20
ENDBRANCH  11  12
ENDBRANCH   8  10
ENDBRANCH   7   8
ENDBRANCH   1   7
BRANCH   6  22
HETATM   22  O9  UNL     1      -0.942   7.642  12.911  1.00  0.00    -0.390 OA
HETATM   23  H18 UNL     1      -0.735   8.581  12.725  1.00  0.00     0.210 HD
ENDBRANCH   6  22
BRANCH   3  24
HETATM   24  O5  UNL     1       2.489   8.029  10.087  1.00  0.00    -0.379 OA
HETATM   25  H11 UNL     1       2.823   7.865   9.179  1.00  0.00     0.211 HD
ENDBRANCH   3  24
BRANCH   3  26
HETATM   26  C13 UNL     1       3.890   6.032  10.316  1.00  0.00     0.176 C 
HETATM   27  O6  UNL     1       5.032   6.455  10.285  1.00  0.00    -0.648 OA
BRANCH  26  28
HETATM   28  O7  UNL     1       3.610   4.759   9.952  1.00  0.00    -0.774 OA
HETATM   29  H12 UNL     1       4.479   4.389   9.683  1.00  0.00     0.167 HD
ENDBRANCH  26  28
ENDBRANCH   3  26
BRANCH   5  30
HETATM   30  O8  UNL     1       1.284   9.063  12.268  1.00  0.00    -0.393 OA
HETATM   31  H16 UNL     1       1.673   9.067  11.364  1.00  0.00     0.210 HD
ENDBRANCH   5  30
TORSDOF 11
ENDMDL
MODEL 4
REMARK minimizedAffinity -7.50112772
REMARK CNNscore 0.571562231
REMARK CNNaffinity 4.45686674
REMARK  11 active torsions:
REMARK  status: ('A' for Active; 'I' for Inactive)
REMARK    1  A    between atoms: C1_2  and  C2_3 
REMARK    2  A    between atoms: C1_2  and  O4_13 
REMARK    3  A    between atoms: C3_4  and  C4_5 
REMARK    4  A    between atoms: C7_8  and  O2_9 
REMARK    5  A    between atoms: C8_10  and  O3_11 
REMARK    6  A    between atoms: O4_13  and  C10_14 
REMARK    7  A    between atoms: C12_16  and  O5_17 
REMARK    8  A    between atoms: C12_16  and  C13_18 
REMARK    9  A    between atoms: C13_18  and  O7_20 
REMARK   10  A    between atoms: C15_22  and  O8_23 
REMARK   11  A    between atoms: C16_24  and  O9_25 
ROOT
HETATM    1  C10 UNL     1       2.365   6.191  11.645  1.00  0.00     0.166 C 
HETATM    2  C11 UNL     1       3.432   7.291  11.693  1.00  0.00     0.084 C 
HETATM    3  C12 UNL     1       4.326   7.283  10.452  1.00  0.00     0.147 C 
HETATM    4  C14 UNL     1       3.497   7.386   9.167  1.00  0.00     0.083 C 
HETATM    5  C15 UNL     1       2.429   6.295   9.094  1.00  0.00     0.152 C 
HETATM    6  C16 UNL     1       1.542   6.272  10.348  1.00  0.00     0.176 C 
ENDROOT
BRANCH   1   7
HETATM    7  O4  UNL     1       1.457   6.373  12.757  1.00  0.00    -0.310 OA
BRANCH   7   8
HETATM    8  C1  UNL     1       0.659   7.466  12.695  1.00  0.00     0.283 C 
HETATM    9  O1  UNL     1       1.008   8.630  12.794  1.00  0.00    -0.260 OA
BRANCH   8  10
HETATM   10  C2  UNL     1      -0.726   7.006  12.467  1.00  0.00     0.083 C 
HETATM   11  C3  UNL     1      -1.145   5.852  13.006  1.00  0.00     0.017 C 
BRANCH  11  12
HETATM   12  C4  UNL     1      -2.495   5.304  12.824  1.00  0.00    -0.033 A 
HETATM   13  C5  UNL     1      -3.576   5.694  13.634  1.00  0.00     0.014 A 
HETATM   14  C6  UNL     1      -4.843   5.132  13.453  1.00  0.00     0.040 A 
HETATM   15  C7  UNL     1      -5.023   4.175  12.467  1.00  0.00     0.098 A 
HETATM   16  C8  UNL     1      -3.961   3.769  11.666  1.00  0.00     0.099 A 
HETATM   17  C9  UNL     1      -2.695   4.322  11.841  1.00  0.00     0.050 A 
BRANCH  15  18
HETATM   18  O2  UNL     1      -6.261   3.626  12.291  1.00  0.00    -0.358 OA
HETATM   19  H5  UNL     1      -6.143   2.991  11.556  1.00  0.00     0.217 HD
ENDBRANCH  15  18
BRANCH  16  20
HETATM   20  O3  UNL     1      -4.211   2.817  10.716  1.00  0.00    -0.358 OA
HETATM   21  H6  UNL     1      -3.383   2.647  10.232  1.00  0.00     0.217 HD
ENDBRANCH  16  20
ENDBRANCH  11  12
ENDBRANCH   8  10
ENDBRANCH   7   8
ENDBRANCH   1   7
BRANCH   6  22
HETATM   22  O9  UNL     1       0.664   5.139  10.265  1.00  0.00    -0.390 OA
HETATM   23  H18 UNL     1       1.188   4.433   9.833  1.00  0.00     0.210 HD
ENDBRANCH   6  22
BRANCH   3  24
HETATM   24  O5  UNL     1       5.031   6.033  10.407  1.00  0.00    -0.379 OA
HETATM   25  H11 UNL     1       5.823   6.154  10.973  1.00  0.00     0.211 HD
ENDBRANCH   3  24
BRANCH   3  26
HETATM   26  C13 UNL     1       5.305   8.463  10.538  1.00  0.00     0.176 C 
HETATM   27  O6  UNL     1       5.062   9.640  10.337  1.00  0.00    -0.648 OA
BRANCH  26  28
HETATM   28  O7  UNL     1       6.540   8.065  10.923  1.00  0.00    -0.774 OA
HETATM   29  H12 UNL     1       7.065   8.895  10.946  1.00  0.00     0.167 HD
ENDBRANCH  26  28
ENDBRANCH   3  26
BRANCH   5  30
HETATM   30  O8  UNL     1       3.026   4.999   8.928  1.00  0.00    -0.393 OA
HETATM   31  H16 UNL     1       3.898   5.012   9.381  1.00  0.00     0.210 HD
ENDBRANCH   5  30
TORSDOF 11
ENDMDL
MODEL 5
REMARK minimizedAffinity -8.16569042
REMARK CNNscore 0.552196085
REMARK CNNaffinity 4.65111876
REMARK  11 active torsions:
REMARK  status: ('A' for Active; 'I' for Inactive)
REMARK    1  A    between atoms: C1_2  and  C2_3 
REMARK    2  A    between atoms: C1_2  and  O4_13 
REMARK    3  A    between atoms: C3_4  and  C4_5 
REMARK    4  A    between atoms: C7_8  and  O2_9 
REMARK    5  A    between atoms: C8_10  and  O3_11 
REMARK    6  A    between atoms: O4_13  and  C10_14 
REMARK    7  A    between atoms: C12_16  and  O5_17 
REMARK    8  A    between atoms: C12_16  and  C13_18 
REMARK    9  A    between atoms: C13_18  and  O7_20 
REMARK   10  A    between atoms: C15_22  and  O8_23 
REMARK   11  A    between atoms: C16_24  and  O9_25 
ROOT
HETATM    1  C10 UNL     1       0.577   6.757  12.780  1.00  0.00     0.166 C 
HETATM    2  C11 UNL     1       0.319   7.352  14.169  1.00  0.00     0.084 C 
HETATM    3  C12 UNL     1       1.616   7.737  14.883  1.00  0.00     0.147 C 
HETATM    4  C14 UNL     1       2.458   8.695  14.031  1.00  0.00     0.083 C 
HETATM    5  C15 UNL     1       2.734   8.120  12.642  1.00  0.00     0.152 C 
HETATM    6  C16 UNL     1       1.441   7.701  11.924  1.00  0.00     0.176 C 
ENDROOT
BRANCH   1   7
HETATM    7  O4  UNL     1      -0.690   6.584  12.103  1.00  0.00    -0.310 OA
BRANCH   7   8
HETATM    8  C1  UNL     1      -0.950   5.337  11.644  1.00  0.00     0.283 C 
HETATM    9  O1  UNL     1      -0.197   4.625  11.001  1.00  0.00    -0.260 OA
BRANCH   8  10
HETATM   10  C2  UNL     1      -2.314   4.969  12.075  1.00  0.00     0.083 C 
HETATM   11  C3  UNL     1      -2.967   3.978  11.449  1.00  0.00     0.017 C 
BRANCH  11  12
HETATM   12  C4  UNL     1      -4.329   3.550  11.792  1.00  0.00    -0.033 A 
HETATM   13  C5  UNL     1      -5.127   4.256  12.710  1.00  0.00     0.014 A 
HETATM   14  C6  UNL     1      -6.409   3.807  13.037  1.00  0.00     0.040 A 
HETATM   15  C7  UNL     1      -6.888   2.646  12.450  1.00  0.00     0.098 A 
HETATM   16  C8  UNL     1      -6.106   1.928  11.550  1.00  0.00     0.099 A 
HETATM   17  C9  UNL     1      -4.827   2.368  11.221  1.00  0.00     0.050 A 
BRANCH  15  18
HETATM   18  O2  UNL     1      -8.140   2.207  12.769  1.00  0.00    -0.358 OA
HETATM   19  H5  UNL     1      -8.253   1.389  12.244  1.00  0.00     0.217 HD
ENDBRANCH  15  18
BRANCH  16  20
HETATM   20  O3  UNL     1      -6.641   0.789  11.014  1.00  0.00    -0.358 OA
HETATM   21  H6  UNL     1      -5.989   0.408  10.400  1.00  0.00     0.217 HD
ENDBRANCH  16  20
ENDBRANCH  11  12
ENDBRANCH   8  10
ENDBRANCH   7   8
ENDBRANCH   1   7
BRANCH   6  22
HETATM   22  O9  UNL     1       1.793   7.047  10.695  1.00  0.00    -0.390 OA
HETATM   23  H18 UNL     1       2.613   6.549  10.890  1.00  0.00     0.210 HD
ENDBRANCH   6  22
BRANCH   3  24
HETATM   24  O5  UNL     1       2.395   6.548  15.086  1.00  0.00    -0.379 OA
HETATM   25  H11 UNL     1       2.059   6.150  15.918  1.00  0.00     0.211 HD
ENDBRANCH   3  24
BRANCH   3  26
HETATM   26  C13 UNL     1       1.267   8.401  16.223  1.00  0.00     0.176 C 
HETATM   27  O6  UNL     1       0.161   8.727  16.620  1.00  0.00    -0.648 OA
BRANCH  26  28
HETATM   28  O7  UNL     1       2.361   8.571  17.001  1.00  0.00    -0.774 OA
HETATM   29  H12 UNL     1       2.013   8.991  17.818  1.00  0.00     0.167 HD
ENDBRANCH  26  28
ENDBRANCH   3  26
BRANCH   5  30
HETATM   30  O8  UNL     1       3.608   6.984  12.717  1.00  0.00    -0.393 OA
HETATM   31  H16 UNL     1       3.438   6.533  13.574  1.00  0.00     0.210 HD
ENDBRANCH   5  30
TORSDOF 11
ENDMDL
MODEL 6
REMARK minimizedAffinity -8.35299301
REMARK CNNscore 0.539404333
REMARK CNNaffinity 4.60407686
REMARK  11 active torsions:
REMARK  status: ('A' for Active; 'I' for Inactive)
REMARK    1  A    between atoms: C1_2  and  C2_3 
REMARK    2  A    between atoms: C1_2  and  O4_13 
REMARK    3  A    between atoms: C3_4  and  C4_5 
REMARK    4  A    between atoms: C7_8  and  O2_9 
REMARK    5  A    between atoms: C8_10  and  O3_11 
REMARK    6  A    between atoms: O4_13  and  C10_14 
REMARK    7  A    between atoms: C12_16  and  O5_17 
REMARK    8  A    between atoms: C12_16  and  C13_18 
REMARK    9  A    between atoms: C13_18  and  O7_20 
REMARK   10  A    between atoms: C15_22  and  O8_23 
REMARK   11  A    between atoms: C16_24  and  O9_25 
ROOT
HETATM    1  C10 UNL     1       1.387   5.527  11.926  1.00  0.00     0.166 C 
HETATM    2  C11 UNL     1       1.099   6.958  12.394  1.00  0.00     0.084 C 
HETATM    3  C12 UNL     1       2.354   7.833  12.383  1.00  0.00     0.147 C 
HETATM    4  C14 UNL     1       3.019   7.837  11.002  1.00  0.00     0.083 C 
HETATM    5  C15 UNL     1       3.321   6.420  10.515  1.00  0.00     0.152 C 
HETATM    6  C16 UNL     1       2.075   5.521  10.549  1.00  0.00     0.176 C 
ENDROOT
BRANCH   1   7
HETATM    7  O4  UNL     1       0.132   4.818  11.795  1.00  0.00    -0.310 OA
BRANCH   7   8
HETATM    8  C1  UNL     1      -0.988   5.567  11.927  1.00  0.00     0.283 C 
HETATM    9  O1  UNL     1      -1.044   6.781  12.037  1.00  0.00    -0.260 OA
BRANCH   8  10
HETATM   10  C2  UNL     1      -2.151   4.658  11.896  1.00  0.00     0.083 C 
HETATM   11  C3  UNL     1      -3.323   5.055  12.413  1.00  0.00     0.017 C 
BRANCH  11  12
HETATM   12  C4  UNL     1      -4.530   4.219  12.444  1.00  0.00    -0.033 A 
HETATM   13  C5  UNL     1      -4.669   3.075  11.639  1.00  0.00     0.014 A 
HETATM   14  C6  UNL     1      -5.842   2.316  11.672  1.00  0.00     0.040 A 
HETATM   15  C7  UNL     1      -6.878   2.710  12.504  1.00  0.00     0.098 A 
HETATM   16  C8  UNL     1      -6.762   3.847  13.297  1.00  0.00     0.099 A 
HETATM   17  C9  UNL     1      -5.597   4.609  13.269  1.00  0.00     0.050 A 
BRANCH  15  18
HETATM   18  O2  UNL     1      -8.024   1.969  12.535  1.00  0.00    -0.358 OA
HETATM   19  H5  UNL     1      -8.597   2.433  13.180  1.00  0.00     0.217 HD
ENDBRANCH  15  18
BRANCH  16  20
HETATM   20  O3  UNL     1      -7.826   4.179  14.090  1.00  0.00    -0.358 OA
HETATM   21  H6  UNL     1      -7.594   4.981  14.589  1.00  0.00     0.217 HD
ENDBRANCH  16  20
ENDBRANCH  11  12
ENDBRANCH   8  10
ENDBRANCH   7   8
ENDBRANCH   1   7
BRANCH   6  22
HETATM   22  O9  UNL     1       2.469   4.181  10.215  1.00  0.00    -0.390 OA
HETATM   23  H18 UNL     1       3.359   4.066  10.608  1.00  0.00     0.210 HD
ENDBRANCH   6  22
BRANCH   3  24
HETATM   24  O5  UNL     1       3.301   7.282  13.312  1.00  0.00    -0.379 OA
HETATM   25  H11 UNL     1       3.057   7.648  14.188  1.00  0.00     0.211 HD
ENDBRANCH   3  24
BRANCH   3  26
HETATM   26  C13 UNL     1       1.965   9.265  12.780  1.00  0.00     0.176 C 
HETATM   27  O6  UNL     1       2.715  10.202  12.991  1.00  0.00    -0.648 OA
BRANCH  26  28
HETATM   28  O7  UNL     1       0.622   9.423  12.840  1.00  0.00    -0.774 OA
HETATM   29  H12 UNL     1       0.501  10.364  13.093  1.00  0.00     0.167 HD
ENDBRANCH  26  28
ENDBRANCH   3  26
BRANCH   5  30
HETATM   30  O8  UNL     1       4.350   5.810  11.309  1.00  0.00    -0.393 OA
HETATM   31  H16 UNL     1       4.278   6.173  12.220  1.00  0.00     0.210 HD
ENDBRANCH   5  30
TORSDOF 11
ENDMDL
MODEL 7
REMARK minimizedAffinity -8.68282223
REMARK CNNscore 0.505264521
REMARK CNNaffinity 4.60049391
REMARK  11 active torsions:
REMARK  status: ('A' for Active; 'I' for Inactive)
REMARK    1  A    between atoms: C1_2  and  C2_3 
REMARK    2  A    between atoms: C1_2  and  O4_13 
REMARK    3  A    between atoms: C3_4  and  C4_5 
REMARK    4  A    between atoms: C7_8  and  O2_9 
REMARK    5  A    between atoms: C8_10  and  O3_11 
REMARK    6  A    between atoms: O4_13  and  C10_14 
REMARK    7  A    between atoms: C12_16  and  O5_17 
REMARK    8  A    between atoms: C12_16  and  C13_18 
REMARK    9  A    between atoms: C13_18  and  O7_20 
REMARK   10  A    between atoms: C15_22  and  O8_23 
REMARK   11  A    between atoms: C16_24  and  O9_25 
ROOT
HETATM    1  C10 UNL     1      -0.079   6.640  12.336  1.00  0.00     0.166 C 
HETATM    2  C11 UNL     1      -0.254   7.051  10.869  1.00  0.00     0.084 C 
HETATM    3  C12 UNL     1       0.850   7.999  10.399  1.00  0.00     0.147 C 
HETATM    4  C14 UNL     1       2.240   7.395  10.631  1.00  0.00     0.083 C 
HETATM    5  C15 UNL     1       2.441   6.982  12.090  1.00  0.00     0.152 C 
HETATM    6  C16 UNL     1       1.322   6.052  12.584  1.00  0.00     0.176 C 
ENDROOT
BRANCH   1   7
HETATM    7  O4  UNL     1      -1.050   5.614  12.652  1.00  0.00    -0.310 OA
BRANCH   7   8
HETATM    8  C1  UNL     1      -1.174   4.617  11.744  1.00  0.00     0.283 C 
HETATM    9  O1  UNL     1      -0.281   4.129  11.071  1.00  0.00    -0.260 OA
BRANCH   8  10
HETATM   10  C2  UNL     1      -2.589   4.197  11.718  1.00  0.00     0.083 C 
HETATM   11  C3  UNL     1      -3.413   4.564  12.711  1.00  0.00     0.017 C 
BRANCH  11  12
HETATM   12  C4  UNL     1      -4.829   4.184  12.783  1.00  0.00    -0.033 A 
HETATM   13  C5  UNL     1      -5.363   3.136  12.013  1.00  0.00     0.014 A 
HETATM   14  C6  UNL     1      -6.722   2.817  12.083  1.00  0.00     0.040 A 
HETATM   15  C7  UNL     1      -7.546   3.553  12.919  1.00  0.00     0.098 A 
HETATM   16  C8  UNL     1      -7.037   4.602  13.678  1.00  0.00     0.099 A 
HETATM   17  C9  UNL     1      -5.685   4.928  13.612  1.00  0.00     0.050 A 
BRANCH  15  18
HETATM   18  O2  UNL     1      -8.874   3.242  12.987  1.00  0.00    -0.358 OA
HETATM   19  H5  UNL     1      -9.242   3.885  13.627  1.00  0.00     0.217 HD
ENDBRANCH  15  18
BRANCH  16  20
HETATM   20  O3  UNL     1      -7.909   5.289  14.477  1.00  0.00    -0.358 OA
HETATM   21  H6  UNL     1      -7.409   5.977  14.950  1.00  0.00     0.217 HD
ENDBRANCH  16  20
ENDBRANCH  11  12
ENDBRANCH   8  10
ENDBRANCH   7   8
ENDBRANCH   1   7
BRANCH   6  22
HETATM   22  O9  UNL     1       1.505   5.826  13.990  1.00  0.00    -0.390 OA
HETATM   23  H18 UNL     1       1.846   6.671  14.349  1.00  0.00     0.210 HD
ENDBRANCH   6  22
BRANCH   3  24
HETATM   24  O5  UNL     1       0.774   9.206  11.174  1.00  0.00    -0.379 OA
HETATM   25  H11 UNL     1       0.106   9.767  10.725  1.00  0.00     0.211 HD
ENDBRANCH   3  24
BRANCH   3  26
HETATM   26  C13 UNL     1       0.651   8.292   8.905  1.00  0.00     0.176 C 
HETATM   27  O6  UNL     1       1.299   7.847   7.973  1.00  0.00    -0.648 OA
BRANCH  26  28
HETATM   28  O7  UNL     1      -0.404   9.110   8.688  1.00  0.00    -0.774 OA
HETATM   29  H12 UNL     1      -0.431   9.216   7.712  1.00  0.00     0.167 HD
ENDBRANCH  26  28
ENDBRANCH   3  26
BRANCH   5  30
HETATM   30  O8  UNL     1       2.498   8.131  12.948  1.00  0.00    -0.393 OA
HETATM   31  H16 UNL     1       1.928   8.828  12.553  1.00  0.00     0.210 HD
ENDBRANCH   5  30
TORSDOF 11
ENDMDL
MODEL 8
REMARK minimizedAffinity -7.203475
REMARK CNNscore 0.445536494
REMARK CNNaffinity 4.30190659
REMARK  11 active torsions:
REMARK  status: ('A' for Active; 'I' for Inactive)
REMARK    1  A    between atoms: C1_2  and  C2_3 
REMARK    2  A    between atoms: C1_2  and  O4_13 
REMARK    3  A    between atoms: C3_4  and  C4_5 
REMARK    4  A    between atoms: C7_8  and  O2_9 
REMARK    5  A    between atoms: C8_10  and  O3_11 
REMARK    6  A    between atoms: O4_13  and  C10_14 
REMARK    7  A    between atoms: C12_16  and  O5_17 
REMARK    8  A    between atoms: C12_16  and  C13_18 
REMARK    9  A    between atoms: C13_18  and  O7_20 
REMARK   10  A    between atoms: C15_22  and  O8_23 
REMARK   11  A    between atoms: C16_24  and  O9_25 
ROOT
HETATM    1  C10 UNL     1      -0.458   7.259  14.965  1.00  0.00     0.166 C 
HETATM    2  C11 UNL     1      -1.011   8.683  14.841  1.00  0.00     0.084 C 
HETATM    3  C12 UNL     1       0.054   9.744  15.123  1.00  0.00     0.147 C 
HETATM    4  C14 UNL     1       1.279   9.557  14.219  1.00  0.00     0.083 C 
HETATM    5  C15 UNL     1       1.852   8.145  14.329  1.00  0.00     0.152 C 
HETATM    6  C16 UNL     1       0.785   7.068  14.078  1.00  0.00     0.176 C 
ENDROOT
BRANCH   1   7
HETATM    7  O4  UNL     1      -1.468   6.325  14.515  1.00  0.00    -0.310 OA
BRANCH   7   8
HETATM    8  C1  UNL     1      -1.899   6.488  13.241  1.00  0.00     0.283 C 
HETATM    9  O1  UNL     1      -1.509   7.321  12.440  1.00  0.00    -0.260 OA
BRANCH   8  10
HETATM   10  C2  UNL     1      -2.923   5.459  12.972  1.00  0.00     0.083 C 
HETATM   11  C3  UNL     1      -4.198   5.677  13.326  1.00  0.00     0.017 C 
BRANCH  11  12
HETATM   12  C4  UNL     1      -5.284   4.711  13.116  1.00  0.00    -0.033 A 
HETATM   13  C5  UNL     1      -6.465   4.735  13.879  1.00  0.00     0.014 A 
HETATM   14  C6  UNL     1      -7.468   3.784  13.674  1.00  0.00     0.040 A 
HETATM   15  C7  UNL     1      -7.284   2.805  12.711  1.00  0.00     0.098 A 
HETATM   16  C8  UNL     1      -6.116   2.758  11.957  1.00  0.00     0.099 A 
HETATM   17  C9  UNL     1      -5.111   3.701  12.156  1.00  0.00     0.050 A 
BRANCH  15  18
HETATM   18  O2  UNL     1      -8.264   1.875  12.511  1.00  0.00    -0.358 OA
HETATM   19  H5  UNL     1      -7.914   1.302  11.799  1.00  0.00     0.217 HD
ENDBRANCH  15  18
BRANCH  16  20
HETATM   20  O3  UNL     1      -6.000   1.761  11.027  1.00  0.00    -0.358 OA
HETATM   21  H6  UNL     1      -5.144   1.866  10.576  1.00  0.00     0.217 HD
ENDBRANCH  16  20
ENDBRANCH  11  12
ENDBRANCH   8  10
ENDBRANCH   7   8
ENDBRANCH   1   7
BRANCH   6  22
HETATM   22  O9  UNL     1       1.366   5.780  14.336  1.00  0.00    -0.390 OA
HETATM   23  H18 UNL     1       1.980   5.917  15.087  1.00  0.00     0.210 HD
ENDBRANCH   6  22
BRANCH   3  24
HETATM   24  O5  UNL     1       0.498   9.595  16.480  1.00  0.00    -0.379 OA
HETATM   25  H11 UNL     1      -0.143  10.098  17.026  1.00  0.00     0.211 HD
ENDBRANCH   3  24
BRANCH   3  26
HETATM   26  C13 UNL     1      -0.556  11.135  14.894  1.00  0.00     0.176 C 
HETATM   27  O6  UNL     1      -0.030  12.214  15.098  1.00  0.00    -0.648 OA
BRANCH  26  28
HETATM   28  O7  UNL     1      -1.802  11.058  14.371  1.00  0.00    -0.774 OA
HETATM   29  H12 UNL     1      -2.078  11.994  14.267  1.00  0.00     0.167 HD
ENDBRANCH  26  28
ENDBRANCH   3  26
BRANCH   5  30
HETATM   30  O8  UNL     1       2.434   7.923  15.623  1.00  0.00    -0.393 OA
HETATM   31  H16 UNL     1       1.930   8.462  16.273  1.00  0.00     0.210 HD
ENDBRANCH   5  30
TORSDOF 11
ENDMDL
MODEL 9
REMARK minimizedAffinity -7.41477251
REMARK CNNscore 0.44325611
REMARK CNNaffinity 4.75600863
REMARK  11 active torsions:
REMARK  status: ('A' for Active; 'I' for Inactive)
REMARK    1  A    between atoms: C1_2  and  C2_3 
REMARK    2  A    between atoms: C1_2  and  O4_13 
REMARK    3  A    between atoms: C3_4  and  C4_5 
REMARK    4  A    between atoms: C7_8  and  O2_9 
REMARK    5  A    between atoms: C8_10  and  O3_11 
REMARK    6  A    between atoms: O4_13  and  C10_14 
REMARK    7  A    between atoms: C12_16  and  O5_17 
REMARK    8  A    between atoms: C12_16  and  C13_18 
REMARK    9  A    between atoms: C13_18  and  O7_20 
REMARK   10  A    between atoms: C15_22  and  O8_23 
REMARK   11  A    between atoms: C16_24  and  O9_25 
ROOT
HETATM    1  C10 UNL     1     -10.502   7.471  14.561  1.00  0.00     0.166 C 
HETATM    2  C11 UNL     1     -11.698   6.909  13.784  1.00  0.00     0.084 C 
HETATM    3  C12 UNL     1     -12.997   7.649  14.108  1.00  0.00     0.147 C 
HETATM    4  C14 UNL     1     -12.854   9.157  13.869  1.00  0.00     0.083 C 
HETATM    5  C15 UNL     1     -11.670   9.741  14.639  1.00  0.00     0.152 C 
HETATM    6  C16 UNL     1     -10.363   8.989  14.345  1.00  0.00     0.176 C 
ENDROOT
BRANCH   1   7
HETATM    7  O4  UNL     1      -9.292   6.844  14.073  1.00  0.00    -0.310 OA
BRANCH   7   8
HETATM    8  C1  UNL     1      -8.408   6.448  15.019  1.00  0.00     0.283 C 
HETATM    9  O1  UNL     1      -8.521   6.584  16.226  1.00  0.00    -0.260 OA
BRANCH   8  10
HETATM   10  C2  UNL     1      -7.272   5.797  14.337  1.00  0.00     0.083 C 
HETATM   11  C3  UNL     1      -7.478   4.700  13.594  1.00  0.00     0.017 C 
BRANCH  11  12
HETATM   12  C4  UNL     1      -6.413   3.973  12.891  1.00  0.00    -0.033 A 
HETATM   13  C5  UNL     1      -6.662   2.787  12.178  1.00  0.00     0.014 A 
HETATM   14  C6  UNL     1      -5.622   2.103  11.544  1.00  0.00     0.040 A 
HETATM   15  C7  UNL     1      -4.332   2.603  11.631  1.00  0.00     0.098 A 
HETATM   16  C8  UNL     1      -4.067   3.768  12.344  1.00  0.00     0.099 A 
HETATM   17  C9  UNL     1      -5.097   4.454  12.981  1.00  0.00     0.050 A 
BRANCH  15  18
HETATM   18  O2  UNL     1      -3.316   1.934  11.012  1.00  0.00    -0.358 OA
HETATM   19  H5  UNL     1      -2.518   2.465  11.211  1.00  0.00     0.217 HD
ENDBRANCH  15  18
BRANCH  16  20
HETATM   20  O3  UNL     1      -2.770   4.201  12.392  1.00  0.00    -0.358 OA
HETATM   21  H6  UNL     1      -2.744   5.024  12.910  1.00  0.00     0.217 HD
ENDBRANCH  16  20
ENDBRANCH  11  12
ENDBRANCH   8  10
ENDBRANCH   7   8
ENDBRANCH   1   7
BRANCH   6  22
HETATM   22  O9  UNL     1      -9.336   9.504  15.206  1.00  0.00    -0.390 OA
HETATM   23  H18 UNL     1      -9.784   9.712  16.051  1.00  0.00     0.210 HD
ENDBRANCH   6  22
BRANCH   3  24
HETATM   24  O5  UNL     1     -13.291   7.463  15.502  1.00  0.00    -0.379 OA
HETATM   25  H11 UNL     1     -13.767   6.607  15.560  1.00  0.00     0.211 HD
ENDBRANCH   3  24
BRANCH   3  26
HETATM   26  C13 UNL     1     -14.123   7.085  13.229  1.00  0.00     0.176 C 
HETATM   27  O6  UNL     1     -14.503   7.512  12.153  1.00  0.00    -0.648 OA
BRANCH  26  28
HETATM   28  O7  UNL     1     -14.670   5.970  13.766  1.00  0.00    -0.774 OA
HETATM   29  H12 UNL     1     -15.361   5.706  13.121  1.00  0.00     0.167 HD
ENDBRANCH  26  28
ENDBRANCH   3  26
BRANCH   5  30
HETATM   30  O8  UNL     1     -11.910   9.713  16.054  1.00  0.00    -0.393 OA
HETATM   31  H16 UNL     1     -12.475   8.931  16.245  1.00  0.00     0.210 HD
ENDBRANCH   5  30
TORSDOF 11
ENDMDL
