MODEL 1
REMARK minimizedAffinity -8.03723907
REMARK CNNscore 0.58066386
REMARK CNNaffinity 7.20319414
REMARK  10 active torsions:
REMARK  status: ('A' for Active; 'I' for Inactive)
REMARK    1  A    between atoms: C19_21  and  O3_22 
REMARK    2  A    between atoms: C19_21  and  C20_23 
REMARK    3  A    between atoms: C20_23  and  C21_25 
REMARK    4  A    between atoms: C21_25  and  O5_26 
REMARK    5  A    between atoms: O5_26  and  C22_27 
REMARK    6  A    between atoms: C22_27  and  C23_29 
REMARK    7  A    between atoms: C23_29  and  C24_30 
REMARK    8  A    between atoms: C24_30  and  C25_31 
REMARK       I    between atoms: C25_31  and  N1_33 
REMARK    9  A    between atoms: N1_33  and  C26_34 
REMARK   10  A    between atoms: C26_34  and  C27_35 
ROOT
HETATM    1  C1  UNL     1       3.687  55.117  -6.938  1.00  0.00     0.021 C 
HETATM    2  C2  UNL     1       3.382  54.533  -8.347  1.00  0.00    -0.009 C 
HETATM    3  C3  UNL     1       3.781  53.031  -8.349  1.00  0.00     0.022 C 
HETATM    4  C4  UNL     1       5.280  52.787  -8.169  1.00  0.00     0.084 C 
HETATM    5  C5  UNL     1       6.114  53.630  -9.096  1.00  0.00     0.149 C 
HETATM    6  O1  UNL     1       7.282  53.351  -9.360  1.00  0.00    -0.293 OA
HETATM    7  C6  UNL     1       5.517  54.853  -9.676  1.00  0.00     0.053 C 
HETATM    8  C7  UNL     1       4.282  55.267  -9.342  1.00  0.00    -0.067 C 
HETATM    9  C8  UNL     1       3.683  56.465 -10.022  1.00  0.00     0.035 C 
HETATM   10  C9  UNL     1       2.549  55.956 -10.898  1.00  0.00     0.010 C 
HETATM   11  C10 UNL     1       1.437  55.271 -10.082  1.00  0.00     0.003 C 
HETATM   12  C11 UNL     1       1.852  54.812  -8.650  1.00  0.00     0.072 C 
HETATM   13  C12 UNL     1       0.854  53.790  -8.109  1.00  0.00     0.133 C 
HETATM   14  O2  UNL     1       1.097  53.052  -7.156  1.00  0.00    -0.297 OA
HETATM   15  C13 UNL     1      -0.544  53.850  -8.679  1.00  0.00     0.091 C 
HETATM   16  C14 UNL     1      -0.621  53.680 -10.221  1.00  0.00     0.005 C 
HETATM   17  C15 UNL     1      -1.879  54.468 -10.654  1.00  0.00     0.019 C 
HETATM   18  C16 UNL     1       0.664  54.229 -10.922  1.00  0.00     0.002 C 
HETATM   19  C17 UNL     1       1.494  52.994 -11.323  1.00  0.00     0.009 C 
HETATM   20  C18 UNL     1       0.804  51.785 -10.706  1.00  0.00     0.047 C 
HETATM   21  C19 UNL     1      -0.674  52.179 -10.677  1.00  0.00     0.128 C 
ENDROOT
BRANCH  21  22
HETATM   22  O3  UNL     1      -1.360  51.369  -9.733  1.00  0.00    -0.381 OA
HETATM   23  H25 UNL     1      -2.244  51.747  -9.574  1.00  0.00     0.211 HD
ENDBRANCH  21  22
BRANCH  21  24
HETATM   24  C20 UNL     1      -1.248  51.907 -12.101  1.00  0.00     0.185 C 
HETATM   25  O4  UNL     1      -2.092  52.641 -12.620  1.00  0.00    -0.292 OA
BRANCH  24  26
HETATM   26  C21 UNL     1      -0.663  50.707 -12.845  1.00  0.00     0.260 C 
BRANCH  26  27
HETATM   27  O5  UNL     1       0.135  51.153 -13.944  1.00  0.00    -0.314 OA
BRANCH  27  28
HETATM   28  C22 UNL     1       0.142  50.322 -15.020  1.00  0.00     0.259 C 
HETATM   29  O6  UNL     1       0.718  49.245 -15.070  1.00  0.00    -0.265 OA
BRANCH  28  30
HETATM   30  C23 UNL     1      -0.658  50.933 -16.141  1.00  0.00     0.120 C 
BRANCH  30  31
HETATM   31  C24 UNL     1       0.041  50.739 -17.481  1.00  0.00     0.112 C 
BRANCH  31  32
HETATM   32  C25 UNL     1       0.794  51.982 -17.898  1.00  0.00     0.218 C 
HETATM   33  O7  UNL     1       1.530  52.610 -17.145  1.00  0.00    -0.274 OA
HETATM   34  N1  UNL     1       0.570  52.331 -19.210  1.00  0.00    -0.357 N 
HETATM   35  H32 UNL     1      -0.156  51.849 -19.725  1.00  0.00     0.162 HD
BRANCH  34  36
HETATM   36  C26 UNL     1       1.104  53.549 -19.778  1.00  0.00     0.162 C 
BRANCH  36  37
HETATM   37  C27 UNL     1       0.974  53.554 -21.272  1.00  0.00    -0.025 A 
HETATM   38  C28 UNL     1       0.309  52.528 -21.950  1.00  0.00     0.011 A 
HETATM   39  C29 UNL     1       0.223  52.557 -23.338  1.00  0.00     0.018 A 
HETATM   40  C30 UNL     1       0.808  53.617 -24.008  1.00  0.00     0.087 A 
HETATM   41  N2  UNL     1       1.463  54.625 -23.392  1.00  0.00    -0.375 N 
HETATM   42  C31 UNL     1       1.532  54.569 -22.042  1.00  0.00     0.096 A 
ATOM     43  H2  UNL     1       1.884  55.390 -23.918  1.00  0.00     0.164 HD
ENDBRANCH  36  37
ENDBRANCH  34  36
ENDBRANCH  31  32
ENDBRANCH  30  31
ENDBRANCH  28  30
ENDBRANCH  27  28
ENDBRANCH  26  27
ENDBRANCH  24  26
ENDBRANCH  21  24
TORSDOF 10
ENDMDL
MODEL 2
REMARK minimizedAffinity -8.22053719
REMARK CNNscore 0.465841979
REMARK CNNaffinity 6.50822687
REMARK  10 active torsions:
REMARK  status: ('A' for Active; 'I' for Inactive)
REMARK    1  A    between atoms: C19_21  and  O3_22 
REMARK    2  A    between atoms: C19_21  and  C20_23 
REMARK    3  A    between atoms: C20_23  and  C21_25 
REMARK    4  A    between atoms: C21_25  and  O5_26 
REMARK    5  A    between atoms: O5_26  and  C22_27 
REMARK    6  A    between atoms: C22_27  and  C23_29 
REMARK    7  A    between atoms: C23_29  and  C24_30 
REMARK    8  A    between atoms: C24_30  and  C25_31 
REMARK       I    between atoms: C25_31  and  N1_33 
REMARK    9  A    between atoms: N1_33  and  C26_34 
REMARK   10  A    between atoms: C26_34  and  C27_35 
ROOT
HETATM    1  C1  UNL     1      -0.038  51.026 -20.900  1.00  0.00     0.021 C 
HETATM    2  C2  UNL     1      -1.403  50.284 -20.835  1.00  0.00    -0.009 C 
HETATM    3  C3  UNL     1      -2.423  51.204 -20.108  1.00  0.00     0.022 C 
HETATM    4  C4  UNL     1      -2.082  51.472 -18.641  1.00  0.00     0.084 C 
HETATM    5  C5  UNL     1      -1.769  50.208 -17.885  1.00  0.00     0.149 C 
HETATM    6  O1  UNL     1      -1.811  50.153 -16.657  1.00  0.00    -0.293 OA
HETATM    7  C6  UNL     1      -1.362  49.006 -18.645  1.00  0.00     0.053 C 
HETATM    8  C7  UNL     1      -1.194  49.033 -19.980  1.00  0.00    -0.067 C 
HETATM    9  C8  UNL     1      -0.866  47.769 -20.721  1.00  0.00     0.035 C 
HETATM   10  C9  UNL     1      -2.089  47.413 -21.553  1.00  0.00     0.010 C 
HETATM   11  C10 UNL     1      -2.426  48.496 -22.595  1.00  0.00     0.003 C 
HETATM   12  C11 UNL     1      -1.800  49.899 -22.320  1.00  0.00     0.072 C 
HETATM   13  C12 UNL     1      -2.524  50.973 -23.130  1.00  0.00     0.133 C 
HETATM   14  O2  UNL     1      -2.442  52.173 -22.880  1.00  0.00    -0.297 OA
HETATM   15  C13 UNL     1      -3.209  50.511 -24.396  1.00  0.00     0.091 C 
HETATM   16  C14 UNL     1      -4.279  49.404 -24.184  1.00  0.00     0.005 C 
HETATM   17  C15 UNL     1      -4.295  48.599 -25.504  1.00  0.00     0.019 C 
HETATM   18  C16 UNL     1      -3.927  48.493 -22.965  1.00  0.00     0.002 C 
HETATM   19  C17 UNL     1      -4.864  48.927 -21.821  1.00  0.00     0.009 C 
HETATM   20  C18 UNL     1      -5.597  50.171 -22.305  1.00  0.00     0.047 C 
HETATM   21  C19 UNL     1      -5.695  49.975 -23.819  1.00  0.00     0.128 C 
ENDROOT
BRANCH  21  22
HETATM   22  O3  UNL     1      -5.931  51.229 -24.443  1.00  0.00    -0.381 OA
HETATM   23  H25 UNL     1      -5.798  51.135 -25.404  1.00  0.00     0.211 HD
ENDBRANCH  21  22
BRANCH  21  24
HETATM   24  C20 UNL     1      -6.910  49.033 -24.081  1.00  0.00     0.185 C 
HETATM   25  O4  UNL     1      -8.035  49.276 -23.638  1.00  0.00    -0.292 OA
BRANCH  24  26
HETATM   26  C21 UNL     1      -6.643  47.817 -24.967  1.00  0.00     0.260 C 
BRANCH  26  27
HETATM   27  O5  UNL     1      -7.598  46.790 -24.691  1.00  0.00    -0.314 OA
BRANCH  27  28
HETATM   28  C22 UNL     1      -8.558  46.632 -25.641  1.00  0.00     0.259 C 
HETATM   29  O6  UNL     1      -9.744  46.886 -25.488  1.00  0.00    -0.265 OA
BRANCH  28  30
HETATM   30  C23 UNL     1      -7.940  46.089 -26.903  1.00  0.00     0.120 C 
BRANCH  30  31
HETATM   31  C24 UNL     1      -8.533  44.732 -27.262  1.00  0.00     0.112 C 
BRANCH  31  32
HETATM   32  C25 UNL     1      -9.356  44.804 -28.528  1.00  0.00     0.218 C 
HETATM   33  O7  UNL     1      -9.412  43.896 -29.349  1.00  0.00    -0.274 OA
HETATM   34  N1  UNL     1     -10.037  45.993 -28.658  1.00  0.00    -0.357 N 
HETATM   35  H32 UNL     1      -9.832  46.746 -28.014  1.00  0.00     0.162 HD
BRANCH  34  36
HETATM   36  C26 UNL     1     -10.794  46.312 -29.849  1.00  0.00     0.162 C 
BRANCH  36  37
HETATM   37  C27 UNL     1      -9.916  46.918 -30.903  1.00  0.00    -0.025 A 
HETATM   38  C28 UNL     1      -9.211  48.104 -30.674  1.00  0.00     0.011 A 
HETATM   39  C29 UNL     1      -8.419  48.646 -31.681  1.00  0.00     0.018 A 
HETATM   40  C30 UNL     1      -8.358  47.981 -32.893  1.00  0.00     0.087 A 
HETATM   41  N2  UNL     1      -9.025  46.838 -33.157  1.00  0.00    -0.375 N 
HETATM   42  C31 UNL     1      -9.787  46.334 -32.159  1.00  0.00     0.096 A 
ATOM     43  H2  UNL     1      -8.957  46.375 -34.064  1.00  0.00     0.164 HD
ENDBRANCH  36  37
ENDBRANCH  34  36
ENDBRANCH  31  32
ENDBRANCH  30  31
ENDBRANCH  28  30
ENDBRANCH  27  28
ENDBRANCH  26  27
ENDBRANCH  24  26
ENDBRANCH  21  24
TORSDOF 10
ENDMDL
MODEL 3
REMARK minimizedAffinity -7.33377886
REMARK CNNscore 0.451640844
REMARK CNNaffinity 6.62765265
REMARK  10 active torsions:
REMARK  status: ('A' for Active; 'I' for Inactive)
REMARK    1  A    between atoms: C19_21  and  O3_22 
REMARK    2  A    between atoms: C19_21  and  C20_23 
REMARK    3  A    between atoms: C20_23  and  C21_25 
REMARK    4  A    between atoms: C21_25  and  O5_26 
REMARK    5  A    between atoms: O5_26  and  C22_27 
REMARK    6  A    between atoms: C22_27  and  C23_29 
REMARK    7  A    between atoms: C23_29  and  C24_30 
REMARK    8  A    between atoms: C24_30  and  C25_31 
REMARK       I    between atoms: C25_31  and  N1_33 
REMARK    9  A    between atoms: N1_33  and  C26_34 
REMARK   10  A    between atoms: C26_34  and  C27_35 
ROOT
HETATM    1  C1  UNL     1      -5.250  49.947 -23.115  1.00  0.00     0.021 C 
HETATM    2  C2  UNL     1      -3.877  50.177 -22.421  1.00  0.00    -0.009 C 
HETATM    3  C3  UNL     1      -3.695  51.703 -22.194  1.00  0.00     0.022 C 
HETATM    4  C4  UNL     1      -3.592  52.516 -23.486  1.00  0.00     0.084 C 
HETATM    5  C5  UNL     1      -2.598  51.931 -24.453  1.00  0.00     0.149 C 
HETATM    6  O1  UNL     1      -2.114  52.590 -25.372  1.00  0.00    -0.293 OA
HETATM    7  C6  UNL     1      -2.222  50.506 -24.314  1.00  0.00     0.053 C 
HETATM    8  C7  UNL     1      -2.797  49.708 -23.397  1.00  0.00    -0.067 C 
HETATM    9  C8  UNL     1      -2.321  48.292 -23.231  1.00  0.00     0.035 C 
HETATM   10  C9  UNL     1      -1.621  48.215 -21.884  1.00  0.00     0.010 C 
HETATM   11  C10 UNL     1      -2.567  48.534 -20.711  1.00  0.00     0.003 C 
HETATM   12  C11 UNL     1      -3.867  49.305 -21.098  1.00  0.00     0.072 C 
HETATM   13  C12 UNL     1      -4.498  49.940 -19.860  1.00  0.00     0.133 C 
HETATM   14  O2  UNL     1      -5.337  50.836 -19.918  1.00  0.00    -0.297 OA
HETATM   15  C13 UNL     1      -4.187  49.282 -18.536  1.00  0.00     0.091 C 
HETATM   16  C14 UNL     1      -2.673  49.200 -18.195  1.00  0.00     0.005 C 
HETATM   17  C15 UNL     1      -2.526  47.947 -17.302  1.00  0.00     0.019 C 
HETATM   18  C16 UNL     1      -1.801  49.085 -19.486  1.00  0.00     0.002 C 
HETATM   19  C17 UNL     1      -1.172  50.475 -19.704  1.00  0.00     0.009 C 
HETATM   20  C18 UNL     1      -1.810  51.408 -18.683  1.00  0.00     0.047 C 
HETATM   21  C19 UNL     1      -2.126  50.495 -17.496  1.00  0.00     0.128 C 
ENDROOT
BRANCH  21  22
HETATM   22  O3  UNL     1      -3.113  51.107 -16.680  1.00  0.00    -0.381 OA
HETATM   23  H25 UNL     1      -3.451  50.450 -16.045  1.00  0.00     0.211 HD
ENDBRANCH  21  22
BRANCH  21  24
HETATM   24  C20 UNL     1      -0.807  50.336 -16.678  1.00  0.00     0.185 C 
HETATM   25  O4  UNL     1      -0.753  49.664 -15.646  1.00  0.00    -0.292 OA
BRANCH  24  26
HETATM   26  C21 UNL     1       0.432  51.017 -17.258  1.00  0.00     0.260 C 
BRANCH  26  27
HETATM   27  O5  UNL     1       0.839  52.096 -16.414  1.00  0.00    -0.314 OA
BRANCH  27  28
HETATM   28  C22 UNL     1       2.089  51.976 -15.893  1.00  0.00     0.259 C 
HETATM   29  O6  UNL     1       3.120  52.303 -16.463  1.00  0.00    -0.265 OA
BRANCH  28  30
HETATM   30  C23 UNL     1       2.011  51.373 -14.515  1.00  0.00     0.120 C 
BRANCH  30  31
HETATM   31  C24 UNL     1       3.281  50.599 -14.184  1.00  0.00     0.112 C 
BRANCH  31  32
HETATM   32  C25 UNL     1       3.591  50.649 -12.705  1.00  0.00     0.218 C 
HETATM   33  O7  UNL     1       4.213  49.772 -12.116  1.00  0.00    -0.274 OA
HETATM   34  N1  UNL     1       3.104  51.781 -12.092  1.00  0.00    -0.357 N 
HETATM   35  H32 UNL     1       2.483  52.387 -12.612  1.00  0.00     0.162 HD
BRANCH  34  36
HETATM   36  C26 UNL     1       3.192  51.972 -10.661  1.00  0.00     0.162 C 
BRANCH  36  37
HETATM   37  C27 UNL     1       3.457  53.409 -10.322  1.00  0.00    -0.025 A 
HETATM   38  C28 UNL     1       4.723  53.842  -9.918  1.00  0.00     0.011 A 
HETATM   39  C29 UNL     1       4.928  55.179  -9.595  1.00  0.00     0.018 A 
HETATM   40  C30 UNL     1       3.853  56.046  -9.685  1.00  0.00     0.087 A 
HETATM   41  N2  UNL     1       2.615  55.668 -10.067  1.00  0.00    -0.375 N 
HETATM   42  C31 UNL     1       2.445  54.362 -10.375  1.00  0.00     0.096 A 
ATOM     43  H2  UNL     1       1.844  56.335 -10.122  1.00  0.00     0.164 HD
ENDBRANCH  36  37
ENDBRANCH  34  36
ENDBRANCH  31  32
ENDBRANCH  30  31
ENDBRANCH  28  30
ENDBRANCH  27  28
ENDBRANCH  26  27
ENDBRANCH  24  26
ENDBRANCH  21  24
TORSDOF 10
ENDMDL
MODEL 4
REMARK minimizedAffinity -8.1166029
REMARK CNNscore 0.395202786
REMARK CNNaffinity 6.60734606
REMARK  10 active torsions:
REMARK  status: ('A' for Active; 'I' for Inactive)
REMARK    1  A    between atoms: C19_21  and  O3_22 
REMARK    2  A    between atoms: C19_21  and  C20_23 
REMARK    3  A    between atoms: C20_23  and  C21_25 
REMARK    4  A    between atoms: C21_25  and  O5_26 
REMARK    5  A    between atoms: O5_26  and  C22_27 
REMARK    6  A    between atoms: C22_27  and  C23_29 
REMARK    7  A    between atoms: C23_29  and  C24_30 
REMARK    8  A    between atoms: C24_30  and  C25_31 
REMARK       I    between atoms: C25_31  and  N1_33 
REMARK    9  A    between atoms: N1_33  and  C26_34 
REMARK   10  A    between atoms: C26_34  and  C27_35 
ROOT
HETATM    1  C1  UNL     1      -8.341  43.630 -34.211  1.00  0.00     0.021 C 
HETATM    2  C2  UNL     1      -8.894  44.787 -33.331  1.00  0.00    -0.009 C 
HETATM    3  C3  UNL     1     -10.136  44.261 -32.558  1.00  0.00     0.022 C 
HETATM    4  C4  UNL     1     -11.316  43.890 -33.458  1.00  0.00     0.084 C 
HETATM    5  C5  UNL     1     -11.643  44.974 -34.451  1.00  0.00     0.149 C 
HETATM    6  O1  UNL     1     -12.733  45.036 -35.015  1.00  0.00    -0.293 OA
HETATM    7  C6  UNL     1     -10.602  45.971 -34.784  1.00  0.00     0.053 C 
HETATM    8  C7  UNL     1      -9.357  45.893 -34.281  1.00  0.00    -0.067 C 
HETATM    9  C8  UNL     1      -8.359  46.976 -34.576  1.00  0.00     0.035 C 
HETATM   10  C9  UNL     1      -8.118  47.723 -33.274  1.00  0.00     0.010 C 
HETATM   11  C10 UNL     1      -7.523  46.820 -32.179  1.00  0.00     0.003 C 
HETATM   12  C11 UNL     1      -7.705  45.287 -32.411  1.00  0.00     0.072 C 
HETATM   13  C12 UNL     1      -7.485  44.521 -31.108  1.00  0.00     0.133 C 
HETATM   14  O2  UNL     1      -7.857  43.362 -30.938  1.00  0.00    -0.297 OA
HETATM   15  C13 UNL     1      -6.605  45.190 -30.077  1.00  0.00     0.091 C 
HETATM   16  C14 UNL     1      -7.097  46.591 -29.619  1.00  0.00     0.005 C 
HETATM   17  C15 UNL     1      -5.817  47.358 -29.218  1.00  0.00     0.019 C 
HETATM   18  C16 UNL     1      -7.869  47.328 -30.760  1.00  0.00     0.002 C 
HETATM   19  C17 UNL     1      -9.364  47.230 -30.398  1.00  0.00     0.009 C 
HETATM   20  C18 UNL     1      -9.462  46.306 -29.192  1.00  0.00     0.047 C 
HETATM   21  C19 UNL     1      -8.142  46.528 -28.450  1.00  0.00     0.128 C 
ENDROOT
BRANCH  21  22
HETATM   22  O3  UNL     1      -7.896  45.428 -27.586  1.00  0.00    -0.381 OA
HETATM   23  H25 UNL     1      -6.976  45.475 -27.268  1.00  0.00     0.211 HD
ENDBRANCH  21  22
BRANCH  21  24
HETATM   24  C20 UNL     1      -8.309  47.824 -27.598  1.00  0.00     0.185 C 
HETATM   25  O4  UNL     1      -8.832  48.844 -28.052  1.00  0.00    -0.292 OA
BRANCH  24  26
HETATM   26  C21 UNL     1      -7.837  47.742 -26.147  1.00  0.00     0.260 C 
BRANCH  26  27
HETATM   27  O5  UNL     1      -6.410  47.793 -26.092  1.00  0.00    -0.314 OA
BRANCH  27  28
HETATM   28  C22 UNL     1      -5.895  48.098 -24.871  1.00  0.00     0.259 C 
HETATM   29  O6  UNL     1      -6.450  47.885 -23.803  1.00  0.00    -0.265 OA
BRANCH  28  30
HETATM   30  C23 UNL     1      -4.543  48.743 -25.036  1.00  0.00     0.120 C 
BRANCH  30  31
HETATM   31  C24 UNL     1      -3.925  48.381 -26.380  1.00  0.00     0.112 C 
BRANCH  31  32
HETATM   32  C25 UNL     1      -3.473  49.613 -27.132  1.00  0.00     0.218 C 
HETATM   33  O7  UNL     1      -3.430  49.680 -28.355  1.00  0.00    -0.274 OA
HETATM   34  N1  UNL     1      -3.118  50.649 -26.299  1.00  0.00    -0.357 N 
HETATM   35  H32 UNL     1      -3.046  50.474 -25.305  1.00  0.00     0.162 HD
BRANCH  34  36
HETATM   36  C26 UNL     1      -2.552  51.879 -26.810  1.00  0.00     0.162 C 
BRANCH  36  37
HETATM   37  C27 UNL     1      -1.057  51.792 -26.896  1.00  0.00    -0.025 A 
HETATM   38  C28 UNL     1      -0.371  52.149 -28.060  1.00  0.00     0.011 A 
HETATM   39  C29 UNL     1       1.015  52.041 -28.109  1.00  0.00     0.018 A 
HETATM   40  C30 UNL     1       1.675  51.574 -26.986  1.00  0.00     0.087 A 
HETATM   41  N2  UNL     1       1.050  51.216 -25.844  1.00  0.00    -0.375 N 
HETATM   42  C31 UNL     1      -0.297  51.331 -25.825  1.00  0.00     0.096 A 
ATOM     43  H2  UNL     1       1.569  50.874 -25.035  1.00  0.00     0.164 HD
ENDBRANCH  36  37
ENDBRANCH  34  36
ENDBRANCH  31  32
ENDBRANCH  30  31
ENDBRANCH  28  30
ENDBRANCH  27  28
ENDBRANCH  26  27
ENDBRANCH  24  26
ENDBRANCH  21  24
TORSDOF 10
ENDMDL
MODEL 5
REMARK minimizedAffinity -7.95338964
REMARK CNNscore 0.392690003
REMARK CNNaffinity 6.01631021
REMARK  10 active torsions:
REMARK  status: ('A' for Active; 'I' for Inactive)
REMARK    1  A    between atoms: C19_21  and  O3_22 
REMARK    2  A    between atoms: C19_21  and  C20_23 
REMARK    3  A    between atoms: C20_23  and  C21_25 
REMARK    4  A    between atoms: C21_25  and  O5_26 
REMARK    5  A    between atoms: O5_26  and  C22_27 
REMARK    6  A    between atoms: C22_27  and  C23_29 
REMARK    7  A    between atoms: C23_29  and  C24_30 
REMARK    8  A    between atoms: C24_30  and  C25_31 
REMARK       I    between atoms: C25_31  and  N1_33 
REMARK    9  A    between atoms: N1_33  and  C26_34 
REMARK   10  A    between atoms: C26_34  and  C27_35 
ROOT
HETATM    1  C1  UNL     1      -3.128  48.810 -25.165  1.00  0.00     0.021 C 
HETATM    2  C2  UNL     1      -3.592  49.383 -23.795  1.00  0.00    -0.009 C 
HETATM    3  C3  UNL     1      -4.600  50.535 -24.066  1.00  0.00     0.022 C 
HETATM    4  C4  UNL     1      -3.987  51.742 -24.778  1.00  0.00     0.084 C 
HETATM    5  C5  UNL     1      -2.709  52.203 -24.128  1.00  0.00     0.149 C 
HETATM    6  O1  UNL     1      -2.251  53.329 -24.314  1.00  0.00    -0.293 OA
HETATM    7  C6  UNL     1      -1.964  51.255 -23.271  1.00  0.00     0.053 C 
HETATM    8  C7  UNL     1      -2.358  49.978 -23.116  1.00  0.00    -0.067 C 
HETATM    9  C8  UNL     1      -1.623  49.076 -22.167  1.00  0.00     0.035 C 
HETATM   10  C9  UNL     1      -2.558  48.804 -20.999  1.00  0.00     0.010 C 
HETATM   11  C10 UNL     1      -3.846  48.082 -21.433  1.00  0.00     0.003 C 
HETATM   12  C11 UNL     1      -4.178  48.175 -22.955  1.00  0.00     0.072 C 
HETATM   13  C12 UNL     1      -5.644  47.821 -23.203  1.00  0.00     0.133 C 
HETATM   14  O2  UNL     1      -6.237  48.103 -24.241  1.00  0.00    -0.297 OA
HETATM   15  C13 UNL     1      -6.301  46.925 -22.178  1.00  0.00     0.091 C 
HETATM   16  C14 UNL     1      -6.280  47.480 -20.727  1.00  0.00     0.005 C 
HETATM   17  C15 UNL     1      -6.281  46.232 -19.816  1.00  0.00     0.019 C 
HETATM   18  C16 UNL     1      -5.022  48.371 -20.472  1.00  0.00     0.002 C 
HETATM   19  C17 UNL     1      -5.518  49.830 -20.496  1.00  0.00     0.009 C 
HETATM   20  C18 UNL     1      -6.975  49.789 -20.939  1.00  0.00     0.047 C 
HETATM   21  C19 UNL     1      -7.480  48.443 -20.416  1.00  0.00     0.128 C 
ENDROOT
BRANCH  21  22
HETATM   22  O3  UNL     1      -8.650  48.069 -21.130  1.00  0.00    -0.381 OA
HETATM   23  H25 UNL     1      -8.855  47.137 -20.936  1.00  0.00     0.211 HD
ENDBRANCH  21  22
BRANCH  21  24
HETATM   24  C20 UNL     1      -7.838  48.642 -18.911  1.00  0.00     0.185 C 
HETATM   25  O4  UNL     1      -6.974  48.682 -18.032  1.00  0.00    -0.292 OA
BRANCH  24  26
HETATM   26  C21 UNL     1      -9.318  48.843 -18.590  1.00  0.00     0.260 C 
BRANCH  26  27
HETATM   27  O5  UNL     1      -9.901  47.607 -18.171  1.00  0.00    -0.314 OA
BRANCH  27  28
HETATM   28  C22 UNL     1     -11.260  47.580 -18.187  1.00  0.00     0.259 C 
HETATM   29  O6  UNL     1     -11.966  47.291 -17.232  1.00  0.00    -0.265 OA
BRANCH  28  30
HETATM   30  C23 UNL     1     -11.760  47.952 -19.558  1.00  0.00     0.120 C 
BRANCH  30  31
HETATM   31  C24 UNL     1     -13.201  48.444 -19.499  1.00  0.00     0.112 C 
BRANCH  31  32
HETATM   32  C25 UNL     1     -14.056  47.785 -20.558  1.00  0.00     0.218 C 
HETATM   33  O7  UNL     1     -13.753  47.754 -21.746  1.00  0.00    -0.274 OA
HETATM   34  N1  UNL     1     -15.203  47.222 -20.049  1.00  0.00    -0.357 N 
HETATM   35  H32 UNL     1     -15.452  47.410 -19.086  1.00  0.00     0.162 HD
BRANCH  34  36
HETATM   36  C26 UNL     1     -16.213  46.640 -20.905  1.00  0.00     0.162 C 
BRANCH  36  37
HETATM   37  C27 UNL     1     -17.457  46.316 -20.134  1.00  0.00    -0.025 A 
HETATM   38  C28 UNL     1     -18.397  47.300 -19.816  1.00  0.00     0.011 A 
HETATM   39  C29 UNL     1     -19.532  46.966 -19.085  1.00  0.00     0.018 A 
HETATM   40  C30 UNL     1     -19.691  45.649 -18.691  1.00  0.00     0.087 A 
HETATM   41  N2  UNL     1     -18.806  44.669 -18.973  1.00  0.00    -0.375 N 
HETATM   42  C31 UNL     1     -17.712  45.024 -19.685  1.00  0.00     0.096 A 
ATOM     43  H2  UNL     1     -18.956  43.708 -18.665  1.00  0.00     0.164 HD
ENDBRANCH  36  37
ENDBRANCH  34  36
ENDBRANCH  31  32
ENDBRANCH  30  31
ENDBRANCH  28  30
ENDBRANCH  27  28
ENDBRANCH  26  27
ENDBRANCH  24  26
ENDBRANCH  21  24
TORSDOF 10
ENDMDL
MODEL 6
REMARK minimizedAffinity -8.69795227
REMARK CNNscore 0.380693108
REMARK CNNaffinity 6.51024628
REMARK  10 active torsions:
REMARK  status: ('A' for Active; 'I' for Inactive)
REMARK    1  A    between atoms: C19_21  and  O3_22 
REMARK    2  A    between atoms: C19_21  and  C20_23 
REMARK    3  A    between atoms: C20_23  and  C21_25 
REMARK    4  A    between atoms: C21_25  and  O5_26 
REMARK    5  A    between atoms: O5_26  and  C22_27 
REMARK    6  A    between atoms: C22_27  and  C23_29 
REMARK    7  A    between atoms: C23_29  and  C24_30 
REMARK    8  A    between atoms: C24_30  and  C25_31 
REMARK       I    between atoms: C25_31  and  N1_33 
REMARK    9  A    between atoms: N1_33  and  C26_34 
REMARK   10  A    between atoms: C26_34  and  C27_35 
ROOT
HETATM    1  C1  UNL     1       0.115  51.229 -21.300  1.00  0.00     0.021 C 
HETATM    2  C2  UNL     1      -1.225  50.470 -21.079  1.00  0.00    -0.009 C 
HETATM    3  C3  UNL     1      -2.204  51.418 -20.331  1.00  0.00     0.022 C 
HETATM    4  C4  UNL     1      -1.754  51.785 -18.916  1.00  0.00     0.084 C 
HETATM    5  C5  UNL     1      -1.356  50.577 -18.110  1.00  0.00     0.149 C 
HETATM    6  O1  UNL     1      -1.299  50.600 -16.882  1.00  0.00    -0.293 OA
HETATM    7  C6  UNL     1      -0.984  49.335 -18.825  1.00  0.00     0.053 C 
HETATM    8  C7  UNL     1      -0.923  49.281 -20.167  1.00  0.00    -0.067 C 
HETATM    9  C8  UNL     1      -0.628  47.977 -20.852  1.00  0.00     0.035 C 
HETATM   10  C9  UNL     1      -1.905  47.549 -21.560  1.00  0.00     0.010 C 
HETATM   11  C10 UNL     1      -2.346  48.558 -22.636  1.00  0.00     0.003 C 
HETATM   12  C11 UNL     1      -1.730  49.985 -22.500  1.00  0.00     0.072 C 
HETATM   13  C12 UNL     1      -2.539  50.994 -23.315  1.00  0.00     0.133 C 
HETATM   14  O2  UNL     1      -2.463  52.208 -23.148  1.00  0.00    -0.297 OA
HETATM   15  C13 UNL     1      -3.311  50.441 -24.491  1.00  0.00     0.091 C 
HETATM   16  C14 UNL     1      -4.338  49.333 -24.126  1.00  0.00     0.005 C 
HETATM   17  C15 UNL     1      -4.441  48.445 -25.387  1.00  0.00     0.019 C 
HETATM   18  C16 UNL     1      -3.871  48.506 -22.884  1.00  0.00     0.002 C 
HETATM   19  C17 UNL     1      -4.724  48.998 -21.698  1.00  0.00     0.009 C 
HETATM   20  C18 UNL     1      -5.519  50.196 -22.198  1.00  0.00     0.047 C 
HETATM   21  C19 UNL     1      -5.732  49.902 -23.685  1.00  0.00     0.128 C 
ENDROOT
BRANCH  21  22
HETATM   22  O3  UNL     1      -6.043  51.110 -24.364  1.00  0.00    -0.381 OA
HETATM   23  H25 UNL     1      -5.985  50.957 -25.325  1.00  0.00     0.211 HD
ENDBRANCH  21  22
BRANCH  21  24
HETATM   24  C20 UNL     1      -6.944  48.926 -23.789  1.00  0.00     0.185 C 
HETATM   25  O4  UNL     1      -7.795  48.840 -22.900  1.00  0.00    -0.292 OA
BRANCH  24  26
HETATM   26  C21 UNL     1      -7.052  48.120 -25.082  1.00  0.00     0.260 C 
BRANCH  26  27
HETATM   27  O5  UNL     1      -8.410  47.740 -25.311  1.00  0.00    -0.314 OA
BRANCH  27  28
HETATM   28  C22 UNL     1      -9.088  48.534 -26.183  1.00  0.00     0.259 C 
HETATM   29  O6  UNL     1      -9.869  49.418 -25.863  1.00  0.00    -0.265 OA
BRANCH  28  30
HETATM   30  C23 UNL     1      -8.734  48.156 -27.597  1.00  0.00     0.120 C 
BRANCH  30  31
HETATM   31  C24 UNL     1      -9.671  47.076 -28.124  1.00  0.00     0.112 C 
BRANCH  31  32
HETATM   32  C25 UNL     1      -9.361  46.728 -29.563  1.00  0.00     0.218 C 
HETATM   33  O7  UNL     1      -9.791  47.364 -30.519  1.00  0.00    -0.274 OA
HETATM   34  N1  UNL     1      -8.545  45.627 -29.685  1.00  0.00    -0.357 N 
HETATM   35  H32 UNL     1      -8.347  45.074 -28.861  1.00  0.00     0.162 HD
BRANCH  34  36
HETATM   36  C26 UNL     1      -8.218  45.059 -30.974  1.00  0.00     0.162 C 
BRANCH  36  37
HETATM   37  C27 UNL     1      -6.806  45.377 -31.365  1.00  0.00    -0.025 A 
HETATM   38  C28 UNL     1      -6.008  44.449 -32.040  1.00  0.00     0.011 A 
HETATM   39  C29 UNL     1      -4.697  44.773 -32.372  1.00  0.00     0.018 A 
HETATM   40  C30 UNL     1      -4.221  46.022 -32.015  1.00  0.00     0.087 A 
HETATM   41  N2  UNL     1      -4.957  46.946 -31.360  1.00  0.00    -0.375 N 
HETATM   42  C31 UNL     1      -6.228  46.603 -31.050  1.00  0.00     0.096 A 
ATOM     43  H2  UNL     1      -4.573  47.858 -31.111  1.00  0.00     0.164 HD
ENDBRANCH  36  37
ENDBRANCH  34  36
ENDBRANCH  31  32
ENDBRANCH  30  31
ENDBRANCH  28  30
ENDBRANCH  27  28
ENDBRANCH  26  27
ENDBRANCH  24  26
ENDBRANCH  21  24
TORSDOF 10
ENDMDL
MODEL 7
REMARK minimizedAffinity -9.83805752
REMARK CNNscore 0.323417842
REMARK CNNaffinity 6.88120127
REMARK  10 active torsions:
REMARK  status: ('A' for Active; 'I' for Inactive)
REMARK    1  A    between atoms: C19_21  and  O3_22 
REMARK    2  A    between atoms: C19_21  and  C20_23 
REMARK    3  A    between atoms: C20_23  and  C21_25 
REMARK    4  A    between atoms: C21_25  and  O5_26 
REMARK    5  A    between atoms: O5_26  and  C22_27 
REMARK    6  A    between atoms: C22_27  and  C23_29 
REMARK    7  A    between atoms: C23_29  and  C24_30 
REMARK    8  A    between atoms: C24_30  and  C25_31 
REMARK       I    between atoms: C25_31  and  N1_33 
REMARK    9  A    between atoms: N1_33  and  C26_34 
REMARK   10  A    between atoms: C26_34  and  C27_35 
ROOT
HETATM    1  C1  UNL     1       0.259  51.314 -27.767  1.00  0.00     0.021 C 
HETATM    2  C2  UNL     1      -0.605  51.846 -26.589  1.00  0.00    -0.009 C 
HETATM    3  C3  UNL     1      -1.754  52.711 -27.179  1.00  0.00     0.022 C 
HETATM    4  C4  UNL     1      -1.276  53.981 -27.884  1.00  0.00     0.084 C 
HETATM    5  C5  UNL     1      -0.301  54.768 -27.049  1.00  0.00     0.149 C 
HETATM    6  O1  UNL     1      -0.067  55.956 -27.263  1.00  0.00    -0.293 OA
HETATM    7  C6  UNL     1       0.426  54.076 -25.962  1.00  0.00     0.053 C 
HETATM    8  C7  UNL     1       0.292  52.755 -25.748  1.00  0.00    -0.067 C 
HETATM    9  C8  UNL     1       0.980  52.111 -24.577  1.00  0.00     0.035 C 
HETATM   10  C9  UNL     1      -0.107  51.702 -23.596  1.00  0.00     0.010 C 
HETATM   11  C10 UNL     1      -1.082  50.672 -24.195  1.00  0.00     0.003 C 
HETATM   12  C11 UNL     1      -1.086  50.589 -25.753  1.00  0.00     0.072 C 
HETATM   13  C12 UNL     1      -2.351  49.887 -26.246  1.00  0.00     0.133 C 
HETATM   14  O2  UNL     1      -2.749  49.957 -27.406  1.00  0.00    -0.297 OA
HETATM   15  C13 UNL     1      -3.006  48.928 -25.280  1.00  0.00     0.091 C 
HETATM   16  C14 UNL     1      -3.423  49.562 -23.924  1.00  0.00     0.005 C 
HETATM   17  C15 UNL     1      -3.354  48.407 -22.899  1.00  0.00     0.019 C 
HETATM   18  C16 UNL     1      -2.474  50.737 -23.524  1.00  0.00     0.002 C 
HETATM   19  C17 UNL     1      -3.255  52.035 -23.808  1.00  0.00     0.009 C 
HETATM   20  C18 UNL     1      -4.536  51.626 -24.523  1.00  0.00     0.047 C 
HETATM   21  C19 UNL     1      -4.841  50.234 -23.966  1.00  0.00     0.128 C 
ENDROOT
BRANCH  21  22
HETATM   22  O3  UNL     1      -5.718  49.553 -24.852  1.00  0.00    -0.381 OA
HETATM   23  H25 UNL     1      -5.754  48.612 -24.601  1.00  0.00     0.211 HD
ENDBRANCH  21  22
BRANCH  21  24
HETATM   24  C20 UNL     1      -5.553  50.437 -22.593  1.00  0.00     0.185 C 
HETATM   25  O4  UNL     1      -6.618  49.881 -22.318  1.00  0.00    -0.292 OA
BRANCH  24  26
HETATM   26  C21 UNL     1      -4.827  51.324 -21.582  1.00  0.00     0.260 C 
BRANCH  26  27
HETATM   27  O5  UNL     1      -4.689  50.635 -20.337  1.00  0.00    -0.314 OA
BRANCH  27  28
HETATM   28  C22 UNL     1      -3.506  50.838 -19.698  1.00  0.00     0.259 C 
HETATM   29  O6  UNL     1      -3.233  51.822 -19.025  1.00  0.00    -0.265 OA
BRANCH  28  30
HETATM   30  C23 UNL     1      -2.584  49.675 -19.952  1.00  0.00     0.120 C 
BRANCH  30  31
HETATM   31  C24 UNL     1      -1.491  49.603 -18.893  1.00  0.00     0.112 C 
BRANCH  31  32
HETATM   32  C25 UNL     1      -0.453  50.685 -19.093  1.00  0.00     0.218 C 
HETATM   33  O7  UNL     1       0.181  50.827 -20.133  1.00  0.00    -0.274 OA
HETATM   34  N1  UNL     1      -0.299  51.492 -17.990  1.00  0.00    -0.357 N 
HETATM   35  H32 UNL     1      -0.753  51.227 -17.125  1.00  0.00     0.162 HD
BRANCH  34  36
HETATM   36  C26 UNL     1       0.720  52.517 -17.931  1.00  0.00     0.162 C 
BRANCH  36  37
HETATM   37  C27 UNL     1       1.643  52.298 -16.769  1.00  0.00    -0.025 A 
HETATM   38  C28 UNL     1       2.995  52.645 -16.834  1.00  0.00     0.011 A 
HETATM   39  C29 UNL     1       3.824  52.412 -15.742  1.00  0.00     0.018 A 
HETATM   40  C30 UNL     1       3.272  51.835 -14.612  1.00  0.00     0.087 A 
HETATM   41  N2  UNL     1       1.973  51.482 -14.509  1.00  0.00    -0.375 N 
HETATM   42  C31 UNL     1       1.191  51.719 -15.587  1.00  0.00     0.096 A 
ATOM     43  H2  UNL     1       1.599  51.057 -13.660  1.00  0.00     0.164 HD
ENDBRANCH  36  37
ENDBRANCH  34  36
ENDBRANCH  31  32
ENDBRANCH  30  31
ENDBRANCH  28  30
ENDBRANCH  27  28
ENDBRANCH  26  27
ENDBRANCH  24  26
ENDBRANCH  21  24
TORSDOF 10
ENDMDL
MODEL 8
REMARK minimizedAffinity -7.19566393
REMARK CNNscore 0.302511871
REMARK CNNaffinity 6.21275377
REMARK  10 active torsions:
REMARK  status: ('A' for Active; 'I' for Inactive)
REMARK    1  A    between atoms: C19_21  and  O3_22 
REMARK    2  A    between atoms: C19_21  and  C20_23 
REMARK    3  A    between atoms: C20_23  and  C21_25 
REMARK    4  A    between atoms: C21_25  and  O5_26 
REMARK    5  A    between atoms: O5_26  and  C22_27 
REMARK    6  A    between atoms: C22_27  and  C23_29 
REMARK    7  A    between atoms: C23_29  and  C24_30 
REMARK    8  A    between atoms: C24_30  and  C25_31 
REMARK       I    between atoms: C25_31  and  N1_33 
REMARK    9  A    between atoms: N1_33  and  C26_34 
REMARK   10  A    between atoms: C26_34  and  C27_35 
ROOT
HETATM    1  C1  UNL     1      -5.035  49.148 -22.540  1.00  0.00     0.021 C 
HETATM    2  C2  UNL     1      -3.683  49.549 -21.882  1.00  0.00    -0.009 C 
HETATM    3  C3  UNL     1      -3.607  51.101 -21.834  1.00  0.00     0.022 C 
HETATM    4  C4  UNL     1      -3.553  51.763 -23.213  1.00  0.00     0.084 C 
HETATM    5  C5  UNL     1      -2.517  51.138 -24.109  1.00  0.00     0.149 C 
HETATM    6  O1  UNL     1      -2.075  51.718 -25.099  1.00  0.00    -0.293 OA
HETATM    7  C6  UNL     1      -2.046  49.769 -23.806  1.00  0.00     0.053 C 
HETATM    8  C7  UNL     1      -2.569  49.045 -22.800  1.00  0.00    -0.067 C 
HETATM    9  C8  UNL     1      -2.000  47.694 -22.473  1.00  0.00     0.035 C 
HETATM   10  C9  UNL     1      -1.303  47.820 -21.128  1.00  0.00     0.010 C 
HETATM   11  C10 UNL     1      -2.273  48.209 -19.997  1.00  0.00     0.003 C 
HETATM   12  C11 UNL     1      -3.621  48.840 -20.467  1.00  0.00     0.072 C 
HETATM   13  C12 UNL     1      -4.299  49.570 -19.309  1.00  0.00     0.133 C 
HETATM   14  O2  UNL     1      -5.197  50.394 -19.468  1.00  0.00    -0.297 OA
HETATM   15  C13 UNL     1      -3.950  49.093 -17.918  1.00  0.00     0.091 C 
HETATM   16  C14 UNL     1      -2.436  49.154 -17.575  1.00  0.00     0.005 C 
HETATM   17  C15 UNL     1      -2.209  48.026 -16.543  1.00  0.00     0.019 C 
HETATM   18  C16 UNL     1      -1.552  48.949 -18.847  1.00  0.00     0.002 C 
HETATM   19  C17 UNL     1      -1.018  50.344 -19.227  1.00  0.00     0.009 C 
HETATM   20  C18 UNL     1      -1.723  51.344 -18.319  1.00  0.00     0.047 C 
HETATM   21  C19 UNL     1      -1.981  50.555 -17.033  1.00  0.00     0.128 C 
ENDROOT
BRANCH  21  22
HETATM   22  O3  UNL     1      -3.012  51.190 -16.290  1.00  0.00    -0.381 OA
HETATM   23  H25 UNL     1      -3.307  50.589 -15.582  1.00  0.00     0.211 HD
ENDBRANCH  21  22
BRANCH  21  24
HETATM   24  C20 UNL     1      -0.659  50.582 -16.207  1.00  0.00     0.185 C 
HETATM   25  O4  UNL     1       0.447  50.438 -16.733  1.00  0.00    -0.292 OA
BRANCH  24  26
HETATM   26  C21 UNL     1      -0.805  50.856 -14.710  1.00  0.00     0.260 C 
BRANCH  26  27
HETATM   27  O5  UNL     1       0.365  50.419 -14.016  1.00  0.00    -0.314 OA
BRANCH  27  28
HETATM   28  C22 UNL     1       0.717  51.184 -12.948  1.00  0.00     0.259 C 
HETATM   29  O6  UNL     1       1.402  50.805 -12.009  1.00  0.00    -0.265 OA
BRANCH  28  30
HETATM   30  C23 UNL     1       0.131  52.564 -13.096  1.00  0.00     0.120 C 
BRANCH  30  31
HETATM   31  C24 UNL     1       0.120  53.298 -11.761  1.00  0.00     0.112 C 
BRANCH  31  32
HETATM   32  C25 UNL     1      -1.173  53.065 -11.011  1.00  0.00     0.218 C 
HETATM   33  O7  UNL     1      -1.218  52.742  -9.829  1.00  0.00    -0.274 OA
HETATM   34  N1  UNL     1      -2.289  53.256 -11.792  1.00  0.00    -0.357 N 
HETATM   35  H32 UNL     1      -2.170  53.383 -12.789  1.00  0.00     0.162 HD
BRANCH  34  36
HETATM   36  C26 UNL     1      -3.621  52.977 -11.302  1.00  0.00     0.162 C 
BRANCH  36  37
HETATM   37  C27 UNL     1      -3.913  51.506 -11.335  1.00  0.00    -0.025 A 
HETATM   38  C28 UNL     1      -3.444  50.691 -12.369  1.00  0.00     0.011 A 
HETATM   39  C29 UNL     1      -3.748  49.334 -12.375  1.00  0.00     0.018 A 
HETATM   40  C30 UNL     1      -4.518  48.831 -11.340  1.00  0.00     0.087 A 
HETATM   41  N2  UNL     1      -4.993  49.584 -10.325  1.00  0.00    -0.375 N 
HETATM   42  C31 UNL     1      -4.682  50.900 -10.346  1.00  0.00     0.096 A 
ATOM     43  H2  UNL     1      -5.560  49.180  -9.579  1.00  0.00     0.164 HD
ENDBRANCH  36  37
ENDBRANCH  34  36
ENDBRANCH  31  32
ENDBRANCH  30  31
ENDBRANCH  28  30
ENDBRANCH  27  28
ENDBRANCH  26  27
ENDBRANCH  24  26
ENDBRANCH  21  24
TORSDOF 10
ENDMDL
MODEL 9
REMARK minimizedAffinity -8.76231575
REMARK CNNscore 0.299692929
REMARK CNNaffinity 7.2078414
REMARK  10 active torsions:
REMARK  status: ('A' for Active; 'I' for Inactive)
REMARK    1  A    between atoms: C19_21  and  O3_22 
REMARK    2  A    between atoms: C19_21  and  C20_23 
REMARK    3  A    between atoms: C20_23  and  C21_25 
REMARK    4  A    between atoms: C21_25  and  O5_26 
REMARK    5  A    between atoms: O5_26  and  C22_27 
REMARK    6  A    between atoms: C22_27  and  C23_29 
REMARK    7  A    between atoms: C23_29  and  C24_30 
REMARK    8  A    between atoms: C24_30  and  C25_31 
REMARK       I    between atoms: C25_31  and  N1_33 
REMARK    9  A    between atoms: N1_33  and  C26_34 
REMARK   10  A    between atoms: C26_34  and  C27_35 
ROOT
HETATM    1  C1  UNL     1      -6.849  48.655 -18.399  1.00  0.00     0.021 C 
HETATM    2  C2  UNL     1      -5.567  48.442 -19.253  1.00  0.00    -0.009 C 
HETATM    3  C3  UNL     1      -5.737  47.129 -20.066  1.00  0.00     0.022 C 
HETATM    4  C4  UNL     1      -5.813  45.869 -19.202  1.00  0.00     0.084 C 
HETATM    5  C5  UNL     1      -4.707  45.804 -18.183  1.00  0.00     0.149 C 
HETATM    6  O1  UNL     1      -4.380  44.751 -17.639  1.00  0.00    -0.293 OA
HETATM    7  C6  UNL     1      -4.020  47.057 -17.798  1.00  0.00     0.053 C 
HETATM    8  C7  UNL     1      -4.403  48.253 -18.279  1.00  0.00    -0.067 C 
HETATM    9  C8  UNL     1      -3.621  49.487 -17.931  1.00  0.00     0.035 C 
HETATM   10  C9  UNL     1      -2.929  49.947 -19.204  1.00  0.00     0.010 C 
HETATM   11  C10 UNL     1      -3.928  50.320 -20.315  1.00  0.00     0.003 C 
HETATM   12  C11 UNL     1      -5.367  49.744 -20.133  1.00  0.00     0.072 C 
HETATM   13  C12 UNL     1      -6.132  49.796 -21.455  1.00  0.00     0.133 C 
HETATM   14  O2  UNL     1      -7.151  49.144 -21.668  1.00  0.00    -0.297 OA
HETATM   15  C13 UNL     1      -5.687  50.845 -22.447  1.00  0.00     0.091 C 
HETATM   16  C14 UNL     1      -4.195  50.743 -22.871  1.00  0.00     0.005 C 
HETATM   17  C15 UNL     1      -3.773  52.187 -23.223  1.00  0.00     0.019 C 
HETATM   18  C16 UNL     1      -3.313  50.154 -21.724  1.00  0.00     0.002 C 
HETATM   19  C17 UNL     1      -3.013  48.695 -22.118  1.00  0.00     0.009 C 
HETATM   20  C18 UNL     1      -3.852  48.396 -23.355  1.00  0.00     0.047 C 
HETATM   21  C19 UNL     1      -3.959  49.748 -24.062  1.00  0.00     0.128 C 
ENDROOT
BRANCH  21  22
HETATM   22  O3  UNL     1      -5.063  49.727 -24.955  1.00  0.00    -0.381 OA
HETATM   23  H25 UNL     1      -5.246  50.636 -25.253  1.00  0.00     0.211 HD
ENDBRANCH  21  22
BRANCH  21  24
HETATM   24  C20 UNL     1      -2.643  49.943 -24.877  1.00  0.00     0.185 C 
HETATM   25  O4  UNL     1      -1.573  50.230 -24.335  1.00  0.00    -0.292 OA
BRANCH  24  26
HETATM   26  C21 UNL     1      -2.740  49.702 -26.383  1.00  0.00     0.260 C 
BRANCH  26  27
HETATM   27  O5  UNL     1      -3.134  50.904 -27.047  1.00  0.00    -0.314 OA
BRANCH  27  28
HETATM   28  C22 UNL     1      -2.243  51.927 -26.956  1.00  0.00     0.259 C 
HETATM   29  O6  UNL     1      -2.448  52.986 -26.380  1.00  0.00    -0.265 OA
BRANCH  28  30
HETATM   30  C23 UNL     1      -0.971  51.561 -27.675  1.00  0.00     0.120 C 
BRANCH  30  31
HETATM   31  C24 UNL     1       0.073  51.027 -26.702  1.00  0.00     0.112 C 
BRANCH  31  32
HETATM   32  C25 UNL     1       0.850  52.150 -26.052  1.00  0.00     0.218 C 
HETATM   33  O7  UNL     1       1.952  52.521 -26.440  1.00  0.00    -0.274 OA
HETATM   34  N1  UNL     1       0.188  52.712 -24.984  1.00  0.00    -0.357 N 
HETATM   35  H32 UNL     1      -0.650  52.263 -24.638  1.00  0.00     0.162 HD
BRANCH  34  36
HETATM   36  C26 UNL     1       0.803  53.725 -24.154  1.00  0.00     0.162 C 
BRANCH  36  37
HETATM   37  C27 UNL     1       0.699  53.370 -22.700  1.00  0.00    -0.025 A 
HETATM   38  C28 UNL     1      -0.129  52.334 -22.258  1.00  0.00     0.011 A 
HETATM   39  C29 UNL     1      -0.213  52.044 -20.901  1.00  0.00     0.018 A 
HETATM   40  C30 UNL     1       0.538  52.805 -20.022  1.00  0.00     0.087 A 
HETATM   41  N2  UNL     1       1.346  53.816 -20.406  1.00  0.00    -0.375 N 
HETATM   42  C31 UNL     1       1.407  54.076 -21.732  1.00  0.00     0.096 A 
ATOM     43  H2  UNL     1       1.884  54.358 -19.730  1.00  0.00     0.164 HD
ENDBRANCH  36  37
ENDBRANCH  34  36
ENDBRANCH  31  32
ENDBRANCH  30  31
ENDBRANCH  28  30
ENDBRANCH  27  28
ENDBRANCH  26  27
ENDBRANCH  24  26
ENDBRANCH  21  24
TORSDOF 10
ENDMDL
