MODEL 1
REMARK minimizedAffinity -7.36517954
REMARK CNNscore 0.715968251
REMARK CNNaffinity 6.95364618
REMARK  8 active torsions:
REMARK  status: ('A' for Active; 'I' for Inactive)
REMARK    1  A    between atoms: C2_2  and  C3_3 
REMARK    2  A    between atoms: C2_2  and  C9_12 
REMARK    3  A    between atoms: C3_3  and  C4_4 
REMARK    4  A    between atoms: C4_4  and  O1_5 
REMARK    5  A    between atoms: C4_4  and  C5_6 
REMARK    6  A    between atoms: C5_6  and  O2_7 
REMARK    7  A    between atoms: C5_6  and  C6_8 
REMARK    8  A    between atoms: C6_8  and  O3_11 
ROOT
HETATM    1  C9  UNL     1       3.140  56.652  -8.762  1.00  0.00    -0.002 C 
HETATM    2  C10 UNL     1       4.032  56.121  -9.886  1.00  0.00     0.007 C 
HETATM    3  C11 UNL     1       3.089  55.217 -10.667  1.00  0.00     0.015 C 
HETATM    4  C12 UNL     1       2.360  54.386  -9.585  1.00  0.00    -0.005 C 
HETATM    5  C13 UNL     1       3.301  53.226  -9.145  1.00  0.00     0.021 C 
HETATM    6  C14 UNL     1       1.051  53.761 -10.115  1.00  0.00    -0.000 C 
HETATM    7  C15 UNL     1      -0.188  53.980  -9.606  1.00  0.00    -0.060 C 
HETATM    8  C16 UNL     1      -0.343  54.946  -8.446  1.00  0.00     0.036 C 
HETATM    9  C17 UNL     1       0.726  56.027  -8.454  1.00  0.00     0.015 C 
HETATM   10  C18 UNL     1       2.166  55.457  -8.404  1.00  0.00    -0.028 C 
HETATM   11  C19 UNL     1       2.371  54.836  -7.008  1.00  0.00     0.016 C 
HETATM   12  C20 UNL     1      -1.492  53.278 -10.092  1.00  0.00    -0.014 C 
HETATM   13  C21 UNL     1      -2.600  54.345 -10.314  1.00  0.00     0.020 C 
HETATM   14  C22 UNL     1      -1.907  52.290  -8.973  1.00  0.00     0.021 C 
HETATM   15  C23 UNL     1      -3.013  51.305  -9.323  1.00  0.00     0.080 C 
HETATM   16  C24 UNL     1      -3.530  51.451 -10.729  1.00  0.00     0.135 C 
HETATM   17  O4  UNL     1      -4.740  51.379 -10.950  1.00  0.00    -0.297 OA
HETATM   18  C25 UNL     1      -2.493  51.563 -11.856  1.00  0.00     0.018 C 
HETATM   19  C26 UNL     1      -2.109  50.109 -12.198  1.00  0.00     0.023 C 
HETATM   20  C27 UNL     1      -3.178  52.150 -13.115  1.00  0.00     0.023 C 
HETATM   21  C28 UNL     1      -1.291  52.502 -11.442  1.00  0.00     0.020 C 
HETATM   22  C29 UNL     1       0.057  51.784 -11.433  1.00  0.00     0.090 C 
HETATM   23  C30 UNL     1       1.175  52.772 -11.237  1.00  0.00     0.157 C 
HETATM   24  O5  UNL     1       2.175  52.726 -11.949  1.00  0.00    -0.293 OA
ENDROOT
BRANCH   1  25
HETATM   25  C2  UNL     1       3.910  57.488  -7.704  1.00  0.00    -0.011 C 
HETATM   26  C1  UNL     1       2.949  58.129  -6.692  1.00  0.00     0.010 C 
BRANCH  25  27
HETATM   27  C3  UNL     1       5.082  56.783  -6.991  1.00  0.00     0.039 C 
BRANCH  27  28
HETATM   28  C4  UNL     1       5.180  57.094  -5.483  1.00  0.00     0.150 C 
BRANCH  28  29
HETATM   29  O1  UNL     1       4.724  55.927  -4.770  1.00  0.00    -0.393 OA
HETATM   30  H8  UNL     1       5.264  55.180  -5.093  1.00  0.00     0.210 HD
ENDBRANCH  28  29
BRANCH  28  31
HETATM   31  C5  UNL     1       6.626  57.429  -5.015  1.00  0.00     0.180 C 
BRANCH  31  32
HETATM   32  O2  UNL     1       7.020  58.701  -5.563  1.00  0.00    -0.390 OA
HETATM   33  H10 UNL     1       6.758  58.661  -6.507  1.00  0.00     0.210 HD
ENDBRANCH  31  32
BRANCH  31  34
HETATM   34  C6  UNL     1       7.676  56.335  -5.373  1.00  0.00     0.079 C 
HETATM   35  C7  UNL     1       7.642  55.149  -4.403  1.00  0.00     0.048 C 
HETATM   36  C8  UNL     1       7.434  55.811  -6.796  1.00  0.00     0.048 C 
BRANCH  34  37
HETATM   37  O3  UNL     1       8.991  56.904  -5.328  1.00  0.00    -0.388 OA
HETATM   38  H17 UNL     1       9.106  57.447  -6.129  1.00  0.00     0.210 HD
ENDBRANCH  34  37
ENDBRANCH  31  34
ENDBRANCH  28  31
ENDBRANCH  27  28
ENDBRANCH  25  27
ENDBRANCH   1  25
TORSDOF 8
ENDMDL
MODEL 2
REMARK minimizedAffinity -7.34285975
REMARK CNNscore 0.600556493
REMARK CNNaffinity 6.60508204
REMARK  8 active torsions:
REMARK  status: ('A' for Active; 'I' for Inactive)
REMARK    1  A    between atoms: C2_2  and  C3_3 
REMARK    2  A    between atoms: C2_2  and  C9_12 
REMARK    3  A    between atoms: C3_3  and  C4_4 
REMARK    4  A    between atoms: C4_4  and  O1_5 
REMARK    5  A    between atoms: C4_4  and  C5_6 
REMARK    6  A    between atoms: C5_6  and  O2_7 
REMARK    7  A    between atoms: C5_6  and  C6_8 
REMARK    8  A    between atoms: C6_8  and  O3_11 
ROOT
HETATM    1  C9  UNL     1       1.844  54.553  -9.422  1.00  0.00    -0.002 C 
HETATM    2  C10 UNL     1       2.522  53.181  -9.446  1.00  0.00     0.007 C 
HETATM    3  C11 UNL     1       3.566  53.301  -8.346  1.00  0.00     0.015 C 
HETATM    4  C12 UNL     1       4.234  54.674  -8.591  1.00  0.00    -0.005 C 
HETATM    5  C13 UNL     1       5.281  54.510  -9.732  1.00  0.00     0.021 C 
HETATM    6  C14 UNL     1       4.975  55.193  -7.338  1.00  0.00    -0.000 C 
HETATM    7  C15 UNL     1       4.713  56.360  -6.697  1.00  0.00    -0.060 C 
HETATM    8  C16 UNL     1       3.579  57.234  -7.201  1.00  0.00     0.036 C 
HETATM    9  C17 UNL     1       2.483  56.421  -7.868  1.00  0.00     0.015 C 
HETATM   10  C18 UNL     1       2.995  55.579  -9.064  1.00  0.00    -0.028 C 
HETATM   11  C19 UNL     1       3.378  56.558 -10.191  1.00  0.00     0.016 C 
HETATM   12  C20 UNL     1       5.523  56.917  -5.487  1.00  0.00    -0.014 C 
HETATM   13  C21 UNL     1       4.538  57.363  -4.370  1.00  0.00     0.020 C 
HETATM   14  C22 UNL     1       6.331  58.129  -6.013  1.00  0.00     0.021 C 
HETATM   15  C23 UNL     1       7.391  58.687  -5.075  1.00  0.00     0.080 C 
HETATM   16  C24 UNL     1       7.487  57.952  -3.765  1.00  0.00     0.135 C 
HETATM   17  O4  UNL     1       7.629  58.582  -2.715  1.00  0.00    -0.297 OA
HETATM   18  C25 UNL     1       7.526  56.418  -3.815  1.00  0.00     0.018 C 
HETATM   19  C26 UNL     1       9.004  56.059  -4.071  1.00  0.00     0.023 C 
HETATM   20  C27 UNL     1       7.168  55.859  -2.416  1.00  0.00     0.023 C 
HETATM   21  C28 UNL     1       6.498  55.850  -4.873  1.00  0.00     0.020 C 
HETATM   22  C29 UNL     1       7.165  55.051  -5.991  1.00  0.00     0.090 C 
HETATM   23  C30 UNL     1       6.126  54.370  -6.840  1.00  0.00     0.157 C 
HETATM   24  O5  UNL     1       6.256  53.187  -7.147  1.00  0.00    -0.293 OA
ENDROOT
BRANCH   1  25
HETATM   25  C2  UNL     1       0.827  54.761 -10.578  1.00  0.00    -0.011 C 
HETATM   26  C1  UNL     1       0.920  53.631 -11.613  1.00  0.00     0.010 C 
BRANCH  25  27
HETATM   27  C3  UNL     1      -0.636  55.023 -10.168  1.00  0.00     0.039 C 
BRANCH  27  28
HETATM   28  C4  UNL     1      -1.553  53.787 -10.280  1.00  0.00     0.150 C 
BRANCH  28  29
HETATM   29  O1  UNL     1      -1.767  53.284  -8.946  1.00  0.00    -0.393 OA
HETATM   30  H8  UNL     1      -2.114  54.033  -8.424  1.00  0.00     0.210 HD
ENDBRANCH  28  29
BRANCH  28  31
HETATM   31  C5  UNL     1      -2.935  54.101 -10.922  1.00  0.00     0.180 C 
BRANCH  31  32
HETATM   32  O2  UNL     1      -3.896  54.351  -9.880  1.00  0.00    -0.390 OA
HETATM   33  H10 UNL     1      -3.759  53.628  -9.230  1.00  0.00     0.210 HD
ENDBRANCH  31  32
BRANCH  31  34
HETATM   34  C6  UNL     1      -3.453  52.991 -11.884  1.00  0.00     0.079 C 
HETATM   35  C7  UNL     1      -2.314  52.220 -12.559  1.00  0.00     0.048 C 
HETATM   36  C8  UNL     1      -4.334  51.994 -11.120  1.00  0.00     0.048 C 
BRANCH  34  37
HETATM   37  O3  UNL     1      -4.252  53.589 -12.914  1.00  0.00    -0.388 OA
HETATM   38  H17 UNL     1      -5.114  53.821 -12.523  1.00  0.00     0.210 HD
ENDBRANCH  34  37
ENDBRANCH  31  34
ENDBRANCH  28  31
ENDBRANCH  27  28
ENDBRANCH  25  27
ENDBRANCH   1  25
TORSDOF 8
ENDMDL
MODEL 3
REMARK minimizedAffinity -7.51192284
REMARK CNNscore 0.562535703
REMARK CNNaffinity 6.74365664
REMARK  8 active torsions:
REMARK  status: ('A' for Active; 'I' for Inactive)
REMARK    1  A    between atoms: C2_2  and  C3_3 
REMARK    2  A    between atoms: C2_2  and  C9_12 
REMARK    3  A    between atoms: C3_3  and  C4_4 
REMARK    4  A    between atoms: C4_4  and  O1_5 
REMARK    5  A    between atoms: C4_4  and  C5_6 
REMARK    6  A    between atoms: C5_6  and  O2_7 
REMARK    7  A    between atoms: C5_6  and  C6_8 
REMARK    8  A    between atoms: C6_8  and  O3_11 
ROOT
HETATM    1  C9  UNL     1       0.317  54.576 -10.577  1.00  0.00    -0.002 C 
HETATM    2  C10 UNL     1      -0.990  55.242 -10.140  1.00  0.00     0.007 C 
HETATM    3  C11 UNL     1      -0.554  56.099  -8.960  1.00  0.00     0.015 C 
HETATM    4  C12 UNL     1       0.345  55.168  -8.113  1.00  0.00    -0.005 C 
HETATM    5  C13 UNL     1      -0.576  54.247  -7.259  1.00  0.00     0.021 C 
HETATM    6  C14 UNL     1       1.254  55.958  -7.146  1.00  0.00    -0.000 C 
HETATM    7  C15 UNL     1       2.611  55.916  -7.131  1.00  0.00    -0.060 C 
HETATM    8  C16 UNL     1       3.328  55.064  -8.161  1.00  0.00     0.036 C 
HETATM    9  C17 UNL     1       2.535  54.935  -9.451  1.00  0.00     0.015 C 
HETATM   10  C18 UNL     1       1.125  54.329  -9.238  1.00  0.00    -0.028 C 
HETATM   11  C19 UNL     1       1.311  52.850  -8.844  1.00  0.00     0.016 C 
HETATM   12  C20 UNL     1       3.517  56.649  -6.096  1.00  0.00    -0.014 C 
HETATM   13  C21 UNL     1       4.650  57.403  -6.847  1.00  0.00     0.020 C 
HETATM   14  C22 UNL     1       4.111  55.556  -5.174  1.00  0.00     0.021 C 
HETATM   15  C23 UNL     1       4.832  56.048  -3.927  1.00  0.00     0.080 C 
HETATM   16  C24 UNL     1       4.845  57.547  -3.789  1.00  0.00     0.135 C 
HETATM   17  O4  UNL     1       5.870  58.121  -3.415  1.00  0.00    -0.297 OA
HETATM   18  C25 UNL     1       3.520  58.289  -4.007  1.00  0.00     0.018 C 
HETATM   19  C26 UNL     1       2.787  58.217  -2.651  1.00  0.00     0.023 C 
HETATM   20  C27 UNL     1       3.817  59.786  -4.273  1.00  0.00     0.023 C 
HETATM   21  C28 UNL     1       2.724  57.699  -5.238  1.00  0.00     0.020 C 
HETATM   22  C29 UNL     1       1.358  57.133  -4.857  1.00  0.00     0.090 C 
HETATM   23  C30 UNL     1       0.574  56.780  -6.091  1.00  0.00     0.157 C 
HETATM   24  O5  UNL     1      -0.602  57.119  -6.195  1.00  0.00    -0.293 OA
ENDROOT
BRANCH   1  25
HETATM   25  C2  UNL     1       0.126  53.503 -11.683  1.00  0.00    -0.011 C 
HETATM   26  C1  UNL     1       1.439  52.764 -11.977  1.00  0.00     0.010 C 
BRANCH  25  27
HETATM   27  C3  UNL     1      -1.039  52.512 -11.485  1.00  0.00     0.039 C 
BRANCH  27  28
HETATM   28  C4  UNL     1      -1.886  52.274 -12.752  1.00  0.00     0.150 C 
BRANCH  28  29
HETATM   29  O1  UNL     1      -1.555  50.964 -13.255  1.00  0.00    -0.393 OA
HETATM   30  H8  UNL     1      -1.701  50.343 -12.515  1.00  0.00     0.210 HD
ENDBRANCH  28  29
BRANCH  28  31
HETATM   31  C5  UNL     1      -3.419  52.333 -12.489  1.00  0.00     0.180 C 
BRANCH  31  32
HETATM   32  O2  UNL     1      -3.975  53.469 -13.177  1.00  0.00    -0.390 OA
HETATM   33  H10 UNL     1      -3.368  54.211 -12.972  1.00  0.00     0.210 HD
ENDBRANCH  31  32
BRANCH  31  34
HETATM   34  C6  UNL     1      -3.801  52.372 -10.980  1.00  0.00     0.079 C 
HETATM   35  C7  UNL     1      -2.734  51.729 -10.087  1.00  0.00     0.048 C 
HETATM   36  C8  UNL     1      -4.014  53.822 -10.522  1.00  0.00     0.048 C 
BRANCH  34  37
HETATM   37  O3  UNL     1      -5.030  51.660 -10.781  1.00  0.00    -0.388 OA
HETATM   38  H17 UNL     1      -5.755  52.226 -11.103  1.00  0.00     0.210 HD
ENDBRANCH  34  37
ENDBRANCH  31  34
ENDBRANCH  28  31
ENDBRANCH  27  28
ENDBRANCH  25  27
ENDBRANCH   1  25
TORSDOF 8
ENDMDL
MODEL 4
REMARK minimizedAffinity -7.18488979
REMARK CNNscore 0.504499137
REMARK CNNaffinity 6.74688911
REMARK  8 active torsions:
REMARK  status: ('A' for Active; 'I' for Inactive)
REMARK    1  A    between atoms: C2_2  and  C3_3 
REMARK    2  A    between atoms: C2_2  and  C9_12 
REMARK    3  A    between atoms: C3_3  and  C4_4 
REMARK    4  A    between atoms: C4_4  and  O1_5 
REMARK    5  A    between atoms: C4_4  and  C5_6 
REMARK    6  A    between atoms: C5_6  and  O2_7 
REMARK    7  A    between atoms: C5_6  and  C6_8 
REMARK    8  A    between atoms: C6_8  and  O3_11 
ROOT
HETATM    1  C9  UNL     1      -3.262  51.139 -10.765  1.00  0.00    -0.002 C 
HETATM    2  C10 UNL     1      -3.978  52.491 -10.717  1.00  0.00     0.007 C 
HETATM    3  C11 UNL     1      -2.824  53.483 -10.689  1.00  0.00     0.015 C 
HETATM    4  C12 UNL     1      -1.844  52.910  -9.637  1.00  0.00    -0.005 C 
HETATM    5  C13 UNL     1      -2.368  53.294  -8.222  1.00  0.00     0.021 C 
HETATM    6  C14 UNL     1      -0.421  53.491  -9.791  1.00  0.00    -0.000 C 
HETATM    7  C15 UNL     1       0.703  52.768 -10.024  1.00  0.00    -0.060 C 
HETATM    8  C16 UNL     1       0.584  51.265 -10.193  1.00  0.00     0.036 C 
HETATM    9  C17 UNL     1      -0.765  50.857 -10.761  1.00  0.00     0.015 C 
HETATM   10  C18 UNL     1      -1.957  51.328  -9.890  1.00  0.00    -0.028 C 
HETATM   11  C19 UNL     1      -1.921  50.520  -8.577  1.00  0.00     0.016 C 
HETATM   12  C20 UNL     1       2.146  53.353 -10.090  1.00  0.00    -0.014 C 
HETATM   13  C21 UNL     1       2.864  52.811 -11.358  1.00  0.00     0.020 C 
HETATM   14  C22 UNL     1       2.877  52.880  -8.809  1.00  0.00     0.021 C 
HETATM   15  C23 UNL     1       4.223  53.530  -8.525  1.00  0.00     0.080 C 
HETATM   16  C24 UNL     1       4.630  54.552  -9.552  1.00  0.00     0.135 C 
HETATM   17  O4  UNL     1       5.796  54.597  -9.947  1.00  0.00    -0.297 OA
HETATM   18  C25 UNL     1       3.578  55.587  -9.976  1.00  0.00     0.018 C 
HETATM   19  C26 UNL     1       3.653  56.699  -8.908  1.00  0.00     0.023 C 
HETATM   20  C27 UNL     1       4.013  56.228 -11.317  1.00  0.00     0.023 C 
HETATM   21  C28 UNL     1       2.157  54.922 -10.162  1.00  0.00     0.020 C 
HETATM   22  C29 UNL     1       1.097  55.493  -9.222  1.00  0.00     0.090 C 
HETATM   23  C30 UNL     1      -0.265  54.970  -9.590  1.00  0.00     0.157 C 
HETATM   24  O5  UNL     1      -1.221  55.738  -9.671  1.00  0.00    -0.293 OA
ENDROOT
BRANCH   1  25
HETATM   25  C2  UNL     1      -4.222  49.926 -10.635  1.00  0.00    -0.011 C 
HETATM   26  C1  UNL     1      -3.600  48.810  -9.783  1.00  0.00     0.010 C 
BRANCH  25  27
HETATM   27  C3  UNL     1      -5.664  50.235 -10.182  1.00  0.00     0.039 C 
BRANCH  27  28
HETATM   28  C4  UNL     1      -6.516  48.981  -9.893  1.00  0.00     0.150 C 
BRANCH  28  29
HETATM   29  O1  UNL     1      -7.011  49.096  -8.544  1.00  0.00    -0.393 OA
HETATM   30  H8  UNL     1      -7.475  49.954  -8.495  1.00  0.00     0.210 HD
ENDBRANCH  28  29
BRANCH  28  31
HETATM   31  C5  UNL     1      -7.728  48.824 -10.856  1.00  0.00     0.180 C 
BRANCH  31  32
HETATM   32  O2  UNL     1      -8.950  48.963 -10.108  1.00  0.00    -0.390 OA
HETATM   33  H10 UNL     1      -8.823  48.405  -9.311  1.00  0.00     0.210 HD
ENDBRANCH  31  32
BRANCH  31  34
HETATM   34  C6  UNL     1      -7.730  47.488 -11.658  1.00  0.00     0.079 C 
HETATM   35  C7  UNL     1      -6.348  47.136 -12.218  1.00  0.00     0.048 C 
HETATM   36  C8  UNL     1      -8.205  46.333 -10.764  1.00  0.00     0.048 C 
BRANCH  34  37
HETATM   37  O3  UNL     1      -8.640  47.597 -12.761  1.00  0.00    -0.388 OA
HETATM   38  H17 UNL     1      -9.545  47.526 -12.407  1.00  0.00     0.210 HD
ENDBRANCH  34  37
ENDBRANCH  31  34
ENDBRANCH  28  31
ENDBRANCH  27  28
ENDBRANCH  25  27
ENDBRANCH   1  25
TORSDOF 8
ENDMDL
MODEL 5
REMARK minimizedAffinity -7.93524218
REMARK CNNscore 0.408987403
REMARK CNNaffinity 6.04790688
REMARK  8 active torsions:
REMARK  status: ('A' for Active; 'I' for Inactive)
REMARK    1  A    between atoms: C2_2  and  C3_3 
REMARK    2  A    between atoms: C2_2  and  C9_12 
REMARK    3  A    between atoms: C3_3  and  C4_4 
REMARK    4  A    between atoms: C4_4  and  O1_5 
REMARK    5  A    between atoms: C4_4  and  C5_6 
REMARK    6  A    between atoms: C5_6  and  O2_7 
REMARK    7  A    between atoms: C5_6  and  C6_8 
REMARK    8  A    between atoms: C6_8  and  O3_11 
ROOT
HETATM    1  C9  UNL     1      -6.851  47.458 -27.463  1.00  0.00    -0.002 C 
HETATM    2  C10 UNL     1      -6.842  47.745 -25.960  1.00  0.00     0.007 C 
HETATM    3  C11 UNL     1      -8.156  47.136 -25.492  1.00  0.00     0.015 C 
HETATM    4  C12 UNL     1      -9.199  47.621 -26.526  1.00  0.00    -0.005 C 
HETATM    5  C13 UNL     1      -9.606  49.079 -26.162  1.00  0.00     0.021 C 
HETATM    6  C14 UNL     1     -10.478  46.754 -26.512  1.00  0.00    -0.000 C 
HETATM    7  C15 UNL     1     -10.969  46.061 -27.570  1.00  0.00    -0.060 C 
HETATM    8  C16 UNL     1     -10.204  46.083 -28.880  1.00  0.00     0.036 C 
HETATM    9  C17 UNL     1      -8.711  46.273 -28.667  1.00  0.00     0.015 C 
HETATM   10  C18 UNL     1      -8.368  47.574 -27.899  1.00  0.00    -0.028 C 
HETATM   11  C19 UNL     1      -8.698  48.761 -28.826  1.00  0.00     0.016 C 
HETATM   12  C20 UNL     1     -12.306  45.259 -27.572  1.00  0.00    -0.014 C 
HETATM   13  C21 UNL     1     -12.060  43.847 -28.173  1.00  0.00     0.020 C 
HETATM   14  C22 UNL     1     -13.301  46.057 -28.451  1.00  0.00     0.021 C 
HETATM   15  C23 UNL     1     -14.753  45.604 -28.402  1.00  0.00     0.080 C 
HETATM   16  C24 UNL     1     -14.991  44.435 -27.485  1.00  0.00     0.135 C 
HETATM   17  O4  UNL     1     -15.742  43.522 -27.833  1.00  0.00    -0.297 OA
HETATM   18  C25 UNL     1     -14.370  44.498 -26.083  1.00  0.00     0.018 C 
HETATM   19  C26 UNL     1     -15.370  45.308 -25.232  1.00  0.00     0.023 C 
HETATM   20  C27 UNL     1     -14.332  43.070 -25.483  1.00  0.00     0.023 C 
HETATM   21  C28 UNL     1     -12.899  45.074 -26.129  1.00  0.00     0.020 C 
HETATM   22  C29 UNL     1     -12.732  46.363 -25.329  1.00  0.00     0.090 C 
HETATM   23  C30 UNL     1     -11.278  46.742 -25.243  1.00  0.00     0.157 C 
HETATM   24  O5  UNL     1     -10.788  47.077 -24.167  1.00  0.00    -0.293 OA
ENDROOT
BRANCH   1  25
HETATM   25  C2  UNL     1      -5.677  48.128 -28.228  1.00  0.00    -0.011 C 
HETATM   26  C1  UNL     1      -4.408  48.183 -27.365  1.00  0.00     0.010 C 
BRANCH  25  27
HETATM   27  C3  UNL     1      -5.371  47.578 -29.636  1.00  0.00     0.039 C 
BRANCH  27  28
HETATM   28  C4  UNL     1      -5.695  48.560 -30.780  1.00  0.00     0.150 C 
BRANCH  28  29
HETATM   29  O1  UNL     1      -4.464  49.212 -31.153  1.00  0.00    -0.393 OA
HETATM   30  H8  UNL     1      -3.830  48.499 -31.362  1.00  0.00     0.210 HD
ENDBRANCH  28  29
BRANCH  28  31
HETATM   31  C5  UNL     1      -6.291  47.866 -32.039  1.00  0.00     0.180 C 
BRANCH  31  32
HETATM   32  O2  UNL     1      -7.497  47.171 -31.671  1.00  0.00    -0.390 OA
HETATM   33  H10 UNL     1      -7.269  46.687 -30.849  1.00  0.00     0.210 HD
ENDBRANCH  31  32
BRANCH  31  34
HETATM   34  C6  UNL     1      -5.303  46.898 -32.755  1.00  0.00     0.079 C 
HETATM   35  C7  UNL     1      -4.476  47.597 -33.839  1.00  0.00     0.048 C 
HETATM   36  C8  UNL     1      -4.342  46.270 -31.735  1.00  0.00     0.048 C 
BRANCH  34  37
HETATM   37  O3  UNL     1      -6.042  45.838 -33.378  1.00  0.00    -0.388 OA
HETATM   38  H17 UNL     1      -6.326  45.223 -32.677  1.00  0.00     0.210 HD
ENDBRANCH  34  37
ENDBRANCH  31  34
ENDBRANCH  28  31
ENDBRANCH  27  28
ENDBRANCH  25  27
ENDBRANCH   1  25
TORSDOF 8
ENDMDL
MODEL 6
REMARK minimizedAffinity -7.68902016
REMARK CNNscore 0.408890814
REMARK CNNaffinity 5.81305742
REMARK  8 active torsions:
REMARK  status: ('A' for Active; 'I' for Inactive)
REMARK    1  A    between atoms: C2_2  and  C3_3 
REMARK    2  A    between atoms: C2_2  and  C9_12 
REMARK    3  A    between atoms: C3_3  and  C4_4 
REMARK    4  A    between atoms: C4_4  and  O1_5 
REMARK    5  A    between atoms: C4_4  and  C5_6 
REMARK    6  A    between atoms: C5_6  and  O2_7 
REMARK    7  A    between atoms: C5_6  and  C6_8 
REMARK    8  A    between atoms: C6_8  and  O3_11 
ROOT
HETATM    1  C9  UNL     1       4.466  68.243 -37.366  1.00  0.00    -0.002 C 
HETATM    2  C10 UNL     1       4.838  67.191 -38.413  1.00  0.00     0.007 C 
HETATM    3  C11 UNL     1       3.846  67.465 -39.534  1.00  0.00     0.015 C 
HETATM    4  C12 UNL     1       2.484  67.626 -38.818  1.00  0.00    -0.005 C 
HETATM    5  C13 UNL     1       1.926  66.206 -38.509  1.00  0.00     0.021 C 
HETATM    6  C14 UNL     1       1.448  68.362 -39.697  1.00  0.00    -0.000 C 
HETATM    7  C15 UNL     1       0.823  69.522 -39.370  1.00  0.00    -0.060 C 
HETATM    8  C16 UNL     1       1.176  70.201 -38.060  1.00  0.00     0.036 C 
HETATM    9  C17 UNL     1       2.605  69.910 -37.631  1.00  0.00     0.015 C 
HETATM   10  C18 UNL     1       2.894  68.396 -37.470  1.00  0.00    -0.028 C 
HETATM   11  C19 UNL     1       2.101  67.900 -36.245  1.00  0.00     0.016 C 
HETATM   12  C20 UNL     1      -0.284  70.212 -40.223  1.00  0.00    -0.014 C 
HETATM   13  C21 UNL     1       0.049  71.722 -40.375  1.00  0.00     0.020 C 
HETATM   14  C22 UNL     1      -1.617  70.024 -39.456  1.00  0.00     0.021 C 
HETATM   15  C23 UNL     1      -2.885  70.395 -40.211  1.00  0.00     0.080 C 
HETATM   16  C24 UNL     1      -2.632  70.888 -41.611  1.00  0.00     0.135 C 
HETATM   17  O4  UNL     1      -3.263  71.853 -42.047  1.00  0.00    -0.297 OA
HETATM   18  C25 UNL     1      -1.669  70.073 -42.485  1.00  0.00     0.018 C 
HETATM   19  C26 UNL     1      -2.529  68.943 -43.089  1.00  0.00     0.023 C 
HETATM   20  C27 UNL     1      -1.196  70.952 -43.669  1.00  0.00     0.023 C 
HETATM   21  C28 UNL     1      -0.406  69.597 -41.663  1.00  0.00     0.020 C 
HETATM   22  C29 UNL     1      -0.271  68.078 -41.593  1.00  0.00     0.090 C 
HETATM   23  C30 UNL     1       1.050  67.697 -40.981  1.00  0.00     0.157 C 
HETATM   24  O5  UNL     1       1.747  66.830 -41.503  1.00  0.00    -0.293 OA
ENDROOT
BRANCH   1  25
HETATM   25  C2  UNL     1       5.232  68.079 -36.025  1.00  0.00    -0.011 C 
HETATM   26  C1  UNL     1       5.303  69.406 -35.256  1.00  0.00     0.010 C 
BRANCH  25  27
HETATM   27  C3  UNL     1       4.773  66.927 -35.107  1.00  0.00     0.039 C 
BRANCH  27  28
HETATM   28  C4  UNL     1       5.898  66.329 -34.236  1.00  0.00     0.150 C 
BRANCH  28  29
HETATM   29  O1  UNL     1       5.771  66.895 -32.916  1.00  0.00    -0.393 OA
HETATM   30  H8  UNL     1       4.856  66.711 -32.627  1.00  0.00     0.210 HD
ENDBRANCH  28  29
BRANCH  28  31
HETATM   31  C5  UNL     1       5.831  64.779 -34.122  1.00  0.00     0.180 C 
BRANCH  31  32
HETATM   32  O2  UNL     1       6.105  64.195 -35.409  1.00  0.00    -0.390 OA
HETATM   33  H10 UNL     1       5.559  64.709 -36.041  1.00  0.00     0.210 HD
ENDBRANCH  31  32
BRANCH  31  34
HETATM   34  C6  UNL     1       4.481  64.244 -33.558  1.00  0.00     0.079 C 
HETATM   35  C7  UNL     1       4.298  62.741 -33.796  1.00  0.00     0.048 C 
HETATM   36  C8  UNL     1       4.390  64.516 -32.050  1.00  0.00     0.048 C 
BRANCH  34  37
HETATM   37  O3  UNL     1       3.394  64.927 -34.198  1.00  0.00    -0.388 OA
HETATM   38  H17 UNL     1       3.339  65.821 -33.814  1.00  0.00     0.210 HD
ENDBRANCH  34  37
ENDBRANCH  31  34
ENDBRANCH  28  31
ENDBRANCH  27  28
ENDBRANCH  25  27
ENDBRANCH   1  25
TORSDOF 8
ENDMDL
MODEL 7
REMARK minimizedAffinity -7.41133738
REMARK CNNscore 0.393440634
REMARK CNNaffinity 5.85656118
REMARK  8 active torsions:
REMARK  status: ('A' for Active; 'I' for Inactive)
REMARK    1  A    between atoms: C2_2  and  C3_3 
REMARK    2  A    between atoms: C2_2  and  C9_12 
REMARK    3  A    between atoms: C3_3  and  C4_4 
REMARK    4  A    between atoms: C4_4  and  O1_5 
REMARK    5  A    between atoms: C4_4  and  C5_6 
REMARK    6  A    between atoms: C5_6  and  O2_7 
REMARK    7  A    between atoms: C5_6  and  C6_8 
REMARK    8  A    between atoms: C6_8  and  O3_11 
ROOT
HETATM    1  C9  UNL     1      -9.950  46.237 -29.064  1.00  0.00    -0.002 C 
HETATM    2  C10 UNL     1      -9.498  47.039 -27.841  1.00  0.00     0.007 C 
HETATM    3  C11 UNL     1     -10.587  46.741 -26.821  1.00  0.00     0.015 C 
HETATM    4  C12 UNL     1     -11.911  46.905 -27.604  1.00  0.00    -0.005 C 
HETATM    5  C13 UNL     1     -12.240  48.424 -27.691  1.00  0.00     0.021 C 
HETATM    6  C14 UNL     1     -13.093  46.202 -26.902  1.00  0.00    -0.000 C 
HETATM    7  C15 UNL     1     -13.856  45.218 -27.442  1.00  0.00    -0.060 C 
HETATM    8  C16 UNL     1     -13.523  44.713 -28.834  1.00  0.00     0.036 C 
HETATM    9  C17 UNL     1     -12.043  44.850 -29.153  1.00  0.00     0.015 C 
HETATM   10  C18 UNL     1     -11.532  46.308 -29.046  1.00  0.00    -0.028 C 
HETATM   11  C19 UNL     1     -12.169  47.109 -30.199  1.00  0.00     0.016 C 
HETATM   12  C20 UNL     1     -15.102  44.575 -26.760  1.00  0.00    -0.014 C 
HETATM   13  C21 UNL     1     -14.997  43.027 -26.852  1.00  0.00     0.020 C 
HETATM   14  C22 UNL     1     -16.343  45.083 -27.534  1.00  0.00     0.021 C 
HETATM   15  C23 UNL     1     -17.696  44.791 -26.900  1.00  0.00     0.080 C 
HETATM   16  C24 UNL     1     -17.604  44.047 -25.594  1.00  0.00     0.135 C 
HETATM   17  O4  UNL     1     -18.391  43.131 -25.351  1.00  0.00    -0.297 OA
HETATM   18  C25 UNL     1     -16.590  44.556 -24.560  1.00  0.00     0.018 C 
HETATM   19  C26 UNL     1     -17.316  45.692 -23.808  1.00  0.00     0.023 C 
HETATM   20  C27 UNL     1     -16.322  43.437 -23.524  1.00  0.00     0.023 C 
HETATM   21  C28 UNL     1     -15.224  44.962 -25.243  1.00  0.00     0.020 C 
HETATM   22  C29 UNL     1     -14.869  46.435 -25.051  1.00  0.00     0.090 C 
HETATM   23  C30 UNL     1     -13.472  46.705 -25.540  1.00  0.00     0.157 C 
HETATM   24  O5  UNL     1     -12.692  47.362 -24.854  1.00  0.00    -0.293 OA
ENDROOT
BRANCH   1  25
HETATM   25  C2  UNL     1      -9.087  46.497 -30.329  1.00  0.00    -0.011 C 
HETATM   26  C1  UNL     1      -9.171  45.322 -31.313  1.00  0.00     0.010 C 
BRANCH  25  27
HETATM   27  C3  UNL     1      -9.308  47.844 -31.048  1.00  0.00     0.039 C 
BRANCH  27  28
HETATM   28  C4  UNL     1      -8.012  48.641 -31.304  1.00  0.00     0.150 C 
BRANCH  28  29
HETATM   29  O1  UNL     1      -8.168  49.932 -30.680  1.00  0.00    -0.393 OA
HETATM   30  H8  UNL     1      -8.390  49.758 -29.745  1.00  0.00     0.210 HD
ENDBRANCH  28  29
BRANCH  28  31
HETATM   31  C5  UNL     1      -6.742  47.956 -30.722  1.00  0.00     0.180 C 
BRANCH  31  32
HETATM   32  O2  UNL     1      -6.212  48.767 -29.657  1.00  0.00    -0.390 OA
HETATM   33  H10 UNL     1      -6.212  49.682 -30.012  1.00  0.00     0.210 HD
ENDBRANCH  31  32
BRANCH  31  34
HETATM   34  C6  UNL     1      -5.640  47.661 -31.782  1.00  0.00     0.079 C 
HETATM   35  C7  UNL     1      -4.976  46.296 -31.575  1.00  0.00     0.048 C 
HETATM   36  C8  UNL     1      -6.237  47.706 -33.195  1.00  0.00     0.048 C 
BRANCH  34  37
HETATM   37  O3  UNL     1      -4.620  48.666 -31.700  1.00  0.00    -0.388 OA
HETATM   38  H17 UNL     1      -4.969  49.477 -32.112  1.00  0.00     0.210 HD
ENDBRANCH  34  37
ENDBRANCH  31  34
ENDBRANCH  28  31
ENDBRANCH  27  28
ENDBRANCH  25  27
ENDBRANCH   1  25
TORSDOF 8
ENDMDL
MODEL 8
REMARK minimizedAffinity -8.01195812
REMARK CNNscore 0.389870077
REMARK CNNaffinity 6.02008057
REMARK  8 active torsions:
REMARK  status: ('A' for Active; 'I' for Inactive)
REMARK    1  A    between atoms: C2_2  and  C3_3 
REMARK    2  A    between atoms: C2_2  and  C9_12 
REMARK    3  A    between atoms: C3_3  and  C4_4 
REMARK    4  A    between atoms: C4_4  and  O1_5 
REMARK    5  A    between atoms: C4_4  and  C5_6 
REMARK    6  A    between atoms: C5_6  and  O2_7 
REMARK    7  A    between atoms: C5_6  and  C6_8 
REMARK    8  A    between atoms: C6_8  and  O3_11 
ROOT
HETATM    1  C9  UNL     1       2.586  67.830 -38.515  1.00  0.00    -0.002 C 
HETATM    2  C10 UNL     1       3.518  68.129 -39.692  1.00  0.00     0.007 C 
HETATM    3  C11 UNL     1       4.754  67.307 -39.361  1.00  0.00     0.015 C 
HETATM    4  C12 UNL     1       5.023  67.592 -37.865  1.00  0.00    -0.005 C 
HETATM    5  C13 UNL     1       5.756  68.961 -37.754  1.00  0.00     0.021 C 
HETATM    6  C14 UNL     1       5.925  66.517 -37.220  1.00  0.00    -0.000 C 
HETATM    7  C15 UNL     1       5.587  65.738 -36.161  1.00  0.00    -0.060 C 
HETATM    8  C16 UNL     1       4.201  65.880 -35.561  1.00  0.00     0.036 C 
HETATM    9  C17 UNL     1       3.175  66.328 -36.589  1.00  0.00     0.015 C 
HETATM   10  C18 UNL     1       3.538  67.676 -37.260  1.00  0.00    -0.028 C 
HETATM   11  C19 UNL     1       3.401  68.779 -36.191  1.00  0.00     0.016 C 
HETATM   12  C20 UNL     1       6.535  64.717 -35.463  1.00  0.00    -0.014 C 
HETATM   13  C21 UNL     1       5.793  63.363 -35.285  1.00  0.00     0.020 C 
HETATM   14  C22 UNL     1       6.900  65.321 -34.084  1.00  0.00     0.021 C 
HETATM   15  C23 UNL     1       8.015  64.623 -33.318  1.00  0.00     0.080 C 
HETATM   16  C24 UNL     1       8.598  63.440 -34.044  1.00  0.00     0.135 C 
HETATM   17  O4  UNL     1       8.860  62.407 -33.425  1.00  0.00    -0.297 OA
HETATM   18  C25 UNL     1       8.955  63.624 -35.525  1.00  0.00     0.018 C 
HETATM   19  C26 UNL     1      10.362  64.257 -35.526  1.00  0.00     0.023 C 
HETATM   20  C27 UNL     1       9.094  62.231 -36.188  1.00  0.00     0.023 C 
HETATM   21  C28 UNL     1       7.843  64.446 -36.290  1.00  0.00     0.020 C 
HETATM   22  C29 UNL     1       8.362  65.753 -36.884  1.00  0.00     0.090 C 
HETATM   23  C30 UNL     1       7.316  66.379 -37.766  1.00  0.00     0.157 C 
HETATM   24  O5  UNL     1       7.618  66.805 -38.878  1.00  0.00    -0.293 OA
ENDROOT
BRANCH   1  25
HETATM   25  C2  UNL     1       1.290  68.685 -38.519  1.00  0.00    -0.011 C 
HETATM   26  C1  UNL     1       1.560  70.106 -39.036  1.00  0.00     0.010 C 
BRANCH  25  27
HETATM   27  C3  UNL     1       0.058  68.065 -39.210  1.00  0.00     0.039 C 
BRANCH  27  28
HETATM   28  C4  UNL     1       0.397  66.940 -40.210  1.00  0.00     0.150 C 
BRANCH  28  29
HETATM   29  O1  UNL     1      -0.371  65.780 -39.832  1.00  0.00    -0.393 OA
HETATM   30  H8  UNL     1      -1.304  66.066 -39.804  1.00  0.00     0.210 HD
ENDBRANCH  28  29
BRANCH  28  31
HETATM   31  C5  UNL     1       0.057  67.303 -41.685  1.00  0.00     0.180 C 
BRANCH  31  32
HETATM   32  O2  UNL     1       1.246  67.773 -42.345  1.00  0.00    -0.390 OA
HETATM   33  H10 UNL     1       1.649  68.409 -41.716  1.00  0.00     0.210 HD
ENDBRANCH  31  32
BRANCH  31  34
HETATM   34  C6  UNL     1      -1.094  68.342 -41.831  1.00  0.00     0.079 C 
HETATM   35  C7  UNL     1      -0.576  69.755 -42.118  1.00  0.00     0.048 C 
HETATM   36  C8  UNL     1      -2.042  67.928 -42.966  1.00  0.00     0.048 C 
BRANCH  34  37
HETATM   37  O3  UNL     1      -1.852  68.388 -40.615  1.00  0.00    -0.388 OA
HETATM   38  H17 UNL     1      -2.413  67.591 -40.585  1.00  0.00     0.210 HD
ENDBRANCH  34  37
ENDBRANCH  31  34
ENDBRANCH  28  31
ENDBRANCH  27  28
ENDBRANCH  25  27
ENDBRANCH   1  25
TORSDOF 8
ENDMDL
MODEL 9
REMARK minimizedAffinity -7.62214851
REMARK CNNscore 0.328711808
REMARK CNNaffinity 6.32349634
REMARK  8 active torsions:
REMARK  status: ('A' for Active; 'I' for Inactive)
REMARK    1  A    between atoms: C2_2  and  C3_3 
REMARK    2  A    between atoms: C2_2  and  C9_12 
REMARK    3  A    between atoms: C3_3  and  C4_4 
REMARK    4  A    between atoms: C4_4  and  O1_5 
REMARK    5  A    between atoms: C4_4  and  C5_6 
REMARK    6  A    between atoms: C5_6  and  O2_7 
REMARK    7  A    between atoms: C5_6  and  C6_8 
REMARK    8  A    between atoms: C6_8  and  O3_11 
ROOT
HETATM    1  C9  UNL     1       3.232  54.098 -10.516  1.00  0.00    -0.002 C 
HETATM    2  C10 UNL     1       2.493  55.419 -10.737  1.00  0.00     0.007 C 
HETATM    3  C11 UNL     1       3.179  56.358  -9.756  1.00  0.00     0.015 C 
HETATM    4  C12 UNL     1       3.269  55.550  -8.440  1.00  0.00    -0.005 C 
HETATM    5  C13 UNL     1       1.886  55.623  -7.728  1.00  0.00     0.021 C 
HETATM    6  C14 UNL     1       4.331  56.124  -7.476  1.00  0.00    -0.000 C 
HETATM    7  C15 UNL     1       5.407  55.448  -6.998  1.00  0.00    -0.060 C 
HETATM    8  C16 UNL     1       5.640  54.022  -7.461  1.00  0.00     0.036 C 
HETATM    9  C17 UNL     1       5.090  53.775  -8.856  1.00  0.00     0.015 C 
HETATM   10  C18 UNL     1       3.573  54.065  -8.971  1.00  0.00    -0.028 C 
HETATM   11  C19 UNL     1       2.831  52.987  -8.155  1.00  0.00     0.016 C 
HETATM   12  C20 UNL     1       6.424  56.007  -5.958  1.00  0.00    -0.014 C 
HETATM   13  C21 UNL     1       7.871  55.744  -6.461  1.00  0.00     0.020 C 
HETATM   14  C22 UNL     1       6.165  55.249  -4.632  1.00  0.00     0.021 C 
HETATM   15  C23 UNL     1       6.867  55.795  -3.398  1.00  0.00     0.080 C 
HETATM   16  C24 UNL     1       7.712  57.011  -3.671  1.00  0.00     0.135 C 
HETATM   17  O4  UNL     1       8.822  57.119  -3.147  1.00  0.00    -0.297 OA
HETATM   18  C25 UNL     1       7.086  58.133  -4.511  1.00  0.00     0.018 C 
HETATM   19  C26 UNL     1       6.273  58.981  -3.511  1.00  0.00     0.023 C 
HETATM   20  C27 UNL     1       8.213  59.046  -5.054  1.00  0.00     0.023 C 
HETATM   21  C28 UNL     1       6.265  57.552  -5.730  1.00  0.00     0.020 C 
HETATM   22  C29 UNL     1       4.784  57.922  -5.688  1.00  0.00     0.090 C 
HETATM   23  C30 UNL     1       4.107  57.519  -6.971  1.00  0.00     0.157 C 
HETATM   24  O5  UNL     1       3.359  58.303  -7.549  1.00  0.00    -0.293 OA
ENDROOT
BRANCH   1  25
HETATM   25  C2  UNL     1       2.611  52.904 -11.291  1.00  0.00    -0.011 C 
HETATM   26  C1  UNL     1       3.509  51.660 -11.214  1.00  0.00     0.010 C 
BRANCH  25  27
HETATM   27  C3  UNL     1       1.146  52.554 -10.956  1.00  0.00     0.039 C 
BRANCH  27  28
HETATM   28  C4  UNL     1       0.109  53.266 -11.850  1.00  0.00     0.150 C 
BRANCH  28  29
HETATM   29  O1  UNL     1       0.413  52.927 -13.219  1.00  0.00    -0.393 OA
HETATM   30  H8  UNL     1       0.424  51.951 -13.263  1.00  0.00     0.210 HD
ENDBRANCH  28  29
BRANCH  28  31
HETATM   31  C5  UNL     1      -1.358  52.845 -11.547  1.00  0.00     0.180 C 
BRANCH  31  32
HETATM   32  O2  UNL     1      -2.080  52.713 -12.786  1.00  0.00    -0.390 OA
HETATM   33  H10 UNL     1      -1.848  53.516 -13.300  1.00  0.00     0.210 HD
ENDBRANCH  31  32
BRANCH  31  34
HETATM   34  C6  UNL     1      -2.107  53.810 -10.582  1.00  0.00     0.079 C 
HETATM   35  C7  UNL     1      -3.615  53.855 -10.848  1.00  0.00     0.048 C 
HETATM   36  C8  UNL     1      -1.879  53.385  -9.124  1.00  0.00     0.048 C 
BRANCH  34  37
HETATM   37  O3  UNL     1      -1.590  55.138 -10.741  1.00  0.00    -0.388 OA
HETATM   38  H17 UNL     1      -0.723  55.174 -10.298  1.00  0.00     0.210 HD
ENDBRANCH  34  37
ENDBRANCH  31  34
ENDBRANCH  28  31
ENDBRANCH  27  28
ENDBRANCH  25  27
ENDBRANCH   1  25
TORSDOF 8
ENDMDL
