MODEL 1
REMARK minimizedAffinity -7.86982107
REMARK CNNscore 0.765578389
REMARK CNNaffinity 6.59849691
REMARK  8 active torsions:
REMARK  status: ('A' for Active; 'I' for Inactive)
REMARK    1  A    between atoms: C2_2  and  C4_4 
REMARK    2  A    between atoms: C4_4  and  O1_6 
REMARK    3  A    between atoms: C4_4  and  C6_7 
REMARK    4  A    between atoms: C7_9  and  C8_10 
REMARK    5  A    between atoms: C8_10  and  O3_12 
REMARK    6  A    between atoms: C8_10  and  C10_13 
REMARK    7  A    between atoms: C17_20  and  O4_21 
REMARK    8  A    between atoms: C23_28  and  O6_29 
ROOT
HETATM    1  C10 UNL     1       3.278  54.129  -9.135  1.00  0.00     0.034 C 
HETATM    2  C11 UNL     1       4.104  52.811  -9.100  1.00  0.00     0.021 C 
HETATM    3  C12 UNL     1       5.376  53.066  -8.215  1.00  0.00    -0.004 C 
HETATM    4  C13 UNL     1       5.662  51.867  -7.288  1.00  0.00     0.013 C 
HETATM    5  C14 UNL     1       6.232  50.801  -8.208  1.00  0.00     0.001 C 
HETATM    6  C15 UNL     1       7.046  51.564  -9.238  1.00  0.00     0.001 C 
HETATM    7  C16 UNL     1       6.626  53.039  -9.126  1.00  0.00     0.013 C 
HETATM    8  C17 UNL     1       4.984  54.376  -7.451  1.00  0.00     0.097 C 
HETATM    9  C18 UNL     1       5.906  55.269  -6.632  1.00  0.00    -0.036 C 
HETATM   10  C19 UNL     1       7.227  55.089  -6.489  1.00  0.00     0.057 C 
HETATM   11  C20 UNL     1       8.091  56.108  -5.855  1.00  0.00     0.154 C 
HETATM   12  O5  UNL     1       9.290  55.856  -5.726  1.00  0.00    -0.293 OA
HETATM   13  C21 UNL     1       7.474  57.450  -5.471  1.00  0.00     0.071 C 
HETATM   14  C22 UNL     1       8.382  58.201  -4.481  1.00  0.00     0.045 C 
HETATM   15  C23 UNL     1       8.292  57.694  -3.037  1.00  0.00     0.119 C 
HETATM   16  C24 UNL     1       7.459  56.429  -2.865  1.00  0.00     0.032 C 
HETATM   17  C25 UNL     1       6.096  56.466  -3.566  1.00  0.00     0.013 C 
HETATM   18  C26 UNL     1       6.045  57.250  -4.923  1.00  0.00    -0.026 C 
HETATM   19  C27 UNL     1       5.387  58.624  -4.636  1.00  0.00     0.016 C 
HETATM   20  C28 UNL     1       5.166  56.444  -5.958  1.00  0.00     0.026 C 
HETATM   21  C29 UNL     1       4.448  57.277  -7.044  1.00  0.00     0.011 C 
HETATM   22  C30 UNL     1       3.501  56.407  -7.892  1.00  0.00     0.014 C 
HETATM   23  C31 UNL     1       4.241  55.221  -8.557  1.00  0.00    -0.002 C 
HETATM   24  C32 UNL     1       5.206  55.822  -9.606  1.00  0.00     0.019 C 
ENDROOT
BRANCH   1  25
HETATM   25  C8  UNL     1       2.409  54.357 -10.409  1.00  0.00     0.087 C 
HETATM   26  C9  UNL     1       2.588  55.813 -10.883  1.00  0.00     0.049 C 
BRANCH  25  27
HETATM   27  C7  UNL     1       0.958  53.952 -10.288  1.00  0.00     0.188 A 
HETATM   28  C6  UNL     1       0.047  53.631 -11.473  1.00  0.00     0.188 A 
HETATM   29  O2  UNL     1      -0.011  54.885 -10.777  1.00  0.00    -0.369 OA
BRANCH  28  30
HETATM   30  C4  UNL     1      -1.233  52.814 -11.406  1.00  0.00     0.086 C 
HETATM   31  C5  UNL     1      -0.981  51.346 -11.021  1.00  0.00     0.049 C 
BRANCH  30  32
HETATM   32  C2  UNL     1      -2.266  53.491 -10.440  1.00  0.00     0.014 C 
HETATM   33  C1  UNL     1      -2.417  52.750  -9.102  1.00  0.00     0.012 C 
HETATM   34  C3  UNL     1      -3.668  53.616 -11.060  1.00  0.00     0.012 C 
ENDBRANCH  30  32
BRANCH  30  35
HETATM   35  O1  UNL     1      -1.793  52.802 -12.727  1.00  0.00    -0.387 OA
HETATM   36  H11 UNL     1      -1.167  52.340 -13.313  1.00  0.00     0.210 HD
ENDBRANCH  30  35
ENDBRANCH  28  30
ENDBRANCH  25  27
BRANCH  25  37
HETATM   37  O3  UNL     1       2.967  53.526 -11.443  1.00  0.00    -0.387 OA
HETATM   38  H17 UNL     1       2.624  53.838 -12.297  1.00  0.00     0.210 HD
ENDBRANCH  25  37
ENDBRANCH   1  25
BRANCH   8  39
HETATM   39  O4  UNL     1       3.994  53.950  -6.477  1.00  0.00    -0.384 OA
HETATM   40  H29 UNL     1       4.471  53.560  -5.724  1.00  0.00     0.211 HD
ENDBRANCH   8  39
BRANCH  15  41
HETATM   41  O6  UNL     1       7.729  58.714  -2.209  1.00  0.00    -0.396 OA
HETATM   42  H35 UNL     1       8.347  59.468  -2.222  1.00  0.00     0.210 HD
ENDBRANCH  15  41
TORSDOF 8
ENDMDL
MODEL 2
REMARK minimizedAffinity -7.78907251
REMARK CNNscore 0.715043783
REMARK CNNaffinity 6.36817932
REMARK  8 active torsions:
REMARK  status: ('A' for Active; 'I' for Inactive)
REMARK    1  A    between atoms: C2_2  and  C4_4 
REMARK    2  A    between atoms: C4_4  and  O1_6 
REMARK    3  A    between atoms: C4_4  and  C6_7 
REMARK    4  A    between atoms: C7_9  and  C8_10 
REMARK    5  A    between atoms: C8_10  and  O3_12 
REMARK    6  A    between atoms: C8_10  and  C10_13 
REMARK    7  A    between atoms: C17_20  and  O4_21 
REMARK    8  A    between atoms: C23_28  and  O6_29 
ROOT
HETATM    1  C10 UNL     1      -9.372  46.931 -28.431  1.00  0.00     0.034 C 
HETATM    2  C11 UNL     1      -8.676  46.691 -27.060  1.00  0.00     0.021 C 
HETATM    3  C12 UNL     1      -9.777  46.239 -26.037  1.00  0.00    -0.004 C 
HETATM    4  C13 UNL     1      -9.273  45.086 -25.145  1.00  0.00     0.013 C 
HETATM    5  C14 UNL     1      -8.312  45.747 -24.172  1.00  0.00     0.001 C 
HETATM    6  C15 UNL     1      -8.909  47.117 -23.899  1.00  0.00     0.001 C 
HETATM    7  C16 UNL     1      -9.966  47.361 -24.988  1.00  0.00     0.013 C 
HETATM    8  C17 UNL     1     -10.957  45.836 -26.984  1.00  0.00     0.097 C 
HETATM    9  C18 UNL     1     -12.399  45.557 -26.583  1.00  0.00    -0.036 C 
HETATM   10  C19 UNL     1     -12.890  45.674 -25.341  1.00  0.00     0.057 C 
HETATM   11  C20 UNL     1     -14.341  45.591 -25.062  1.00  0.00     0.154 C 
HETATM   12  O5  UNL     1     -14.713  45.670 -23.890  1.00  0.00    -0.293 OA
HETATM   13  C21 UNL     1     -15.304  45.498 -26.241  1.00  0.00     0.071 C 
HETATM   14  C22 UNL     1     -16.689  45.015 -25.773  1.00  0.00     0.045 C 
HETATM   15  C23 UNL     1     -16.776  43.505 -25.522  1.00  0.00     0.119 C 
HETATM   16  C24 UNL     1     -15.440  42.774 -25.610  1.00  0.00     0.032 C 
HETATM   17  C25 UNL     1     -14.606  43.123 -26.847  1.00  0.00     0.013 C 
HETATM   18  C26 UNL     1     -14.715  44.603 -27.353  1.00  0.00    -0.026 C 
HETATM   19  C27 UNL     1     -15.651  44.600 -28.588  1.00  0.00     0.016 C 
HETATM   20  C28 UNL     1     -13.282  45.118 -27.771  1.00  0.00     0.026 C 
HETATM   21  C29 UNL     1     -13.238  46.210 -28.863  1.00  0.00     0.011 C 
HETATM   22  C30 UNL     1     -11.792  46.517 -29.299  1.00  0.00     0.014 C 
HETATM   23  C31 UNL     1     -10.904  46.945 -28.106  1.00  0.00    -0.002 C 
HETATM   24  C32 UNL     1     -11.427  48.318 -27.622  1.00  0.00     0.019 C 
ENDROOT
BRANCH   1  25
HETATM   25  C8  UNL     1      -8.696  47.981 -29.366  1.00  0.00     0.087 C 
HETATM   26  C9  UNL     1      -9.621  48.247 -30.571  1.00  0.00     0.049 C 
BRANCH  25  27
HETATM   27  C7  UNL     1      -7.275  47.670 -29.773  1.00  0.00     0.188 A 
HETATM   28  C6  UNL     1      -6.888  46.788 -30.960  1.00  0.00     0.188 A 
HETATM   29  O2  UNL     1      -6.842  46.317 -29.605  1.00  0.00    -0.369 OA
BRANCH  28  30
HETATM   30  C4  UNL     1      -5.543  46.800 -31.668  1.00  0.00     0.086 C 
HETATM   31  C5  UNL     1      -5.065  45.390 -32.057  1.00  0.00     0.049 C 
BRANCH  30  32
HETATM   32  C2  UNL     1      -5.585  47.755 -32.911  1.00  0.00     0.014 C 
HETATM   33  C1  UNL     1      -6.813  47.524 -33.808  1.00  0.00     0.012 C 
HETATM   34  C3  UNL     1      -4.335  47.632 -33.798  1.00  0.00     0.012 C 
ENDBRANCH  30  32
BRANCH  30  35
HETATM   35  O1  UNL     1      -4.582  47.318 -30.735  1.00  0.00    -0.387 OA
HETATM   36  H11 UNL     1      -4.527  46.696 -29.987  1.00  0.00     0.210 HD
ENDBRANCH  30  35
ENDBRANCH  28  30
ENDBRANCH  25  27
BRANCH  25  37
HETATM   37  O3  UNL     1      -8.636  49.214 -28.626  1.00  0.00    -0.387 OA
HETATM   38  H17 UNL     1      -8.470  49.935 -29.255  1.00  0.00     0.210 HD
ENDBRANCH  25  37
ENDBRANCH   1  25
BRANCH   8  39
HETATM   39  O4  UNL     1     -10.536  44.580 -27.581  1.00  0.00    -0.384 OA
HETATM   40  H29 UNL     1     -10.711  43.875 -26.933  1.00  0.00     0.211 HD
ENDBRANCH   8  39
BRANCH  15  41
HETATM   41  O6  UNL     1     -17.668  42.916 -26.471  1.00  0.00    -0.396 OA
HETATM   42  H35 UNL     1     -18.551  43.297 -26.310  1.00  0.00     0.210 HD
ENDBRANCH  15  41
TORSDOF 8
ENDMDL
MODEL 3
REMARK minimizedAffinity -7.77167654
REMARK CNNscore 0.658760428
REMARK CNNaffinity 6.232656
REMARK  8 active torsions:
REMARK  status: ('A' for Active; 'I' for Inactive)
REMARK    1  A    between atoms: C2_2  and  C4_4 
REMARK    2  A    between atoms: C4_4  and  O1_6 
REMARK    3  A    between atoms: C4_4  and  C6_7 
REMARK    4  A    between atoms: C7_9  and  C8_10 
REMARK    5  A    between atoms: C8_10  and  O3_12 
REMARK    6  A    between atoms: C8_10  and  C10_13 
REMARK    7  A    between atoms: C17_20  and  O4_21 
REMARK    8  A    between atoms: C23_28  and  O6_29 
ROOT
HETATM    1  C10 UNL     1     -11.020  45.946 -26.834  1.00  0.00     0.034 C 
HETATM    2  C11 UNL     1     -11.453  44.453 -26.764  1.00  0.00     0.021 C 
HETATM    3  C12 UNL     1     -11.517  43.905 -28.234  1.00  0.00    -0.004 C 
HETATM    4  C13 UNL     1     -10.917  42.487 -28.329  1.00  0.00     0.013 C 
HETATM    5  C14 UNL     1     -11.964  41.585 -27.701  1.00  0.00     0.001 C 
HETATM    6  C15 UNL     1     -13.297  42.201 -28.088  1.00  0.00     0.001 C 
HETATM    7  C16 UNL     1     -12.996  43.622 -28.591  1.00  0.00     0.013 C 
HETATM    8  C17 UNL     1     -10.707  44.989 -29.023  1.00  0.00     0.097 C 
HETATM    9  C18 UNL     1     -10.632  45.155 -30.534  1.00  0.00    -0.036 C 
HETATM   10  C19 UNL     1     -11.308  44.417 -31.426  1.00  0.00     0.057 C 
HETATM   11  C20 UNL     1     -11.349  44.769 -32.862  1.00  0.00     0.154 C 
HETATM   12  O5  UNL     1     -11.960  44.021 -33.627  1.00  0.00    -0.293 OA
HETATM   13  C21 UNL     1     -10.709  46.080 -33.309  1.00  0.00     0.071 C 
HETATM   14  C22 UNL     1     -10.484  46.083 -34.832  1.00  0.00     0.045 C 
HETATM   15  C23 UNL     1      -9.263  45.275 -35.289  1.00  0.00     0.119 C 
HETATM   16  C24 UNL     1      -8.590  44.472 -34.181  1.00  0.00     0.032 C 
HETATM   17  C25 UNL     1      -8.331  45.260 -32.893  1.00  0.00     0.013 C 
HETATM   18  C26 UNL     1      -9.406  46.341 -32.523  1.00  0.00    -0.026 C 
HETATM   19  C27 UNL     1      -8.819  47.723 -32.907  1.00  0.00     0.016 C 
HETATM   20  C28 UNL     1      -9.682  46.292 -30.969  1.00  0.00     0.026 C 
HETATM   21  C29 UNL     1     -10.140  47.613 -30.312  1.00  0.00     0.011 C 
HETATM   22  C30 UNL     1     -10.224  47.484 -28.779  1.00  0.00     0.014 C 
HETATM   23  C31 UNL     1     -11.168  46.337 -28.343  1.00  0.00    -0.002 C 
HETATM   24  C32 UNL     1     -12.602  46.754 -28.743  1.00  0.00     0.019 C 
ENDROOT
BRANCH   1  25
HETATM   25  C8  UNL     1     -11.522  46.857 -25.671  1.00  0.00     0.087 C 
HETATM   26  C9  UNL     1     -10.354  47.112 -24.696  1.00  0.00     0.049 C 
BRANCH  25  27
HETATM   27  C7  UNL     1     -12.779  46.390 -24.975  1.00  0.00     0.188 A 
HETATM   28  C6  UNL     1     -14.197  46.754 -25.415  1.00  0.00     0.188 A 
HETATM   29  O2  UNL     1     -13.549  47.392 -24.304  1.00  0.00    -0.369 OA
BRANCH  28  30
HETATM   30  C4  UNL     1     -15.458  45.986 -25.051  1.00  0.00     0.086 C 
HETATM   31  C5  UNL     1     -15.156  44.624 -24.403  1.00  0.00     0.049 C 
BRANCH  30  32
HETATM   32  C2  UNL     1     -16.390  46.860 -24.142  1.00  0.00     0.014 C 
HETATM   33  C1  UNL     1     -16.435  46.377 -22.683  1.00  0.00     0.012 C 
HETATM   34  C3  UNL     1     -17.838  46.918 -24.656  1.00  0.00     0.012 C 
ENDBRANCH  30  32
BRANCH  30  35
HETATM   35  O1  UNL     1     -16.152  45.713 -26.278  1.00  0.00    -0.387 OA
HETATM   36  H11 UNL     1     -15.587  45.132 -26.818  1.00  0.00     0.210 HD
ENDBRANCH  30  35
ENDBRANCH  28  30
ENDBRANCH  25  27
BRANCH  25  37
HETATM   37  O3  UNL     1     -11.842  48.133 -26.256  1.00  0.00    -0.387 OA
HETATM   38  H17 UNL     1     -11.901  48.786 -25.540  1.00  0.00     0.210 HD
ENDBRANCH  25  37
ENDBRANCH   1  25
BRANCH   8  39
HETATM   39  O4  UNL     1      -9.323  44.754 -28.651  1.00  0.00    -0.384 OA
HETATM   40  H29 UNL     1      -8.998  44.009 -29.187  1.00  0.00     0.211 HD
ENDBRANCH   8  39
BRANCH  15  41
HETATM   41  O6  UNL     1      -8.292  46.160 -35.851  1.00  0.00    -0.396 OA
HETATM   42  H35 UNL     1      -8.694  46.565 -36.641  1.00  0.00     0.210 HD
ENDBRANCH  15  41
TORSDOF 8
ENDMDL
MODEL 4
REMARK minimizedAffinity -8.68771458
REMARK CNNscore 0.654060841
REMARK CNNaffinity 6.61558008
REMARK  8 active torsions:
REMARK  status: ('A' for Active; 'I' for Inactive)
REMARK    1  A    between atoms: C2_2  and  C4_4 
REMARK    2  A    between atoms: C4_4  and  O1_6 
REMARK    3  A    between atoms: C4_4  and  C6_7 
REMARK    4  A    between atoms: C7_9  and  C8_10 
REMARK    5  A    between atoms: C8_10  and  O3_12 
REMARK    6  A    between atoms: C8_10  and  C10_13 
REMARK    7  A    between atoms: C17_20  and  O4_21 
REMARK    8  A    between atoms: C23_28  and  O6_29 
ROOT
HETATM    1  C10 UNL     1      -6.636  46.588 -29.815  1.00  0.00     0.034 C 
HETATM    2  C11 UNL     1      -8.129  46.332 -29.460  1.00  0.00     0.021 C 
HETATM    3  C12 UNL     1      -8.668  45.220 -30.429  1.00  0.00    -0.004 C 
HETATM    4  C13 UNL     1      -9.554  44.205 -29.680  1.00  0.00     0.013 C 
HETATM    5  C14 UNL     1     -10.857  44.946 -29.431  1.00  0.00     0.001 C 
HETATM    6  C15 UNL     1     -11.051  45.822 -30.656  1.00  0.00     0.001 C 
HETATM    7  C16 UNL     1      -9.700  45.860 -31.388  1.00  0.00     0.013 C 
HETATM    8  C17 UNL     1      -7.341  44.607 -30.991  1.00  0.00     0.097 C 
HETATM    9  C18 UNL     1      -7.201  43.657 -32.173  1.00  0.00    -0.036 C 
HETATM   10  C19 UNL     1      -8.208  43.245 -32.955  1.00  0.00     0.057 C 
HETATM   11  C20 UNL     1      -7.970  42.493 -34.207  1.00  0.00     0.154 C 
HETATM   12  O5  UNL     1      -8.948  42.115 -34.854  1.00  0.00    -0.293 OA
HETATM   13  C21 UNL     1      -6.531  42.298 -34.677  1.00  0.00     0.071 C 
HETATM   14  C22 UNL     1      -6.451  41.178 -35.730  1.00  0.00     0.045 C 
HETATM   15  C23 UNL     1      -6.502  39.762 -35.145  1.00  0.00     0.119 C 
HETATM   16  C24 UNL     1      -6.797  39.707 -33.650  1.00  0.00     0.032 C 
HETATM   17  C25 UNL     1      -5.958  40.669 -32.802  1.00  0.00     0.013 C 
HETATM   18  C26 UNL     1      -5.599  42.041 -33.473  1.00  0.00    -0.026 C 
HETATM   19  C27 UNL     1      -4.127  41.950 -33.948  1.00  0.00     0.016 C 
HETATM   20  C28 UNL     1      -5.745  43.197 -32.407  1.00  0.00     0.026 C 
HETATM   21  C29 UNL     1      -4.850  44.439 -32.616  1.00  0.00     0.011 C 
HETATM   22  C30 UNL     1      -4.963  45.422 -31.435  1.00  0.00     0.014 C 
HETATM   23  C31 UNL     1      -6.423  45.874 -31.193  1.00  0.00    -0.002 C 
HETATM   24  C32 UNL     1      -6.839  46.732 -32.411  1.00  0.00     0.019 C 
ENDROOT
BRANCH   1  25
HETATM   25  C8  UNL     1      -6.098  48.019 -29.511  1.00  0.00     0.087 C 
HETATM   26  C9  UNL     1      -5.507  48.616 -30.805  1.00  0.00     0.049 C 
BRANCH  25  27
HETATM   27  C7  UNL     1      -5.158  48.125 -28.332  1.00  0.00     0.188 A 
HETATM   28  C6  UNL     1      -4.097  49.213 -28.166  1.00  0.00     0.188 A 
HETATM   29  O2  UNL     1      -3.772  47.882 -28.594  1.00  0.00    -0.369 OA
BRANCH  28  30
HETATM   30  C4  UNL     1      -3.455  49.626 -26.851  1.00  0.00     0.086 C 
HETATM   31  C5  UNL     1      -2.605  48.504 -26.230  1.00  0.00     0.049 C 
BRANCH  30  32
HETATM   32  C2  UNL     1      -2.622  50.941 -27.036  1.00  0.00     0.014 C 
HETATM   33  C1  UNL     1      -1.126  50.756 -26.736  1.00  0.00     0.012 C 
HETATM   34  C3  UNL     1      -3.131  52.096 -26.157  1.00  0.00     0.012 C 
ENDBRANCH  30  32
BRANCH  30  35
HETATM   35  O1  UNL     1      -4.521  49.893 -25.929  1.00  0.00    -0.387 OA
HETATM   36  H11 UNL     1      -5.006  49.061 -25.783  1.00  0.00     0.210 HD
ENDBRANCH  30  35
ENDBRANCH  28  30
ENDBRANCH  25  27
BRANCH  25  37
HETATM   37  O3  UNL     1      -7.241  48.828 -29.181  1.00  0.00    -0.387 OA
HETATM   38  H17 UNL     1      -6.979  49.762 -29.246  1.00  0.00     0.210 HD
ENDBRANCH  25  37
ENDBRANCH   1  25
BRANCH   8  39
HETATM   39  O4  UNL     1      -6.797  43.835 -29.887  1.00  0.00    -0.384 OA
HETATM   40  H29 UNL     1      -7.272  42.986 -29.861  1.00  0.00     0.211 HD
ENDBRANCH   8  39
BRANCH  15  41
HETATM   41  O6  UNL     1      -5.252  39.107 -35.376  1.00  0.00    -0.396 OA
HETATM   42  H35 UNL     1      -5.143  39.028 -36.342  1.00  0.00     0.210 HD
ENDBRANCH  15  41
TORSDOF 8
ENDMDL
MODEL 5
REMARK minimizedAffinity -10.3842936
REMARK CNNscore 0.649376988
REMARK CNNaffinity 7.57447243
REMARK  8 active torsions:
REMARK  status: ('A' for Active; 'I' for Inactive)
REMARK    1  A    between atoms: C2_2  and  C4_4 
REMARK    2  A    between atoms: C4_4  and  O1_6 
REMARK    3  A    between atoms: C4_4  and  C6_7 
REMARK    4  A    between atoms: C7_9  and  C8_10 
REMARK    5  A    between atoms: C8_10  and  O3_12 
REMARK    6  A    between atoms: C8_10  and  C10_13 
REMARK    7  A    between atoms: C17_20  and  O4_21 
REMARK    8  A    between atoms: C23_28  and  O6_29 
ROOT
HETATM    1  C10 UNL     1      -3.375  50.235 -24.019  1.00  0.00     0.034 C 
HETATM    2  C11 UNL     1      -4.875  49.847 -23.875  1.00  0.00     0.021 C 
HETATM    3  C12 UNL     1      -5.103  49.353 -22.403  1.00  0.00    -0.004 C 
HETATM    4  C13 UNL     1      -6.423  49.902 -21.825  1.00  0.00     0.013 C 
HETATM    5  C14 UNL     1      -7.508  49.090 -22.511  1.00  0.00     0.001 C 
HETATM    6  C15 UNL     1      -6.917  47.700 -22.671  1.00  0.00     0.001 C 
HETATM    7  C16 UNL     1      -5.405  47.835 -22.433  1.00  0.00     0.013 C 
HETATM    8  C17 UNL     1      -3.823  49.890 -21.677  1.00  0.00     0.097 C 
HETATM    9  C18 UNL     1      -3.335  49.514 -20.284  1.00  0.00    -0.036 C 
HETATM   10  C19 UNL     1      -3.913  48.607 -19.484  1.00  0.00     0.057 C 
HETATM   11  C20 UNL     1      -3.267  48.142 -18.236  1.00  0.00     0.154 C 
HETATM   12  O5  UNL     1      -3.876  47.334 -17.532  1.00  0.00    -0.293 OA
HETATM   13  C21 UNL     1      -1.851  48.618 -17.928  1.00  0.00     0.071 C 
HETATM   14  C22 UNL     1      -1.510  48.381 -16.445  1.00  0.00     0.045 C 
HETATM   15  C23 UNL     1      -2.117  49.415 -15.489  1.00  0.00     0.119 C 
HETATM   16  C24 UNL     1      -3.088  50.389 -16.147  1.00  0.00     0.032 C 
HETATM   17  C25 UNL     1      -2.576  51.014 -17.449  1.00  0.00     0.013 C 
HETATM   18  C26 UNL     1      -1.673  50.094 -18.343  1.00  0.00    -0.026 C 
HETATM   19  C27 UNL     1      -0.204  50.537 -18.125  1.00  0.00     0.016 C 
HETATM   20  C28 UNL     1      -2.070  50.290 -19.859  1.00  0.00     0.026 C 
HETATM   21  C29 UNL     1      -0.953  50.042 -20.897  1.00  0.00     0.011 C 
HETATM   22  C30 UNL     1      -1.409  50.416 -22.321  1.00  0.00     0.014 C 
HETATM   23  C31 UNL     1      -2.685  49.647 -22.742  1.00  0.00    -0.002 C 
HETATM   24  C32 UNL     1      -2.292  48.157 -22.876  1.00  0.00     0.019 C 
ENDROOT
BRANCH   1  25
HETATM   25  C8  UNL     1      -2.768  50.097 -25.449  1.00  0.00     0.087 C 
HETATM   26  C9  UNL     1      -2.906  48.633 -25.912  1.00  0.00     0.049 C 
BRANCH  25  27
HETATM   27  C7  UNL     1      -1.366  50.637 -25.615  1.00  0.00     0.188 A 
HETATM   28  C6  UNL     1      -1.029  51.988 -26.245  1.00  0.00     0.188 A 
HETATM   29  O2  UNL     1      -0.878  50.749 -26.955  1.00  0.00    -0.369 OA
BRANCH  28  30
HETATM   30  C4  UNL     1       0.266  52.759 -26.042  1.00  0.00     0.086 C 
HETATM   31  C5  UNL     1       0.766  52.703 -24.588  1.00  0.00     0.049 C 
BRANCH  30  32
HETATM   32  C2  UNL     1       1.364  52.263 -27.045  1.00  0.00     0.014 C 
HETATM   33  C1  UNL     1       0.783  51.776 -28.383  1.00  0.00     0.012 C 
HETATM   34  C3  UNL     1       2.223  51.123 -26.472  1.00  0.00     0.012 C 
ENDBRANCH  30  32
BRANCH  30  35
HETATM   35  O1  UNL     1      -0.016  54.137 -26.327  1.00  0.00    -0.387 OA
HETATM   36  H11 UNL     1      -0.664  54.451 -25.671  1.00  0.00     0.210 HD
ENDBRANCH  30  35
ENDBRANCH  28  30
ENDBRANCH  25  27
BRANCH  25  37
HETATM   37  O3  UNL     1      -3.600  50.877 -26.327  1.00  0.00    -0.387 OA
HETATM   38  H17 UNL     1      -3.412  50.603 -27.240  1.00  0.00     0.210 HD
ENDBRANCH  25  37
ENDBRANCH   1  25
BRANCH   8  39
HETATM   39  O4  UNL     1      -4.035  51.323 -21.572  1.00  0.00    -0.384 OA
HETATM   40  H29 UNL     1      -4.626  51.477 -20.814  1.00  0.00     0.211 HD
ENDBRANCH   8  39
BRANCH  15  41
HETATM   41  O6  UNL     1      -1.068  50.175 -14.883  1.00  0.00    -0.396 OA
HETATM   42  H35 UNL     1      -0.533  49.555 -14.353  1.00  0.00     0.210 HD
ENDBRANCH  15  41
TORSDOF 8
ENDMDL
MODEL 6
REMARK minimizedAffinity -7.96061993
REMARK CNNscore 0.593913198
REMARK CNNaffinity 6.42468786
REMARK  8 active torsions:
REMARK  status: ('A' for Active; 'I' for Inactive)
REMARK    1  A    between atoms: C2_2  and  C4_4 
REMARK    2  A    between atoms: C4_4  and  O1_6 
REMARK    3  A    between atoms: C4_4  and  C6_7 
REMARK    4  A    between atoms: C7_9  and  C8_10 
REMARK    5  A    between atoms: C8_10  and  O3_12 
REMARK    6  A    between atoms: C8_10  and  C10_13 
REMARK    7  A    between atoms: C17_20  and  O4_21 
REMARK    8  A    between atoms: C23_28  and  O6_29 
ROOT
HETATM    1  C10 UNL     1       1.200  52.719 -10.598  1.00  0.00     0.034 C 
HETATM    2  C11 UNL     1       2.607  53.344 -10.820  1.00  0.00     0.021 C 
HETATM    3  C12 UNL     1       2.848  54.397  -9.680  1.00  0.00    -0.004 C 
HETATM    4  C13 UNL     1       4.287  54.309  -9.132  1.00  0.00     0.013 C 
HETATM    5  C14 UNL     1       5.147  54.940 -10.214  1.00  0.00     0.001 C 
HETATM    6  C15 UNL     1       4.296  56.060 -10.789  1.00  0.00     0.001 C 
HETATM    7  C16 UNL     1       2.858  55.811 -10.307  1.00  0.00     0.013 C 
HETATM    8  C17 UNL     1       1.749  54.003  -8.635  1.00  0.00     0.097 C 
HETATM    9  C18 UNL     1       1.306  54.813  -7.424  1.00  0.00    -0.036 C 
HETATM   10  C19 UNL     1       1.762  56.032  -7.103  1.00  0.00     0.057 C 
HETATM   11  C20 UNL     1       1.137  56.844  -6.036  1.00  0.00     0.154 C 
HETATM   12  O5  UNL     1       1.635  57.940  -5.772  1.00  0.00    -0.293 OA
HETATM   13  C21 UNL     1      -0.138  56.326  -5.378  1.00  0.00     0.071 C 
HETATM   14  C22 UNL     1      -0.405  57.064  -4.054  1.00  0.00     0.045 C 
HETATM   15  C23 UNL     1       0.454  56.579  -2.880  1.00  0.00     0.119 C 
HETATM   16  C24 UNL     1       1.538  55.578  -3.265  1.00  0.00     0.032 C 
HETATM   17  C25 UNL     1       1.055  54.432  -4.160  1.00  0.00     0.013 C 
HETATM   18  C26 UNL     1      -0.068  54.795  -5.193  1.00  0.00    -0.026 C 
HETATM   19  C27 UNL     1      -1.407  54.263  -4.623  1.00  0.00     0.016 C 
HETATM   20  C28 UNL     1       0.243  54.088  -6.570  1.00  0.00     0.026 C 
HETATM   21  C29 UNL     1      -0.975  53.752  -7.459  1.00  0.00     0.011 C 
HETATM   22  C30 UNL     1      -0.565  52.927  -8.694  1.00  0.00     0.014 C 
HETATM   23  C31 UNL     1       0.509  53.649  -9.544  1.00  0.00    -0.002 C 
HETATM   24  C32 UNL     1      -0.165  54.898 -10.159  1.00  0.00     0.019 C 
ENDROOT
BRANCH   1  25
HETATM   25  C8  UNL     1       0.471  52.205 -11.878  1.00  0.00     0.087 C 
HETATM   26  C9  UNL     1      -0.315  50.926 -11.526  1.00  0.00     0.049 C 
BRANCH  25  27
HETATM   27  C7  UNL     1       1.344  52.042 -13.101  1.00  0.00     0.188 A 
HETATM   28  C6  UNL     1       0.820  51.706 -14.498  1.00  0.00     0.188 A 
HETATM   29  O2  UNL     1       1.436  50.724 -13.651  1.00  0.00    -0.369 OA
BRANCH  28  30
HETATM   30  C4  UNL     1       1.558  51.962 -15.803  1.00  0.00     0.086 C 
HETATM   31  C5  UNL     1       3.082  51.803 -15.662  1.00  0.00     0.049 C 
BRANCH  30  32
HETATM   32  C2  UNL     1       0.989  51.051 -16.944  1.00  0.00     0.014 C 
HETATM   33  C1  UNL     1       0.067  51.805 -17.915  1.00  0.00     0.012 C 
HETATM   34  C3  UNL     1       0.205  49.842 -16.405  1.00  0.00     0.012 C 
ENDBRANCH  30  32
BRANCH  30  35
HETATM   35  O1  UNL     1       1.319  53.332 -16.158  1.00  0.00    -0.387 OA
HETATM   36  H11 UNL     1       1.715  53.894 -15.467  1.00  0.00     0.210 HD
ENDBRANCH  30  35
ENDBRANCH  28  30
ENDBRANCH  25  27
BRANCH  25  37
HETATM   37  O3  UNL     1      -0.511  53.200 -12.221  1.00  0.00    -0.387 OA
HETATM   38  H17 UNL     1      -1.144  52.797 -12.838  1.00  0.00     0.210 HD
ENDBRANCH  25  37
ENDBRANCH   1  25
BRANCH   8  39
HETATM   39  O4  UNL     1       2.233  52.769  -8.042  1.00  0.00    -0.384 OA
HETATM   40  H29 UNL     1       2.897  53.006  -7.371  1.00  0.00     0.211 HD
ENDBRANCH   8  39
BRANCH  15  41
HETATM   41  O6  UNL     1      -0.386  55.970  -1.897  1.00  0.00    -0.396 OA
HETATM   42  H35 UNL     1      -0.985  56.662  -1.562  1.00  0.00     0.210 HD
ENDBRANCH  15  41
TORSDOF 8
ENDMDL
MODEL 7
REMARK minimizedAffinity -8.90706348
REMARK CNNscore 0.52324295
REMARK CNNaffinity 7.21277285
REMARK  8 active torsions:
REMARK  status: ('A' for Active; 'I' for Inactive)
REMARK    1  A    between atoms: C2_2  and  C4_4 
REMARK    2  A    between atoms: C4_4  and  O1_6 
REMARK    3  A    between atoms: C4_4  and  C6_7 
REMARK    4  A    between atoms: C7_9  and  C8_10 
REMARK    5  A    between atoms: C8_10  and  O3_12 
REMARK    6  A    between atoms: C8_10  and  C10_13 
REMARK    7  A    between atoms: C17_20  and  O4_21 
REMARK    8  A    between atoms: C23_28  and  O6_29 
ROOT
HETATM    1  C10 UNL     1      -1.728  51.164 -20.954  1.00  0.00     0.034 C 
HETATM    2  C11 UNL     1      -2.621  50.920 -22.204  1.00  0.00     0.021 C 
HETATM    3  C12 UNL     1      -3.356  49.547 -22.008  1.00  0.00    -0.004 C 
HETATM    4  C13 UNL     1      -4.831  49.632 -22.450  1.00  0.00     0.013 C 
HETATM    5  C14 UNL     1      -4.775  49.648 -23.968  1.00  0.00     0.001 C 
HETATM    6  C15 UNL     1      -3.610  48.743 -24.328  1.00  0.00     0.001 C 
HETATM    7  C16 UNL     1      -2.798  48.537 -23.039  1.00  0.00     0.013 C 
HETATM    8  C17 UNL     1      -3.169  49.294 -20.473  1.00  0.00     0.097 C 
HETATM    9  C18 UNL     1      -3.439  47.998 -19.720  1.00  0.00    -0.036 C 
HETATM   10  C19 UNL     1      -3.829  46.846 -20.283  1.00  0.00     0.057 C 
HETATM   11  C20 UNL     1      -3.869  45.578 -19.521  1.00  0.00     0.154 C 
HETATM   12  O5  UNL     1      -4.275  44.566 -20.097  1.00  0.00    -0.293 OA
HETATM   13  C21 UNL     1      -3.328  45.568 -18.095  1.00  0.00     0.071 C 
HETATM   14  C22 UNL     1      -3.814  44.318 -17.339  1.00  0.00     0.045 C 
HETATM   15  C23 UNL     1      -5.261  44.410 -16.840  1.00  0.00     0.119 C 
HETATM   16  C24 UNL     1      -6.019  45.641 -17.326  1.00  0.00     0.032 C 
HETATM   17  C25 UNL     1      -5.253  46.959 -17.171  1.00  0.00     0.013 C 
HETATM   18  C26 UNL     1      -3.699  46.877 -17.366  1.00  0.00    -0.026 C 
HETATM   19  C27 UNL     1      -3.056  46.903 -15.956  1.00  0.00     0.016 C 
HETATM   20  C28 UNL     1      -3.211  48.127 -18.198  1.00  0.00     0.026 C 
HETATM   21  C29 UNL     1      -1.761  48.597 -17.943  1.00  0.00     0.011 C 
HETATM   22  C30 UNL     1      -1.453  49.911 -18.687  1.00  0.00     0.014 C 
HETATM   23  C31 UNL     1      -1.693  49.785 -20.211  1.00  0.00    -0.002 C 
HETATM   24  C32 UNL     1      -0.626  48.808 -20.758  1.00  0.00     0.019 C 
ENDROOT
BRANCH   1  25
HETATM   25  C8  UNL     1      -0.454  52.033 -21.183  1.00  0.00     0.087 C 
HETATM   26  C9  UNL     1      -0.201  52.891 -19.927  1.00  0.00     0.049 C 
BRANCH  25  27
HETATM   27  C7  UNL     1      -0.439  52.841 -22.460  1.00  0.00     0.188 A 
HETATM   28  C6  UNL     1       0.111  52.338 -23.795  1.00  0.00     0.188 A 
HETATM   29  O2  UNL     1       0.845  53.239 -22.952  1.00  0.00    -0.369 OA
BRANCH  28  30
HETATM   30  C4  UNL     1      -0.239  52.902 -25.163  1.00  0.00     0.086 C 
HETATM   31  C5  UNL     1       0.255  54.347 -25.352  1.00  0.00     0.049 C 
BRANCH  30  32
HETATM   32  C2  UNL     1       0.293  51.960 -26.298  1.00  0.00     0.014 C 
HETATM   33  C1  UNL     1      -0.487  50.640 -26.403  1.00  0.00     0.012 C 
HETATM   34  C3  UNL     1       1.780  51.607 -26.129  1.00  0.00     0.012 C 
ENDBRANCH  30  32
BRANCH  30  35
HETATM   35  O1  UNL     1      -1.672  52.943 -25.246  1.00  0.00    -0.387 OA
HETATM   36  H11 UNL     1      -1.993  53.565 -24.568  1.00  0.00     0.210 HD
ENDBRANCH  30  35
ENDBRANCH  28  30
ENDBRANCH  25  27
BRANCH  25  37
HETATM   37  O3  UNL     1       0.656  51.121 -21.277  1.00  0.00    -0.387 OA
HETATM   38  H17 UNL     1       1.475  51.630 -21.155  1.00  0.00     0.210 HD
ENDBRANCH  25  37
ENDBRANCH   1  25
BRANCH   8  39
HETATM   39  O4  UNL     1      -4.072  50.236 -19.834  1.00  0.00    -0.384 OA
HETATM   40  H29 UNL     1      -4.966  49.855 -19.868  1.00  0.00     0.211 HD
ENDBRANCH   8  39
BRANCH  15  41
HETATM   41  O6  UNL     1      -5.271  44.417 -15.410  1.00  0.00    -0.396 OA
HETATM   42  H35 UNL     1      -4.907  43.562 -15.116  1.00  0.00     0.210 HD
ENDBRANCH  15  41
TORSDOF 8
ENDMDL
MODEL 8
REMARK minimizedAffinity -7.84054422
REMARK CNNscore 0.494814873
REMARK CNNaffinity 6.25889397
REMARK  8 active torsions:
REMARK  status: ('A' for Active; 'I' for Inactive)
REMARK    1  A    between atoms: C2_2  and  C4_4 
REMARK    2  A    between atoms: C4_4  and  O1_6 
REMARK    3  A    between atoms: C4_4  and  C6_7 
REMARK    4  A    between atoms: C7_9  and  C8_10 
REMARK    5  A    between atoms: C8_10  and  O3_12 
REMARK    6  A    between atoms: C8_10  and  C10_13 
REMARK    7  A    between atoms: C17_20  and  O4_21 
REMARK    8  A    between atoms: C23_28  and  O6_29 
ROOT
HETATM    1  C10 UNL     1      -7.049  46.695 -29.897  1.00  0.00     0.034 C 
HETATM    2  C11 UNL     1      -8.379  47.129 -29.216  1.00  0.00     0.021 C 
HETATM    3  C12 UNL     1      -9.550  46.351 -29.916  1.00  0.00    -0.004 C 
HETATM    4  C13 UNL     1     -10.579  45.843 -28.886  1.00  0.00     0.013 C 
HETATM    5  C14 UNL     1     -11.346  47.085 -28.466  1.00  0.00     0.001 C 
HETATM    6  C15 UNL     1     -11.432  47.936 -29.721  1.00  0.00     0.001 C 
HETATM    7  C16 UNL     1     -10.408  47.363 -30.713  1.00  0.00     0.013 C 
HETATM    8  C17 UNL     1      -8.782  45.207 -30.660  1.00  0.00     0.097 C 
HETATM    9  C18 UNL     1      -9.341  44.272 -31.725  1.00  0.00    -0.036 C 
HETATM   10  C19 UNL     1     -10.581  44.331 -32.229  1.00  0.00     0.057 C 
HETATM   11  C20 UNL     1     -10.987  43.529 -33.405  1.00  0.00     0.154 C 
HETATM   12  O5  UNL     1     -12.155  43.609 -33.788  1.00  0.00    -0.293 OA
HETATM   13  C21 UNL     1      -9.922  42.714 -34.132  1.00  0.00     0.071 C 
HETATM   14  C22 UNL     1     -10.575  41.654 -35.038  1.00  0.00     0.045 C 
HETATM   15  C23 UNL     1     -11.082  40.415 -34.291  1.00  0.00     0.119 C 
HETATM   16  C24 UNL     1     -11.011  40.522 -32.772  1.00  0.00     0.032 C 
HETATM   17  C25 UNL     1      -9.669  41.031 -32.234  1.00  0.00     0.013 C 
HETATM   18  C26 UNL     1      -8.932  42.093 -33.123  1.00  0.00    -0.026 C 
HETATM   19  C27 UNL     1      -7.795  41.356 -33.874  1.00  0.00     0.016 C 
HETATM   20  C28 UNL     1      -8.319  43.214 -32.194  1.00  0.00     0.026 C 
HETATM   21  C29 UNL     1      -7.059  43.931 -32.727  1.00  0.00     0.011 C 
HETATM   22  C30 UNL     1      -6.462  44.885 -31.674  1.00  0.00     0.014 C 
HETATM   23  C31 UNL     1      -7.490  45.937 -31.195  1.00  0.00    -0.002 C 
HETATM   24  C32 UNL     1      -7.777  46.870 -32.395  1.00  0.00     0.019 C 
ENDROOT
BRANCH   1  25
HETATM   25  C8  UNL     1      -5.899  47.749 -29.883  1.00  0.00     0.087 C 
HETATM   26  C9  UNL     1      -4.970  47.493 -31.086  1.00  0.00     0.049 C 
BRANCH  25  27
HETATM   27  C7  UNL     1      -5.149  47.876 -28.577  1.00  0.00     0.188 A 
HETATM   28  C6  UNL     1      -4.169  49.002 -28.248  1.00  0.00     0.188 A 
HETATM   29  O2  UNL     1      -3.731  47.689 -28.632  1.00  0.00    -0.369 OA
BRANCH  28  30
HETATM   30  C4  UNL     1      -3.744  49.423 -26.850  1.00  0.00     0.086 C 
HETATM   31  C5  UNL     1      -2.680  48.488 -26.248  1.00  0.00     0.049 C 
BRANCH  30  32
HETATM   32  C2  UNL     1      -3.264  50.915 -26.848  1.00  0.00     0.014 C 
HETATM   33  C1  UNL     1      -1.780  51.072 -27.218  1.00  0.00     0.012 C 
HETATM   34  C3  UNL     1      -3.478  51.607 -25.491  1.00  0.00     0.012 C 
ENDBRANCH  30  32
BRANCH  30  35
HETATM   35  O1  UNL     1      -4.904  49.321 -26.011  1.00  0.00    -0.387 OA
HETATM   36  H11 UNL     1      -5.169  48.384 -25.980  1.00  0.00     0.210 HD
ENDBRANCH  30  35
ENDBRANCH  28  30
ENDBRANCH  25  27
BRANCH  25  37
HETATM   37  O3  UNL     1      -6.512  49.031 -30.114  1.00  0.00    -0.387 OA
HETATM   38  H17 UNL     1      -5.814  49.656 -30.370  1.00  0.00     0.210 HD
ENDBRANCH  25  37
ENDBRANCH   1  25
BRANCH   8  39
HETATM   39  O4  UNL     1      -8.374  44.294 -29.607  1.00  0.00    -0.384 OA
HETATM   40  H29 UNL     1      -9.142  43.740 -29.384  1.00  0.00     0.211 HD
ENDBRANCH   8  39
BRANCH  15  41
HETATM   41  O6  UNL     1     -10.321  39.274 -34.693  1.00  0.00    -0.396 OA
HETATM   42  H35 UNL     1     -10.487  39.138 -35.644  1.00  0.00     0.210 HD
ENDBRANCH  15  41
TORSDOF 8
ENDMDL
MODEL 9
REMARK minimizedAffinity -8.68280315
REMARK CNNscore 0.445111096
REMARK CNNaffinity 6.61487436
REMARK  8 active torsions:
REMARK  status: ('A' for Active; 'I' for Inactive)
REMARK    1  A    between atoms: C2_2  and  C4_4 
REMARK    2  A    between atoms: C4_4  and  O1_6 
REMARK    3  A    between atoms: C4_4  and  C6_7 
REMARK    4  A    between atoms: C7_9  and  C8_10 
REMARK    5  A    between atoms: C8_10  and  O3_12 
REMARK    6  A    between atoms: C8_10  and  C10_13 
REMARK    7  A    between atoms: C17_20  and  O4_21 
REMARK    8  A    between atoms: C23_28  and  O6_29 
ROOT
HETATM    1  C10 UNL     1       1.861  52.772 -11.481  1.00  0.00     0.034 C 
HETATM    2  C11 UNL     1       0.339  53.084 -11.396  1.00  0.00     0.021 C 
HETATM    3  C12 UNL     1       0.096  53.926 -10.093  1.00  0.00    -0.004 C 
HETATM    4  C13 UNL     1      -0.897  55.078 -10.348  1.00  0.00     0.013 C 
HETATM    5  C14 UNL     1      -2.253  54.401 -10.442  1.00  0.00     0.001 C 
HETATM    6  C15 UNL     1      -2.190  53.255  -9.446  1.00  0.00     0.001 C 
HETATM    7  C16 UNL     1      -0.707  53.063  -9.091  1.00  0.00     0.013 C 
HETATM    8  C17 UNL     1       1.544  54.406  -9.739  1.00  0.00     0.097 C 
HETATM    9  C18 UNL     1       2.003  55.049  -8.437  1.00  0.00    -0.036 C 
HETATM   10  C19 UNL     1       1.229  55.250  -7.362  1.00  0.00     0.057 C 
HETATM   11  C20 UNL     1       1.790  55.685  -6.064  1.00  0.00     0.154 C 
HETATM   12  O5  UNL     1       1.011  55.885  -5.131  1.00  0.00    -0.293 OA
HETATM   13  C21 UNL     1       3.306  55.781  -5.923  1.00  0.00     0.071 C 
HETATM   14  C22 UNL     1       3.683  56.620  -4.688  1.00  0.00     0.045 C 
HETATM   15  C23 UNL     1       3.559  58.134  -4.894  1.00  0.00     0.119 C 
HETATM   16  C24 UNL     1       2.921  58.539  -6.219  1.00  0.00     0.032 C 
HETATM   17  C25 UNL     1       3.492  57.818  -7.445  1.00  0.00     0.013 C 
HETATM   18  C26 UNL     1       3.937  56.330  -7.220  1.00  0.00    -0.026 C 
HETATM   19  C27 UNL     1       5.483  56.325  -7.106  1.00  0.00     0.016 C 
HETATM   20  C28 UNL     1       3.492  55.460  -8.460  1.00  0.00     0.026 C 
HETATM   21  C29 UNL     1       4.354  54.216  -8.770  1.00  0.00     0.011 C 
HETATM   22  C30 UNL     1       3.921  53.540 -10.085  1.00  0.00     0.014 C 
HETATM   23  C31 UNL     1       2.426  53.139 -10.067  1.00  0.00    -0.002 C 
HETATM   24  C32 UNL     1       2.273  52.010  -9.021  1.00  0.00     0.019 C 
ENDROOT
BRANCH   1  25
HETATM   25  C8  UNL     1       2.248  51.460 -12.232  1.00  0.00     0.087 C 
HETATM   26  C9  UNL     1       3.343  50.729 -11.430  1.00  0.00     0.049 C 
BRANCH  25  27
HETATM   27  C7  UNL     1       2.600  51.627 -13.692  1.00  0.00     0.188 A 
HETATM   28  C6  UNL     1       1.584  51.612 -14.834  1.00  0.00     0.188 A 
HETATM   29  O2  UNL     1       2.415  50.482 -14.530  1.00  0.00    -0.369 OA
BRANCH  28  30
HETATM   30  C4  UNL     1       1.803  52.200 -16.219  1.00  0.00     0.086 C 
HETATM   31  C5  UNL     1       3.292  52.280 -16.599  1.00  0.00     0.049 C 
BRANCH  30  32
HETATM   32  C2  UNL     1       0.979  51.406 -17.290  1.00  0.00     0.014 C 
HETATM   33  C1  UNL     1       0.414  52.302 -18.404  1.00  0.00     0.012 C 
HETATM   34  C3  UNL     1      -0.199  50.629 -16.678  1.00  0.00     0.012 C 
ENDBRANCH  30  32
BRANCH  30  35
HETATM   35  O1  UNL     1       1.315  53.550 -16.184  1.00  0.00    -0.387 OA
HETATM   36  H11 UNL     1       1.861  54.049 -15.551  1.00  0.00     0.210 HD
ENDBRANCH  30  35
ENDBRANCH  28  30
ENDBRANCH  25  27
BRANCH  25  37
HETATM   37  O3  UNL     1       1.088  50.608 -12.198  1.00  0.00    -0.387 OA
HETATM   38  H17 UNL     1       1.372  49.705 -12.415  1.00  0.00     0.210 HD
ENDBRANCH  25  37
ENDBRANCH   1  25
BRANCH   8  39
HETATM   39  O4  UNL     1       1.845  55.425 -10.730  1.00  0.00    -0.384 OA
HETATM   40  H29 UNL     1       1.416  56.250 -10.441  1.00  0.00     0.211 HD
ENDBRANCH   8  39
BRANCH  15  41
HETATM   41  O6  UNL     1       4.856  58.731  -4.825  1.00  0.00    -0.396 OA
HETATM   42  H35 UNL     1       5.194  58.580  -3.923  1.00  0.00     0.210 HD
ENDBRANCH  15  41
TORSDOF 8
ENDMDL
