MODEL 1
REMARK minimizedAffinity -7.90214634
REMARK CNNscore 0.512997925
REMARK CNNaffinity 6.78882074
REMARK  19 active torsions:
REMARK  status: ('A' for Active; 'I' for Inactive)
REMARK    1  A    between atoms: O1_2  and  C2_3 
REMARK    2  A    between atoms: C2_3  and  C3_4 
REMARK    3  A    between atoms: C2_3  and  C28_36 
REMARK    4  A    between atoms: C3_4  and  C4_5 
REMARK    5  A    between atoms: C4_5  and  C6_7 
REMARK    6  A    between atoms: C6_7  and  O2_8 
REMARK    7  A    between atoms: C6_7  and  C7_9 
REMARK    8  A    between atoms: C8_10  and  C9_11 
REMARK    9  A    between atoms: C10_12  and  C11_13 
REMARK   10  A    between atoms: C11_13  and  N1_14 
REMARK       I    between atoms: N1_14  and  C12_15 
REMARK   11  A    between atoms: C12_15  and  C13_17 
REMARK   12  A    between atoms: C13_17  and  C16_20 
REMARK   13  A    between atoms: C16_20  and  O4_21 
REMARK   14  A    between atoms: C16_20  and  C17_22 
REMARK   15  A    between atoms: C19_24  and  C20_25 
REMARK   16  A    between atoms: C21_26  and  C22_27 
REMARK   17  A    between atoms: C23_28  and  C24_29 
REMARK   18  A    between atoms: C26_31  and  N2_33 
REMARK   19  A    between atoms: C28_36  and  O7_37 
ROOT
HETATM    1  C9  UNL     1      -1.358  10.310  16.516  1.00  0.00    -0.003 C 
HETATM    2  C10 UNL     1      -2.456   9.913  17.181  1.00  0.00    -0.007 C 
ENDROOT
BRANCH   1   3
HETATM    3  C8  UNL     1      -0.019  10.027  16.978  1.00  0.00    -0.002 C 
HETATM    4  C7  UNL     1       0.744  10.945  17.591  1.00  0.00     0.005 C 
BRANCH   4   5
HETATM    5  C6  UNL     1       2.167  10.798  18.069  1.00  0.00     0.144 C 
BRANCH   5   6
HETATM    6  C4  UNL     1       2.466  11.021  19.568  1.00  0.00     0.016 C 
HETATM    7  C5  UNL     1       1.284  10.731  20.500  1.00  0.00     0.013 C 
BRANCH   6   8
HETATM    8  C3  UNL     1       3.167  12.362  19.899  1.00  0.00     0.042 C 
BRANCH   8   9
HETATM    9  C2  UNL     1       4.718  12.564  19.891  1.00  0.00     0.159 C 
BRANCH   9  10
HETATM   10  O1  UNL     1       5.215  11.308  19.368  1.00  0.00    -0.388 OA
HETATM   11  C1  UNL     1       6.367  11.449  18.531  1.00  0.00     0.202 C 
ENDBRANCH   9  10
BRANCH   9  12
HETATM   12  C28 UNL     1       5.433  12.756  21.285  1.00  0.00     0.133 C 
HETATM   13  C29 UNL     1       5.184  11.540  22.237  1.00  0.00     0.114 C 
HETATM   14  C30 UNL     1       6.287  11.267  23.257  1.00  0.00     0.023 C 
HETATM   15  C31 UNL     1       3.917  11.891  22.972  1.00  0.00     0.227 C 
HETATM   16  O8  UNL     1       3.158  11.087  23.486  1.00  0.00    -0.273 OA
HETATM   17  N3  UNL     1       3.813  13.262  22.985  1.00  0.00    -0.332 N 
HETATM   18  C32 UNL     1       2.620  13.924  23.473  1.00  0.00     0.154 C 
HETATM   19  C33 UNL     1       4.838  13.942  22.113  1.00  0.00     0.183 A 
HETATM   20  C34 UNL     1       4.353  15.280  21.462  1.00  0.00     0.294 A 
HETATM   21  C35 UNL     1       5.751  14.941  22.923  1.00  0.00     0.169 A 
HETATM   22  O9  UNL     1       3.437  15.674  20.772  1.00  0.00    -0.262 OA
HETATM   23  O10 UNL     1       5.242  16.056  22.134  1.00  0.00    -0.311 OA
HETATM   24  C36 UNL     1       7.267  14.986  22.918  1.00  0.00     0.043 C 
BRANCH  12  25
HETATM   25  O7  UNL     1       6.842  12.937  21.110  1.00  0.00    -0.383 OA
HETATM   26  H42 UNL     1       7.193  12.245  20.524  1.00  0.00     0.210 HD
ENDBRANCH  12  25
ENDBRANCH   9  12
ENDBRANCH   8   9
ENDBRANCH   6   8
ENDBRANCH   5   6
BRANCH   5  27
HETATM   27  O2  UNL     1       2.574   9.475  17.712  1.00  0.00    -0.391 OA
HETATM   28  H12 UNL     1       1.837   8.876  17.934  1.00  0.00     0.210 HD
ENDBRANCH   5  27
ENDBRANCH   4   5
ENDBRANCH   1   3
BRANCH   2  29
HETATM   29  C11 UNL     1      -3.879  10.113  16.756  1.00  0.00     0.149 C 
BRANCH  29  30
HETATM   30  N1  UNL     1      -4.462   8.876  16.308  1.00  0.00    -0.357 N 
HETATM   31  C12 UNL     1      -4.637   8.562  14.980  1.00  0.00     0.228 C 
HETATM   32  O3  UNL     1      -4.365   9.349  14.075  1.00  0.00    -0.273 OA
HETATM   33  H19 UNL     1      -4.581   8.124  16.985  1.00  0.00     0.162 HD
BRANCH  31  34
HETATM   34  C13 UNL     1      -5.238   7.168  14.723  1.00  0.00     0.063 C 
HETATM   35  C14 UNL     1      -5.836   7.127  13.303  1.00  0.00     0.028 C 
HETATM   36  C15 UNL     1      -6.395   6.964  15.727  1.00  0.00     0.028 C 
BRANCH  34  37
HETATM   37  C16 UNL     1      -4.188   6.029  14.890  1.00  0.00     0.164 C 
BRANCH  37  38
HETATM   38  O4  UNL     1      -3.304   6.298  15.990  1.00  0.00    -0.390 OA
HETATM   39  H27 UNL     1      -2.718   5.524  16.060  1.00  0.00     0.210 HD
ENDBRANCH  37  38
BRANCH  37  40
HETATM   40  C17 UNL     1      -3.346   5.670  13.673  1.00  0.00    -0.054 C 
HETATM   41  C18 UNL     1      -3.785   4.469  12.864  1.00  0.00     0.046 C 
HETATM   42  C19 UNL     1      -2.233   6.329  13.280  1.00  0.00     0.005 C 
BRANCH  42  43
HETATM   43  C20 UNL     1      -1.642   7.501  13.890  1.00  0.00     0.000 C 
HETATM   44  C21 UNL     1      -0.999   8.497  13.256  1.00  0.00     0.000 C 
BRANCH  44  45
HETATM   45  C22 UNL     1      -0.692   8.576  11.841  1.00  0.00     0.001 C 
HETATM   46  C23 UNL     1       0.484   8.171  11.327  1.00  0.00     0.009 C 
BRANCH  46  47
HETATM   47  C24 UNL     1       0.866   8.179   9.905  1.00  0.00    -0.034 C 
HETATM   48  C25 UNL     1      -0.213   8.631   8.934  1.00  0.00     0.050 C 
HETATM   49  C26 UNL     1       2.100   7.773   9.520  1.00  0.00     0.082 C 
HETATM   50  C27 UNL     1       3.284   7.288  10.294  1.00  0.00     0.075 C 
BRANCH  49  51
HETATM   51  N2  UNL     1       2.405   7.813   8.105  1.00  0.00    -0.120 N 
HETATM   52  O5  UNL     1       2.810   8.889   7.647  1.00  0.00    -0.532 OA
HETATM   53  O6  UNL     1       2.265   6.757   7.474  1.00  0.00    -0.532 OA
ENDBRANCH  49  51
ENDBRANCH  46  47
ENDBRANCH  44  45
ENDBRANCH  42  43
ENDBRANCH  37  40
ENDBRANCH  34  37
ENDBRANCH  31  34
ENDBRANCH  29  30
ENDBRANCH   2  29
TORSDOF 19
ENDMDL
MODEL 2
REMARK minimizedAffinity -7.62904453
REMARK CNNscore 0.289564013
REMARK CNNaffinity 7.01106977
REMARK  19 active torsions:
REMARK  status: ('A' for Active; 'I' for Inactive)
REMARK    1  A    between atoms: O1_2  and  C2_3 
REMARK    2  A    between atoms: C2_3  and  C3_4 
REMARK    3  A    between atoms: C2_3  and  C28_36 
REMARK    4  A    between atoms: C3_4  and  C4_5 
REMARK    5  A    between atoms: C4_5  and  C6_7 
REMARK    6  A    between atoms: C6_7  and  O2_8 
REMARK    7  A    between atoms: C6_7  and  C7_9 
REMARK    8  A    between atoms: C8_10  and  C9_11 
REMARK    9  A    between atoms: C10_12  and  C11_13 
REMARK   10  A    between atoms: C11_13  and  N1_14 
REMARK       I    between atoms: N1_14  and  C12_15 
REMARK   11  A    between atoms: C12_15  and  C13_17 
REMARK   12  A    between atoms: C13_17  and  C16_20 
REMARK   13  A    between atoms: C16_20  and  O4_21 
REMARK   14  A    between atoms: C16_20  and  C17_22 
REMARK   15  A    between atoms: C19_24  and  C20_25 
REMARK   16  A    between atoms: C21_26  and  C22_27 
REMARK   17  A    between atoms: C23_28  and  C24_29 
REMARK   18  A    between atoms: C26_31  and  N2_33 
REMARK   19  A    between atoms: C28_36  and  O7_37 
ROOT
HETATM    1  C9  UNL     1      -9.285   8.881  15.218  1.00  0.00    -0.003 C 
HETATM    2  C10 UNL     1      -9.274   7.740  15.926  1.00  0.00    -0.007 C 
ENDROOT
BRANCH   1   3
HETATM    3  C8  UNL     1      -9.998  10.061  15.648  1.00  0.00    -0.002 C 
HETATM    4  C7  UNL     1     -10.546  10.173  16.867  1.00  0.00     0.005 C 
BRANCH   4   5
HETATM    5  C6  UNL     1     -11.357  11.319  17.418  1.00  0.00     0.144 C 
BRANCH   5   6
HETATM    6  C4  UNL     1     -12.415  11.016  18.503  1.00  0.00     0.016 C 
HETATM    7  C5  UNL     1     -13.815  10.715  17.955  1.00  0.00     0.013 C 
BRANCH   6   8
HETATM    8  C3  UNL     1     -12.443  12.020  19.682  1.00  0.00     0.042 C 
BRANCH   8   9
HETATM    9  C2  UNL     1     -11.816  11.735  21.088  1.00  0.00     0.159 C 
BRANCH   9  10
HETATM   10  O1  UNL     1     -10.407  11.572  20.797  1.00  0.00    -0.388 OA
HETATM   11  C1  UNL     1      -9.581  12.594  21.366  1.00  0.00     0.202 C 
ENDBRANCH   9  10
BRANCH   9  12
HETATM   12  C28 UNL     1     -12.254  10.410  21.824  1.00  0.00     0.133 C 
HETATM   13  C29 UNL     1     -13.692   9.960  21.402  1.00  0.00     0.114 C 
HETATM   14  C30 UNL     1     -13.958   8.458  21.470  1.00  0.00     0.023 C 
HETATM   15  C31 UNL     1     -14.606  10.660  22.372  1.00  0.00     0.227 C 
HETATM   16  O8  UNL     1     -15.779  10.921  22.169  1.00  0.00    -0.273 OA
HETATM   17  N3  UNL     1     -13.884  10.902  23.518  1.00  0.00    -0.332 N 
HETATM   18  C32 UNL     1     -14.423  11.711  24.593  1.00  0.00     0.154 C 
HETATM   19  C33 UNL     1     -12.415  10.598  23.368  1.00  0.00     0.183 A 
HETATM   20  C34 UNL     1     -11.472  11.512  24.220  1.00  0.00     0.294 A 
HETATM   21  C35 UNL     1     -11.914   9.518  24.402  1.00  0.00     0.169 A 
HETATM   22  O9  UNL     1     -11.258  12.694  24.383  1.00  0.00    -0.262 OA
HETATM   23  O10 UNL     1     -11.021  10.499  25.004  1.00  0.00    -0.311 OA
HETATM   24  C36 UNL     1     -11.125   8.261  24.085  1.00  0.00     0.043 C 
BRANCH  12  25
HETATM   25  O7  UNL     1     -11.330   9.351  21.551  1.00  0.00    -0.383 OA
HETATM   26  H42 UNL     1     -11.168   9.293  20.594  1.00  0.00     0.210 HD
ENDBRANCH  12  25
ENDBRANCH   9  12
ENDBRANCH   8   9
ENDBRANCH   6   8
ENDBRANCH   5   6
BRANCH   5  27
HETATM   27  O2  UNL     1     -10.416  12.258  17.945  1.00  0.00    -0.391 OA
HETATM   28  H12 UNL     1      -9.746  11.749  18.438  1.00  0.00     0.210 HD
ENDBRANCH   5  27
ENDBRANCH   4   5
ENDBRANCH   1   3
BRANCH   2  29
HETATM   29  C11 UNL     1      -8.524   6.486  15.590  1.00  0.00     0.149 C 
BRANCH  29  30
HETATM   30  N1  UNL     1      -7.115   6.746  15.465  1.00  0.00    -0.357 N 
HETATM   31  C12 UNL     1      -6.435   6.669  14.271  1.00  0.00     0.228 C 
HETATM   32  O3  UNL     1      -6.977   6.308  13.227  1.00  0.00    -0.273 OA
HETATM   33  H19 UNL     1      -6.631   7.182  16.249  1.00  0.00     0.162 HD
BRANCH  31  34
HETATM   34  C13 UNL     1      -4.942   7.030  14.357  1.00  0.00     0.063 C 
HETATM   35  C14 UNL     1      -4.713   7.963  15.563  1.00  0.00     0.028 C 
HETATM   36  C15 UNL     1      -4.575   7.817  13.079  1.00  0.00     0.028 C 
BRANCH  34  37
HETATM   37  C16 UNL     1      -4.032   5.771  14.481  1.00  0.00     0.164 C 
BRANCH  37  38
HETATM   38  O4  UNL     1      -3.101   5.912  15.566  1.00  0.00    -0.390 OA
HETATM   39  H27 UNL     1      -2.610   5.073  15.610  1.00  0.00     0.210 HD
ENDBRANCH  37  38
BRANCH  37  40
HETATM   40  C17 UNL     1      -3.263   5.339  13.240  1.00  0.00    -0.054 C 
HETATM   41  C18 UNL     1      -3.968   4.395  12.289  1.00  0.00     0.046 C 
HETATM   42  C19 UNL     1      -2.001   5.719  12.940  1.00  0.00     0.005 C 
BRANCH  42  43
HETATM   43  C20 UNL     1      -1.150   6.617  13.691  1.00  0.00     0.000 C 
HETATM   44  C21 UNL     1      -0.405   7.620  13.192  1.00  0.00     0.000 C 
BRANCH  44  45
HETATM   45  C22 UNL     1      -0.234   7.969  11.795  1.00  0.00     0.001 C 
HETATM   46  C23 UNL     1       0.841   7.595  11.077  1.00  0.00     0.009 C 
BRANCH  46  47
HETATM   47  C24 UNL     1       1.080   7.871   9.651  1.00  0.00    -0.034 C 
HETATM   48  C25 UNL     1      -0.041   8.595   8.923  1.00  0.00     0.050 C 
HETATM   49  C26 UNL     1       2.225   7.464   9.051  1.00  0.00     0.082 C 
HETATM   50  C27 UNL     1       3.426   6.741   9.569  1.00  0.00     0.075 C 
BRANCH  49  51
HETATM   51  N2  UNL     1       2.390   7.775   7.647  1.00  0.00    -0.120 N 
HETATM   52  O5  UNL     1       1.983   6.936   6.833  1.00  0.00    -0.532 OA
HETATM   53  O6  UNL     1       2.896   8.871   7.373  1.00  0.00    -0.532 OA
ENDBRANCH  49  51
ENDBRANCH  46  47
ENDBRANCH  44  45
ENDBRANCH  42  43
ENDBRANCH  37  40
ENDBRANCH  34  37
ENDBRANCH  31  34
ENDBRANCH  29  30
ENDBRANCH   2  29
TORSDOF 19
ENDMDL
MODEL 3
REMARK minimizedAffinity -8.0415802
REMARK CNNscore 0.289248616
REMARK CNNaffinity 6.40796804
REMARK  19 active torsions:
REMARK  status: ('A' for Active; 'I' for Inactive)
REMARK    1  A    between atoms: O1_2  and  C2_3 
REMARK    2  A    between atoms: C2_3  and  C3_4 
REMARK    3  A    between atoms: C2_3  and  C28_36 
REMARK    4  A    between atoms: C3_4  and  C4_5 
REMARK    5  A    between atoms: C4_5  and  C6_7 
REMARK    6  A    between atoms: C6_7  and  O2_8 
REMARK    7  A    between atoms: C6_7  and  C7_9 
REMARK    8  A    between atoms: C8_10  and  C9_11 
REMARK    9  A    between atoms: C10_12  and  C11_13 
REMARK   10  A    between atoms: C11_13  and  N1_14 
REMARK       I    between atoms: N1_14  and  C12_15 
REMARK   11  A    between atoms: C12_15  and  C13_17 
REMARK   12  A    between atoms: C13_17  and  C16_20 
REMARK   13  A    between atoms: C16_20  and  O4_21 
REMARK   14  A    between atoms: C16_20  and  C17_22 
REMARK   15  A    between atoms: C19_24  and  C20_25 
REMARK   16  A    between atoms: C21_26  and  C22_27 
REMARK   17  A    between atoms: C23_28  and  C24_29 
REMARK   18  A    between atoms: C26_31  and  N2_33 
REMARK   19  A    between atoms: C28_36  and  O7_37 
ROOT
HETATM    1  C9  UNL     1      -1.110  11.237  18.821  1.00  0.00    -0.003 C 
HETATM    2  C10 UNL     1      -2.166  10.406  18.800  1.00  0.00    -0.007 C 
ENDROOT
BRANCH   1   3
HETATM    3  C8  UNL     1       0.069  10.983  19.615  1.00  0.00    -0.002 C 
HETATM    4  C7  UNL     1       0.987  11.929  19.871  1.00  0.00     0.005 C 
BRANCH   4   5
HETATM    5  C6  UNL     1       2.280  11.783  20.634  1.00  0.00     0.144 C 
BRANCH   5   6
HETATM    6  C4  UNL     1       3.588  12.250  19.957  1.00  0.00     0.016 C 
HETATM    7  C5  UNL     1       3.457  12.544  18.458  1.00  0.00     0.013 C 
BRANCH   6   8
HETATM    8  C3  UNL     1       4.833  11.388  20.287  1.00  0.00     0.042 C 
BRANCH   8   9
HETATM    9  C2  UNL     1       5.887  11.757  21.383  1.00  0.00     0.159 C 
BRANCH   9  10
HETATM   10  O1  UNL     1       5.098  11.820  22.595  1.00  0.00    -0.388 OA
HETATM   11  C1  UNL     1       4.692  10.538  23.084  1.00  0.00     0.202 C 
ENDBRANCH   9  10
BRANCH   9  12
HETATM   12  C28 UNL     1       6.598  13.161  21.264  1.00  0.00     0.133 C 
HETATM   13  C29 UNL     1       6.803  13.583  19.772  1.00  0.00     0.114 C 
HETATM   14  C30 UNL     1       6.824  15.087  19.510  1.00  0.00     0.023 C 
HETATM   15  C31 UNL     1       8.143  13.006  19.398  1.00  0.00     0.227 C 
HETATM   16  O8  UNL     1       8.503  12.742  18.264  1.00  0.00    -0.273 OA
HETATM   17  N3  UNL     1       8.876  12.881  20.555  1.00  0.00    -0.332 N 
HETATM   18  C32 UNL     1      10.156  12.202  20.569  1.00  0.00     0.154 C 
HETATM   19  C33 UNL     1       8.067  13.145  21.800  1.00  0.00     0.183 A 
HETATM   20  C34 UNL     1       8.511  12.316  23.052  1.00  0.00     0.294 A 
HETATM   21  C35 UNL     1       8.658  14.324  22.665  1.00  0.00     0.169 A 
HETATM   22  O9  UNL     1       8.686  11.155  23.357  1.00  0.00    -0.262 OA
HETATM   23  O10 UNL     1       8.907  13.401  23.765  1.00  0.00    -0.311 OA
HETATM   24  C36 UNL     1       7.898  15.527  23.192  1.00  0.00     0.043 C 
BRANCH  12  25
HETATM   25  O7  UNL     1       5.839  14.171  21.939  1.00  0.00    -0.383 OA
HETATM   26  H42 UNL     1       4.907  14.121  21.665  1.00  0.00     0.210 HD
ENDBRANCH  12  25
ENDBRANCH   9  12
ENDBRANCH   8   9
ENDBRANCH   6   8
ENDBRANCH   5   6
BRANCH   5  27
HETATM   27  O2  UNL     1       2.110  12.509  21.853  1.00  0.00    -0.391 OA
HETATM   28  H12 UNL     1       1.676  13.353  21.628  1.00  0.00     0.210 HD
ENDBRANCH   5  27
ENDBRANCH   4   5
ENDBRANCH   1   3
BRANCH   2  29
HETATM   29  C11 UNL     1      -3.405  10.557  17.972  1.00  0.00     0.149 C 
BRANCH  29  30
HETATM   30  N1  UNL     1      -3.528   9.480  17.026  1.00  0.00    -0.357 N 
HETATM   31  C12 UNL     1      -3.420   9.654  15.665  1.00  0.00     0.228 C 
HETATM   32  O3  UNL     1      -3.274  10.762  15.152  1.00  0.00    -0.273 OA
HETATM   33  H19 UNL     1      -3.509   8.523  17.376  1.00  0.00     0.162 HD
BRANCH  31  34
HETATM   34  C13 UNL     1      -3.539   8.360  14.841  1.00  0.00     0.063 C 
HETATM   35  C14 UNL     1      -2.132   7.907  14.400  1.00  0.00     0.028 C 
HETATM   36  C15 UNL     1      -4.348   8.689  13.565  1.00  0.00     0.028 C 
BRANCH  34  37
HETATM   37  C16 UNL     1      -4.241   7.214  15.630  1.00  0.00     0.164 C 
BRANCH  37  38
HETATM   38  O4  UNL     1      -3.282   6.272  16.135  1.00  0.00    -0.390 OA
HETATM   39  H27 UNL     1      -3.789   5.623  16.654  1.00  0.00     0.210 HD
ENDBRANCH  37  38
BRANCH  37  40
HETATM   40  C17 UNL     1      -5.341   6.443  14.912  1.00  0.00    -0.054 C 
HETATM   41  C18 UNL     1      -4.994   5.845  13.565  1.00  0.00     0.046 C 
HETATM   42  C19 UNL     1      -6.598   6.273  15.378  1.00  0.00     0.005 C 
BRANCH  42  43
HETATM   43  C20 UNL     1      -7.142   6.742  16.635  1.00  0.00     0.000 C 
HETATM   44  C21 UNL     1      -8.355   7.287  16.830  1.00  0.00     0.000 C 
BRANCH  44  45
HETATM   45  C22 UNL     1      -9.347   7.594  15.818  1.00  0.00     0.001 C 
HETATM   46  C23 UNL     1      -9.693   8.854  15.495  1.00  0.00     0.009 C 
BRANCH  46  47
HETATM   47  C24 UNL     1     -10.658   9.257  14.459  1.00  0.00    -0.034 C 
HETATM   48  C25 UNL     1     -11.013  10.735  14.427  1.00  0.00     0.050 C 
HETATM   49  C26 UNL     1     -11.198   8.338  13.623  1.00  0.00     0.082 C 
HETATM   50  C27 UNL     1     -11.001   6.862  13.493  1.00  0.00     0.075 C 
BRANCH  49  51
HETATM   51  N2  UNL     1     -12.137   8.811  12.627  1.00  0.00    -0.120 N 
HETATM   52  O5  UNL     1     -11.662   9.260  11.576  1.00  0.00    -0.532 OA
HETATM   53  O6  UNL     1     -13.340   8.698  12.894  1.00  0.00    -0.532 OA
ENDBRANCH  49  51
ENDBRANCH  46  47
ENDBRANCH  44  45
ENDBRANCH  42  43
ENDBRANCH  37  40
ENDBRANCH  34  37
ENDBRANCH  31  34
ENDBRANCH  29  30
ENDBRANCH   2  29
TORSDOF 19
ENDMDL
MODEL 4
REMARK minimizedAffinity -8.18280506
REMARK CNNscore 0.286964059
REMARK CNNaffinity 6.89198494
REMARK  19 active torsions:
REMARK  status: ('A' for Active; 'I' for Inactive)
REMARK    1  A    between atoms: O1_2  and  C2_3 
REMARK    2  A    between atoms: C2_3  and  C3_4 
REMARK    3  A    between atoms: C2_3  and  C28_36 
REMARK    4  A    between atoms: C3_4  and  C4_5 
REMARK    5  A    between atoms: C4_5  and  C6_7 
REMARK    6  A    between atoms: C6_7  and  O2_8 
REMARK    7  A    between atoms: C6_7  and  C7_9 
REMARK    8  A    between atoms: C8_10  and  C9_11 
REMARK    9  A    between atoms: C10_12  and  C11_13 
REMARK   10  A    between atoms: C11_13  and  N1_14 
REMARK       I    between atoms: N1_14  and  C12_15 
REMARK   11  A    between atoms: C12_15  and  C13_17 
REMARK   12  A    between atoms: C13_17  and  C16_20 
REMARK   13  A    between atoms: C16_20  and  O4_21 
REMARK   14  A    between atoms: C16_20  and  C17_22 
REMARK   15  A    between atoms: C19_24  and  C20_25 
REMARK   16  A    between atoms: C21_26  and  C22_27 
REMARK   17  A    between atoms: C23_28  and  C24_29 
REMARK   18  A    between atoms: C26_31  and  N2_33 
REMARK   19  A    between atoms: C28_36  and  O7_37 
ROOT
HETATM    1  C9  UNL     1     -14.800   5.563  14.363  1.00  0.00    -0.003 C 
HETATM    2  C10 UNL     1     -14.033   6.473  14.985  1.00  0.00    -0.007 C 
ENDROOT
BRANCH   1   3
HETATM    3  C8  UNL     1     -15.656   4.642  15.075  1.00  0.00    -0.002 C 
HETATM    4  C7  UNL     1     -16.231   3.583  14.484  1.00  0.00     0.005 C 
BRANCH   4   5
HETATM    5  C6  UNL     1     -17.181   2.584  15.094  1.00  0.00     0.144 C 
BRANCH   5   6
HETATM    6  C4  UNL     1     -17.331   1.203  14.416  1.00  0.00     0.016 C 
HETATM    7  C5  UNL     1     -18.444   0.327  15.002  1.00  0.00     0.013 C 
BRANCH   6   8
HETATM    8  C3  UNL     1     -16.005   0.426  14.223  1.00  0.00     0.042 C 
BRANCH   8   9
HETATM    9  C2  UNL     1     -15.727  -0.546  13.029  1.00  0.00     0.159 C 
BRANCH   9  10
HETATM   10  O1  UNL     1     -16.483   0.038  11.941  1.00  0.00    -0.388 OA
HETATM   11  C1  UNL     1     -17.503  -0.822  11.423  1.00  0.00     0.202 C 
ENDBRANCH   9  10
BRANCH   9  12
HETATM   12  C28 UNL     1     -16.251  -2.029  13.163  1.00  0.00     0.133 C 
HETATM   13  C29 UNL     1     -16.210  -2.527  14.645  1.00  0.00     0.114 C 
HETATM   14  C30 UNL     1     -17.251  -3.581  15.014  1.00  0.00     0.023 C 
HETATM   15  C31 UNL     1     -14.837  -3.124  14.803  1.00  0.00     0.227 C 
HETATM   16  O8  UNL     1     -14.243  -3.252  15.861  1.00  0.00    -0.273 OA
HETATM   17  N3  UNL     1     -14.415  -3.526  13.557  1.00  0.00    -0.332 N 
HETATM   18  C32 UNL     1     -13.062  -3.994  13.333  1.00  0.00     0.154 C 
HETATM   19  C33 UNL     1     -15.326  -3.067  12.447  1.00  0.00     0.183 A 
HETATM   20  C34 UNL     1     -14.601  -2.773  11.091  1.00  0.00     0.294 A 
HETATM   21  C35 UNL     1     -15.906  -4.269  11.607  1.00  0.00     0.169 A 
HETATM   22  O9  UNL     1     -13.683  -2.095  10.680  1.00  0.00    -0.262 OA
HETATM   23  O10 UNL     1     -15.222  -3.775  10.418  1.00  0.00    -0.311 OA
HETATM   24  C36 UNL     1     -17.364  -4.516  11.270  1.00  0.00     0.043 C 
BRANCH  12  25
HETATM   25  O7  UNL     1     -17.590  -2.139  12.666  1.00  0.00    -0.383 OA
HETATM   26  H42 UNL     1     -18.142  -1.437  13.050  1.00  0.00     0.210 HD
ENDBRANCH  12  25
ENDBRANCH   9  12
ENDBRANCH   8   9
ENDBRANCH   6   8
ENDBRANCH   5   6
BRANCH   5  27
HETATM   27  O2  UNL     1     -16.745   2.388  16.441  1.00  0.00    -0.391 OA
HETATM   28  H12 UNL     1     -15.774   2.308  16.421  1.00  0.00     0.210 HD
ENDBRANCH   5  27
ENDBRANCH   4   5
ENDBRANCH   1   3
BRANCH   2  29
HETATM   29  C11 UNL     1     -13.158   7.500  14.334  1.00  0.00     0.149 C 
BRANCH  29  30
HETATM   30  N1  UNL     1     -11.807   7.409  14.818  1.00  0.00    -0.357 N 
HETATM   31  C12 UNL     1     -10.826   8.318  14.495  1.00  0.00     0.228 C 
HETATM   32  O3  UNL     1     -11.020   9.245  13.710  1.00  0.00    -0.273 OA
HETATM   33  H19 UNL     1     -11.607   6.757  15.576  1.00  0.00     0.162 HD
BRANCH  31  34
HETATM   34  C13 UNL     1      -9.463   8.056  15.160  1.00  0.00     0.063 C 
HETATM   35  C14 UNL     1      -9.678   7.736  16.653  1.00  0.00     0.028 C 
HETATM   36  C15 UNL     1      -8.640   9.361  15.074  1.00  0.00     0.028 C 
BRANCH  34  37
HETATM   37  C16 UNL     1      -8.681   6.894  14.476  1.00  0.00     0.164 C 
BRANCH  37  38
HETATM   38  O4  UNL     1      -9.579   5.980  13.827  1.00  0.00    -0.390 OA
HETATM   39  H27 UNL     1      -9.018   5.319  13.385  1.00  0.00     0.210 HD
ENDBRANCH  37  38
BRANCH  37  40
HETATM   40  C17 UNL     1      -7.721   6.091  15.343  1.00  0.00    -0.054 C 
HETATM   41  C18 UNL     1      -7.255   6.737  16.630  1.00  0.00     0.046 C 
HETATM   42  C19 UNL     1      -7.244   4.864  15.039  1.00  0.00     0.005 C 
BRANCH  42  43
HETATM   43  C20 UNL     1      -7.561   4.060  13.878  1.00  0.00     0.000 C 
HETATM   44  C21 UNL     1      -6.694   3.610  12.953  1.00  0.00     0.000 C 
BRANCH  44  45
HETATM   45  C22 UNL     1      -5.274   3.895  12.876  1.00  0.00     0.001 C 
HETATM   46  C23 UNL     1      -4.563   3.755  11.742  1.00  0.00     0.009 C 
BRANCH  46  47
HETATM   47  C24 UNL     1      -3.134   4.056  11.563  1.00  0.00    -0.034 C 
HETATM   48  C25 UNL     1      -2.471   3.418  10.353  1.00  0.00     0.050 C 
HETATM   49  C26 UNL     1      -2.475   4.832  12.458  1.00  0.00     0.082 C 
HETATM   50  C27 UNL     1      -2.923   5.535  13.698  1.00  0.00     0.075 C 
BRANCH  49  51
HETATM   51  N2  UNL     1      -1.070   5.088  12.213  1.00  0.00    -0.120 N 
HETATM   52  O5  UNL     1      -0.785   6.133  11.615  1.00  0.00    -0.532 OA
HETATM   53  O6  UNL     1      -0.266   4.255  12.650  1.00  0.00    -0.532 OA
ENDBRANCH  49  51
ENDBRANCH  46  47
ENDBRANCH  44  45
ENDBRANCH  42  43
ENDBRANCH  37  40
ENDBRANCH  34  37
ENDBRANCH  31  34
ENDBRANCH  29  30
ENDBRANCH   2  29
TORSDOF 19
ENDMDL
MODEL 5
REMARK minimizedAffinity -7.92725658
REMARK CNNscore 0.252450645
REMARK CNNaffinity 6.54675674
REMARK  19 active torsions:
REMARK  status: ('A' for Active; 'I' for Inactive)
REMARK    1  A    between atoms: O1_2  and  C2_3 
REMARK    2  A    between atoms: C2_3  and  C3_4 
REMARK    3  A    between atoms: C2_3  and  C28_36 
REMARK    4  A    between atoms: C3_4  and  C4_5 
REMARK    5  A    between atoms: C4_5  and  C6_7 
REMARK    6  A    between atoms: C6_7  and  O2_8 
REMARK    7  A    between atoms: C6_7  and  C7_9 
REMARK    8  A    between atoms: C8_10  and  C9_11 
REMARK    9  A    between atoms: C10_12  and  C11_13 
REMARK   10  A    between atoms: C11_13  and  N1_14 
REMARK       I    between atoms: N1_14  and  C12_15 
REMARK   11  A    between atoms: C12_15  and  C13_17 
REMARK   12  A    between atoms: C13_17  and  C16_20 
REMARK   13  A    between atoms: C16_20  and  O4_21 
REMARK   14  A    between atoms: C16_20  and  C17_22 
REMARK   15  A    between atoms: C19_24  and  C20_25 
REMARK   16  A    between atoms: C21_26  and  C22_27 
REMARK   17  A    between atoms: C23_28  and  C24_29 
REMARK   18  A    between atoms: C26_31  and  N2_33 
REMARK   19  A    between atoms: C28_36  and  O7_37 
ROOT
HETATM    1  C9  UNL     1       1.614  11.388  18.902  1.00  0.00    -0.003 C 
HETATM    2  C10 UNL     1       1.214  11.204  17.633  1.00  0.00    -0.007 C 
ENDROOT
BRANCH   1   3
HETATM    3  C8  UNL     1       2.358  10.394  19.639  1.00  0.00    -0.002 C 
HETATM    4  C7  UNL     1       2.026  10.015  20.883  1.00  0.00     0.005 C 
BRANCH   4   5
HETATM    5  C6  UNL     1       2.744   9.036  21.777  1.00  0.00     0.144 C 
BRANCH   5   6
HETATM    6  C4  UNL     1       3.643   9.593  22.904  1.00  0.00     0.016 C 
HETATM    7  C5  UNL     1       2.877  10.195  24.087  1.00  0.00     0.013 C 
BRANCH   6   8
HETATM    8  C3  UNL     1       4.801  10.502  22.422  1.00  0.00     0.042 C 
BRANCH   8   9
HETATM    9  C2  UNL     1       4.898  12.033  22.731  1.00  0.00     0.159 C 
BRANCH   9  10
HETATM   10  O1  UNL     1       4.045  12.631  21.726  1.00  0.00    -0.388 OA
HETATM   11  C1  UNL     1       2.865  13.239  22.262  1.00  0.00     0.202 C 
ENDBRANCH   9  10
BRANCH   9  12
HETATM   12  C28 UNL     1       6.307  12.722  22.557  1.00  0.00     0.133 C 
HETATM   13  C29 UNL     1       6.284  14.215  23.022  1.00  0.00     0.114 C 
HETATM   14  C30 UNL     1       7.612  14.763  23.541  1.00  0.00     0.023 C 
HETATM   15  C31 UNL     1       5.888  14.986  21.791  1.00  0.00     0.227 C 
HETATM   16  O8  UNL     1       5.364  16.087  21.790  1.00  0.00    -0.273 OA
HETATM   17  N3  UNL     1       6.264  14.241  20.697  1.00  0.00    -0.332 N 
HETATM   18  C32 UNL     1       5.879  14.624  19.354  1.00  0.00     0.154 C 
HETATM   19  C33 UNL     1       6.736  12.855  21.059  1.00  0.00     0.183 A 
HETATM   20  C34 UNL     1       6.430  11.762  19.982  1.00  0.00     0.294 A 
HETATM   21  C35 UNL     1       8.213  12.577  20.581  1.00  0.00     0.169 A 
HETATM   22  O9  UNL     1       5.473  11.328  19.375  1.00  0.00    -0.262 OA
HETATM   23  O10 UNL     1       7.736  11.518  19.701  1.00  0.00    -0.311 OA
HETATM   24  C36 UNL     1       9.351  12.040  21.428  1.00  0.00     0.043 C 
BRANCH  12  25
HETATM   25  O7  UNL     1       7.310  12.014  23.295  1.00  0.00    -0.383 OA
HETATM   26  H42 UNL     1       7.003  11.858  24.204  1.00  0.00     0.210 HD
ENDBRANCH  12  25
ENDBRANCH   9  12
ENDBRANCH   8   9
ENDBRANCH   6   8
ENDBRANCH   5   6
BRANCH   5  27
HETATM   27  O2  UNL     1       1.734   8.211  22.362  1.00  0.00    -0.391 OA
HETATM   28  H12 UNL     1       1.004   8.799  22.634  1.00  0.00     0.210 HD
ENDBRANCH   5  27
ENDBRANCH   4   5
ENDBRANCH   1   3
BRANCH   2  29
HETATM   29  C11 UNL     1       0.487  12.193  16.773  1.00  0.00     0.149 C 
BRANCH  29  30
HETATM   30  N1  UNL     1      -0.745  11.639  16.278  1.00  0.00    -0.357 N 
HETATM   31  C12 UNL     1      -1.690  11.054  17.089  1.00  0.00     0.228 C 
HETATM   32  O3  UNL     1      -1.518  10.903  18.298  1.00  0.00    -0.273 OA
HETATM   33  H19 UNL     1      -1.019  11.848  15.319  1.00  0.00     0.162 HD
BRANCH  31  34
HETATM   34  C13 UNL     1      -2.953  10.567  16.357  1.00  0.00     0.063 C 
HETATM   35  C14 UNL     1      -3.290  11.549  15.217  1.00  0.00     0.028 C 
HETATM   36  C15 UNL     1      -4.123  10.600  17.366  1.00  0.00     0.028 C 
BRANCH  34  37
HETATM   37  C16 UNL     1      -2.791   9.126  15.785  1.00  0.00     0.164 C 
BRANCH  37  38
HETATM   38  O4  UNL     1      -1.428   8.684  15.880  1.00  0.00    -0.390 OA
HETATM   39  H27 UNL     1      -1.419   7.767  15.554  1.00  0.00     0.210 HD
ENDBRANCH  37  38
BRANCH  37  40
HETATM   40  C17 UNL     1      -3.279   8.880  14.364  1.00  0.00    -0.054 C 
HETATM   41  C18 UNL     1      -2.261   9.025  13.253  1.00  0.00     0.046 C 
HETATM   42  C19 UNL     1      -4.548   8.563  14.025  1.00  0.00     0.005 C 
BRANCH  42  43
HETATM   43  C20 UNL     1      -5.672   8.362  14.914  1.00  0.00     0.000 C 
HETATM   44  C21 UNL     1      -6.601   7.393  14.826  1.00  0.00     0.000 C 
BRANCH  44  45
HETATM   45  C22 UNL     1      -6.722   6.392  13.783  1.00  0.00     0.001 C 
HETATM   46  C23 UNL     1      -6.086   5.208  13.833  1.00  0.00     0.009 C 
BRANCH  46  47
HETATM   47  C24 UNL     1      -6.181   4.122  12.843  1.00  0.00    -0.034 C 
HETATM   48  C25 UNL     1      -7.514   3.395  12.786  1.00  0.00     0.050 C 
HETATM   49  C26 UNL     1      -5.116   3.799  12.069  1.00  0.00     0.082 C 
HETATM   50  C27 UNL     1      -3.736   4.366  11.975  1.00  0.00     0.075 C 
BRANCH  49  51
HETATM   51  N2  UNL     1      -5.285   2.723  11.115  1.00  0.00    -0.120 N 
HETATM   52  O5  UNL     1      -5.569   3.041   9.953  1.00  0.00    -0.532 OA
HETATM   53  O6  UNL     1      -5.101   1.572  11.533  1.00  0.00    -0.532 OA
ENDBRANCH  49  51
ENDBRANCH  46  47
ENDBRANCH  44  45
ENDBRANCH  42  43
ENDBRANCH  37  40
ENDBRANCH  34  37
ENDBRANCH  31  34
ENDBRANCH  29  30
ENDBRANCH   2  29
TORSDOF 19
ENDMDL
MODEL 6
REMARK minimizedAffinity -8.27344704
REMARK CNNscore 0.249053046
REMARK CNNaffinity 6.24356604
REMARK  19 active torsions:
REMARK  status: ('A' for Active; 'I' for Inactive)
REMARK    1  A    between atoms: O1_2  and  C2_3 
REMARK    2  A    between atoms: C2_3  and  C3_4 
REMARK    3  A    between atoms: C2_3  and  C28_36 
REMARK    4  A    between atoms: C3_4  and  C4_5 
REMARK    5  A    between atoms: C4_5  and  C6_7 
REMARK    6  A    between atoms: C6_7  and  O2_8 
REMARK    7  A    between atoms: C6_7  and  C7_9 
REMARK    8  A    between atoms: C8_10  and  C9_11 
REMARK    9  A    between atoms: C10_12  and  C11_13 
REMARK   10  A    between atoms: C11_13  and  N1_14 
REMARK       I    between atoms: N1_14  and  C12_15 
REMARK   11  A    between atoms: C12_15  and  C13_17 
REMARK   12  A    between atoms: C13_17  and  C16_20 
REMARK   13  A    between atoms: C16_20  and  O4_21 
REMARK   14  A    between atoms: C16_20  and  C17_22 
REMARK   15  A    between atoms: C19_24  and  C20_25 
REMARK   16  A    between atoms: C21_26  and  C22_27 
REMARK   17  A    between atoms: C23_28  and  C24_29 
REMARK   18  A    between atoms: C26_31  and  N2_33 
REMARK   19  A    between atoms: C28_36  and  O7_37 
ROOT
HETATM    1  C9  UNL     1      -3.289   9.964  17.826  1.00  0.00    -0.003 C 
HETATM    2  C10 UNL     1      -3.528  10.665  16.705  1.00  0.00    -0.007 C 
ENDROOT
BRANCH   1   3
HETATM    3  C8  UNL     1      -2.416  10.439  18.874  1.00  0.00    -0.002 C 
HETATM    4  C7  UNL     1      -1.260  11.072  18.622  1.00  0.00     0.005 C 
BRANCH   4   5
HETATM    5  C6  UNL     1      -0.238  11.566  19.615  1.00  0.00     0.144 C 
BRANCH   5   6
HETATM    6  C4  UNL     1       1.231  11.116  19.444  1.00  0.00     0.016 C 
HETATM    7  C5  UNL     1       1.512  10.349  18.147  1.00  0.00     0.013 C 
BRANCH   6   8
HETATM    8  C3  UNL     1       1.848  10.427  20.686  1.00  0.00     0.042 C 
BRANCH   8   9
HETATM    9  C2  UNL     1       3.383  10.376  20.986  1.00  0.00     0.159 C 
BRANCH   9  10
HETATM   10  O1  UNL     1       3.521   9.202  21.822  1.00  0.00    -0.388 OA
HETATM   11  C1  UNL     1       2.286   8.751  22.387  1.00  0.00     0.202 C 
ENDBRANCH   9  10
BRANCH   9  12
HETATM   12  C28 UNL     1       4.001  11.566  21.818  1.00  0.00     0.133 C 
HETATM   13  C29 UNL     1       2.937  12.671  22.128  1.00  0.00     0.114 C 
HETATM   14  C30 UNL     1       3.169  13.466  23.411  1.00  0.00     0.023 C 
HETATM   15  C31 UNL     1       3.016  13.609  20.953  1.00  0.00     0.227 C 
HETATM   16  O8  UNL     1       2.120  14.349  20.583  1.00  0.00    -0.273 OA
HETATM   17  N3  UNL     1       4.279  13.500  20.421  1.00  0.00    -0.332 N 
HETATM   18  C32 UNL     1       4.632  14.150  19.175  1.00  0.00     0.154 C 
HETATM   19  C33 UNL     1       5.079  12.370  21.020  1.00  0.00     0.183 A 
HETATM   20  C34 UNL     1       6.091  11.697  20.034  1.00  0.00     0.294 A 
HETATM   21  C35 UNL     1       6.419  12.867  21.685  1.00  0.00     0.169 A 
HETATM   22  O9  UNL     1       6.082  11.171  18.941  1.00  0.00    -0.262 OA
HETATM   23  O10 UNL     1       7.192  12.087  20.727  1.00  0.00    -0.311 OA
HETATM   24  C36 UNL     1       6.905  12.547  23.087  1.00  0.00     0.043 C 
BRANCH  12  25
HETATM   25  O7  UNL     1       4.556  11.088  23.048  1.00  0.00    -0.383 OA
HETATM   26  H42 UNL     1       3.911  10.518  23.501  1.00  0.00     0.210 HD
ENDBRANCH  12  25
ENDBRANCH   9  12
ENDBRANCH   8   9
ENDBRANCH   6   8
ENDBRANCH   5   6
BRANCH   5  27
HETATM   27  O2  UNL     1      -0.289  12.993  19.567  1.00  0.00    -0.391 OA
HETATM   28  H12 UNL     1      -0.335  13.248  18.627  1.00  0.00     0.210 HD
ENDBRANCH   5  27
ENDBRANCH   4   5
ENDBRANCH   1   3
BRANCH   2  29
HETATM   29  C11 UNL     1      -4.455  10.281  15.592  1.00  0.00     0.149 C 
BRANCH  29  30
HETATM   30  N1  UNL     1      -4.477   8.854  15.409  1.00  0.00    -0.357 N 
HETATM   31  C12 UNL     1      -4.077   8.235  14.247  1.00  0.00     0.228 C 
HETATM   32  O3  UNL     1      -3.730   8.867  13.250  1.00  0.00    -0.273 OA
HETATM   33  H19 UNL     1      -4.618   8.263  16.227  1.00  0.00     0.162 HD
BRANCH  31  34
HETATM   34  C13 UNL     1      -4.141   6.698  14.282  1.00  0.00     0.063 C 
HETATM   35  C14 UNL     1      -4.054   6.153  12.842  1.00  0.00     0.028 C 
HETATM   36  C15 UNL     1      -5.520   6.298  14.854  1.00  0.00     0.028 C 
BRANCH  34  37
HETATM   37  C16 UNL     1      -3.008   6.076  15.153  1.00  0.00     0.164 C 
BRANCH  37  38
HETATM   38  O4  UNL     1      -3.292   6.228  16.553  1.00  0.00    -0.390 OA
HETATM   39  H27 UNL     1      -2.571   5.773  17.024  1.00  0.00     0.210 HD
ENDBRANCH  37  38
BRANCH  37  40
HETATM   40  C17 UNL     1      -1.585   6.554  14.896  1.00  0.00    -0.054 C 
HETATM   41  C18 UNL     1      -1.137   7.801  15.628  1.00  0.00     0.046 C 
HETATM   42  C19 UNL     1      -0.710   5.963  14.053  1.00  0.00     0.005 C 
BRANCH  42  43
HETATM   43  C20 UNL     1      -0.918   4.766  13.266  1.00  0.00     0.000 C 
HETATM   44  C21 UNL     1      -0.775   4.648  11.934  1.00  0.00     0.000 C 
BRANCH  44  45
HETATM   45  C22 UNL     1      -0.459   5.704  10.992  1.00  0.00     0.001 C 
HETATM   46  C23 UNL     1       0.801   6.005  10.630  1.00  0.00     0.009 C 
BRANCH  46  47
HETATM   47  C24 UNL     1       1.211   7.031   9.657  1.00  0.00    -0.034 C 
HETATM   48  C25 UNL     1       0.403   8.319   9.677  1.00  0.00     0.050 C 
HETATM   49  C26 UNL     1       2.228   6.797   8.793  1.00  0.00     0.082 C 
HETATM   50  C27 UNL     1       3.128   5.619   8.599  1.00  0.00     0.075 C 
BRANCH  49  51
HETATM   51  N2  UNL     1       2.576   7.855   7.868  1.00  0.00    -0.120 N 
HETATM   52  O5  UNL     1       1.955   7.893   6.797  1.00  0.00    -0.532 OA
HETATM   53  O6  UNL     1       3.444   8.656   8.236  1.00  0.00    -0.532 OA
ENDBRANCH  49  51
ENDBRANCH  46  47
ENDBRANCH  44  45
ENDBRANCH  42  43
ENDBRANCH  37  40
ENDBRANCH  34  37
ENDBRANCH  31  34
ENDBRANCH  29  30
ENDBRANCH   2  29
TORSDOF 19
ENDMDL
MODEL 7
REMARK minimizedAffinity -8.05530548
REMARK CNNscore 0.246137455
REMARK CNNaffinity 6.15299082
REMARK  19 active torsions:
REMARK  status: ('A' for Active; 'I' for Inactive)
REMARK    1  A    between atoms: O1_2  and  C2_3 
REMARK    2  A    between atoms: C2_3  and  C3_4 
REMARK    3  A    between atoms: C2_3  and  C28_36 
REMARK    4  A    between atoms: C3_4  and  C4_5 
REMARK    5  A    between atoms: C4_5  and  C6_7 
REMARK    6  A    between atoms: C6_7  and  O2_8 
REMARK    7  A    between atoms: C6_7  and  C7_9 
REMARK    8  A    between atoms: C8_10  and  C9_11 
REMARK    9  A    between atoms: C10_12  and  C11_13 
REMARK   10  A    between atoms: C11_13  and  N1_14 
REMARK       I    between atoms: N1_14  and  C12_15 
REMARK   11  A    between atoms: C12_15  and  C13_17 
REMARK   12  A    between atoms: C13_17  and  C16_20 
REMARK   13  A    between atoms: C16_20  and  O4_21 
REMARK   14  A    between atoms: C16_20  and  C17_22 
REMARK   15  A    between atoms: C19_24  and  C20_25 
REMARK   16  A    between atoms: C21_26  and  C22_27 
REMARK   17  A    between atoms: C23_28  and  C24_29 
REMARK   18  A    between atoms: C26_31  and  N2_33 
REMARK   19  A    between atoms: C28_36  and  O7_37 
ROOT
HETATM    1  C9  UNL     1       6.523   7.547  11.800  1.00  0.00    -0.003 C 
HETATM    2  C10 UNL     1       5.684   6.508  11.661  1.00  0.00    -0.007 C 
ENDROOT
BRANCH   1   3
HETATM    3  C8  UNL     1       7.360   7.726  12.964  1.00  0.00    -0.002 C 
HETATM    4  C7  UNL     1       6.880   8.151  14.143  1.00  0.00     0.005 C 
BRANCH   4   5
HETATM    5  C6  UNL     1       7.648   8.430  15.410  1.00  0.00     0.144 C 
BRANCH   5   6
HETATM    6  C4  UNL     1       8.095   9.882  15.694  1.00  0.00     0.016 C 
HETATM    7  C5  UNL     1       7.611  10.908  14.663  1.00  0.00     0.013 C 
BRANCH   6   8
HETATM    8  C3  UNL     1       9.598  10.045  16.033  1.00  0.00     0.042 C 
BRANCH   8   9
HETATM    9  C2  UNL     1      10.132  10.637  17.379  1.00  0.00     0.159 C 
BRANCH   9  10
HETATM   10  O1  UNL     1       9.297  10.001  18.377  1.00  0.00    -0.388 OA
HETATM   11  C1  UNL     1       8.025  10.634  18.550  1.00  0.00     0.202 C 
ENDBRANCH   9  10
BRANCH   9  12
HETATM   12  C28 UNL     1       9.961  12.190  17.608  1.00  0.00     0.133 C 
HETATM   13  C29 UNL     1      10.346  13.010  16.334  1.00  0.00     0.114 C 
HETATM   14  C30 UNL     1       9.624  14.345  16.168  1.00  0.00     0.023 C 
HETATM   15  C31 UNL     1      11.821  13.270  16.485  1.00  0.00     0.227 C 
HETATM   16  O8  UNL     1      12.592  13.503  15.569  1.00  0.00    -0.273 OA
HETATM   17  N3  UNL     1      12.112  13.237  17.829  1.00  0.00    -0.332 N 
HETATM   18  C32 UNL     1      13.478  13.288  18.308  1.00  0.00     0.154 C 
HETATM   19  C33 UNL     1      10.956  12.759  18.672  1.00  0.00     0.183 A 
HETATM   20  C34 UNL     1      11.374  11.972  19.960  1.00  0.00     0.294 A 
HETATM   21  C35 UNL     1      10.515  13.822  19.750  1.00  0.00     0.169 A 
HETATM   22  O9  UNL     1      12.049  11.010  20.257  1.00  0.00    -0.262 OA
HETATM   23  O10 UNL     1      10.877  12.899  20.818  1.00  0.00    -0.311 OA
HETATM   24  C36 UNL     1       9.107  14.331  19.994  1.00  0.00     0.043 C 
BRANCH  12  25
HETATM   25  O7  UNL     1       8.614  12.500  17.980  1.00  0.00    -0.383 OA
HETATM   26  H42 UNL     1       7.995  12.073  17.364  1.00  0.00     0.210 HD
ENDBRANCH  12  25
ENDBRANCH   9  12
ENDBRANCH   8   9
ENDBRANCH   6   8
ENDBRANCH   5   6
BRANCH   5  27
HETATM   27  O2  UNL     1       6.820   7.986  16.487  1.00  0.00    -0.391 OA
HETATM   28  H12 UNL     1       5.912   8.288  16.296  1.00  0.00     0.210 HD
ENDBRANCH   5  27
ENDBRANCH   4   5
ENDBRANCH   1   3
BRANCH   2  29
HETATM   29  C11 UNL     1       4.819   6.211  10.473  1.00  0.00     0.149 C 
BRANCH  29  30
HETATM   30  N1  UNL     1       3.435   6.113  10.854  1.00  0.00    -0.357 N 
HETATM   31  C12 UNL     1       2.602   7.203  10.956  1.00  0.00     0.228 C 
HETATM   32  O3  UNL     1       3.000   8.355  10.789  1.00  0.00    -0.273 OA
HETATM   33  H19 UNL     1       3.001   5.192  10.871  1.00  0.00     0.162 HD
BRANCH  31  34
HETATM   34  C13 UNL     1       1.148   6.868  11.334  1.00  0.00     0.063 C 
HETATM   35  C14 UNL     1       0.283   6.845  10.057  1.00  0.00     0.028 C 
HETATM   36  C15 UNL     1       0.623   8.007  12.237  1.00  0.00     0.028 C 
BRANCH  34  37
HETATM   37  C16 UNL     1       1.027   5.505  12.080  1.00  0.00     0.164 C 
BRANCH  37  38
HETATM   38  O4  UNL     1       1.194   4.404  11.173  1.00  0.00    -0.390 OA
HETATM   39  H27 UNL     1       1.157   3.598  11.718  1.00  0.00     0.210 HD
ENDBRANCH  37  38
BRANCH  37  40
HETATM   40  C17 UNL     1      -0.233   5.266  12.900  1.00  0.00    -0.054 C 
HETATM   41  C18 UNL     1      -0.230   5.774  14.326  1.00  0.00     0.046 C 
HETATM   42  C19 UNL     1      -1.335   4.622  12.457  1.00  0.00     0.005 C 
BRANCH  42  43
HETATM   43  C20 UNL     1      -1.561   4.070  11.138  1.00  0.00     0.000 C 
HETATM   44  C21 UNL     1      -2.731   3.628  10.644  1.00  0.00     0.000 C 
BRANCH  44  45
HETATM   45  C22 UNL     1      -3.997   3.537  11.346  1.00  0.00     0.001 C 
HETATM   46  C23 UNL     1      -4.435   4.493  12.185  1.00  0.00     0.009 C 
BRANCH  46  47
HETATM   47  C24 UNL     1      -5.717   4.502  12.908  1.00  0.00    -0.034 C 
HETATM   48  C25 UNL     1      -6.772   3.536  12.393  1.00  0.00     0.050 C 
HETATM   49  C26 UNL     1      -5.920   5.353  13.943  1.00  0.00     0.082 C 
HETATM   50  C27 UNL     1      -5.040   6.373  14.590  1.00  0.00     0.075 C 
BRANCH  49  51
HETATM   51  N2  UNL     1      -7.206   5.301  14.608  1.00  0.00    -0.120 N 
HETATM   52  O5  UNL     1      -7.198   5.164  15.838  1.00  0.00    -0.532 OA
HETATM   53  O6  UNL     1      -8.209   5.430  13.895  1.00  0.00    -0.532 OA
ENDBRANCH  49  51
ENDBRANCH  46  47
ENDBRANCH  44  45
ENDBRANCH  42  43
ENDBRANCH  37  40
ENDBRANCH  34  37
ENDBRANCH  31  34
ENDBRANCH  29  30
ENDBRANCH   2  29
TORSDOF 19
ENDMDL
MODEL 8
REMARK minimizedAffinity -6.07172155
REMARK CNNscore 0.193475559
REMARK CNNaffinity 5.560637
REMARK  19 active torsions:
REMARK  status: ('A' for Active; 'I' for Inactive)
REMARK    1  A    between atoms: O1_2  and  C2_3 
REMARK    2  A    between atoms: C2_3  and  C3_4 
REMARK    3  A    between atoms: C2_3  and  C28_36 
REMARK    4  A    between atoms: C3_4  and  C4_5 
REMARK    5  A    between atoms: C4_5  and  C6_7 
REMARK    6  A    between atoms: C6_7  and  O2_8 
REMARK    7  A    between atoms: C6_7  and  C7_9 
REMARK    8  A    between atoms: C8_10  and  C9_11 
REMARK    9  A    between atoms: C10_12  and  C11_13 
REMARK   10  A    between atoms: C11_13  and  N1_14 
REMARK       I    between atoms: N1_14  and  C12_15 
REMARK   11  A    between atoms: C12_15  and  C13_17 
REMARK   12  A    between atoms: C13_17  and  C16_20 
REMARK   13  A    between atoms: C16_20  and  O4_21 
REMARK   14  A    between atoms: C16_20  and  C17_22 
REMARK   15  A    between atoms: C19_24  and  C20_25 
REMARK   16  A    between atoms: C21_26  and  C22_27 
REMARK   17  A    between atoms: C23_28  and  C24_29 
REMARK   18  A    between atoms: C26_31  and  N2_33 
REMARK   19  A    between atoms: C28_36  and  O7_37 
ROOT
HETATM    1  C9  UNL     1       6.424   9.525  14.362  1.00  0.00    -0.003 C 
HETATM    2  C10 UNL     1       5.129   9.735  14.074  1.00  0.00    -0.007 C 
ENDROOT
BRANCH   1   3
HETATM    3  C8  UNL     1       6.931   9.502  15.714  1.00  0.00    -0.002 C 
HETATM    4  C7  UNL     1       7.266  10.618  16.381  1.00  0.00     0.005 C 
BRANCH   4   5
HETATM    5  C6  UNL     1       7.854  10.729  17.765  1.00  0.00     0.144 C 
BRANCH   5   6
HETATM    6  C4  UNL     1       9.160  11.536  17.947  1.00  0.00     0.016 C 
HETATM    7  C5  UNL     1      10.386  10.686  18.299  1.00  0.00     0.013 C 
BRANCH   6   8
HETATM    8  C3  UNL     1       9.029  12.790  18.847  1.00  0.00     0.042 C 
BRANCH   8   9
HETATM    9  C2  UNL     1       8.737  14.229  18.304  1.00  0.00     0.159 C 
BRANCH   9  10
HETATM   10  O1  UNL     1       9.933  14.966  18.655  1.00  0.00    -0.388 OA
HETATM   11  C1  UNL     1      10.859  14.215  19.448  1.00  0.00     0.202 C 
ENDBRANCH   9  10
BRANCH   9  12
HETATM   12  C28 UNL     1       7.541  15.023  18.959  1.00  0.00     0.133 C 
HETATM   13  C29 UNL     1       7.858  16.549  19.086  1.00  0.00     0.114 C 
HETATM   14  C30 UNL     1       6.648  17.479  19.042  1.00  0.00     0.023 C 
HETATM   15  C31 UNL     1       8.527  16.684  20.428  1.00  0.00     0.227 C 
HETATM   16  O8  UNL     1       9.284  17.585  20.749  1.00  0.00    -0.273 OA
HETATM   17  N3  UNL     1       8.091  15.643  21.214  1.00  0.00    -0.332 N 
HETATM   18  C32 UNL     1       8.671  15.385  22.516  1.00  0.00     0.154 C 
HETATM   19  C33 UNL     1       7.288  14.620  20.449  1.00  0.00     0.183 A 
HETATM   20  C34 UNL     1       7.435  13.153  20.975  1.00  0.00     0.294 A 
HETATM   21  C35 UNL     1       5.836  14.434  21.034  1.00  0.00     0.169 A 
HETATM   22  O9  UNL     1       8.319  12.355  21.204  1.00  0.00    -0.262 OA
HETATM   23  O10 UNL     1       6.138  13.047  21.362  1.00  0.00    -0.311 OA
HETATM   24  C36 UNL     1       4.535  14.484  20.255  1.00  0.00     0.043 C 
BRANCH  12  25
HETATM   25  O7  UNL     1       6.342  14.853  18.194  1.00  0.00    -0.383 OA
HETATM   26  H42 UNL     1       6.525  15.021  17.254  1.00  0.00     0.210 HD
ENDBRANCH  12  25
ENDBRANCH   9  12
ENDBRANCH   8   9
ENDBRANCH   6   8
ENDBRANCH   5   6
BRANCH   5  27
HETATM   27  O2  UNL     1       6.838  11.310  18.586  1.00  0.00    -0.391 OA
HETATM   28  H12 UNL     1       6.440  12.041  18.079  1.00  0.00     0.210 HD
ENDBRANCH   5  27
ENDBRANCH   4   5
ENDBRANCH   1   3
BRANCH   2  29
HETATM   29  C11 UNL     1       4.503   9.724  12.712  1.00  0.00     0.149 C 
BRANCH  29  30
HETATM   30  N1  UNL     1       3.362   8.849  12.676  1.00  0.00    -0.357 N 
HETATM   31  C12 UNL     1       2.153   9.160  13.254  1.00  0.00     0.228 C 
HETATM   32  O3  UNL     1       1.979  10.190  13.905  1.00  0.00    -0.273 OA
HETATM   33  H19 UNL     1       3.384   8.050  12.043  1.00  0.00     0.162 HD
BRANCH  31  34
HETATM   34  C13 UNL     1       1.055   8.101  13.057  1.00  0.00     0.063 C 
HETATM   35  C14 UNL     1       1.418   7.209  11.853  1.00  0.00     0.028 C 
HETATM   36  C15 UNL     1      -0.257   8.842  12.713  1.00  0.00     0.028 C 
BRANCH  34  37
HETATM   37  C16 UNL     1       0.845   7.219  14.325  1.00  0.00     0.164 C 
BRANCH  37  38
HETATM   38  O4  UNL     1       1.590   5.995  14.231  1.00  0.00    -0.390 OA
HETATM   39  H27 UNL     1       1.449   5.529  15.074  1.00  0.00     0.210 HD
ENDBRANCH  37  38
BRANCH  37  40
HETATM   40  C17 UNL     1      -0.588   6.882  14.713  1.00  0.00    -0.054 C 
HETATM   41  C18 UNL     1      -1.196   7.674  15.851  1.00  0.00     0.046 C 
HETATM   42  C19 UNL     1      -1.342   5.922  14.133  1.00  0.00     0.005 C 
BRANCH  42  43
HETATM   43  C20 UNL     1      -0.974   5.060  13.030  1.00  0.00     0.000 C 
HETATM   44  C21 UNL     1      -1.772   4.181  12.398  1.00  0.00     0.000 C 
BRANCH  44  45
HETATM   45  C22 UNL     1      -3.145   3.853  12.731  1.00  0.00     0.001 C 
HETATM   46  C23 UNL     1      -4.088   3.631  11.797  1.00  0.00     0.009 C 
BRANCH  46  47
HETATM   47  C24 UNL     1      -5.490   3.256  12.043  1.00  0.00    -0.034 C 
HETATM   48  C25 UNL     1      -6.001   2.059  11.257  1.00  0.00     0.050 C 
HETATM   49  C26 UNL     1      -6.257   3.975  12.898  1.00  0.00     0.082 C 
HETATM   50  C27 UNL     1      -5.963   5.171  13.746  1.00  0.00     0.075 C 
BRANCH  49  51
HETATM   51  N2  UNL     1      -7.626   3.544  13.091  1.00  0.00    -0.120 N 
HETATM   52  O5  UNL     1      -8.510   4.218  12.547  1.00  0.00    -0.532 OA
HETATM   53  O6  UNL     1      -7.799   2.517  13.760  1.00  0.00    -0.532 OA
ENDBRANCH  49  51
ENDBRANCH  46  47
ENDBRANCH  44  45
ENDBRANCH  42  43
ENDBRANCH  37  40
ENDBRANCH  34  37
ENDBRANCH  31  34
ENDBRANCH  29  30
ENDBRANCH   2  29
TORSDOF 19
ENDMDL
MODEL 9
REMARK minimizedAffinity -8.25375748
REMARK CNNscore 0.187603459
REMARK CNNaffinity 5.72518682
REMARK  19 active torsions:
REMARK  status: ('A' for Active; 'I' for Inactive)
REMARK    1  A    between atoms: O1_2  and  C2_3 
REMARK    2  A    between atoms: C2_3  and  C3_4 
REMARK    3  A    between atoms: C2_3  and  C28_36 
REMARK    4  A    between atoms: C3_4  and  C4_5 
REMARK    5  A    between atoms: C4_5  and  C6_7 
REMARK    6  A    between atoms: C6_7  and  O2_8 
REMARK    7  A    between atoms: C6_7  and  C7_9 
REMARK    8  A    between atoms: C8_10  and  C9_11 
REMARK    9  A    between atoms: C10_12  and  C11_13 
REMARK   10  A    between atoms: C11_13  and  N1_14 
REMARK       I    between atoms: N1_14  and  C12_15 
REMARK   11  A    between atoms: C12_15  and  C13_17 
REMARK   12  A    between atoms: C13_17  and  C16_20 
REMARK   13  A    between atoms: C16_20  and  O4_21 
REMARK   14  A    between atoms: C16_20  and  C17_22 
REMARK   15  A    between atoms: C19_24  and  C20_25 
REMARK   16  A    between atoms: C21_26  and  C22_27 
REMARK   17  A    between atoms: C23_28  and  C24_29 
REMARK   18  A    between atoms: C26_31  and  N2_33 
REMARK   19  A    between atoms: C28_36  and  O7_37 
ROOT
HETATM    1  C9  UNL     1       7.039   7.473  13.507  1.00  0.00    -0.003 C 
HETATM    2  C10 UNL     1       7.157   6.940  12.279  1.00  0.00    -0.007 C 
ENDROOT
BRANCH   1   3
HETATM    3  C8  UNL     1       8.162   8.016  14.234  1.00  0.00    -0.002 C 
HETATM    4  C7  UNL     1       8.018   8.722  15.367  1.00  0.00     0.005 C 
BRANCH   4   5
HETATM    5  C6  UNL     1       9.094   9.386  16.188  1.00  0.00     0.144 C 
BRANCH   5   6
HETATM    6  C4  UNL     1       8.785  10.754  16.838  1.00  0.00     0.016 C 
HETATM    7  C5  UNL     1       9.658  11.908  16.332  1.00  0.00     0.013 C 
BRANCH   6   8
HETATM    8  C3  UNL     1       8.671  10.728  18.383  1.00  0.00     0.042 C 
BRANCH   8   9
HETATM    9  C2  UNL     1       9.256  11.836  19.321  1.00  0.00     0.159 C 
BRANCH   9  10
HETATM   10  O1  UNL     1      10.254  11.125  20.094  1.00  0.00    -0.388 OA
HETATM   11  C1  UNL     1      11.557  11.140  19.502  1.00  0.00     0.202 C 
ENDBRANCH   9  10
BRANCH   9  12
HETATM   12  C28 UNL     1       8.279  12.481  20.379  1.00  0.00     0.133 C 
HETATM   13  C29 UNL     1       6.795  12.464  19.885  1.00  0.00     0.114 C 
HETATM   14  C30 UNL     1       5.737  12.403  20.984  1.00  0.00     0.023 C 
HETATM   15  C31 UNL     1       6.635  13.754  19.126  1.00  0.00     0.227 C 
HETATM   16  O8  UNL     1       5.807  13.959  18.255  1.00  0.00    -0.273 OA
HETATM   17  N3  UNL     1       7.555  14.645  19.627  1.00  0.00    -0.332 N 
HETATM   18  C32 UNL     1       7.777  15.933  19.003  1.00  0.00     0.154 C 
HETATM   19  C33 UNL     1       8.533  14.011  20.584  1.00  0.00     0.183 A 
HETATM   20  C34 UNL     1       9.962  14.650  20.572  1.00  0.00     0.294 A 
HETATM   21  C35 UNL     1       8.502  14.683  22.011  1.00  0.00     0.169 A 
HETATM   22  O9  UNL     1      10.838  14.900  19.771  1.00  0.00    -0.262 OA
HETATM   23  O10 UNL     1       9.886  15.110  21.846  1.00  0.00    -0.311 OA
HETATM   24  C36 UNL     1       8.361  13.969  23.343  1.00  0.00     0.043 C 
BRANCH  12  25
HETATM   25  O7  UNL     1       8.367  11.796  21.633  1.00  0.00    -0.383 OA
HETATM   26  H42 UNL     1       8.294  10.837  21.490  1.00  0.00     0.210 HD
ENDBRANCH  12  25
ENDBRANCH   9  12
ENDBRANCH   8   9
ENDBRANCH   6   8
ENDBRANCH   5   6
BRANCH   5  27
HETATM   27  O2  UNL     1       9.443   8.458  17.217  1.00  0.00    -0.391 OA
HETATM   28  H12 UNL     1       8.611   8.088  17.566  1.00  0.00     0.210 HD
ENDBRANCH   5  27
ENDBRANCH   4   5
ENDBRANCH   1   3
BRANCH   2  29
HETATM   29  C11 UNL     1       6.046   6.402  11.428  1.00  0.00     0.149 C 
BRANCH  29  30
HETATM   30  N1  UNL     1       4.769   6.605  12.058  1.00  0.00    -0.357 N 
HETATM   31  C12 UNL     1       3.802   7.443  11.553  1.00  0.00     0.228 C 
HETATM   32  O3  UNL     1       3.987   8.134  10.551  1.00  0.00    -0.273 OA
HETATM   33  H19 UNL     1       4.491   5.969  12.805  1.00  0.00     0.162 HD
BRANCH  31  34
HETATM   34  C13 UNL     1       2.494   7.477  12.361  1.00  0.00     0.063 C 
HETATM   35  C14 UNL     1       1.803   8.840  12.153  1.00  0.00     0.028 C 
HETATM   36  C15 UNL     1       2.863   7.361  13.858  1.00  0.00     0.028 C 
BRANCH  34  37
HETATM   37  C16 UNL     1       1.521   6.324  11.968  1.00  0.00     0.164 C 
BRANCH  37  38
HETATM   38  O4  UNL     1       2.122   5.452  10.998  1.00  0.00    -0.390 OA
HETATM   39  H27 UNL     1       1.479   4.737  10.844  1.00  0.00     0.210 HD
ENDBRANCH  37  38
BRANCH  37  40
HETATM   40  C17 UNL     1       0.137   6.716  11.471  1.00  0.00    -0.054 C 
HETATM   41  C18 UNL     1       0.033   7.201  10.040  1.00  0.00     0.046 C 
HETATM   42  C19 UNL     1      -0.991   6.682  12.214  1.00  0.00     0.005 C 
BRANCH  42  43
HETATM   43  C20 UNL     1      -1.128   6.246  13.587  1.00  0.00     0.000 C 
HETATM   44  C21 UNL     1      -2.227   5.717  14.155  1.00  0.00     0.000 C 
BRANCH  44  45
HETATM   45  C22 UNL     1      -3.529   5.543  13.541  1.00  0.00     0.001 C 
HETATM   46  C23 UNL     1      -4.036   4.334  13.237  1.00  0.00     0.009 C 
BRANCH  46  47
HETATM   47  C24 UNL     1      -5.358   4.063  12.650  1.00  0.00    -0.034 C 
HETATM   48  C25 UNL     1      -5.352   3.297  11.336  1.00  0.00     0.050 C 
HETATM   49  C26 UNL     1      -6.486   4.509  13.253  1.00  0.00     0.082 C 
HETATM   50  C27 UNL     1      -6.712   5.276  14.516  1.00  0.00     0.075 C 
BRANCH  49  51
HETATM   51  N2  UNL     1      -7.750   4.200  12.618  1.00  0.00    -0.120 N 
HETATM   52  O5  UNL     1      -8.250   3.096  12.868  1.00  0.00    -0.532 OA
HETATM   53  O6  UNL     1      -8.245   5.079  11.900  1.00  0.00    -0.532 OA
ENDBRANCH  49  51
ENDBRANCH  46  47
ENDBRANCH  44  45
ENDBRANCH  42  43
ENDBRANCH  37  40
ENDBRANCH  34  37
ENDBRANCH  31  34
ENDBRANCH  29  30
ENDBRANCH   2  29
TORSDOF 19
ENDMDL
