MODEL 1
REMARK minimizedAffinity -7.6134367
REMARK CNNscore 0.844923615
REMARK CNNaffinity 7.16370821
REMARK  6 active torsions:
REMARK  status: ('A' for Active; 'I' for Inactive)
REMARK    1  A    between atoms: C4_4  and  C5_5 
REMARK    2  A    between atoms: C5_5  and  C6_6 
REMARK    3  A    between atoms: C6_6  and  C7_7 
REMARK    4  A    between atoms: C7_7  and  C9_9 
REMARK    5  A    between atoms: C24_24  and  O1_25 
REMARK    6  A    between atoms: C27_28  and  O2_29 
ROOT
HETATM    1  C9  UNL     1       4.928  56.050  -8.341  1.00  0.00    -0.002 C 
HETATM    2  C10 UNL     1       5.779  55.164  -9.297  1.00  0.00     0.007 C 
HETATM    3  C11 UNL     1       4.802  54.345 -10.162  1.00  0.00     0.015 C 
HETATM    4  C12 UNL     1       3.437  55.021  -9.958  1.00  0.00    -0.013 C 
HETATM    5  C13 UNL     1       3.380  56.242 -10.929  1.00  0.00     0.021 C 
HETATM    6  C14 UNL     1       2.166  54.229 -10.249  1.00  0.00    -0.065 C 
HETATM    7  C15 UNL     1       1.014  54.537  -9.598  1.00  0.00    -0.068 C 
HETATM    8  C16 UNL     1       0.979  55.595  -8.492  1.00  0.00     0.036 C 
HETATM    9  C17 UNL     1       2.313  56.273  -8.105  1.00  0.00     0.015 C 
HETATM   10  C18 UNL     1       3.519  55.383  -8.427  1.00  0.00    -0.029 C 
HETATM   11  C19 UNL     1       3.480  54.134  -7.493  1.00  0.00     0.016 C 
HETATM   12  C20 UNL     1      -0.307  53.794  -9.895  1.00  0.00    -0.014 C 
HETATM   13  C21 UNL     1      -0.431  52.667  -8.838  1.00  0.00     0.020 C 
HETATM   14  C22 UNL     1      -1.548  54.725  -9.793  1.00  0.00     0.016 C 
HETATM   15  C23 UNL     1      -2.856  54.044 -10.199  1.00  0.00     0.033 C 
HETATM   16  C24 UNL     1      -2.776  53.435 -11.593  1.00  0.00     0.118 C 
HETATM   17  C25 UNL     1      -1.566  52.520 -11.759  1.00  0.00     0.039 C 
HETATM   18  C26 UNL     1      -0.267  53.238 -11.355  1.00  0.00     0.029 C 
HETATM   19  C27 UNL     1       0.974  52.367 -11.581  1.00  0.00     0.127 C 
HETATM   20  C28 UNL     1       2.261  53.161 -11.316  1.00  0.00     0.067 C 
ENDROOT
BRANCH   1  21
HETATM   21  C7  UNL     1       5.606  56.237  -6.956  1.00  0.00    -0.014 C 
HETATM   22  C8  UNL     1       5.403  57.645  -6.385  1.00  0.00     0.010 C 
BRANCH  21  23
HETATM   23  C6  UNL     1       7.120  55.896  -6.969  1.00  0.00     0.008 C 
BRANCH  23  24
HETATM   24  C5  UNL     1       7.770  55.748  -5.589  1.00  0.00     0.028 C 
BRANCH  24  25
HETATM   25  C4  UNL     1       8.655  56.929  -5.287  1.00  0.00    -0.025 C 
HETATM   26  C2  UNL     1       9.986  56.935  -5.076  1.00  0.00    -0.091 C 
HETATM   27  C1  UNL     1      10.704  58.224  -4.768  1.00  0.00     0.042 C 
HETATM   28  C3  UNL     1      10.883  55.728  -5.125  1.00  0.00     0.042 C 
ENDBRANCH  24  25
ENDBRANCH  23  24
ENDBRANCH  21  23
ENDBRANCH   1  21
BRANCH  19  29
HETATM   29  O2  UNL     1       1.002  51.870 -12.921  1.00  0.00    -0.395 OA
HETATM   30  H44 UNL     1       0.972  52.632 -13.524  1.00  0.00     0.210 HD
ENDBRANCH  19  29
BRANCH  16  31
HETATM   31  O1  UNL     1      -3.970  52.709 -11.865  1.00  0.00    -0.396 OA
HETATM   32  H39 UNL     1      -4.038  51.988 -11.216  1.00  0.00     0.210 HD
ENDBRANCH  16  31
TORSDOF 6
ENDMDL
MODEL 2
REMARK minimizedAffinity -7.41125011
REMARK CNNscore 0.651910126
REMARK CNNaffinity 6.93122482
REMARK  6 active torsions:
REMARK  status: ('A' for Active; 'I' for Inactive)
REMARK    1  A    between atoms: C4_4  and  C5_5 
REMARK    2  A    between atoms: C5_5  and  C6_6 
REMARK    3  A    between atoms: C6_6  and  C7_7 
REMARK    4  A    between atoms: C7_7  and  C9_9 
REMARK    5  A    between atoms: C24_24  and  O1_25 
REMARK    6  A    between atoms: C27_28  and  O2_29 
ROOT
HETATM    1  C9  UNL     1       2.449  53.443 -11.182  1.00  0.00    -0.002 C 
HETATM    2  C10 UNL     1       1.145  54.269 -10.977  1.00  0.00     0.007 C 
HETATM    3  C11 UNL     1       1.423  55.307  -9.874  1.00  0.00     0.015 C 
HETATM    4  C12 UNL     1       2.952  55.314  -9.718  1.00  0.00    -0.013 C 
HETATM    5  C13 UNL     1       3.521  56.246 -10.833  1.00  0.00     0.021 C 
HETATM    6  C14 UNL     1       3.563  55.835  -8.422  1.00  0.00    -0.065 C 
HETATM    7  C15 UNL     1       4.775  55.377  -8.014  1.00  0.00    -0.068 C 
HETATM    8  C16 UNL     1       5.503  54.262  -8.770  1.00  0.00     0.036 C 
HETATM    9  C17 UNL     1       4.792  53.639  -9.992  1.00  0.00     0.015 C 
HETATM   10  C18 UNL     1       3.268  53.781  -9.897  1.00  0.00    -0.029 C 
HETATM   11  C19 UNL     1       2.759  52.902  -8.712  1.00  0.00     0.016 C 
HETATM   12  C20 UNL     1       5.453  55.910  -6.733  1.00  0.00    -0.014 C 
HETATM   13  C21 UNL     1       5.096  54.921  -5.594  1.00  0.00     0.020 C 
HETATM   14  C22 UNL     1       7.000  55.990  -6.869  1.00  0.00     0.016 C 
HETATM   15  C23 UNL     1       7.687  56.627  -5.661  1.00  0.00     0.033 C 
HETATM   16  C24 UNL     1       7.121  58.005  -5.341  1.00  0.00     0.118 C 
HETATM   17  C25 UNL     1       5.600  57.993  -5.210  1.00  0.00     0.039 C 
HETATM   18  C26 UNL     1       4.941  57.358  -6.445  1.00  0.00     0.029 C 
HETATM   19  C27 UNL     1       3.411  57.399  -6.374  1.00  0.00     0.127 C 
HETATM   20  C28 UNL     1       2.784  56.901  -7.684  1.00  0.00     0.067 C 
ENDROOT
BRANCH   1  21
HETATM   21  C7  UNL     1       2.154  51.959 -11.537  1.00  0.00    -0.014 C 
HETATM   22  C8  UNL     1       3.431  51.132 -11.721  1.00  0.00     0.010 C 
BRANCH  21  23
HETATM   23  C6  UNL     1       1.248  51.802 -12.787  1.00  0.00     0.008 C 
BRANCH  23  24
HETATM   24  C5  UNL     1       1.828  50.938 -13.912  1.00  0.00     0.028 C 
BRANCH  24  25
HETATM   25  C4  UNL     1       1.352  51.422 -15.256  1.00  0.00    -0.025 C 
HETATM   26  C2  UNL     1       2.045  52.115 -16.181  1.00  0.00    -0.091 C 
HETATM   27  C1  UNL     1       1.390  52.530 -17.473  1.00  0.00     0.042 C 
HETATM   28  C3  UNL     1       3.484  52.537 -16.058  1.00  0.00     0.042 C 
ENDBRANCH  24  25
ENDBRANCH  23  24
ENDBRANCH  21  23
ENDBRANCH   1  21
BRANCH  19  29
HETATM   29  O2  UNL     1       2.954  58.730  -6.117  1.00  0.00    -0.395 OA
HETATM   30  H44 UNL     1       3.306  59.307  -6.815  1.00  0.00     0.210 HD
ENDBRANCH  19  29
BRANCH  16  31
HETATM   31  O1  UNL     1       7.705  58.492  -4.137  1.00  0.00    -0.396 OA
HETATM   32  H39 UNL     1       7.463  57.885  -3.418  1.00  0.00     0.210 HD
ENDBRANCH  16  31
TORSDOF 6
ENDMDL
MODEL 3
REMARK minimizedAffinity -7.20398283
REMARK CNNscore 0.61923945
REMARK CNNaffinity 6.86071634
REMARK  6 active torsions:
REMARK  status: ('A' for Active; 'I' for Inactive)
REMARK    1  A    between atoms: C4_4  and  C5_5 
REMARK    2  A    between atoms: C5_5  and  C6_6 
REMARK    3  A    between atoms: C6_6  and  C7_7 
REMARK    4  A    between atoms: C7_7  and  C9_9 
REMARK    5  A    between atoms: C24_24  and  O1_25 
REMARK    6  A    between atoms: C27_28  and  O2_29 
ROOT
HETATM    1  C9  UNL     1       2.447  55.395  -7.909  1.00  0.00    -0.002 C 
HETATM    2  C10 UNL     1       1.330  56.443  -7.630  1.00  0.00     0.007 C 
HETATM    3  C11 UNL     1       0.037  55.928  -8.291  1.00  0.00     0.015 C 
HETATM    4  C12 UNL     1       0.324  54.453  -8.616  1.00  0.00    -0.013 C 
HETATM    5  C13 UNL     1       0.064  53.638  -7.311  1.00  0.00     0.021 C 
HETATM    6  C14 UNL     1      -0.507  53.755  -9.687  1.00  0.00    -0.065 C 
HETATM    7  C15 UNL     1       0.022  52.714 -10.381  1.00  0.00    -0.068 C 
HETATM    8  C16 UNL     1       1.480  52.285 -10.190  1.00  0.00     0.036 C 
HETATM    9  C17 UNL     1       2.348  53.108  -9.213  1.00  0.00     0.015 C 
HETATM   10  C18 UNL     1       1.832  54.544  -9.063  1.00  0.00    -0.029 C 
HETATM   11  C19 UNL     1       2.032  55.289 -10.419  1.00  0.00     0.016 C 
HETATM   12  C20 UNL     1      -0.798  51.946 -11.441  1.00  0.00    -0.014 C 
HETATM   13  C21 UNL     1      -0.447  52.573 -12.814  1.00  0.00     0.020 C 
HETATM   14  C22 UNL     1      -0.457  50.430 -11.473  1.00  0.00     0.016 C 
HETATM   15  C23 UNL     1      -1.339  49.626 -12.429  1.00  0.00     0.033 C 
HETATM   16  C24 UNL     1      -2.823  49.820 -12.140  1.00  0.00     0.118 C 
HETATM   17  C25 UNL     1      -3.215  51.294 -12.081  1.00  0.00     0.039 C 
HETATM   18  C26 UNL     1      -2.319  52.069 -11.102  1.00  0.00     0.029 C 
HETATM   19  C27 UNL     1      -2.737  53.538 -10.968  1.00  0.00     0.127 C 
HETATM   20  C28 UNL     1      -1.926  54.245  -9.873  1.00  0.00     0.067 C 
ENDROOT
BRANCH   1  21
HETATM   21  C7  UNL     1       3.839  56.060  -8.101  1.00  0.00    -0.014 C 
HETATM   22  C8  UNL     1       3.758  57.588  -8.176  1.00  0.00     0.010 C 
BRANCH  21  23
HETATM   23  C6  UNL     1       4.605  55.519  -9.338  1.00  0.00     0.008 C 
BRANCH  23  24
HETATM   24  C5  UNL     1       6.089  55.213  -9.107  1.00  0.00     0.028 C 
BRANCH  24  25
HETATM   25  C4  UNL     1       6.405  53.789  -9.481  1.00  0.00    -0.025 C 
HETATM   26  C2  UNL     1       6.587  52.736  -8.660  1.00  0.00    -0.091 C 
HETATM   27  C1  UNL     1       6.915  51.378  -9.221  1.00  0.00     0.042 C 
HETATM   28  C3  UNL     1       6.484  52.773  -7.159  1.00  0.00     0.042 C 
ENDBRANCH  24  25
ENDBRANCH  23  24
ENDBRANCH  21  23
ENDBRANCH   1  21
BRANCH  19  29
HETATM   29  O2  UNL     1      -4.129  53.637 -10.652  1.00  0.00    -0.395 OA
HETATM   30  H44 UNL     1      -4.287  53.132  -9.836  1.00  0.00     0.210 HD
ENDBRANCH  19  29
BRANCH  16  31
HETATM   31  O1  UNL     1      -3.593  49.155 -13.135  1.00  0.00    -0.396 OA
HETATM   32  H39 UNL     1      -3.390  49.562 -13.994  1.00  0.00     0.210 HD
ENDBRANCH  16  31
TORSDOF 6
ENDMDL
MODEL 4
REMARK minimizedAffinity -7.61874533
REMARK CNNscore 0.585465968
REMARK CNNaffinity 6.23639345
REMARK  6 active torsions:
REMARK  status: ('A' for Active; 'I' for Inactive)
REMARK    1  A    between atoms: C4_4  and  C5_5 
REMARK    2  A    between atoms: C5_5  and  C6_6 
REMARK    3  A    between atoms: C6_6  and  C7_7 
REMARK    4  A    between atoms: C7_7  and  C9_9 
REMARK    5  A    between atoms: C24_24  and  O1_25 
REMARK    6  A    between atoms: C27_28  and  O2_29 
ROOT
HETATM    1  C9  UNL     1      -6.208  46.262 -30.566  1.00  0.00    -0.002 C 
HETATM    2  C10 UNL     1      -5.710  47.258 -29.479  1.00  0.00     0.007 C 
HETATM    3  C11 UNL     1      -6.905  47.578 -28.562  1.00  0.00     0.015 C 
HETATM    4  C12 UNL     1      -7.955  46.506 -28.899  1.00  0.00    -0.013 C 
HETATM    5  C13 UNL     1      -7.583  45.228 -28.083  1.00  0.00     0.021 C 
HETATM    6  C14 UNL     1      -9.419  46.772 -28.565  1.00  0.00    -0.065 C 
HETATM    7  C15 UNL     1     -10.397  46.173 -29.293  1.00  0.00    -0.068 C 
HETATM    8  C16 UNL     1     -10.070  45.315 -30.519  1.00  0.00     0.036 C 
HETATM    9  C17 UNL     1      -8.586  45.189 -30.931  1.00  0.00     0.015 C 
HETATM   10  C18 UNL     1      -7.759  46.390 -30.457  1.00  0.00    -0.029 C 
HETATM   11  C19 UNL     1      -8.230  47.657 -31.237  1.00  0.00     0.016 C 
HETATM   12  C20 UNL     1     -11.892  46.375 -28.962  1.00  0.00    -0.014 C 
HETATM   13  C21 UNL     1     -12.402  47.515 -29.881  1.00  0.00     0.020 C 
HETATM   14  C22 UNL     1     -12.737  45.097 -29.224  1.00  0.00     0.016 C 
HETATM   15  C23 UNL     1     -14.198  45.231 -28.792  1.00  0.00     0.033 C 
HETATM   16  C24 UNL     1     -14.327  45.650 -27.332  1.00  0.00     0.118 C 
HETATM   17  C25 UNL     1     -13.505  46.896 -27.011  1.00  0.00     0.039 C 
HETATM   18  C26 UNL     1     -12.040  46.723 -27.446  1.00  0.00     0.029 C 
HETATM   19  C27 UNL     1     -11.174  47.930 -27.069  1.00  0.00     0.127 C 
HETATM   20  C28 UNL     1      -9.694  47.665 -27.375  1.00  0.00     0.067 C 
ENDROOT
BRANCH   1  21
HETATM   21  C7  UNL     1      -5.511  46.494 -31.937  1.00  0.00    -0.014 C 
HETATM   22  C8  UNL     1      -6.512  46.644 -33.088  1.00  0.00     0.010 C 
BRANCH  21  23
HETATM   23  C6  UNL     1      -4.477  45.392 -32.288  1.00  0.00     0.008 C 
BRANCH  23  24
HETATM   24  C5  UNL     1      -5.073  44.047 -32.719  1.00  0.00     0.028 C 
BRANCH  24  25
HETATM   25  C4  UNL     1      -4.056  42.945 -32.586  1.00  0.00    -0.025 C 
HETATM   26  C2  UNL     1      -3.577  42.138 -33.553  1.00  0.00    -0.091 C 
HETATM   27  C1  UNL     1      -2.565  41.071 -33.226  1.00  0.00     0.042 C 
HETATM   28  C3  UNL     1      -3.962  42.194 -35.007  1.00  0.00     0.042 C 
ENDBRANCH  24  25
ENDBRANCH  23  24
ENDBRANCH  21  23
ENDBRANCH   1  21
BRANCH  19  29
HETATM   29  O2  UNL     1     -11.314  48.234 -25.678  1.00  0.00    -0.395 OA
HETATM   30  H44 UNL     1     -11.076  47.438 -25.173  1.00  0.00     0.210 HD
ENDBRANCH  19  29
BRANCH  16  31
HETATM   31  O1  UNL     1     -15.697  45.884 -27.023  1.00  0.00    -0.396 OA
HETATM   32  H39 UNL     1     -16.011  46.614 -27.584  1.00  0.00     0.210 HD
ENDBRANCH  16  31
TORSDOF 6
ENDMDL
MODEL 5
REMARK minimizedAffinity -7.38361597
REMARK CNNscore 0.578946173
REMARK CNNaffinity 6.13734055
REMARK  6 active torsions:
REMARK  status: ('A' for Active; 'I' for Inactive)
REMARK    1  A    between atoms: C4_4  and  C5_5 
REMARK    2  A    between atoms: C5_5  and  C6_6 
REMARK    3  A    between atoms: C6_6  and  C7_7 
REMARK    4  A    between atoms: C7_7  and  C9_9 
REMARK    5  A    between atoms: C24_24  and  O1_25 
REMARK    6  A    between atoms: C27_28  and  O2_29 
ROOT
HETATM    1  C9  UNL     1     -12.342  45.851 -27.808  1.00  0.00    -0.002 C 
HETATM    2  C10 UNL     1     -12.893  44.908 -28.918  1.00  0.00     0.007 C 
HETATM    3  C11 UNL     1     -11.877  44.912 -30.075  1.00  0.00     0.015 C 
HETATM    4  C12 UNL     1     -10.609  45.547 -29.481  1.00  0.00    -0.013 C 
HETATM    5  C13 UNL     1      -9.844  44.419 -28.721  1.00  0.00     0.021 C 
HETATM    6  C14 UNL     1      -9.575  46.157 -30.422  1.00  0.00    -0.065 C 
HETATM    7  C15 UNL     1      -8.775  47.165 -29.985  1.00  0.00    -0.068 C 
HETATM    8  C16 UNL     1      -8.956  47.783 -28.596  1.00  0.00     0.036 C 
HETATM    9  C17 UNL     1     -10.113  47.254 -27.719  1.00  0.00     0.015 C 
HETATM   10  C18 UNL     1     -11.245  46.661 -28.567  1.00  0.00    -0.029 C 
HETATM   11  C19 UNL     1     -11.919  47.814 -29.374  1.00  0.00     0.016 C 
HETATM   12  C20 UNL     1      -7.683  47.781 -30.886  1.00  0.00    -0.014 C 
HETATM   13  C21 UNL     1      -8.305  49.040 -31.542  1.00  0.00     0.020 C 
HETATM   14  C22 UNL     1      -6.417  48.197 -30.086  1.00  0.00     0.016 C 
HETATM   15  C23 UNL     1      -5.274  48.699 -30.969  1.00  0.00     0.033 C 
HETATM   16  C24 UNL     1      -4.899  47.691 -32.048  1.00  0.00     0.118 C 
HETATM   17  C25 UNL     1      -6.107  47.232 -32.860  1.00  0.00     0.039 C 
HETATM   18  C26 UNL     1      -7.232  46.722 -31.943  1.00  0.00     0.029 C 
HETATM   19  C27 UNL     1      -8.430  46.186 -32.735  1.00  0.00     0.127 C 
HETATM   20  C28 UNL     1      -9.466  45.545 -31.801  1.00  0.00     0.067 C 
ENDROOT
BRANCH   1  21
HETATM   21  C7  UNL     1     -13.478  46.606 -27.063  1.00  0.00    -0.014 C 
HETATM   22  C8  UNL     1     -13.134  46.890 -25.596  1.00  0.00     0.010 C 
BRANCH  21  23
HETATM   23  C6  UNL     1     -14.847  45.879 -27.144  1.00  0.00     0.008 C 
BRANCH  23  24
HETATM   24  C5  UNL     1     -15.697  45.940 -25.870  1.00  0.00     0.028 C 
BRANCH  24  25
HETATM   25  C4  UNL     1     -17.069  45.373 -26.118  1.00  0.00    -0.025 C 
HETATM   26  C2  UNL     1     -18.241  45.773 -25.585  1.00  0.00    -0.091 C 
HETATM   27  C1  UNL     1     -19.523  45.067 -25.942  1.00  0.00     0.042 C 
HETATM   28  C3  UNL     1     -18.416  46.918 -24.624  1.00  0.00     0.042 C 
ENDBRANCH  24  25
ENDBRANCH  23  24
ENDBRANCH  21  23
ENDBRANCH   1  21
BRANCH  19  29
HETATM   29  O2  UNL     1      -8.005  45.214 -33.694  1.00  0.00    -0.395 OA
HETATM   30  H44 UNL     1      -7.533  44.510 -33.217  1.00  0.00     0.210 HD
ENDBRANCH  19  29
BRANCH  16  31
HETATM   31  O1  UNL     1      -3.924  48.261 -32.915  1.00  0.00    -0.396 OA
HETATM   32  H39 UNL     1      -4.321  49.038 -33.343  1.00  0.00     0.210 HD
ENDBRANCH  16  31
TORSDOF 6
ENDMDL
MODEL 6
REMARK minimizedAffinity -7.55661058
REMARK CNNscore 0.578932464
REMARK CNNaffinity 5.62197733
REMARK  6 active torsions:
REMARK  status: ('A' for Active; 'I' for Inactive)
REMARK    1  A    between atoms: C4_4  and  C5_5 
REMARK    2  A    between atoms: C5_5  and  C6_6 
REMARK    3  A    between atoms: C6_6  and  C7_7 
REMARK    4  A    between atoms: C7_7  and  C9_9 
REMARK    5  A    between atoms: C24_24  and  O1_25 
REMARK    6  A    between atoms: C27_28  and  O2_29 
ROOT
HETATM    1  C9  UNL     1       6.802  66.857 -36.450  1.00  0.00    -0.002 C 
HETATM    2  C10 UNL     1       7.531  66.746 -37.821  1.00  0.00     0.007 C 
HETATM    3  C11 UNL     1       6.519  67.132 -38.916  1.00  0.00     0.015 C 
HETATM    4  C12 UNL     1       5.359  67.800 -38.160  1.00  0.00    -0.013 C 
HETATM    5  C13 UNL     1       5.766  69.287 -37.916  1.00  0.00     0.021 C 
HETATM    6  C14 UNL     1       3.987  67.872 -38.821  1.00  0.00    -0.065 C 
HETATM    7  C15 UNL     1       2.868  67.923 -38.052  1.00  0.00    -0.068 C 
HETATM    8  C16 UNL     1       2.939  67.801 -36.527  1.00  0.00     0.036 C 
HETATM    9  C17 UNL     1       4.328  67.570 -35.890  1.00  0.00     0.015 C 
HETATM   10  C18 UNL     1       5.299  66.899 -36.869  1.00  0.00    -0.029 C 
HETATM   11  C19 UNL     1       4.799  65.448 -37.149  1.00  0.00     0.016 C 
HETATM   12  C20 UNL     1       1.460  68.045 -38.677  1.00  0.00    -0.014 C 
HETATM   13  C21 UNL     1       0.892  66.606 -38.778  1.00  0.00     0.020 C 
HETATM   14  C22 UNL     1       0.500  68.911 -37.814  1.00  0.00     0.016 C 
HETATM   15  C23 UNL     1      -0.862  69.147 -38.468  1.00  0.00     0.033 C 
HETATM   16  C24 UNL     1      -0.732  69.747 -39.862  1.00  0.00     0.118 C 
HETATM   17  C25 UNL     1       0.213  68.946 -40.753  1.00  0.00     0.039 C 
HETATM   18  C26 UNL     1       1.576  68.738 -40.073  1.00  0.00     0.029 C 
HETATM   19  C27 UNL     1       2.571  67.999 -40.975  1.00  0.00     0.127 C 
HETATM   20  C28 UNL     1       3.963  67.942 -40.332  1.00  0.00     0.067 C 
ENDROOT
BRANCH   1  21
HETATM   21  C7  UNL     1       7.289  65.781 -35.439  1.00  0.00    -0.014 C 
HETATM   22  C8  UNL     1       8.107  64.670 -36.107  1.00  0.00     0.010 C 
BRANCH  21  23
HETATM   23  C6  UNL     1       6.132  65.152 -34.617  1.00  0.00     0.008 C 
BRANCH  23  24
HETATM   24  C5  UNL     1       5.944  65.723 -33.208  1.00  0.00     0.028 C 
BRANCH  24  25
HETATM   25  C4  UNL     1       4.848  64.993 -32.477  1.00  0.00    -0.025 C 
HETATM   26  C2  UNL     1       4.445  63.718 -32.646  1.00  0.00    -0.091 C 
HETATM   27  C1  UNL     1       3.310  63.161 -31.827  1.00  0.00     0.042 C 
HETATM   28  C3  UNL     1       5.046  62.734 -33.613  1.00  0.00     0.042 C 
ENDBRANCH  24  25
ENDBRANCH  23  24
ENDBRANCH  21  23
ENDBRANCH   1  21
BRANCH  19  29
HETATM   29  O2  UNL     1       2.672  68.645 -42.247  1.00  0.00    -0.395 OA
HETATM   30  H44 UNL     1       2.931  69.570 -42.093  1.00  0.00     0.210 HD
ENDBRANCH  19  29
BRANCH  16  31
HETATM   31  O1  UNL     1      -2.017  69.825 -40.469  1.00  0.00    -0.396 OA
HETATM   32  H39 UNL     1      -2.365  68.921 -40.553  1.00  0.00     0.210 HD
ENDBRANCH  16  31
TORSDOF 6
ENDMDL
MODEL 7
REMARK minimizedAffinity -7.13136911
REMARK CNNscore 0.491406947
REMARK CNNaffinity 6.38118029
REMARK  6 active torsions:
REMARK  status: ('A' for Active; 'I' for Inactive)
REMARK    1  A    between atoms: C4_4  and  C5_5 
REMARK    2  A    between atoms: C5_5  and  C6_6 
REMARK    3  A    between atoms: C6_6  and  C7_7 
REMARK    4  A    between atoms: C7_7  and  C9_9 
REMARK    5  A    between atoms: C24_24  and  O1_25 
REMARK    6  A    between atoms: C27_28  and  O2_29 
ROOT
HETATM    1  C9  UNL     1       1.207  55.447  -8.489  1.00  0.00    -0.002 C 
HETATM    2  C10 UNL     1       1.865  55.697  -9.878  1.00  0.00     0.007 C 
HETATM    3  C11 UNL     1       1.167  54.773 -10.894  1.00  0.00     0.015 C 
HETATM    4  C12 UNL     1      -0.100  54.284 -10.173  1.00  0.00    -0.013 C 
HETATM    5  C13 UNL     1      -1.181  55.397 -10.339  1.00  0.00     0.021 C 
HETATM    6  C14 UNL     1      -0.777  53.004 -10.652  1.00  0.00    -0.065 C 
HETATM    7  C15 UNL     1      -1.503  52.257  -9.779  1.00  0.00    -0.068 C 
HETATM    8  C16 UNL     1      -1.572  52.609  -8.290  1.00  0.00     0.036 C 
HETATM    9  C17 UNL     1      -0.748  53.821  -7.800  1.00  0.00     0.015 C 
HETATM   10  C18 UNL     1       0.454  54.098  -8.710  1.00  0.00    -0.029 C 
HETATM   11  C19 UNL     1       1.463  52.914  -8.576  1.00  0.00     0.016 C 
HETATM   12  C20 UNL     1      -2.245  50.980 -10.230  1.00  0.00    -0.014 C 
HETATM   13  C21 UNL     1      -1.308  49.786  -9.917  1.00  0.00     0.020 C 
HETATM   14  C22 UNL     1      -3.592  50.779  -9.479  1.00  0.00     0.016 C 
HETATM   15  C23 UNL     1      -4.403  49.588  -9.989  1.00  0.00     0.033 C 
HETATM   16  C24 UNL     1      -4.653  49.666 -11.490  1.00  0.00     0.118 C 
HETATM   17  C25 UNL     1      -3.365  49.879 -12.282  1.00  0.00     0.039 C 
HETATM   18  C26 UNL     1      -2.580  51.090 -11.752  1.00  0.00     0.029 C 
HETATM   19  C27 UNL     1      -1.318  51.372 -12.576  1.00  0.00     0.127 C 
HETATM   20  C28 UNL     1      -0.641  52.672 -12.121  1.00  0.00     0.067 C 
ENDROOT
BRANCH   1  21
HETATM   21  C7  UNL     1       2.229  55.575  -7.325  1.00  0.00    -0.014 C 
HETATM   22  C8  UNL     1       1.656  55.105  -5.983  1.00  0.00     0.010 C 
BRANCH  21  23
HETATM   23  C6  UNL     1       2.799  57.011  -7.172  1.00  0.00     0.008 C 
BRANCH  23  24
HETATM   24  C5  UNL     1       4.058  57.306  -7.995  1.00  0.00     0.028 C 
BRANCH  24  25
HETATM   25  C4  UNL     1       5.289  56.808  -7.285  1.00  0.00    -0.025 C 
HETATM   26  C2  UNL     1       6.187  55.902  -7.719  1.00  0.00    -0.091 C 
HETATM   27  C1  UNL     1       7.358  55.513  -6.855  1.00  0.00     0.042 C 
HETATM   28  C3  UNL     1       6.147  55.203  -9.052  1.00  0.00     0.042 C 
ENDBRANCH  24  25
ENDBRANCH  23  24
ENDBRANCH  21  23
ENDBRANCH   1  21
BRANCH  19  29
HETATM   29  O2  UNL     1      -1.638  51.476 -13.966  1.00  0.00    -0.395 OA
HETATM   30  H44 UNL     1      -2.308  52.174 -14.067  1.00  0.00     0.210 HD
ENDBRANCH  19  29
BRANCH  16  31
HETATM   31  O1  UNL     1      -5.297  48.475 -11.929  1.00  0.00    -0.396 OA
HETATM   32  H39 UNL     1      -4.700  47.728 -11.754  1.00  0.00     0.210 HD
ENDBRANCH  16  31
TORSDOF 6
ENDMDL
MODEL 8
REMARK minimizedAffinity -7.77217817
REMARK CNNscore 0.473276973
REMARK CNNaffinity 6.10154343
REMARK  6 active torsions:
REMARK  status: ('A' for Active; 'I' for Inactive)
REMARK    1  A    between atoms: C4_4  and  C5_5 
REMARK    2  A    between atoms: C5_5  and  C6_6 
REMARK    3  A    between atoms: C6_6  and  C7_7 
REMARK    4  A    between atoms: C7_7  and  C9_9 
REMARK    5  A    between atoms: C24_24  and  O1_25 
REMARK    6  A    between atoms: C27_28  and  O2_29 
ROOT
HETATM    1  C9  UNL     1      -8.019  47.527 -28.519  1.00  0.00    -0.002 C 
HETATM    2  C10 UNL     1      -6.676  48.126 -29.030  1.00  0.00     0.007 C 
HETATM    3  C11 UNL     1      -6.699  48.067 -30.569  1.00  0.00     0.015 C 
HETATM    4  C12 UNL     1      -8.167  47.784 -30.929  1.00  0.00    -0.013 C 
HETATM    5  C13 UNL     1      -8.917  49.153 -30.902  1.00  0.00     0.021 C 
HETATM    6  C14 UNL     1      -8.494  47.185 -32.292  1.00  0.00    -0.065 C 
HETATM    7  C15 UNL     1      -9.615  46.433 -32.449  1.00  0.00    -0.068 C 
HETATM    8  C16 UNL     1     -10.512  46.079 -31.259  1.00  0.00     0.036 C 
HETATM    9  C17 UNL     1     -10.074  46.566 -29.860  1.00  0.00     0.015 C 
HETATM   10  C18 UNL     1      -8.558  46.781 -29.779  1.00  0.00    -0.029 C 
HETATM   11  C19 UNL     1      -7.852  45.394 -29.902  1.00  0.00     0.016 C 
HETATM   12  C20 UNL     1     -10.011  45.846 -33.821  1.00  0.00    -0.014 C 
HETATM   13  C21 UNL     1      -9.466  44.395 -33.859  1.00  0.00     0.020 C 
HETATM   14  C22 UNL     1     -11.551  45.815 -34.032  1.00  0.00     0.016 C 
HETATM   15  C23 UNL     1     -11.966  45.350 -35.428  1.00  0.00     0.033 C 
HETATM   16  C24 UNL     1     -11.308  46.175 -36.527  1.00  0.00     0.118 C 
HETATM   17  C25 UNL     1      -9.792  46.254 -36.364  1.00  0.00     0.039 C 
HETATM   18  C26 UNL     1      -9.409  46.737 -34.955  1.00  0.00     0.029 C 
HETATM   19  C27 UNL     1      -7.894  46.896 -34.786  1.00  0.00     0.127 C 
HETATM   20  C28 UNL     1      -7.553  47.523 -33.427  1.00  0.00     0.067 C 
ENDROOT
BRANCH   1  21
HETATM   21  C7  UNL     1      -7.845  46.752 -27.183  1.00  0.00    -0.014 C 
HETATM   22  C8  UNL     1      -9.176  46.240 -26.620  1.00  0.00     0.010 C 
BRANCH  21  23
HETATM   23  C6  UNL     1      -7.103  47.574 -26.096  1.00  0.00     0.008 C 
BRANCH  23  24
HETATM   24  C5  UNL     1      -5.653  47.943 -26.430  1.00  0.00     0.028 C 
BRANCH  24  25
HETATM   25  C4  UNL     1      -4.887  48.283 -25.179  1.00  0.00    -0.025 C 
HETATM   26  C2  UNL     1      -3.585  48.611 -25.067  1.00  0.00    -0.091 C 
HETATM   27  C1  UNL     1      -2.984  48.905 -23.717  1.00  0.00     0.042 C 
HETATM   28  C3  UNL     1      -2.613  48.728 -26.211  1.00  0.00     0.042 C 
ENDBRANCH  24  25
ENDBRANCH  23  24
ENDBRANCH  21  23
ENDBRANCH   1  21
BRANCH  19  29
HETATM   29  O2  UNL     1      -7.355  47.718 -35.825  1.00  0.00    -0.395 OA
HETATM   30  H44 UNL     1      -7.820  48.572 -35.803  1.00  0.00     0.210 HD
ENDBRANCH  19  29
BRANCH  16  31
HETATM   31  O1  UNL     1     -11.627  45.619 -37.797  1.00  0.00    -0.396 OA
HETATM   32  H39 UNL     1     -11.266  44.717 -37.830  1.00  0.00     0.210 HD
ENDBRANCH  16  31
TORSDOF 6
ENDMDL
MODEL 9
REMARK minimizedAffinity -7.33686304
REMARK CNNscore 0.446138829
REMARK CNNaffinity 5.33276701
REMARK  6 active torsions:
REMARK  status: ('A' for Active; 'I' for Inactive)
REMARK    1  A    between atoms: C4_4  and  C5_5 
REMARK    2  A    between atoms: C5_5  and  C6_6 
REMARK    3  A    between atoms: C6_6  and  C7_7 
REMARK    4  A    between atoms: C7_7  and  C9_9 
REMARK    5  A    between atoms: C24_24  and  O1_25 
REMARK    6  A    between atoms: C27_28  and  O2_29 
ROOT
HETATM    1  C9  UNL     1       3.321  66.459 -37.358  1.00  0.00    -0.002 C 
HETATM    2  C10 UNL     1       2.131  66.451 -36.354  1.00  0.00     0.007 C 
HETATM    3  C11 UNL     1       0.982  67.255 -36.992  1.00  0.00     0.015 C 
HETATM    4  C12 UNL     1       1.378  67.401 -38.470  1.00  0.00    -0.013 C 
HETATM    5  C13 UNL     1       0.949  66.085 -39.191  1.00  0.00     0.021 C 
HETATM    6  C14 UNL     1       0.758  68.522 -39.297  1.00  0.00    -0.065 C 
HETATM    7  C15 UNL     1       1.434  69.030 -40.360  1.00  0.00    -0.068 C 
HETATM    8  C16 UNL     1       2.860  68.579 -40.691  1.00  0.00     0.036 C 
HETATM    9  C17 UNL     1       3.527  67.556 -39.745  1.00  0.00     0.015 C 
HETATM   10  C18 UNL     1       2.933  67.615 -38.333  1.00  0.00    -0.029 C 
HETATM   11  C19 UNL     1       3.315  68.985 -37.689  1.00  0.00     0.016 C 
HETATM   12  C20 UNL     1       0.826  70.133 -41.255  1.00  0.00    -0.014 C 
HETATM   13  C21 UNL     1       1.364  71.485 -40.722  1.00  0.00     0.020 C 
HETATM   14  C22 UNL     1       1.230  69.977 -42.748  1.00  0.00     0.016 C 
HETATM   15  C23 UNL     1       0.546  70.984 -43.673  1.00  0.00     0.033 C 
HETATM   16  C24 UNL     1      -0.972  70.946 -43.539  1.00  0.00     0.118 C 
HETATM   17  C25 UNL     1      -1.430  71.080 -42.089  1.00  0.00     0.039 C 
HETATM   18  C26 UNL     1      -0.733  70.046 -41.189  1.00  0.00     0.029 C 
HETATM   19  C27 UNL     1      -1.229  70.108 -39.740  1.00  0.00     0.127 C 
HETATM   20  C28 UNL     1      -0.632  68.968 -38.903  1.00  0.00     0.067 C 
ENDROOT
BRANCH   1  21
HETATM   21  C7  UNL     1       4.697  66.492 -36.636  1.00  0.00    -0.014 C 
HETATM   22  C8  UNL     1       5.582  65.295 -37.000  1.00  0.00     0.010 C 
BRANCH  21  23
HETATM   23  C6  UNL     1       4.571  66.594 -35.093  1.00  0.00     0.008 C 
BRANCH  23  24
HETATM   24  C5  UNL     1       5.524  65.695 -34.297  1.00  0.00     0.028 C 
BRANCH  24  25
HETATM   25  C4  UNL     1       4.767  64.887 -33.277  1.00  0.00    -0.025 C 
HETATM   26  C2  UNL     1       4.544  63.557 -33.271  1.00  0.00    -0.091 C 
HETATM   27  C1  UNL     1       3.743  62.922 -32.164  1.00  0.00     0.042 C 
HETATM   28  C3  UNL     1       5.043  62.585 -34.305  1.00  0.00     0.042 C 
ENDBRANCH  24  25
ENDBRANCH  23  24
ENDBRANCH  21  23
ENDBRANCH   1  21
BRANCH  19  29
HETATM   29  O2  UNL     1      -2.656  70.021 -39.692  1.00  0.00    -0.395 OA
HETATM   30  H44 UNL     1      -2.921  69.198 -40.137  1.00  0.00     0.210 HD
ENDBRANCH  19  29
BRANCH  16  31
HETATM   31  O1  UNL     1      -1.546  71.986 -44.323  1.00  0.00    -0.396 OA
HETATM   32  H39 UNL     1      -1.226  72.836 -43.976  1.00  0.00     0.210 HD
ENDBRANCH  16  31
TORSDOF 6
ENDMDL
