MODEL 1
REMARK minimizedAffinity -10.6246595
REMARK CNNscore 0.697326005
REMARK CNNaffinity 7.78940153
REMARK  16 active torsions:
REMARK  status: ('A' for Active; 'I' for Inactive)
REMARK    1  A    between atoms: C2_2  and  C7_9 
REMARK    2  A    between atoms: C3_3  and  C4_4 
REMARK    3  A    between atoms: C4_4  and  C6_6 
REMARK    4  A    between atoms: C6_6  and  O2_8 
REMARK    5  A    between atoms: C7_9  and  C8_10 
REMARK    6  A    between atoms: C8_10  and  C9_11 
REMARK    7  A    between atoms: C9_11  and  O3_12 
REMARK    8  A    between atoms: C9_11  and  C10_13 
REMARK    9  A    between atoms: C10_13  and  C11_14 
REMARK   10  A    between atoms: C13_16  and  O4_17 
REMARK   11  A    between atoms: C17_23  and  C19_25 
REMARK   12  A    between atoms: C22_28  and  C24_30 
REMARK   13  A    between atoms: C25_32  and  C26_33 
REMARK   14  A    between atoms: C27_35  and  O9_36 
REMARK   15  A    between atoms: C27_35  and  C28_37 
REMARK   16  A    between atoms: C28_37  and  O10_38 
ROOT
HETATM    1  C11 UNL     1      -0.296   7.985  11.253  1.00  0.00     0.130 C 
HETATM    2  C12 UNL     1       0.766   8.897  11.876  1.00  0.00     0.064 C 
HETATM    3  C13 UNL     1       0.933   8.660  13.363  1.00  0.00     0.129 C 
HETATM    4  C14 UNL     1      -0.443   8.550  14.021  1.00  0.00     0.073 C 
HETATM    5  C15 UNL     1      -1.253   9.857  13.889  1.00  0.00     0.018 C 
HETATM    6  C16 UNL     1      -1.173   7.298  13.452  1.00  0.00     0.174 C 
HETATM    7  O5  UNL     1      -0.771   6.961  12.120  1.00  0.00    -0.349 OA
HETATM    8  O6  UNL     1      -2.595   7.526  13.517  1.00  0.00    -0.341 OA
HETATM    9  C17 UNL     1      -3.279   6.344  13.960  1.00  0.00     0.087 C 
HETATM   10  C18 UNL     1      -3.692   5.543  12.722  1.00  0.00     0.049 C 
HETATM   11  C37 UNL     1      -2.255   5.579  14.806  1.00  0.00     0.050 C 
HETATM   12  C38 UNL     1      -0.890   6.041  14.328  1.00  0.00     0.047 C 
HETATM   13  C39 UNL     1      -0.119   4.893  13.656  1.00  0.00     0.015 C 
ENDROOT
BRANCH   9  14
HETATM   14  C19 UNL     1      -4.517   6.671  14.839  1.00  0.00     0.157 C 
HETATM   15  C20 UNL     1      -4.901   8.135  14.937  1.00  0.00     0.038 C 
HETATM   16  C21 UNL     1      -6.248   8.033  15.625  1.00  0.00     0.043 C 
HETATM   17  C22 UNL     1      -6.839   6.717  15.074  1.00  0.00     0.084 C 
HETATM   18  C23 UNL     1      -7.276   5.845  16.261  1.00  0.00     0.049 C 
HETATM   19  O11 UNL     1      -5.742   6.044  14.405  1.00  0.00    -0.370 OA
BRANCH  17  20
HETATM   20  C24 UNL     1      -7.980   7.028  14.073  1.00  0.00     0.160 C 
HETATM   21  O7  UNL     1      -9.203   7.355  14.778  1.00  0.00    -0.375 OA
HETATM   22  C25 UNL     1     -10.303   6.650  14.163  1.00  0.00     0.152 C 
HETATM   23  C34 UNL     1      -9.832   6.335  12.746  1.00  0.00     0.041 C 
HETATM   24  C35 UNL     1      -8.353   6.029  12.957  1.00  0.00     0.016 C 
HETATM   25  C36 UNL     1      -8.158   4.546  13.214  1.00  0.00     0.012 C 
BRANCH  22  26
HETATM   26  C26 UNL     1     -11.628   7.439  14.279  1.00  0.00     0.158 C 
HETATM   27  O8  UNL     1     -11.485   8.708  13.643  1.00  0.00    -0.345 OA
HETATM   28  C27 UNL     1     -12.541   9.639  13.893  1.00  0.00     0.187 C 
HETATM   29  C29 UNL     1     -13.943   8.970  13.876  1.00  0.00     0.046 C 
HETATM   30  C30 UNL     1     -14.568   8.790  15.265  1.00  0.00     0.015 C 
HETATM   31  C31 UNL     1     -13.887   7.644  13.104  1.00  0.00     0.016 C 
HETATM   32  C32 UNL     1     -12.792   6.684  13.603  1.00  0.00     0.014 C 
HETATM   33  C33 UNL     1     -13.374   5.594  14.512  1.00  0.00     0.012 C 
BRANCH  28  34
HETATM   34  O9  UNL     1     -12.298  10.284  15.134  1.00  0.00    -0.363 OA
HETATM   35  H41 UNL     1     -11.472  10.778  14.961  1.00  0.00     0.213 HD
ENDBRANCH  28  34
BRANCH  28  36
HETATM   36  C28 UNL     1     -12.436  10.722  12.783  1.00  0.00     0.232 C 
BRANCH  36  37
HETATM   37  O10 UNL     1     -12.709  10.147  11.491  1.00  0.00    -0.396 OA
HETATM   38  H44 UNL     1     -12.942  10.883  10.897  1.00  0.00     0.209 HD
ENDBRANCH  36  37
ENDBRANCH  28  36
ENDBRANCH  22  26
ENDBRANCH  17  20
ENDBRANCH   9  14
BRANCH   3  39
HETATM   39  O4  UNL     1       1.691   9.731  13.923  1.00  0.00    -0.395 OA
HETATM   40  H22 UNL     1       1.833   9.526  14.864  1.00  0.00     0.210 HD
ENDBRANCH   3  39
BRANCH   1  41
HETATM   41  C10 UNL     1       0.232   7.304   9.962  1.00  0.00     0.063 C 
BRANCH  41  42
HETATM   42  C9  UNL     1       0.537   8.257   8.794  1.00  0.00     0.120 C 
BRANCH  42  43
HETATM   43  C8  UNL     1       1.630   7.744   7.839  1.00  0.00     0.036 C 
BRANCH  43  44
HETATM   44  C7  UNL     1       3.060   8.206   8.162  1.00  0.00     0.036 C 
BRANCH  44  45
HETATM   45  C2  UNL     1       3.691   7.618   9.403  1.00  0.00    -0.087 C 
HETATM   46  C1  UNL     1       3.461   6.151   9.623  1.00  0.00     0.043 C 
HETATM   47  C3  UNL     1       4.465   8.398  10.189  1.00  0.00    -0.010 C 
BRANCH  47  48
HETATM   48  C4  UNL     1       5.220   8.088  11.463  1.00  0.00     0.102 C 
HETATM   49  C5  UNL     1       4.381   7.795  12.709  1.00  0.00     0.025 C 
BRANCH  48  50
HETATM   50  C6  UNL     1       6.198   6.957  11.185  1.00  0.00     0.147 C 
HETATM   51  O1  UNL     1       7.159   6.957  10.433  1.00  0.00    -0.650 OA
BRANCH  50  52
HETATM   52  O2  UNL     1       5.931   5.845  11.912  1.00  0.00    -0.776 OA
HETATM   53  H9  UNL     1       6.659   5.237  11.666  1.00  0.00     0.167 HD
ENDBRANCH  50  52
ENDBRANCH  48  50
ENDBRANCH  47  48
ENDBRANCH  44  45
ENDBRANCH  43  44
ENDBRANCH  42  43
BRANCH  42  54
HETATM   54  O3  UNL     1      -0.644   8.437   8.009  1.00  0.00    -0.395 OA
HETATM   55  H15 UNL     1      -0.443   9.107   7.336  1.00  0.00     0.210 HD
ENDBRANCH  42  54
ENDBRANCH  41  42
ENDBRANCH   1  41
TORSDOF 16
ENDMDL
MODEL 2
REMARK minimizedAffinity -9.21075916
REMARK CNNscore 0.696430027
REMARK CNNaffinity 8.18287945
REMARK  16 active torsions:
REMARK  status: ('A' for Active; 'I' for Inactive)
REMARK    1  A    between atoms: C2_2  and  C7_9 
REMARK    2  A    between atoms: C3_3  and  C4_4 
REMARK    3  A    between atoms: C4_4  and  C6_6 
REMARK    4  A    between atoms: C6_6  and  O2_8 
REMARK    5  A    between atoms: C7_9  and  C8_10 
REMARK    6  A    between atoms: C8_10  and  C9_11 
REMARK    7  A    between atoms: C9_11  and  O3_12 
REMARK    8  A    between atoms: C9_11  and  C10_13 
REMARK    9  A    between atoms: C10_13  and  C11_14 
REMARK   10  A    between atoms: C13_16  and  O4_17 
REMARK   11  A    between atoms: C17_23  and  C19_25 
REMARK   12  A    between atoms: C22_28  and  C24_30 
REMARK   13  A    between atoms: C25_32  and  C26_33 
REMARK   14  A    between atoms: C27_35  and  O9_36 
REMARK   15  A    between atoms: C27_35  and  C28_37 
REMARK   16  A    between atoms: C28_37  and  O10_38 
ROOT
HETATM    1  C11 UNL     1      -1.354   8.750  12.751  1.00  0.00     0.130 C 
HETATM    2  C12 UNL     1      -1.492   9.785  13.873  1.00  0.00     0.064 C 
HETATM    3  C13 UNL     1      -2.162   9.215  15.106  1.00  0.00     0.129 C 
HETATM    4  C14 UNL     1      -3.381   8.389  14.691  1.00  0.00     0.073 C 
HETATM    5  C15 UNL     1      -4.451   9.251  13.989  1.00  0.00     0.018 C 
HETATM    6  C16 UNL     1      -2.900   7.173  13.847  1.00  0.00     0.174 C 
HETATM    7  O5  UNL     1      -1.682   7.420  13.136  1.00  0.00    -0.349 OA
HETATM    8  O6  UNL     1      -3.956   6.797  12.940  1.00  0.00    -0.341 OA
HETATM    9  C17 UNL     1      -4.086   5.368  12.879  1.00  0.00     0.087 C 
HETATM   10  C18 UNL     1      -3.220   4.862  11.721  1.00  0.00     0.049 C 
HETATM   11  C37 UNL     1      -3.570   4.857  14.228  1.00  0.00     0.050 C 
HETATM   12  C38 UNL     1      -2.636   5.933  14.752  1.00  0.00     0.047 C 
HETATM   13  C39 UNL     1      -1.187   5.426  14.821  1.00  0.00     0.015 C 
ENDROOT
BRANCH   9  14
HETATM   14  C19 UNL     1      -5.561   4.915  12.697  1.00  0.00     0.157 C 
HETATM   15  C20 UNL     1      -6.023   3.769  13.576  1.00  0.00     0.038 C 
HETATM   16  C21 UNL     1      -7.516   3.792  13.315  1.00  0.00     0.043 C 
HETATM   17  C22 UNL     1      -7.827   5.291  13.111  1.00  0.00     0.084 C 
HETATM   18  C23 UNL     1      -8.594   5.454  11.789  1.00  0.00     0.049 C 
HETATM   19  O11 UNL     1      -6.540   5.942  12.962  1.00  0.00    -0.370 OA
BRANCH  17  20
HETATM   20  C24 UNL     1      -8.580   5.848  14.344  1.00  0.00     0.160 C 
HETATM   21  O7  UNL     1      -9.404   6.980  13.971  1.00  0.00    -0.375 OA
HETATM   22  C25 UNL     1      -9.226   8.032  14.944  1.00  0.00     0.152 C 
HETATM   23  C34 UNL     1      -8.724   7.330  16.203  1.00  0.00     0.041 C 
HETATM   24  C35 UNL     1      -7.822   6.242  15.629  1.00  0.00     0.016 C 
HETATM   25  C36 UNL     1      -6.400   6.757  15.504  1.00  0.00     0.012 C 
BRANCH  22  26
HETATM   26  C26 UNL     1     -10.504   8.888  15.107  1.00  0.00     0.158 C 
HETATM   27  O8  UNL     1     -11.635   8.031  15.260  1.00  0.00    -0.345 OA
HETATM   28  C27 UNL     1     -12.907   8.677  15.165  1.00  0.00     0.187 C 
HETATM   29  C29 UNL     1     -12.933  10.053  15.885  1.00  0.00     0.046 C 
HETATM   30  C30 UNL     1     -12.911  11.258  14.935  1.00  0.00     0.015 C 
HETATM   31  C31 UNL     1     -11.804  10.129  16.922  1.00  0.00     0.016 C 
HETATM   32  C32 UNL     1     -10.414   9.802  16.348  1.00  0.00     0.014 C 
HETATM   33  C33 UNL     1      -9.609  11.076  16.064  1.00  0.00     0.012 C 
BRANCH  28  34
HETATM   34  O9  UNL     1     -13.251   8.811  13.793  1.00  0.00    -0.363 OA
HETATM   35  H41 UNL     1     -13.343   7.882  13.503  1.00  0.00     0.213 HD
ENDBRANCH  28  34
BRANCH  28  36
HETATM   36  C28 UNL     1     -13.937   7.703  15.803  1.00  0.00     0.232 C 
BRANCH  36  37
HETATM   37  O10 UNL     1     -14.335   8.175  17.105  1.00  0.00    -0.396 OA
HETATM   38  H44 UNL     1     -15.177   7.735  17.319  1.00  0.00     0.209 HD
ENDBRANCH  36  37
ENDBRANCH  28  36
ENDBRANCH  22  26
ENDBRANCH  17  20
ENDBRANCH   9  14
BRANCH   3  39
HETATM   39  O4  UNL     1      -2.532  10.286  15.973  1.00  0.00    -0.395 OA
HETATM   40  H22 UNL     1      -2.907   9.891  16.780  1.00  0.00     0.210 HD
ENDBRANCH   3  39
BRANCH   1  41
HETATM   41  C10 UNL     1       0.085   8.734  12.172  1.00  0.00     0.063 C 
BRANCH  41  42
HETATM   42  C9  UNL     1       1.213   8.862  13.211  1.00  0.00     0.120 C 
BRANCH  42  43
HETATM   43  C8  UNL     1       2.206   7.686  13.201  1.00  0.00     0.036 C 
BRANCH  43  44
HETATM   44  C7  UNL     1       1.590   6.301  12.948  1.00  0.00     0.036 C 
BRANCH  44  45
HETATM   45  C2  UNL     1       1.507   5.859  11.505  1.00  0.00    -0.087 C 
HETATM   46  C1  UNL     1       0.439   4.850  11.190  1.00  0.00     0.043 C 
HETATM   47  C3  UNL     1       2.319   6.426  10.586  1.00  0.00    -0.010 C 
BRANCH  47  48
HETATM   48  C4  UNL     1       2.450   6.196   9.097  1.00  0.00     0.102 C 
HETATM   49  C5  UNL     1       2.688   7.432   8.227  1.00  0.00     0.025 C 
BRANCH  48  50
HETATM   50  C6  UNL     1       3.526   5.147   8.862  1.00  0.00     0.147 C 
HETATM   51  O1  UNL     1       4.424   4.804   9.613  1.00  0.00    -0.650 OA
BRANCH  50  52
HETATM   52  O2  UNL     1       3.403   4.533   7.659  1.00  0.00    -0.776 OA
HETATM   53  H9  UNL     1       4.119   3.865   7.675  1.00  0.00     0.167 HD
ENDBRANCH  50  52
ENDBRANCH  48  50
ENDBRANCH  47  48
ENDBRANCH  44  45
ENDBRANCH  43  44
ENDBRANCH  42  43
BRANCH  42  54
HETATM   54  O3  UNL     1       1.970  10.043  12.944  1.00  0.00    -0.395 OA
HETATM   55  H15 UNL     1       2.614  10.142  13.663  1.00  0.00     0.210 HD
ENDBRANCH  42  54
ENDBRANCH  41  42
ENDBRANCH   1  41
TORSDOF 16
ENDMDL
MODEL 3
REMARK minimizedAffinity -8.84228992
REMARK CNNscore 0.676989079
REMARK CNNaffinity 7.81068277
REMARK  16 active torsions:
REMARK  status: ('A' for Active; 'I' for Inactive)
REMARK    1  A    between atoms: C2_2  and  C7_9 
REMARK    2  A    between atoms: C3_3  and  C4_4 
REMARK    3  A    between atoms: C4_4  and  C6_6 
REMARK    4  A    between atoms: C6_6  and  O2_8 
REMARK    5  A    between atoms: C7_9  and  C8_10 
REMARK    6  A    between atoms: C8_10  and  C9_11 
REMARK    7  A    between atoms: C9_11  and  O3_12 
REMARK    8  A    between atoms: C9_11  and  C10_13 
REMARK    9  A    between atoms: C10_13  and  C11_14 
REMARK   10  A    between atoms: C13_16  and  O4_17 
REMARK   11  A    between atoms: C17_23  and  C19_25 
REMARK   12  A    between atoms: C22_28  and  C24_30 
REMARK   13  A    between atoms: C25_32  and  C26_33 
REMARK   14  A    between atoms: C27_35  and  O9_36 
REMARK   15  A    between atoms: C27_35  and  C28_37 
REMARK   16  A    between atoms: C28_37  and  O10_38 
ROOT
HETATM    1  C11 UNL     1      -2.340   5.225  13.495  1.00  0.00     0.130 C 
HETATM    2  C12 UNL     1      -3.790   4.828  13.200  1.00  0.00     0.064 C 
HETATM    3  C13 UNL     1      -4.724   6.021  13.179  1.00  0.00     0.129 C 
HETATM    4  C14 UNL     1      -4.421   6.929  14.371  1.00  0.00     0.073 C 
HETATM    5  C15 UNL     1      -4.673   6.220  15.718  1.00  0.00     0.018 C 
HETATM    6  C16 UNL     1      -2.978   7.493  14.218  1.00  0.00     0.174 C 
HETATM    7  O5  UNL     1      -2.103   6.628  13.488  1.00  0.00    -0.349 OA
HETATM    8  O6  UNL     1      -2.450   7.767  15.532  1.00  0.00    -0.341 OA
HETATM    9  C17 UNL     1      -1.740   9.015  15.544  1.00  0.00     0.087 C 
HETATM   10  C18 UNL     1      -0.264   8.723  15.259  1.00  0.00     0.049 C 
HETATM   11  C37 UNL     1      -2.371   9.849  14.425  1.00  0.00     0.050 C 
HETATM   12  C38 UNL     1      -2.987   8.853  13.458  1.00  0.00     0.047 C 
HETATM   13  C39 UNL     1      -2.273   8.886  12.097  1.00  0.00     0.015 C 
ENDROOT
BRANCH   9  14
HETATM   14  C19 UNL     1      -1.898   9.773  16.891  1.00  0.00     0.157 C 
HETATM   15  C20 UNL     1      -0.616  10.261  17.539  1.00  0.00     0.038 C 
HETATM   16  C21 UNL     1      -1.170  11.143  18.640  1.00  0.00     0.043 C 
HETATM   17  C22 UNL     1      -2.452  11.739  18.019  1.00  0.00     0.084 C 
HETATM   18  C23 UNL     1      -3.622  11.493  18.984  1.00  0.00     0.049 C 
HETATM   19  O11 UNL     1      -2.698  10.971  16.814  1.00  0.00    -0.370 OA
BRANCH  17  20
HETATM   20  C24 UNL     1      -2.228  13.233  17.676  1.00  0.00     0.160 C 
HETATM   21  O7  UNL     1      -1.573  13.370  16.390  1.00  0.00    -0.375 OA
HETATM   22  C25 UNL     1      -0.511  14.342  16.505  1.00  0.00     0.152 C 
HETATM   23  C34 UNL     1      -0.884  15.199  17.711  1.00  0.00     0.041 C 
HETATM   24  C35 UNL     1      -1.499  14.174  18.659  1.00  0.00     0.016 C 
HETATM   25  C36 UNL     1      -0.429  13.593  19.564  1.00  0.00     0.012 C 
BRANCH  22  26
HETATM   26  C26 UNL     1      -0.282  15.102  15.177  1.00  0.00     0.158 C 
HETATM   27  O8  UNL     1      -1.474  15.797  14.813  1.00  0.00    -0.345 OA
HETATM   28  C27 UNL     1      -1.488  16.330  13.486  1.00  0.00     0.187 C 
HETATM   29  C29 UNL     1      -0.127  16.958  13.081  1.00  0.00     0.046 C 
HETATM   30  C30 UNL     1       0.687  16.107  12.097  1.00  0.00     0.015 C 
HETATM   31  C31 UNL     1       0.688  17.309  14.333  1.00  0.00     0.016 C 
HETATM   32  C32 UNL     1       0.861  16.131  15.309  1.00  0.00     0.014 C 
HETATM   33  C33 UNL     1       2.241  15.478  15.162  1.00  0.00     0.012 C 
BRANCH  28  34
HETATM   34  O9  UNL     1      -1.866  15.301  12.583  1.00  0.00    -0.363 OA
HETATM   35  H41 UNL     1      -2.783  15.101  12.857  1.00  0.00     0.213 HD
ENDBRANCH  28  34
BRANCH  28  36
HETATM   36  C28 UNL     1      -2.616  17.400  13.461  1.00  0.00     0.232 C 
BRANCH  36  37
HETATM   37  O10 UNL     1      -3.724  16.944  12.661  1.00  0.00    -0.396 OA
HETATM   38  H44 UNL     1      -4.499  17.472  12.925  1.00  0.00     0.209 HD
ENDBRANCH  36  37
ENDBRANCH  28  36
ENDBRANCH  22  26
ENDBRANCH  17  20
ENDBRANCH   9  14
BRANCH   3  39
HETATM   39  O4  UNL     1      -6.073   5.557  13.210  1.00  0.00    -0.395 OA
HETATM   40  H22 UNL     1      -6.650   6.338  13.137  1.00  0.00     0.210 HD
ENDBRANCH   3  39
BRANCH   1  41
HETATM   41  C10 UNL     1      -1.360   4.574  12.484  1.00  0.00     0.063 C 
BRANCH  41  42
HETATM   42  C9  UNL     1       0.134   4.783  12.789  1.00  0.00     0.120 C 
BRANCH  42  43
HETATM   43  C8  UNL     1       0.821   5.807  11.868  1.00  0.00     0.036 C 
BRANCH  43  44
HETATM   44  C7  UNL     1      -0.088   6.471  10.822  1.00  0.00     0.036 C 
BRANCH  44  45
HETATM   45  C2  UNL     1       0.603   7.109   9.639  1.00  0.00    -0.087 C 
HETATM   46  C1  UNL     1       0.059   8.437   9.199  1.00  0.00     0.043 C 
HETATM   47  C3  UNL     1       1.688   6.510   9.100  1.00  0.00    -0.010 C 
BRANCH  47  48
HETATM   48  C4  UNL     1       2.574   6.911   7.941  1.00  0.00     0.102 C 
HETATM   49  C5  UNL     1       1.923   6.955   6.558  1.00  0.00     0.025 C 
BRANCH  48  50
HETATM   50  C6  UNL     1       3.236   8.239   8.276  1.00  0.00     0.147 C 
HETATM   51  O1  UNL     1       3.237   9.269   7.622  1.00  0.00    -0.650 OA
BRANCH  50  52
HETATM   52  O2  UNL     1       3.867   8.221   9.476  1.00  0.00    -0.776 OA
HETATM   53  H9  UNL     1       4.193   9.139   9.571  1.00  0.00     0.167 HD
ENDBRANCH  50  52
ENDBRANCH  48  50
ENDBRANCH  47  48
ENDBRANCH  44  45
ENDBRANCH  43  44
ENDBRANCH  42  43
BRANCH  42  54
HETATM   54  O3  UNL     1       0.279   5.270  14.125  1.00  0.00    -0.395 OA
HETATM   55  H15 UNL     1       1.231   5.308  14.316  1.00  0.00     0.210 HD
ENDBRANCH  42  54
ENDBRANCH  41  42
ENDBRANCH   1  41
TORSDOF 16
ENDMDL
MODEL 4
REMARK minimizedAffinity -9.54969597
REMARK CNNscore 0.626699924
REMARK CNNaffinity 8.05326557
REMARK  16 active torsions:
REMARK  status: ('A' for Active; 'I' for Inactive)
REMARK    1  A    between atoms: C2_2  and  C7_9 
REMARK    2  A    between atoms: C3_3  and  C4_4 
REMARK    3  A    between atoms: C4_4  and  C6_6 
REMARK    4  A    between atoms: C6_6  and  O2_8 
REMARK    5  A    between atoms: C7_9  and  C8_10 
REMARK    6  A    between atoms: C8_10  and  C9_11 
REMARK    7  A    between atoms: C9_11  and  O3_12 
REMARK    8  A    between atoms: C9_11  and  C10_13 
REMARK    9  A    between atoms: C10_13  and  C11_14 
REMARK   10  A    between atoms: C13_16  and  O4_17 
REMARK   11  A    between atoms: C17_23  and  C19_25 
REMARK   12  A    between atoms: C22_28  and  C24_30 
REMARK   13  A    between atoms: C25_32  and  C26_33 
REMARK   14  A    between atoms: C27_35  and  O9_36 
REMARK   15  A    between atoms: C27_35  and  C28_37 
REMARK   16  A    between atoms: C28_37  and  O10_38 
ROOT
HETATM    1  C11 UNL     1      -1.153   8.343  12.609  1.00  0.00     0.130 C 
HETATM    2  C12 UNL     1      -1.238   9.492  13.619  1.00  0.00     0.064 C 
HETATM    3  C13 UNL     1      -2.008   9.110  14.867  1.00  0.00     0.129 C 
HETATM    4  C14 UNL     1      -3.281   8.360  14.473  1.00  0.00     0.073 C 
HETATM    5  C15 UNL     1      -4.236   9.240  13.640  1.00  0.00     0.018 C 
HETATM    6  C16 UNL     1      -2.883   7.028  13.773  1.00  0.00     0.174 C 
HETATM    7  O5  UNL     1      -1.620   7.093  13.103  1.00  0.00    -0.349 OA
HETATM    8  O6  UNL     1      -3.932   6.659  12.856  1.00  0.00    -0.341 OA
HETATM    9  C17 UNL     1      -4.194   5.248  12.925  1.00  0.00     0.087 C 
HETATM   10  C18 UNL     1      -3.333   4.555  11.865  1.00  0.00     0.049 C 
HETATM   11  C37 UNL     1      -3.782   4.830  14.340  1.00  0.00     0.050 C 
HETATM   12  C38 UNL     1      -2.773   5.866  14.805  1.00  0.00     0.047 C 
HETATM   13  C39 UNL     1      -1.382   5.240  14.993  1.00  0.00     0.015 C 
ENDROOT
BRANCH   9  14
HETATM   14  C19 UNL     1      -5.696   4.914  12.715  1.00  0.00     0.157 C 
HETATM   15  C20 UNL     1      -6.265   3.811  13.587  1.00  0.00     0.038 C 
HETATM   16  C21 UNL     1      -7.746   3.953  13.297  1.00  0.00     0.043 C 
HETATM   17  C22 UNL     1      -7.932   5.470  13.083  1.00  0.00     0.084 C 
HETATM   18  C23 UNL     1      -8.658   5.689  11.747  1.00  0.00     0.049 C 
HETATM   19  O11 UNL     1      -6.595   6.016  12.959  1.00  0.00    -0.370 OA
BRANCH  17  20
HETATM   20  C24 UNL     1      -8.663   6.090  14.300  1.00  0.00     0.160 C 
HETATM   21  O7  UNL     1      -9.515   7.185  13.881  1.00  0.00    -0.375 OA
HETATM   22  C25 UNL     1      -9.328   8.297  14.784  1.00  0.00     0.152 C 
HETATM   23  C34 UNL     1      -8.784   7.680  16.069  1.00  0.00     0.041 C 
HETATM   24  C35 UNL     1      -7.879   6.573  15.539  1.00  0.00     0.016 C 
HETATM   25  C36 UNL     1      -6.469   7.100  15.345  1.00  0.00     0.012 C 
BRANCH  22  26
HETATM   26  C26 UNL     1     -10.616   9.142  14.929  1.00  0.00     0.158 C 
HETATM   27  O8  UNL     1     -11.575   8.721  13.959  1.00  0.00    -0.345 OA
HETATM   28  C27 UNL     1     -12.709   9.579  13.809  1.00  0.00     0.187 C 
HETATM   29  C29 UNL     1     -13.235  10.114  15.169  1.00  0.00     0.046 C 
HETATM   30  C30 UNL     1     -12.898  11.586  15.435  1.00  0.00     0.015 C 
HETATM   31  C31 UNL     1     -12.762   9.208  16.313  1.00  0.00     0.016 C 
HETATM   32  C32 UNL     1     -11.240   8.979  16.332  1.00  0.00     0.014 C 
HETATM   33  C33 UNL     1     -10.550   9.870  17.372  1.00  0.00     0.012 C 
BRANCH  28  34
HETATM   34  O9  UNL     1     -12.363  10.646  12.938  1.00  0.00    -0.363 OA
HETATM   35  H41 UNL     1     -12.196  10.187  12.091  1.00  0.00     0.213 HD
ENDBRANCH  28  34
BRANCH  28  36
HETATM   36  C28 UNL     1     -13.798   8.735  13.091  1.00  0.00     0.232 C 
BRANCH  36  37
HETATM   37  O10 UNL     1     -13.310   7.405  12.824  1.00  0.00    -0.396 OA
HETATM   38  H44 UNL     1     -14.091   6.842  12.677  1.00  0.00     0.209 HD
ENDBRANCH  36  37
ENDBRANCH  28  36
ENDBRANCH  22  26
ENDBRANCH  17  20
ENDBRANCH   9  14
BRANCH   3  39
HETATM   39  O4  UNL     1      -2.310  10.292  15.607  1.00  0.00    -0.395 OA
HETATM   40  H22 UNL     1      -2.752  10.015  16.429  1.00  0.00     0.210 HD
ENDBRANCH   3  39
BRANCH   1  41
HETATM   41  C10 UNL     1       0.301   8.140  12.106  1.00  0.00     0.063 C 
BRANCH  41  42
HETATM   42  C9  UNL     1       0.496   8.286  10.586  1.00  0.00     0.120 C 
BRANCH  42  43
HETATM   43  C8  UNL     1       0.464   6.950   9.822  1.00  0.00     0.036 C 
BRANCH  43  44
HETATM   44  C7  UNL     1       1.820   6.243   9.669  1.00  0.00     0.036 C 
BRANCH  44  45
HETATM   45  C2  UNL     1       3.025   7.136   9.481  1.00  0.00    -0.087 C 
HETATM   46  C1  UNL     1       2.970   8.073   8.309  1.00  0.00     0.043 C 
HETATM   47  C3  UNL     1       4.026   7.103  10.388  1.00  0.00    -0.010 C 
BRANCH  47  48
HETATM   48  C4  UNL     1       5.325   7.875  10.465  1.00  0.00     0.102 C 
HETATM   49  C5  UNL     1       5.241   9.317  10.970  1.00  0.00     0.025 C 
BRANCH  48  50
HETATM   50  C6  UNL     1       6.320   7.068  11.283  1.00  0.00     0.147 C 
HETATM   51  O1  UNL     1       7.502   7.299  11.478  1.00  0.00    -0.650 OA
BRANCH  50  52
HETATM   52  O2  UNL     1       5.759   5.980  11.864  1.00  0.00    -0.776 OA
HETATM   53  H9  UNL     1       6.495   5.598  12.385  1.00  0.00     0.167 HD
ENDBRANCH  50  52
ENDBRANCH  48  50
ENDBRANCH  47  48
ENDBRANCH  44  45
ENDBRANCH  43  44
ENDBRANCH  42  43
BRANCH  42  54
HETATM   54  O3  UNL     1      -0.555   9.092  10.050  1.00  0.00    -0.395 OA
HETATM   55  H15 UNL     1      -0.356   9.237   9.111  1.00  0.00     0.210 HD
ENDBRANCH  42  54
ENDBRANCH  41  42
ENDBRANCH   1  41
TORSDOF 16
ENDMDL
MODEL 5
REMARK minimizedAffinity -8.86591148
REMARK CNNscore 0.620182335
REMARK CNNaffinity 7.18799734
REMARK  16 active torsions:
REMARK  status: ('A' for Active; 'I' for Inactive)
REMARK    1  A    between atoms: C2_2  and  C7_9 
REMARK    2  A    between atoms: C3_3  and  C4_4 
REMARK    3  A    between atoms: C4_4  and  C6_6 
REMARK    4  A    between atoms: C6_6  and  O2_8 
REMARK    5  A    between atoms: C7_9  and  C8_10 
REMARK    6  A    between atoms: C8_10  and  C9_11 
REMARK    7  A    between atoms: C9_11  and  O3_12 
REMARK    8  A    between atoms: C9_11  and  C10_13 
REMARK    9  A    between atoms: C10_13  and  C11_14 
REMARK   10  A    between atoms: C13_16  and  O4_17 
REMARK   11  A    between atoms: C17_23  and  C19_25 
REMARK   12  A    between atoms: C22_28  and  C24_30 
REMARK   13  A    between atoms: C25_32  and  C26_33 
REMARK   14  A    between atoms: C27_35  and  O9_36 
REMARK   15  A    between atoms: C27_35  and  C28_37 
REMARK   16  A    between atoms: C28_37  and  O10_38 
ROOT
HETATM    1  C11 UNL     1      -0.088  12.902  17.272  1.00  0.00     0.130 C 
HETATM    2  C12 UNL     1      -0.531  14.306  16.845  1.00  0.00     0.064 C 
HETATM    3  C13 UNL     1      -2.013  14.379  16.543  1.00  0.00     0.129 C 
HETATM    4  C14 UNL     1      -2.423  13.172  15.697  1.00  0.00     0.073 C 
HETATM    5  C15 UNL     1      -1.713  13.158  14.327  1.00  0.00     0.018 C 
HETATM    6  C16 UNL     1      -2.205  11.876  16.532  1.00  0.00     0.174 C 
HETATM    7  O5  UNL     1      -1.160  11.995  17.503  1.00  0.00    -0.349 OA
HETATM    8  O6  UNL     1      -1.942  10.785  15.626  1.00  0.00    -0.341 OA
HETATM    9  C17 UNL     1      -2.642   9.602  16.042  1.00  0.00     0.087 C 
HETATM   10  C18 UNL     1      -1.705   8.787  16.937  1.00  0.00     0.049 C 
HETATM   11  C37 UNL     1      -3.861  10.106  16.821  1.00  0.00     0.050 C 
HETATM   12  C38 UNL     1      -3.495  11.494  17.318  1.00  0.00     0.047 C 
HETATM   13  C39 UNL     1      -3.402  11.528  18.851  1.00  0.00     0.015 C 
ENDROOT
BRANCH   9  14
HETATM   14  C19 UNL     1      -3.128   8.749  14.838  1.00  0.00     0.157 C 
HETATM   15  C20 UNL     1      -2.632   9.178  13.470  1.00  0.00     0.038 C 
HETATM   16  C21 UNL     1      -3.078   8.002  12.623  1.00  0.00     0.043 C 
HETATM   17  C22 UNL     1      -2.943   6.795  13.576  1.00  0.00     0.084 C 
HETATM   18  C23 UNL     1      -4.274   6.026  13.579  1.00  0.00     0.049 C 
HETATM   19  O11 UNL     1      -2.750   7.358  14.898  1.00  0.00    -0.370 OA
BRANCH  17  20
HETATM   20  C24 UNL     1      -1.723   5.932  13.167  1.00  0.00     0.160 C 
HETATM   21  O7  UNL     1      -0.793   6.707  12.370  1.00  0.00    -0.375 OA
HETATM   22  C25 UNL     1      -0.378   5.918  11.234  1.00  0.00     0.152 C 
HETATM   23  C34 UNL     1      -0.624   4.469  11.643  1.00  0.00     0.041 C 
HETATM   24  C35 UNL     1      -1.911   4.576  12.455  1.00  0.00     0.016 C 
HETATM   25  C36 UNL     1      -3.115   4.390  11.550  1.00  0.00     0.012 C 
BRANCH  22  26
HETATM   26  C26 UNL     1       1.063   6.264  10.790  1.00  0.00     0.158 C 
HETATM   27  O8  UNL     1       1.054   6.690   9.429  1.00  0.00    -0.345 OA
HETATM   28  C27 UNL     1       2.341   6.796   8.814  1.00  0.00     0.187 C 
HETATM   29  C29 UNL     1       3.406   7.412   9.762  1.00  0.00     0.046 C 
HETATM   30  C30 UNL     1       4.410   6.395  10.321  1.00  0.00     0.015 C 
HETATM   31  C31 UNL     1       2.721   8.205  10.883  1.00  0.00     0.016 C 
HETATM   32  C32 UNL     1       1.658   7.399  11.651  1.00  0.00     0.014 C 
HETATM   33  C33 UNL     1       2.204   6.880  12.987  1.00  0.00     0.012 C 
BRANCH  28  34
HETATM   34  O9  UNL     1       2.740   5.510   8.363  1.00  0.00    -0.363 OA
HETATM   35  H41 UNL     1       2.075   5.307   7.676  1.00  0.00     0.213 HD
ENDBRANCH  28  34
BRANCH  28  36
HETATM   36  C28 UNL     1       2.147   7.685   7.554  1.00  0.00     0.232 C 
BRANCH  36  37
HETATM   37  O10 UNL     1       3.008   8.839   7.615  1.00  0.00    -0.396 OA
HETATM   38  H44 UNL     1       3.089   9.179   6.706  1.00  0.00     0.209 HD
ENDBRANCH  36  37
ENDBRANCH  28  36
ENDBRANCH  22  26
ENDBRANCH  17  20
ENDBRANCH   9  14
BRANCH   3  39
HETATM   39  O4  UNL     1      -2.291  15.604  15.867  1.00  0.00    -0.395 OA
HETATM   40  H22 UNL     1      -3.255  15.652  15.736  1.00  0.00     0.210 HD
ENDBRANCH   3  39
BRANCH   1  41
HETATM   41  C10 UNL     1       0.777  12.949  18.558  1.00  0.00     0.063 C 
BRANCH  41  42
HETATM   42  C9  UNL     1       0.963  14.347  19.174  1.00  0.00     0.120 C 
BRANCH  42  43
HETATM   43  C8  UNL     1       1.076  14.342  20.710  1.00  0.00     0.036 C 
BRANCH  43  44
HETATM   44  C7  UNL     1       2.507  14.375  21.268  1.00  0.00     0.036 C 
BRANCH  44  45
HETATM   45  C2  UNL     1       3.260  13.065  21.259  1.00  0.00    -0.087 C 
HETATM   46  C1  UNL     1       4.559  13.060  20.505  1.00  0.00     0.043 C 
HETATM   47  C3  UNL     1       2.784  12.018  21.967  1.00  0.00    -0.010 C 
BRANCH  47  48
HETATM   48  C4  UNL     1       3.318  10.614  22.151  1.00  0.00     0.102 C 
HETATM   49  C5  UNL     1       3.595  10.164  23.587  1.00  0.00     0.025 C 
BRANCH  48  50
HETATM   50  C6  UNL     1       2.384   9.644  21.445  1.00  0.00     0.147 C 
HETATM   51  O1  UNL     1       1.857   8.639  21.894  1.00  0.00    -0.650 OA
BRANCH  50  52
HETATM   52  O2  UNL     1       2.120  10.009  20.167  1.00  0.00    -0.776 OA
HETATM   53  H9  UNL     1       1.480   9.331  19.867  1.00  0.00     0.167 HD
ENDBRANCH  50  52
ENDBRANCH  48  50
ENDBRANCH  47  48
ENDBRANCH  44  45
ENDBRANCH  43  44
ENDBRANCH  42  43
BRANCH  42  54
HETATM   54  O3  UNL     1       2.169  14.928  18.675  1.00  0.00    -0.395 OA
HETATM   55  H15 UNL     1       2.212  15.837  19.012  1.00  0.00     0.210 HD
ENDBRANCH  42  54
ENDBRANCH  41  42
ENDBRANCH   1  41
TORSDOF 16
ENDMDL
MODEL 6
REMARK minimizedAffinity -9.44254398
REMARK CNNscore 0.618211389
REMARK CNNaffinity 8.21054363
REMARK  16 active torsions:
REMARK  status: ('A' for Active; 'I' for Inactive)
REMARK    1  A    between atoms: C2_2  and  C7_9 
REMARK    2  A    between atoms: C3_3  and  C4_4 
REMARK    3  A    between atoms: C4_4  and  C6_6 
REMARK    4  A    between atoms: C6_6  and  O2_8 
REMARK    5  A    between atoms: C7_9  and  C8_10 
REMARK    6  A    between atoms: C8_10  and  C9_11 
REMARK    7  A    between atoms: C9_11  and  O3_12 
REMARK    8  A    between atoms: C9_11  and  C10_13 
REMARK    9  A    between atoms: C10_13  and  C11_14 
REMARK   10  A    between atoms: C13_16  and  O4_17 
REMARK   11  A    between atoms: C17_23  and  C19_25 
REMARK   12  A    between atoms: C22_28  and  C24_30 
REMARK   13  A    between atoms: C25_32  and  C26_33 
REMARK   14  A    between atoms: C27_35  and  O9_36 
REMARK   15  A    between atoms: C27_35  and  C28_37 
REMARK   16  A    between atoms: C28_37  and  O10_38 
ROOT
HETATM    1  C11 UNL     1      -0.369   7.198  12.197  1.00  0.00     0.130 C 
HETATM    2  C12 UNL     1      -0.314   8.711  12.437  1.00  0.00     0.064 C 
HETATM    3  C13 UNL     1      -1.309   9.168  13.484  1.00  0.00     0.129 C 
HETATM    4  C14 UNL     1      -2.659   8.495  13.235  1.00  0.00     0.073 C 
HETATM    5  C15 UNL     1      -3.263   8.899  11.873  1.00  0.00     0.018 C 
HETATM    6  C16 UNL     1      -2.497   6.958  13.419  1.00  0.00     0.174 C 
HETATM    7  O5  UNL     1      -1.177   6.487  13.128  1.00  0.00    -0.349 OA
HETATM    8  O6  UNL     1      -3.474   6.290  12.595  1.00  0.00    -0.341 OA
HETATM    9  C17 UNL     1      -4.066   5.189  13.302  1.00  0.00     0.087 C 
HETATM   10  C18 UNL     1      -3.261   3.928  12.974  1.00  0.00     0.049 C 
HETATM   11  C37 UNL     1      -3.954   5.554  14.785  1.00  0.00     0.050 C 
HETATM   12  C38 UNL     1      -2.800   6.536  14.888  1.00  0.00     0.047 C 
HETATM   13  C39 UNL     1      -1.632   5.939  15.688  1.00  0.00     0.015 C 
ENDROOT
BRANCH   9  14
HETATM   14  C19 UNL     1      -5.564   4.991  12.941  1.00  0.00     0.157 C 
HETATM   15  C20 UNL     1      -6.274   3.843  13.633  1.00  0.00     0.038 C 
HETATM   16  C21 UNL     1      -7.713   4.124  13.250  1.00  0.00     0.043 C 
HETATM   17  C22 UNL     1      -7.783   5.665  13.201  1.00  0.00     0.084 C 
HETATM   18  C23 UNL     1      -8.379   6.084  11.848  1.00  0.00     0.049 C 
HETATM   19  O11 UNL     1      -6.408   6.122  13.243  1.00  0.00    -0.370 OA
BRANCH  17  20
HETATM   20  C24 UNL     1      -8.572   6.198  14.423  1.00  0.00     0.160 C 
HETATM   21  O7  UNL     1      -9.667   7.045  13.995  1.00  0.00    -0.375 OA
HETATM   22  C25 UNL     1      -9.688   8.235  14.814  1.00  0.00     0.152 C 
HETATM   23  C34 UNL     1      -8.955   7.849  16.096  1.00  0.00     0.041 C 
HETATM   24  C35 UNL     1      -7.854   6.932  15.576  1.00  0.00     0.016 C 
HETATM   25  C36 UNL     1      -6.609   7.739  15.259  1.00  0.00     0.012 C 
BRANCH  22  26
HETATM   26  C26 UNL     1     -11.123   8.785  14.991  1.00  0.00     0.158 C 
HETATM   27  O8  UNL     1     -11.239   9.414  16.266  1.00  0.00    -0.345 OA
HETATM   28  C27 UNL     1     -12.573   9.740  16.667  1.00  0.00     0.187 C 
HETATM   29  C29 UNL     1     -13.426  10.302  15.497  1.00  0.00     0.046 C 
HETATM   30  C30 UNL     1     -14.463   9.315  14.947  1.00  0.00     0.015 C 
HETATM   31  C31 UNL     1     -12.513  10.841  14.388  1.00  0.00     0.016 C 
HETATM   32  C32 UNL     1     -11.464   9.825  13.903  1.00  0.00     0.014 C 
HETATM   33  C33 UNL     1     -11.891   9.162  12.588  1.00  0.00     0.012 C 
BRANCH  28  34
HETATM   34  O9  UNL     1     -13.177   8.585  17.231  1.00  0.00    -0.363 OA
HETATM   35  H41 UNL     1     -12.634   8.427  18.029  1.00  0.00     0.213 HD
ENDBRANCH  28  34
BRANCH  28  36
HETATM   36  C28 UNL     1     -12.439  10.790  17.805  1.00  0.00     0.232 C 
BRANCH  36  37
HETATM   37  O10 UNL     1     -11.171  10.646  18.475  1.00  0.00    -0.396 OA
HETATM   38  H44 UNL     1     -11.000  11.486  18.938  1.00  0.00     0.209 HD
ENDBRANCH  36  37
ENDBRANCH  28  36
ENDBRANCH  22  26
ENDBRANCH  17  20
ENDBRANCH   9  14
BRANCH   3  39
HETATM   39  O4  UNL     1      -1.420  10.589  13.433  1.00  0.00    -0.395 OA
HETATM   40  H22 UNL     1      -2.019  10.860  14.150  1.00  0.00     0.210 HD
ENDBRANCH   3  39
BRANCH   1  41
HETATM   41  C10 UNL     1       1.049   6.570  12.225  1.00  0.00     0.063 C 
BRANCH  41  42
HETATM   42  C9  UNL     1       1.712   6.384  10.848  1.00  0.00     0.120 C 
BRANCH  42  43
HETATM   43  C8  UNL     1       2.500   7.615  10.365  1.00  0.00     0.036 C 
BRANCH  43  44
HETATM   44  C7  UNL     1       2.405   7.913   8.860  1.00  0.00     0.036 C 
BRANCH  44  45
HETATM   45  C2  UNL     1       2.418   6.716   7.938  1.00  0.00    -0.087 C 
HETATM   46  C1  UNL     1       1.727   6.898   6.617  1.00  0.00     0.043 C 
HETATM   47  C3  UNL     1       3.091   5.602   8.301  1.00  0.00    -0.010 C 
BRANCH  47  48
HETATM   48  C4  UNL     1       3.286   4.280   7.592  1.00  0.00     0.102 C 
HETATM   49  C5  UNL     1       3.617   4.340   6.100  1.00  0.00     0.025 C 
BRANCH  48  50
HETATM   50  C6  UNL     1       4.327   3.472   8.351  1.00  0.00     0.147 C 
HETATM   51  O1  UNL     1       5.433   3.121   7.974  1.00  0.00    -0.650 OA
BRANCH  50  52
HETATM   52  O2  UNL     1       3.928   3.154   9.607  1.00  0.00    -0.776 OA
HETATM   53  H9  UNL     1       4.706   2.689   9.978  1.00  0.00     0.167 HD
ENDBRANCH  50  52
ENDBRANCH  48  50
ENDBRANCH  47  48
ENDBRANCH  44  45
ENDBRANCH  43  44
ENDBRANCH  42  43
BRANCH  42  54
HETATM   54  O3  UNL     1       2.641   5.300  10.914  1.00  0.00    -0.395 OA
HETATM   55  H15 UNL     1       2.975   5.153  10.014  1.00  0.00     0.210 HD
ENDBRANCH  42  54
ENDBRANCH  41  42
ENDBRANCH   1  41
TORSDOF 16
ENDMDL
MODEL 7
REMARK minimizedAffinity -10.8027687
REMARK CNNscore 0.597015917
REMARK CNNaffinity 6.98512411
REMARK  16 active torsions:
REMARK  status: ('A' for Active; 'I' for Inactive)
REMARK    1  A    between atoms: C2_2  and  C7_9 
REMARK    2  A    between atoms: C3_3  and  C4_4 
REMARK    3  A    between atoms: C4_4  and  C6_6 
REMARK    4  A    between atoms: C6_6  and  O2_8 
REMARK    5  A    between atoms: C7_9  and  C8_10 
REMARK    6  A    between atoms: C8_10  and  C9_11 
REMARK    7  A    between atoms: C9_11  and  O3_12 
REMARK    8  A    between atoms: C9_11  and  C10_13 
REMARK    9  A    between atoms: C10_13  and  C11_14 
REMARK   10  A    between atoms: C13_16  and  O4_17 
REMARK   11  A    between atoms: C17_23  and  C19_25 
REMARK   12  A    between atoms: C22_28  and  C24_30 
REMARK   13  A    between atoms: C25_32  and  C26_33 
REMARK   14  A    between atoms: C27_35  and  O9_36 
REMARK   15  A    between atoms: C27_35  and  C28_37 
REMARK   16  A    between atoms: C28_37  and  O10_38 
ROOT
HETATM    1  C11 UNL     1       1.510  10.409  18.890  1.00  0.00     0.130 C 
HETATM    2  C12 UNL     1       2.799  10.881  18.209  1.00  0.00     0.064 C 
HETATM    3  C13 UNL     1       2.535  11.578  16.890  1.00  0.00     0.129 C 
HETATM    4  C14 UNL     1       1.510  10.779  16.085  1.00  0.00     0.073 C 
HETATM    5  C15 UNL     1       2.028   9.372  15.723  1.00  0.00     0.018 C 
HETATM    6  C16 UNL     1       0.159  10.771  16.860  1.00  0.00     0.174 C 
HETATM    7  O5  UNL     1       0.316  10.884  18.278  1.00  0.00    -0.349 OA
HETATM    8  O6  UNL     1      -0.560   9.569  16.517  1.00  0.00    -0.341 OA
HETATM    9  C17 UNL     1      -1.955   9.852  16.319  1.00  0.00     0.087 C 
HETATM   10  C18 UNL     1      -2.676   9.634  17.652  1.00  0.00     0.049 C 
HETATM   11  C37 UNL     1      -2.011  11.321  15.887  1.00  0.00     0.050 C 
HETATM   12  C38 UNL     1      -0.744  11.963  16.422  1.00  0.00     0.047 C 
HETATM   13  C39 UNL     1      -1.064  13.015  17.495  1.00  0.00     0.015 C 
ENDROOT
BRANCH   9  14
HETATM   14  C19 UNL     1      -2.584   8.972  15.205  1.00  0.00     0.157 C 
HETATM   15  C20 UNL     1      -2.311   9.403  13.776  1.00  0.00     0.038 C 
HETATM   16  C21 UNL     1      -2.838   8.205  13.011  1.00  0.00     0.043 C 
HETATM   17  C22 UNL     1      -2.522   7.012  13.939  1.00  0.00     0.084 C 
HETATM   18  C23 UNL     1      -3.811   6.200  14.144  1.00  0.00     0.049 C 
HETATM   19  O11 UNL     1      -2.155   7.594  15.215  1.00  0.00    -0.370 OA
BRANCH  17  20
HETATM   20  C24 UNL     1      -1.348   6.186  13.358  1.00  0.00     0.160 C 
HETATM   21  O7  UNL     1      -0.592   6.973  12.405  1.00  0.00    -0.375 OA
HETATM   22  C25 UNL     1      -0.331   6.169  11.234  1.00  0.00     0.152 C 
HETATM   23  C34 UNL     1      -0.446   4.723  11.710  1.00  0.00     0.041 C 
HETATM   24  C35 UNL     1      -1.589   4.803  12.716  1.00  0.00     0.016 C 
HETATM   25  C36 UNL     1      -2.914   4.546  12.022  1.00  0.00     0.012 C 
BRANCH  22  26
HETATM   26  C26 UNL     1       1.005   6.557  10.556  1.00  0.00     0.158 C 
HETATM   27  O8  UNL     1       1.840   5.405  10.454  1.00  0.00    -0.345 OA
HETATM   28  C27 UNL     1       3.197   5.666  10.083  1.00  0.00     0.187 C 
HETATM   29  C29 UNL     1       3.314   6.751   8.978  1.00  0.00     0.046 C 
HETATM   30  C30 UNL     1       3.812   8.110   9.485  1.00  0.00     0.015 C 
HETATM   31  C31 UNL     1       1.986   6.881   8.220  1.00  0.00     0.016 C 
HETATM   32  C32 UNL     1       0.772   7.117   9.137  1.00  0.00     0.014 C 
HETATM   33  C33 UNL     1       0.366   8.596   9.163  1.00  0.00     0.012 C 
BRANCH  28  34
HETATM   34  O9  UNL     1       3.926   6.036  11.243  1.00  0.00    -0.363 OA
HETATM   35  H41 UNL     1       3.895   5.223  11.785  1.00  0.00     0.213 HD
ENDBRANCH  28  34
BRANCH  28  36
HETATM   36  C28 UNL     1       3.778   4.312   9.587  1.00  0.00     0.232 C 
BRANCH  36  37
HETATM   37  O10 UNL     1       2.943   3.219  10.017  1.00  0.00    -0.396 OA
HETATM   38  H44 UNL     1       3.152   2.461   9.442  1.00  0.00     0.209 HD
ENDBRANCH  36  37
ENDBRANCH  28  36
ENDBRANCH  22  26
ENDBRANCH  17  20
ENDBRANCH   9  14
BRANCH   3  39
HETATM   39  O4  UNL     1       3.765  11.709  16.178  1.00  0.00    -0.395 OA
HETATM   40  H22 UNL     1       3.578  12.209  15.364  1.00  0.00     0.210 HD
ENDBRANCH   3  39
BRANCH   1  41
HETATM   41  C10 UNL     1       1.475  10.827  20.384  1.00  0.00     0.063 C 
BRANCH  41  42
HETATM   42  C9  UNL     1       2.478  10.097  21.294  1.00  0.00     0.120 C 
BRANCH  42  43
HETATM   43  C8  UNL     1       2.997  10.954  22.463  1.00  0.00     0.036 C 
BRANCH  43  44
HETATM   44  C7  UNL     1       4.449  10.682  22.888  1.00  0.00     0.036 C 
BRANCH  44  45
HETATM   45  C2  UNL     1       5.508  11.553  22.254  1.00  0.00    -0.087 C 
HETATM   46  C1  UNL     1       5.453  11.667  20.758  1.00  0.00     0.043 C 
HETATM   47  C3  UNL     1       6.378  12.223  23.041  1.00  0.00    -0.010 C 
BRANCH  47  48
HETATM   48  C4  UNL     1       7.515  13.160  22.695  1.00  0.00     0.102 C 
HETATM   49  C5  UNL     1       7.559  14.495  23.440  1.00  0.00     0.025 C 
BRANCH  48  50
HETATM   50  C6  UNL     1       8.827  12.406  22.848  1.00  0.00     0.147 C 
HETATM   51  O1  UNL     1       9.016  11.314  23.360  1.00  0.00    -0.650 OA
BRANCH  50  52
HETATM   52  O2  UNL     1       9.877  13.067  22.303  1.00  0.00    -0.776 OA
HETATM   53  H9  UNL     1      10.624  12.447  22.432  1.00  0.00     0.167 HD
ENDBRANCH  50  52
ENDBRANCH  48  50
ENDBRANCH  47  48
ENDBRANCH  44  45
ENDBRANCH  43  44
ENDBRANCH  42  43
BRANCH  42  54
HETATM   54  O3  UNL     1       1.846   8.953  21.872  1.00  0.00    -0.395 OA
HETATM   55  H15 UNL     1       2.525   8.468  22.367  1.00  0.00     0.210 HD
ENDBRANCH  42  54
ENDBRANCH  41  42
ENDBRANCH   1  41
TORSDOF 16
ENDMDL
MODEL 8
REMARK minimizedAffinity -9.20324516
REMARK CNNscore 0.578987658
REMARK CNNaffinity 7.82959986
REMARK  16 active torsions:
REMARK  status: ('A' for Active; 'I' for Inactive)
REMARK    1  A    between atoms: C2_2  and  C7_9 
REMARK    2  A    between atoms: C3_3  and  C4_4 
REMARK    3  A    between atoms: C4_4  and  C6_6 
REMARK    4  A    between atoms: C6_6  and  O2_8 
REMARK    5  A    between atoms: C7_9  and  C8_10 
REMARK    6  A    between atoms: C8_10  and  C9_11 
REMARK    7  A    between atoms: C9_11  and  O3_12 
REMARK    8  A    between atoms: C9_11  and  C10_13 
REMARK    9  A    between atoms: C10_13  and  C11_14 
REMARK   10  A    between atoms: C13_16  and  O4_17 
REMARK   11  A    between atoms: C17_23  and  C19_25 
REMARK   12  A    between atoms: C22_28  and  C24_30 
REMARK   13  A    between atoms: C25_32  and  C26_33 
REMARK   14  A    between atoms: C27_35  and  O9_36 
REMARK   15  A    between atoms: C27_35  and  C28_37 
REMARK   16  A    between atoms: C28_37  and  O10_38 
ROOT
HETATM    1  C11 UNL     1      -0.984   8.180  12.149  1.00  0.00     0.130 C 
HETATM    2  C12 UNL     1      -0.963   9.351  13.137  1.00  0.00     0.064 C 
HETATM    3  C13 UNL     1      -1.638   9.013  14.450  1.00  0.00     0.129 C 
HETATM    4  C14 UNL     1      -2.954   8.284  14.176  1.00  0.00     0.073 C 
HETATM    5  C15 UNL     1      -3.954   9.169  13.402  1.00  0.00     0.018 C 
HETATM    6  C16 UNL     1      -2.641   6.929  13.477  1.00  0.00     0.174 C 
HETATM    7  O5  UNL     1      -1.436   6.951  12.706  1.00  0.00    -0.349 OA
HETATM    8  O6  UNL     1      -3.769   6.565  12.655  1.00  0.00    -0.341 OA
HETATM    9  C17 UNL     1      -4.054   5.163  12.777  1.00  0.00     0.087 C 
HETATM   10  C18 UNL     1      -3.296   4.428  11.667  1.00  0.00     0.049 C 
HETATM   11  C37 UNL     1      -3.539   4.765  14.163  1.00  0.00     0.050 C 
HETATM   12  C38 UNL     1      -2.474   5.786  14.523  1.00  0.00     0.047 C 
HETATM   13  C39 UNL     1      -1.086   5.133  14.613  1.00  0.00     0.015 C 
ENDROOT
BRANCH   9  14
HETATM   14  C19 UNL     1      -5.575   4.859  12.695  1.00  0.00     0.157 C 
HETATM   15  C20 UNL     1      -6.064   3.667  13.497  1.00  0.00     0.038 C 
HETATM   16  C21 UNL     1      -7.565   3.845  13.386  1.00  0.00     0.043 C 
HETATM   17  C22 UNL     1      -7.750   5.377  13.362  1.00  0.00     0.084 C 
HETATM   18  C23 UNL     1      -8.612   5.746  12.144  1.00  0.00     0.049 C 
HETATM   19  O11 UNL     1      -6.425   5.929  13.155  1.00  0.00    -0.370 OA
BRANCH  17  20
HETATM   20  C24 UNL     1      -8.337   5.860  14.712  1.00  0.00     0.160 C 
HETATM   21  O7  UNL     1      -9.328   6.895  14.497  1.00  0.00    -0.375 OA
HETATM   22  C25 UNL     1      -9.099   7.968  15.436  1.00  0.00     0.152 C 
HETATM   23  C34 UNL     1      -8.318   7.333  16.583  1.00  0.00     0.041 C 
HETATM   24  C35 UNL     1      -7.416   6.344  15.853  1.00  0.00     0.016 C 
HETATM   25  C36 UNL     1      -6.099   7.006  15.492  1.00  0.00     0.012 C 
BRANCH  22  26
HETATM   26  C26 UNL     1     -10.415   8.683  15.824  1.00  0.00     0.158 C 
HETATM   27  O8  UNL     1     -10.226   9.401  17.043  1.00  0.00    -0.345 OA
HETATM   28  C27 UNL     1     -11.422   9.897  17.651  1.00  0.00     0.187 C 
HETATM   29  C29 UNL     1     -12.423  10.475  16.612  1.00  0.00     0.046 C 
HETATM   30  C30 UNL     1     -13.635   9.575  16.344  1.00  0.00     0.015 C 
HETATM   31  C31 UNL     1     -11.688  10.838  15.315  1.00  0.00     0.016 C 
HETATM   32  C32 UNL     1     -10.853   9.683  14.733  1.00  0.00     0.014 C 
HETATM   33  C33 UNL     1     -11.583   8.988  13.577  1.00  0.00     0.012 C 
BRANCH  28  34
HETATM   34  O9  UNL     1     -12.017   8.854  18.409  1.00  0.00    -0.363 OA
HETATM   35  H41 UNL     1     -11.351   8.688  19.105  1.00  0.00     0.213 HD
ENDBRANCH  28  34
BRANCH  28  36
HETATM   36  C28 UNL     1     -10.974  10.997  18.654  1.00  0.00     0.232 C 
BRANCH  36  37
HETATM   37  O10 UNL     1     -11.792  10.959  19.840  1.00  0.00    -0.396 OA
HETATM   38  H44 UNL     1     -11.296  11.421  20.539  1.00  0.00     0.209 HD
ENDBRANCH  36  37
ENDBRANCH  28  36
ENDBRANCH  22  26
ENDBRANCH  17  20
ENDBRANCH   9  14
BRANCH   3  39
HETATM   39  O4  UNL     1      -1.854  10.216  15.186  1.00  0.00    -0.395 OA
HETATM   40  H22 UNL     1      -2.235   9.966  16.046  1.00  0.00     0.210 HD
ENDBRANCH   3  39
BRANCH   1  41
HETATM   41  C10 UNL     1       0.420   7.933  11.536  1.00  0.00     0.063 C 
BRANCH  41  42
HETATM   42  C9  UNL     1       0.746   6.464  11.212  1.00  0.00     0.120 C 
BRANCH  42  43
HETATM   43  C8  UNL     1       1.597   6.280   9.942  1.00  0.00     0.036 C 
BRANCH  43  44
HETATM   44  C7  UNL     1       3.039   5.803  10.176  1.00  0.00     0.036 C 
BRANCH  44  45
HETATM   45  C2  UNL     1       4.089   6.881  10.311  1.00  0.00    -0.087 C 
HETATM   46  C1  UNL     1       3.866   8.119   9.491  1.00  0.00     0.043 C 
HETATM   47  C3  UNL     1       5.103   6.718  11.189  1.00  0.00    -0.010 C 
BRANCH  47  48
HETATM   48  C4  UNL     1       6.270   7.614  11.540  1.00  0.00     0.102 C 
HETATM   49  C5  UNL     1       6.418   8.903  10.731  1.00  0.00     0.025 C 
BRANCH  48  50
HETATM   50  C6  UNL     1       6.223   7.907  13.031  1.00  0.00     0.147 C 
HETATM   51  O1  UNL     1       6.881   8.717  13.664  1.00  0.00    -0.650 OA
BRANCH  50  52
HETATM   52  O2  UNL     1       5.296   7.161  13.682  1.00  0.00    -0.776 OA
HETATM   53  H9  UNL     1       5.349   7.492  14.602  1.00  0.00     0.167 HD
ENDBRANCH  50  52
ENDBRANCH  48  50
ENDBRANCH  47  48
ENDBRANCH  44  45
ENDBRANCH  43  44
ENDBRANCH  42  43
BRANCH  42  54
HETATM   54  O3  UNL     1       1.490   5.897  12.292  1.00  0.00    -0.395 OA
HETATM   55  H15 UNL     1       1.604   4.952  12.098  1.00  0.00     0.210 HD
ENDBRANCH  42  54
ENDBRANCH  41  42
ENDBRANCH   1  41
TORSDOF 16
ENDMDL
MODEL 9
REMARK minimizedAffinity -8.9761982
REMARK CNNscore 0.543476045
REMARK CNNaffinity 7.23996401
REMARK  16 active torsions:
REMARK  status: ('A' for Active; 'I' for Inactive)
REMARK    1  A    between atoms: C2_2  and  C7_9 
REMARK    2  A    between atoms: C3_3  and  C4_4 
REMARK    3  A    between atoms: C4_4  and  C6_6 
REMARK    4  A    between atoms: C6_6  and  O2_8 
REMARK    5  A    between atoms: C7_9  and  C8_10 
REMARK    6  A    between atoms: C8_10  and  C9_11 
REMARK    7  A    between atoms: C9_11  and  O3_12 
REMARK    8  A    between atoms: C9_11  and  C10_13 
REMARK    9  A    between atoms: C10_13  and  C11_14 
REMARK   10  A    between atoms: C13_16  and  O4_17 
REMARK   11  A    between atoms: C17_23  and  C19_25 
REMARK   12  A    between atoms: C22_28  and  C24_30 
REMARK   13  A    between atoms: C25_32  and  C26_33 
REMARK   14  A    between atoms: C27_35  and  O9_36 
REMARK   15  A    between atoms: C27_35  and  C28_37 
REMARK   16  A    between atoms: C28_37  and  O10_38 
ROOT
HETATM    1  C11 UNL     1       8.231  10.254  13.881  1.00  0.00     0.130 C 
HETATM    2  C12 UNL     1       8.318   9.792  15.339  1.00  0.00     0.064 C 
HETATM    3  C13 UNL     1       7.593   8.483  15.576  1.00  0.00     0.129 C 
HETATM    4  C14 UNL     1       6.232   8.518  14.879  1.00  0.00     0.073 C 
HETATM    5  C15 UNL     1       5.316   9.619  15.454  1.00  0.00     0.018 C 
HETATM    6  C16 UNL     1       6.458   8.627  13.343  1.00  0.00     0.174 C 
HETATM    7  O5  UNL     1       7.678   9.289  12.993  1.00  0.00    -0.349 OA
HETATM    8  O6  UNL     1       5.324   9.299  12.758  1.00  0.00    -0.341 OA
HETATM    9  C17 UNL     1       4.934   8.662  11.531  1.00  0.00     0.087 C 
HETATM   10  C18 UNL     1       5.658   9.366  10.380  1.00  0.00     0.049 C 
HETATM   11  C37 UNL     1       5.389   7.206  11.670  1.00  0.00     0.050 C 
HETATM   12  C38 UNL     1       6.519   7.216  12.685  1.00  0.00     0.047 C 
HETATM   13  C39 UNL     1       7.853   6.816  12.035  1.00  0.00     0.015 C 
ENDROOT
BRANCH   9  14
HETATM   14  C19 UNL     1       3.397   8.693  11.312  1.00  0.00     0.157 C 
HETATM   15  C20 UNL     1       2.880   7.954  10.091  1.00  0.00     0.038 C 
HETATM   16  C21 UNL     1       1.386   7.982  10.352  1.00  0.00     0.043 C 
HETATM   17  C22 UNL     1       1.283   7.888  11.890  1.00  0.00     0.084 C 
HETATM   18  C23 UNL     1       0.391   9.035  12.389  1.00  0.00     0.049 C 
HETATM   19  O11 UNL     1       2.626   8.119  12.388  1.00  0.00    -0.370 OA
BRANCH  17  20
HETATM   20  C24 UNL     1       0.783   6.481  12.302  1.00  0.00     0.160 C 
HETATM   21  O7  UNL     1      -0.510   6.205  11.709  1.00  0.00    -0.375 OA
HETATM   22  C25 UNL     1      -1.375   5.634  12.715  1.00  0.00     0.152 C 
HETATM   23  C34 UNL     1      -0.434   5.050  13.765  1.00  0.00     0.041 C 
HETATM   24  C35 UNL     1       0.699   6.070  13.787  1.00  0.00     0.016 C 
HETATM   25  C36 UNL     1       0.415   7.143  14.823  1.00  0.00     0.012 C 
BRANCH  22  26
HETATM   26  C26 UNL     1      -2.401   4.652  12.100  1.00  0.00     0.158 C 
HETATM   27  O8  UNL     1      -1.743   3.437  11.744  1.00  0.00    -0.345 OA
HETATM   28  C27 UNL     1      -2.511   2.541  10.936  1.00  0.00     0.187 C 
HETATM   29  C29 UNL     1      -3.997   2.461  11.382  1.00  0.00     0.046 C 
HETATM   30  C30 UNL     1      -4.970   3.196  10.452  1.00  0.00     0.015 C 
HETATM   31  C31 UNL     1      -4.139   2.931  12.836  1.00  0.00     0.016 C 
HETATM   32  C32 UNL     1      -3.529   4.319  13.100  1.00  0.00     0.014 C 
HETATM   33  C33 UNL     1      -4.607   5.410  13.131  1.00  0.00     0.012 C 
BRANCH  28  34
HETATM   34  O9  UNL     1      -2.406   2.944   9.578  1.00  0.00    -0.363 OA
HETATM   35  H41 UNL     1      -1.456   2.810   9.387  1.00  0.00     0.213 HD
ENDBRANCH  28  34
BRANCH  28  36
HETATM   36  C28 UNL     1      -1.825   1.151  11.057  1.00  0.00     0.232 C 
BRANCH  36  37
HETATM   37  O10 UNL     1      -1.060   0.863   9.870  1.00  0.00    -0.396 OA
HETATM   38  H44 UNL     1      -0.419   0.169  10.110  1.00  0.00     0.209 HD
ENDBRANCH  36  37
ENDBRANCH  28  36
ENDBRANCH  22  26
ENDBRANCH  17  20
ENDBRANCH   9  14
BRANCH   3  39
HETATM   39  O4  UNL     1       7.451   8.277  16.981  1.00  0.00    -0.395 OA
HETATM   40  H22 UNL     1       7.035   7.406  17.106  1.00  0.00     0.210 HD
ENDBRANCH   3  39
BRANCH   1  41
HETATM   41  C10 UNL     1       9.625  10.657  13.332  1.00  0.00     0.063 C 
BRANCH  41  42
HETATM   42  C9  UNL     1      10.785   9.731  13.739  1.00  0.00     0.120 C 
BRANCH  42  43
HETATM   43  C8  UNL     1      11.708  10.326  14.818  1.00  0.00     0.036 C 
BRANCH  43  44
HETATM   44  C7  UNL     1      11.371  11.759  15.261  1.00  0.00     0.036 C 
BRANCH  44  45
HETATM   45  C2  UNL     1      12.349  12.416  16.207  1.00  0.00    -0.087 C 
HETATM   46  C1  UNL     1      12.531  13.897  16.037  1.00  0.00     0.043 C 
HETATM   47  C3  UNL     1      12.936  11.679  17.175  1.00  0.00    -0.010 C 
BRANCH  47  48
HETATM   48  C4  UNL     1      13.928  12.060  18.252  1.00  0.00     0.102 C 
HETATM   49  C5  UNL     1      15.075  12.984  17.838  1.00  0.00     0.025 C 
BRANCH  48  50
HETATM   50  C6  UNL     1      13.164  12.634  19.434  1.00  0.00     0.147 C 
HETATM   51  O1  UNL     1      12.223  13.411  19.420  1.00  0.00    -0.650 OA
BRANCH  50  52
HETATM   52  O2  UNL     1      13.613  12.166  20.624  1.00  0.00    -0.776 OA
HETATM   53  H9  UNL     1      13.004  12.577  21.271  1.00  0.00     0.167 HD
ENDBRANCH  50  52
ENDBRANCH  48  50
ENDBRANCH  47  48
ENDBRANCH  44  45
ENDBRANCH  43  44
ENDBRANCH  42  43
BRANCH  42  54
HETATM   54  O3  UNL     1      10.254   8.518  14.275  1.00  0.00    -0.395 OA
HETATM   55  H15 UNL     1      11.004   7.924  14.440  1.00  0.00     0.210 HD
ENDBRANCH  42  54
ENDBRANCH  41  42
ENDBRANCH   1  41
TORSDOF 16
ENDMDL
