MODEL 1
REMARK minimizedAffinity -6.74679995
REMARK CNNscore 0.81397742
REMARK CNNaffinity 7.13597441
REMARK  20 active torsions:
REMARK  status: ('A' for Active; 'I' for Inactive)
REMARK    1  A    between atoms: C2_2  and  C3_3 
REMARK    2  A    between atoms: C2_2  and  C30_37 
REMARK    3  A    between atoms: C4_4  and  C5_5 
REMARK    4  A    between atoms: C6_6  and  C7_7 
REMARK    5  A    between atoms: C6_6  and  C11_14 
REMARK    6  A    between atoms: C7_7  and  O1_8 
REMARK    7  A    between atoms: O1_8  and  C8_9 
REMARK    8  A    between atoms: C8_9  and  C9_10 
REMARK    9  A    between atoms: C9_10  and  O2_11 
REMARK   10  A    between atoms: C9_10  and  C10_12 
REMARK   11  A    between atoms: C10_12  and  O3_13 
REMARK   12  A    between atoms: C15_18  and  O4_19 
REMARK   13  A    between atoms: C16_20  and  C17_21 
REMARK   14  A    between atoms: C17_21  and  C18_22 
REMARK   15  A    between atoms: C18_22  and  C19_23 
REMARK   16  A    between atoms: C19_23  and  O5_24 
REMARK   17  A    between atoms: C21_26  and  C22_27 
REMARK   18  A    between atoms: C28_34  and  O7_36 
REMARK   19  A    between atoms: C30_37  and  C31_38 
REMARK   20  A    between atoms: C31_38  and  C32_39 
ROOT
HETATM    1  C11 UNL     1       2.671  53.383 -10.598  1.00  0.00     0.046 C 
HETATM    2  C12 UNL     1       3.635  54.465 -11.082  1.00  0.00     0.013 C 
HETATM    3  C13 UNL     1       3.091  55.723 -10.407  1.00  0.00     0.017 C 
HETATM    4  C14 UNL     1       2.581  55.275  -8.996  1.00  0.00     0.024 C 
HETATM    5  C15 UNL     1       2.611  53.703  -9.084  1.00  0.00     0.138 C 
HETATM    6  C16 UNL     1       1.087  55.829  -8.784  1.00  0.00     0.029 C 
HETATM    7  C20 UNL     1       0.830  56.066  -7.282  1.00  0.00    -0.061 C 
HETATM    8  C21 UNL     1       0.086  55.366  -6.389  1.00  0.00    -0.017 C 
HETATM    9  C23 UNL     1      -0.142  55.816  -4.961  1.00  0.00     0.042 C 
HETATM   10  C24 UNL     1       0.349  57.230  -4.668  1.00  0.00     0.005 C 
HETATM   11  C25 UNL     1       1.719  57.442  -5.285  1.00  0.00     0.009 C 
HETATM   12  C26 UNL     1       1.639  57.283  -6.813  1.00  0.00     0.018 C 
HETATM   13  C27 UNL     1       3.062  57.267  -7.416  1.00  0.00     0.047 C 
HETATM   14  C28 UNL     1       3.529  55.858  -7.848  1.00  0.00     0.066 C 
HETATM   15  C29 UNL     1       5.032  55.940  -8.185  1.00  0.00     0.047 C 
ENDROOT
BRANCH   1  16
HETATM   16  C6  UNL     1       2.848  51.901 -10.928  1.00  0.00    -0.050 C 
HETATM   17  C5  UNL     1       3.014  51.288 -12.121  1.00  0.00     0.005 C 
BRANCH  17  18
HETATM   18  C4  UNL     1       3.108  51.841 -13.454  1.00  0.00     0.001 C 
HETATM   19  C3  UNL     1       2.146  51.664 -14.375  1.00  0.00     0.006 C 
BRANCH  19  20
HETATM   20  C2  UNL     1       2.168  52.141 -15.758  1.00  0.00    -0.067 C 
HETATM   21  C1  UNL     1       3.364  52.388 -16.321  1.00  0.00     0.019 C 
BRANCH  20  22
HETATM   22  C30 UNL     1       0.837  52.357 -16.474  1.00  0.00     0.041 C 
BRANCH  22  23
HETATM   23  C31 UNL     1       0.696  51.883 -17.935  1.00  0.00     0.032 C 
BRANCH  23  24
HETATM   24  C32 UNL     1       1.009  52.977 -18.928  1.00  0.00    -0.024 C 
HETATM   25  C33 UNL     1       0.916  52.940 -20.273  1.00  0.00    -0.091 C 
HETATM   26  C34 UNL     1       1.261  54.157 -21.094  1.00  0.00     0.042 C 
HETATM   27  C35 UNL     1       0.474  51.757 -21.088  1.00  0.00     0.042 C 
ENDBRANCH  23  24
ENDBRANCH  22  23
ENDBRANCH  20  22
ENDBRANCH  19  20
ENDBRANCH  17  18
BRANCH  16  28
HETATM   28  C7  UNL     1       2.794  51.004  -9.688  1.00  0.00     0.202 C 
BRANCH  28  29
HETATM   29  O1  UNL     1       4.109  50.535  -9.409  1.00  0.00    -0.384 OA
BRANCH  29  30
HETATM   30  C8  UNL     1       4.287  49.132  -9.628  1.00  0.00     0.201 C 
BRANCH  30  31
HETATM   31  C9  UNL     1       5.696  48.624  -9.277  1.00  0.00     0.165 C 
BRANCH  31  32
HETATM   32  O2  UNL     1       5.844  48.538  -7.853  1.00  0.00    -0.391 OA
HETATM   33  H11 UNL     1       6.658  48.032  -7.678  1.00  0.00     0.210 HD
ENDBRANCH  31  32
BRANCH  31  34
HETATM   34  C10 UNL     1       6.809  49.500  -9.865  1.00  0.00     0.198 C 
BRANCH  34  35
HETATM   35  O3  UNL     1       6.629  49.707 -11.259  1.00  0.00    -0.398 OA
HETATM   36  H14 UNL     1       7.159  49.044 -11.736  1.00  0.00     0.209 HD
ENDBRANCH  34  35
ENDBRANCH  31  34
ENDBRANCH  30  31
ENDBRANCH  29  30
ENDBRANCH  28  29
ENDBRANCH  16  28
ENDBRANCH   1  16
BRANCH   5  37
HETATM   37  O4  UNL     1       3.774  53.155  -8.444  1.00  0.00    -0.394 OA
HETATM   38  H21 UNL     1       3.682  52.186  -8.471  1.00  0.00     0.210 HD
ENDBRANCH   5  37
BRANCH   6  39
HETATM   39  C17 UNL     1      -0.102  55.162  -9.534  1.00  0.00     0.012 C 
BRANCH  39  40
HETATM   40  C18 UNL     1      -0.011  53.643  -9.758  1.00  0.00     0.027 C 
BRANCH  40  41
HETATM   41  C19 UNL     1      -1.100  53.156 -10.716  1.00  0.00     0.164 C 
BRANCH  41  42
HETATM   42  O5  UNL     1      -0.609  53.135 -12.052  1.00  0.00    -0.401 OA
HETATM   43  H29 UNL     1      -0.316  52.229 -12.246  1.00  0.00     0.209 HD
ENDBRANCH  41  42
ENDBRANCH  40  41
ENDBRANCH  39  40
ENDBRANCH   6  39
BRANCH  14  44
HETATM   44  O7  UNL     1       3.447  55.017  -6.682  1.00  0.00    -0.389 OA
HETATM   45  H43 UNL     1       3.820  54.155  -6.967  1.00  0.00     0.210 HD
ENDBRANCH  14  44
BRANCH   8  46
HETATM   46  C22 UNL     1      -0.554  54.044  -6.663  1.00  0.00     0.265 C 
HETATM   47  O6  UNL     1      -0.006  52.973  -6.416  1.00  0.00    -0.302 OA
ENDBRANCH   8  46
TORSDOF 20
ENDMDL
MODEL 2
REMARK minimizedAffinity -7.21640825
REMARK CNNscore 0.697630286
REMARK CNNaffinity 7.23151827
REMARK  20 active torsions:
REMARK  status: ('A' for Active; 'I' for Inactive)
REMARK    1  A    between atoms: C2_2  and  C3_3 
REMARK    2  A    between atoms: C2_2  and  C30_37 
REMARK    3  A    between atoms: C4_4  and  C5_5 
REMARK    4  A    between atoms: C6_6  and  C7_7 
REMARK    5  A    between atoms: C6_6  and  C11_14 
REMARK    6  A    between atoms: C7_7  and  O1_8 
REMARK    7  A    between atoms: O1_8  and  C8_9 
REMARK    8  A    between atoms: C8_9  and  C9_10 
REMARK    9  A    between atoms: C9_10  and  O2_11 
REMARK   10  A    between atoms: C9_10  and  C10_12 
REMARK   11  A    between atoms: C10_12  and  O3_13 
REMARK   12  A    between atoms: C15_18  and  O4_19 
REMARK   13  A    between atoms: C16_20  and  C17_21 
REMARK   14  A    between atoms: C17_21  and  C18_22 
REMARK   15  A    between atoms: C18_22  and  C19_23 
REMARK   16  A    between atoms: C19_23  and  O5_24 
REMARK   17  A    between atoms: C21_26  and  C22_27 
REMARK   18  A    between atoms: C28_34  and  O7_36 
REMARK   19  A    between atoms: C30_37  and  C31_38 
REMARK   20  A    between atoms: C31_38  and  C32_39 
ROOT
HETATM    1  C11 UNL     1       2.461  54.585 -10.192  1.00  0.00     0.046 C 
HETATM    2  C12 UNL     1       3.641  54.859 -11.122  1.00  0.00     0.013 C 
HETATM    3  C13 UNL     1       4.526  55.776 -10.279  1.00  0.00     0.017 C 
HETATM    4  C14 UNL     1       4.402  55.265  -8.803  1.00  0.00     0.024 C 
HETATM    5  C15 UNL     1       3.201  54.248  -8.874  1.00  0.00     0.138 C 
HETATM    6  C16 UNL     1       4.065  56.514  -7.849  1.00  0.00     0.029 C 
HETATM    7  C20 UNL     1       4.630  56.254  -6.438  1.00  0.00    -0.061 C 
HETATM    8  C21 UNL     1       4.004  55.932  -5.279  1.00  0.00    -0.017 C 
HETATM    9  C23 UNL     1       4.720  55.821  -3.948  1.00  0.00     0.042 C 
HETATM   10  C24 UNL     1       6.162  56.318  -3.974  1.00  0.00     0.005 C 
HETATM   11  C25 UNL     1       6.864  55.809  -5.219  1.00  0.00     0.009 C 
HETATM   12  C26 UNL     1       6.162  56.348  -6.477  1.00  0.00     0.018 C 
HETATM   13  C27 UNL     1       6.727  55.650  -7.735  1.00  0.00     0.047 C 
HETATM   14  C28 UNL     1       5.771  54.590  -8.329  1.00  0.00     0.066 C 
HETATM   15  C29 UNL     1       6.547  53.801  -9.403  1.00  0.00     0.047 C 
ENDROOT
BRANCH   1  16
HETATM   16  C6  UNL     1       1.326  53.625 -10.546  1.00  0.00    -0.050 C 
HETATM   17  C5  UNL     1       1.318  52.548 -11.362  1.00  0.00     0.005 C 
BRANCH  17  18
HETATM   18  C4  UNL     1       2.387  51.946 -12.129  1.00  0.00     0.001 C 
HETATM   19  C3  UNL     1       2.379  51.919 -13.472  1.00  0.00     0.006 C 
BRANCH  19  20
HETATM   20  C2  UNL     1       3.384  51.296 -14.335  1.00  0.00    -0.067 C 
HETATM   21  C1  UNL     1       4.067  50.244 -13.850  1.00  0.00     0.019 C 
BRANCH  20  22
HETATM   22  C30 UNL     1       3.619  51.890 -15.722  1.00  0.00     0.041 C 
BRANCH  22  23
HETATM   23  C31 UNL     1       2.496  52.722 -16.372  1.00  0.00     0.032 C 
BRANCH  23  24
HETATM   24  C32 UNL     1       1.334  51.871 -16.823  1.00  0.00    -0.024 C 
HETATM   25  C33 UNL     1       0.618  51.963 -17.962  1.00  0.00    -0.091 C 
HETATM   26  C34 UNL     1      -0.504  50.995 -18.237  1.00  0.00     0.042 C 
HETATM   27  C35 UNL     1       0.834  52.977 -19.051  1.00  0.00     0.042 C 
ENDBRANCH  23  24
ENDBRANCH  22  23
ENDBRANCH  20  22
ENDBRANCH  19  20
ENDBRANCH  17  18
BRANCH  16  28
HETATM   28  C7  UNL     1       0.001  53.995  -9.872  1.00  0.00     0.202 C 
BRANCH  28  29
HETATM   29  O1  UNL     1      -1.034  53.948 -10.850  1.00  0.00    -0.384 OA
BRANCH  29  30
HETATM   30  C8  UNL     1      -2.306  54.396 -10.375  1.00  0.00     0.201 C 
BRANCH  30  31
HETATM   31  C9  UNL     1      -3.451  53.403 -10.640  1.00  0.00     0.165 C 
BRANCH  31  32
HETATM   32  O2  UNL     1      -3.329  52.272  -9.766  1.00  0.00    -0.391 OA
HETATM   33  H11 UNL     1      -4.165  51.775  -9.820  1.00  0.00     0.210 HD
ENDBRANCH  31  32
BRANCH  31  34
HETATM   34  C10 UNL     1      -3.506  52.932 -12.097  1.00  0.00     0.198 C 
BRANCH  34  35
HETATM   35  O3  UNL     1      -4.221  53.848 -12.916  1.00  0.00    -0.398 OA
HETATM   36  H14 UNL     1      -5.142  53.543 -12.981  1.00  0.00     0.209 HD
ENDBRANCH  34  35
ENDBRANCH  31  34
ENDBRANCH  30  31
ENDBRANCH  29  30
ENDBRANCH  28  29
ENDBRANCH  16  28
ENDBRANCH   1  16
BRANCH   5  37
HETATM   37  O4  UNL     1       3.659  52.888  -8.930  1.00  0.00    -0.394 OA
HETATM   38  H21 UNL     1       2.867  52.321  -8.892  1.00  0.00     0.210 HD
ENDBRANCH   5  37
BRANCH   6  39
HETATM   39  C17 UNL     1       2.639  57.136  -7.858  1.00  0.00     0.012 C 
BRANCH  39  40
HETATM   40  C18 UNL     1       1.461  56.162  -7.686  1.00  0.00     0.027 C 
BRANCH  40  41
HETATM   41  C19 UNL     1       0.215  56.883  -7.169  1.00  0.00     0.164 C 
BRANCH  41  42
HETATM   42  O5  UNL     1      -0.799  56.897  -8.168  1.00  0.00    -0.401 OA
HETATM   43  H29 UNL     1      -1.401  56.156  -7.990  1.00  0.00     0.209 HD
ENDBRANCH  41  42
ENDBRANCH  40  41
ENDBRANCH  39  40
ENDBRANCH   6  39
BRANCH  14  44
HETATM   44  O7  UNL     1       5.502  53.639  -7.281  1.00  0.00    -0.389 OA
HETATM   45  H43 UNL     1       4.958  52.942  -7.708  1.00  0.00     0.210 HD
ENDBRANCH  14  44
BRANCH   8  46
HETATM   46  C22 UNL     1       2.556  55.583  -5.159  1.00  0.00     0.265 C 
HETATM   47  O6  UNL     1       2.162  54.462  -4.851  1.00  0.00    -0.302 OA
ENDBRANCH   8  46
TORSDOF 20
ENDMDL
MODEL 3
REMARK minimizedAffinity -6.80486727
REMARK CNNscore 0.68685168
REMARK CNNaffinity 7.03620386
REMARK  20 active torsions:
REMARK  status: ('A' for Active; 'I' for Inactive)
REMARK    1  A    between atoms: C2_2  and  C3_3 
REMARK    2  A    between atoms: C2_2  and  C30_37 
REMARK    3  A    between atoms: C4_4  and  C5_5 
REMARK    4  A    between atoms: C6_6  and  C7_7 
REMARK    5  A    between atoms: C6_6  and  C11_14 
REMARK    6  A    between atoms: C7_7  and  O1_8 
REMARK    7  A    between atoms: O1_8  and  C8_9 
REMARK    8  A    between atoms: C8_9  and  C9_10 
REMARK    9  A    between atoms: C9_10  and  O2_11 
REMARK   10  A    between atoms: C9_10  and  C10_12 
REMARK   11  A    between atoms: C10_12  and  O3_13 
REMARK   12  A    between atoms: C15_18  and  O4_19 
REMARK   13  A    between atoms: C16_20  and  C17_21 
REMARK   14  A    between atoms: C17_21  and  C18_22 
REMARK   15  A    between atoms: C18_22  and  C19_23 
REMARK   16  A    between atoms: C19_23  and  O5_24 
REMARK   17  A    between atoms: C21_26  and  C22_27 
REMARK   18  A    between atoms: C28_34  and  O7_36 
REMARK   19  A    between atoms: C30_37  and  C31_38 
REMARK   20  A    between atoms: C31_38  and  C32_39 
ROOT
HETATM    1  C11 UNL     1       3.223  53.722 -10.343  1.00  0.00     0.046 C 
HETATM    2  C12 UNL     1       3.002  55.233 -10.404  1.00  0.00     0.013 C 
HETATM    3  C13 UNL     1       1.604  55.342 -11.011  1.00  0.00     0.017 C 
HETATM    4  C14 UNL     1       0.779  54.146 -10.426  1.00  0.00     0.024 C 
HETATM    5  C15 UNL     1       1.878  53.256  -9.733  1.00  0.00     0.138 C 
HETATM    6  C16 UNL     1       0.063  53.369 -11.636  1.00  0.00     0.029 C 
HETATM    7  C20 UNL     1      -1.245  52.723 -11.135  1.00  0.00    -0.061 C 
HETATM    8  C21 UNL     1      -1.550  51.427 -10.876  1.00  0.00    -0.017 C 
HETATM    9  C23 UNL     1      -2.939  50.959 -10.490  1.00  0.00     0.042 C 
HETATM   10  C24 UNL     1      -4.016  52.028 -10.629  1.00  0.00     0.005 C 
HETATM   11  C25 UNL     1      -3.515  53.347 -10.072  1.00  0.00     0.009 C 
HETATM   12  C26 UNL     1      -2.284  53.820 -10.864  1.00  0.00     0.018 C 
HETATM   13  C27 UNL     1      -1.637  55.033 -10.157  1.00  0.00     0.047 C 
HETATM   14  C28 UNL     1      -0.332  54.680  -9.407  1.00  0.00     0.066 C 
HETATM   15  C29 UNL     1       0.064  55.897  -8.547  1.00  0.00     0.047 C 
ENDROOT
BRANCH   1  16
HETATM   16  C6  UNL     1       4.461  53.085  -9.714  1.00  0.00    -0.050 C 
HETATM   17  C5  UNL     1       5.457  53.645  -8.992  1.00  0.00     0.005 C 
BRANCH  17  18
HETATM   18  C4  UNL     1       5.648  55.012  -8.561  1.00  0.00     0.001 C 
HETATM   19  C3  UNL     1       4.782  55.637  -7.747  1.00  0.00     0.006 C 
BRANCH  19  20
HETATM   20  C2  UNL     1       4.860  57.027  -7.294  1.00  0.00    -0.067 C 
HETATM   21  C1  UNL     1       3.906  57.879  -7.707  1.00  0.00     0.019 C 
BRANCH  20  22
HETATM   22  C30 UNL     1       6.031  57.436  -6.403  1.00  0.00     0.041 C 
BRANCH  22  23
HETATM   23  C31 UNL     1       5.825  57.465  -4.875  1.00  0.00     0.032 C 
BRANCH  23  24
HETATM   24  C32 UNL     1       5.406  58.826  -4.375  1.00  0.00    -0.024 C 
HETATM   25  C33 UNL     1       4.168  59.263  -4.070  1.00  0.00    -0.091 C 
HETATM   26  C34 UNL     1       3.959  60.667  -3.563  1.00  0.00     0.042 C 
HETATM   27  C35 UNL     1       2.904  58.458  -4.180  1.00  0.00     0.042 C 
ENDBRANCH  23  24
ENDBRANCH  22  23
ENDBRANCH  20  22
ENDBRANCH  19  20
ENDBRANCH  17  18
BRANCH  16  28
HETATM   28  C7  UNL     1       4.566  51.583  -9.994  1.00  0.00     0.202 C 
BRANCH  28  29
HETATM   29  O1  UNL     1       5.941  51.215  -9.984  1.00  0.00    -0.384 OA
BRANCH  29  30
HETATM   30  C8  UNL     1       6.194  49.892 -10.466  1.00  0.00     0.201 C 
BRANCH  30  31
HETATM   31  C9  UNL     1       7.538  49.308  -9.997  1.00  0.00     0.165 C 
BRANCH  31  32
HETATM   32  O2  UNL     1       8.340  48.954 -11.132  1.00  0.00    -0.391 OA
HETATM   33  H11 UNL     1       9.241  48.782 -10.805  1.00  0.00     0.210 HD
ENDBRANCH  31  32
BRANCH  31  34
HETATM   34  C10 UNL     1       7.372  48.093  -9.077  1.00  0.00     0.198 C 
BRANCH  34  35
HETATM   35  O3  UNL     1       7.111  46.909  -9.818  1.00  0.00    -0.398 OA
HETATM   36  H14 UNL     1       6.148  46.777  -9.852  1.00  0.00     0.209 HD
ENDBRANCH  34  35
ENDBRANCH  31  34
ENDBRANCH  30  31
ENDBRANCH  29  30
ENDBRANCH  28  29
ENDBRANCH  16  28
ENDBRANCH   1  16
BRANCH   5  37
HETATM   37  O4  UNL     1       1.913  53.462  -8.312  1.00  0.00    -0.394 OA
HETATM   38  H21 UNL     1       2.555  52.826  -7.949  1.00  0.00     0.210 HD
ENDBRANCH   5  37
BRANCH   6  39
HETATM   39  C17 UNL     1       0.901  52.458 -12.578  1.00  0.00     0.012 C 
BRANCH  39  40
HETATM   40  C18 UNL     1       0.331  52.212 -13.986  1.00  0.00     0.027 C 
BRANCH  40  41
HETATM   41  C19 UNL     1       1.448  52.075 -15.022  1.00  0.00     0.164 C 
BRANCH  41  42
HETATM   42  O5  UNL     1       1.416  53.170 -15.931  1.00  0.00    -0.401 OA
HETATM   43  H29 UNL     1       2.059  53.831 -15.623  1.00  0.00     0.209 HD
ENDBRANCH  41  42
ENDBRANCH  40  41
ENDBRANCH  39  40
ENDBRANCH   6  39
BRANCH  14  44
HETATM   44  O7  UNL     1      -0.660  53.641  -8.465  1.00  0.00    -0.389 OA
HETATM   45  H43 UNL     1       0.165  53.494  -7.955  1.00  0.00     0.210 HD
ENDBRANCH  14  44
BRANCH   8  46
HETATM   46  C22 UNL     1      -0.566  50.303 -10.874  1.00  0.00     0.265 C 
HETATM   47  O6  UNL     1      -0.620  49.365 -11.665  1.00  0.00    -0.302 OA
ENDBRANCH   8  46
TORSDOF 20
ENDMDL
MODEL 4
REMARK minimizedAffinity -7.74215651
REMARK CNNscore 0.46008867
REMARK CNNaffinity 6.67690086
REMARK  20 active torsions:
REMARK  status: ('A' for Active; 'I' for Inactive)
REMARK    1  A    between atoms: C2_2  and  C3_3 
REMARK    2  A    between atoms: C2_2  and  C30_37 
REMARK    3  A    between atoms: C4_4  and  C5_5 
REMARK    4  A    between atoms: C6_6  and  C7_7 
REMARK    5  A    between atoms: C6_6  and  C11_14 
REMARK    6  A    between atoms: C7_7  and  O1_8 
REMARK    7  A    between atoms: O1_8  and  C8_9 
REMARK    8  A    between atoms: C8_9  and  C9_10 
REMARK    9  A    between atoms: C9_10  and  O2_11 
REMARK   10  A    between atoms: C9_10  and  C10_12 
REMARK   11  A    between atoms: C10_12  and  O3_13 
REMARK   12  A    between atoms: C15_18  and  O4_19 
REMARK   13  A    between atoms: C16_20  and  C17_21 
REMARK   14  A    between atoms: C17_21  and  C18_22 
REMARK   15  A    between atoms: C18_22  and  C19_23 
REMARK   16  A    between atoms: C19_23  and  O5_24 
REMARK   17  A    between atoms: C21_26  and  C22_27 
REMARK   18  A    between atoms: C28_34  and  O7_36 
REMARK   19  A    between atoms: C30_37  and  C31_38 
REMARK   20  A    between atoms: C31_38  and  C32_39 
ROOT
HETATM    1  C11 UNL     1      -8.641  46.612 -29.070  1.00  0.00     0.046 C 
HETATM    2  C12 UNL     1      -9.958  46.298 -29.778  1.00  0.00     0.013 C 
HETATM    3  C13 UNL     1     -10.787  45.650 -28.670  1.00  0.00     0.017 C 
HETATM    4  C14 UNL     1     -10.417  46.407 -27.349  1.00  0.00     0.024 C 
HETATM    5  C15 UNL     1      -9.160  47.261 -27.764  1.00  0.00     0.138 C 
HETATM    6  C16 UNL     1     -10.053  45.326 -26.217  1.00  0.00     0.029 C 
HETATM    7  C20 UNL     1     -10.393  45.900 -24.826  1.00  0.00    -0.061 C 
HETATM    8  C21 UNL     1      -9.587  46.362 -23.837  1.00  0.00    -0.017 C 
HETATM    9  C23 UNL     1     -10.099  46.790 -22.477  1.00  0.00     0.042 C 
HETATM   10  C24 UNL     1     -11.565  46.452 -22.230  1.00  0.00     0.005 C 
HETATM   11  C25 UNL     1     -12.391  46.795 -23.455  1.00  0.00     0.009 C 
HETATM   12  C26 UNL     1     -11.917  45.963 -24.660  1.00  0.00     0.018 C 
HETATM   13  C27 UNL     1     -12.594  46.474 -25.952  1.00  0.00     0.047 C 
HETATM   14  C28 UNL     1     -11.648  47.300 -26.853  1.00  0.00     0.066 C 
HETATM   15  C29 UNL     1     -12.500  47.955 -27.959  1.00  0.00     0.047 C 
ENDROOT
BRANCH   1  16
HETATM   16  C6  UNL     1      -7.492  47.364 -29.740  1.00  0.00    -0.050 C 
HETATM   17  C5  UNL     1      -6.360  47.877 -29.210  1.00  0.00     0.005 C 
BRANCH  17  18
HETATM   18  C4  UNL     1      -5.865  47.848 -27.851  1.00  0.00     0.001 C 
HETATM   19  C3  UNL     1      -4.716  48.444 -27.492  1.00  0.00     0.006 C 
BRANCH  19  20
HETATM   20  C2  UNL     1      -4.109  48.432 -26.161  1.00  0.00    -0.067 C 
HETATM   21  C1  UNL     1      -4.920  48.274 -25.099  1.00  0.00     0.019 C 
BRANCH  20  22
HETATM   22  C30 UNL     1      -2.598  48.625 -26.049  1.00  0.00     0.041 C 
BRANCH  22  23
HETATM   23  C31 UNL     1      -2.052  50.034 -25.744  1.00  0.00     0.032 C 
BRANCH  23  24
HETATM   24  C32 UNL     1      -1.339  50.645 -26.926  1.00  0.00    -0.024 C 
HETATM   25  C33 UNL     1      -0.153  51.286 -26.951  1.00  0.00    -0.091 C 
HETATM   26  C34 UNL     1       0.401  51.812 -28.250  1.00  0.00     0.042 C 
HETATM   27  C35 UNL     1       0.729  51.541 -25.761  1.00  0.00     0.042 C 
ENDBRANCH  23  24
ENDBRANCH  22  23
ENDBRANCH  20  22
ENDBRANCH  19  20
ENDBRANCH  17  18
BRANCH  16  28
HETATM   28  C7  UNL     1      -7.713  47.573 -31.241  1.00  0.00     0.202 C 
BRANCH  28  29
HETATM   29  O1  UNL     1      -6.836  46.706 -31.954  1.00  0.00    -0.384 OA
BRANCH  29  30
HETATM   30  C8  UNL     1      -6.246  47.299 -33.114  1.00  0.00     0.201 C 
BRANCH  30  31
HETATM   31  C9  UNL     1      -4.716  47.148 -33.177  1.00  0.00     0.165 C 
BRANCH  31  32
HETATM   32  O2  UNL     1      -4.171  47.140 -31.850  1.00  0.00    -0.391 OA
HETATM   33  H11 UNL     1      -3.245  46.846 -31.921  1.00  0.00     0.210 HD
ENDBRANCH  31  32
BRANCH  31  34
HETATM   34  C10 UNL     1      -4.042  48.244 -34.011  1.00  0.00     0.198 C 
BRANCH  34  35
HETATM   35  O3  UNL     1      -2.634  48.254 -33.819  1.00  0.00    -0.398 OA
HETATM   36  H14 UNL     1      -2.425  48.911 -33.133  1.00  0.00     0.209 HD
ENDBRANCH  34  35
ENDBRANCH  31  34
ENDBRANCH  30  31
ENDBRANCH  29  30
ENDBRANCH  28  29
ENDBRANCH  16  28
ENDBRANCH   1  16
BRANCH   5  37
HETATM   37  O4  UNL     1      -9.510  48.629 -28.029  1.00  0.00    -0.394 OA
HETATM   38  H21 UNL     1      -8.677  49.105 -28.199  1.00  0.00     0.210 HD
ENDBRANCH   5  37
BRANCH   6  39
HETATM   39  C17 UNL     1      -8.697  44.566 -26.277  1.00  0.00     0.012 C 
BRANCH  39  40
HETATM   40  C18 UNL     1      -8.690  43.126 -25.736  1.00  0.00     0.027 C 
BRANCH  40  41
HETATM   41  C19 UNL     1      -7.669  42.961 -24.609  1.00  0.00     0.164 C 
BRANCH  41  42
HETATM   42  O5  UNL     1      -8.289  43.177 -23.346  1.00  0.00    -0.401 OA
HETATM   43  H29 UNL     1      -8.530  42.310 -22.980  1.00  0.00     0.209 HD
ENDBRANCH  41  42
ENDBRANCH  40  41
ENDBRANCH  39  40
ENDBRANCH   6  39
BRANCH  14  44
HETATM   44  O7  UNL     1     -11.159  48.393 -26.054  1.00  0.00    -0.389 OA
HETATM   45  H43 UNL     1     -10.626  48.938 -26.672  1.00  0.00     0.210 HD
ENDBRANCH  14  44
BRANCH   8  46
HETATM   46  C22 UNL     1      -8.113  46.571 -23.966  1.00  0.00     0.265 C 
HETATM   47  O6  UNL     1      -7.304  46.157 -23.140  1.00  0.00    -0.302 OA
ENDBRANCH   8  46
TORSDOF 20
ENDMDL
MODEL 5
REMARK minimizedAffinity -6.66786909
REMARK CNNscore 0.362589419
REMARK CNNaffinity 6.78764868
REMARK  20 active torsions:
REMARK  status: ('A' for Active; 'I' for Inactive)
REMARK    1  A    between atoms: C2_2  and  C3_3 
REMARK    2  A    between atoms: C2_2  and  C30_37 
REMARK    3  A    between atoms: C4_4  and  C5_5 
REMARK    4  A    between atoms: C6_6  and  C7_7 
REMARK    5  A    between atoms: C6_6  and  C11_14 
REMARK    6  A    between atoms: C7_7  and  O1_8 
REMARK    7  A    between atoms: O1_8  and  C8_9 
REMARK    8  A    between atoms: C8_9  and  C9_10 
REMARK    9  A    between atoms: C9_10  and  O2_11 
REMARK   10  A    between atoms: C9_10  and  C10_12 
REMARK   11  A    between atoms: C10_12  and  O3_13 
REMARK   12  A    between atoms: C15_18  and  O4_19 
REMARK   13  A    between atoms: C16_20  and  C17_21 
REMARK   14  A    between atoms: C17_21  and  C18_22 
REMARK   15  A    between atoms: C18_22  and  C19_23 
REMARK   16  A    between atoms: C19_23  and  O5_24 
REMARK   17  A    between atoms: C21_26  and  C22_27 
REMARK   18  A    between atoms: C28_34  and  O7_36 
REMARK   19  A    between atoms: C30_37  and  C31_38 
REMARK   20  A    between atoms: C31_38  and  C32_39 
ROOT
HETATM    1  C11 UNL     1       4.089  54.166  -9.637  1.00  0.00     0.046 C 
HETATM    2  C12 UNL     1       4.739  55.508  -9.969  1.00  0.00     0.013 C 
HETATM    3  C13 UNL     1       3.703  56.514  -9.468  1.00  0.00     0.017 C 
HETATM    4  C14 UNL     1       3.090  55.896  -8.166  1.00  0.00     0.024 C 
HETATM    5  C15 UNL     1       3.630  54.417  -8.180  1.00  0.00     0.138 C 
HETATM    6  C16 UNL     1       1.487  55.943  -8.275  1.00  0.00     0.029 C 
HETATM    7  C20 UNL     1       0.875  56.054  -6.864  1.00  0.00    -0.061 C 
HETATM    8  C21 UNL     1       0.226  55.135  -6.105  1.00  0.00    -0.017 C 
HETATM    9  C23 UNL     1      -0.412  55.458  -4.770  1.00  0.00     0.042 C 
HETATM   10  C24 UNL     1      -0.459  56.948  -4.447  1.00  0.00     0.005 C 
HETATM   11  C25 UNL     1       0.868  57.596  -4.792  1.00  0.00     0.009 C 
HETATM   12  C26 UNL     1       1.149  57.454  -6.298  1.00  0.00     0.018 C 
HETATM   13  C27 UNL     1       2.595  57.903  -6.609  1.00  0.00     0.047 C 
HETATM   14  C28 UNL     1       3.558  56.724  -6.880  1.00  0.00     0.066 C 
HETATM   15  C29 UNL     1       4.994  57.285  -6.920  1.00  0.00     0.047 C 
ENDROOT
BRANCH   1  16
HETATM   16  C6  UNL     1       4.785  52.824  -9.862  1.00  0.00    -0.050 C 
HETATM   17  C5  UNL     1       4.302  51.666 -10.364  1.00  0.00     0.005 C 
BRANCH  17  18
HETATM   18  C4  UNL     1       2.988  51.341 -10.874  1.00  0.00     0.001 C 
HETATM   19  C3  UNL     1       2.494  51.896 -11.993  1.00  0.00     0.006 C 
BRANCH  19  20
HETATM   20  C2  UNL     1       1.165  51.670 -12.563  1.00  0.00    -0.067 C 
HETATM   21  C1  UNL     1       0.268  52.669 -12.486  1.00  0.00     0.019 C 
BRANCH  20  22
HETATM   22  C30 UNL     1       0.864  50.310 -13.187  1.00  0.00     0.041 C 
BRANCH  22  23
HETATM   23  C31 UNL     1       1.597  49.910 -14.483  1.00  0.00     0.032 C 
BRANCH  23  24
HETATM   24  C32 UNL     1       1.373  50.900 -15.601  1.00  0.00    -0.024 C 
HETATM   25  C33 UNL     1       2.220  51.837 -16.073  1.00  0.00    -0.091 C 
HETATM   26  C34 UNL     1       1.810  52.725 -17.221  1.00  0.00     0.042 C 
HETATM   27  C35 UNL     1       3.606  52.104 -15.557  1.00  0.00     0.042 C 
ENDBRANCH  23  24
ENDBRANCH  22  23
ENDBRANCH  20  22
ENDBRANCH  19  20
ENDBRANCH  17  18
BRANCH  16  28
HETATM   28  C7  UNL     1       6.247  52.828  -9.408  1.00  0.00     0.202 C 
BRANCH  28  29
HETATM   29  O1  UNL     1       6.765  51.507  -9.534  1.00  0.00    -0.384 OA
BRANCH  29  30
HETATM   30  C8  UNL     1       7.348  50.992  -8.333  1.00  0.00     0.201 C 
BRANCH  30  31
HETATM   31  C9  UNL     1       7.932  49.577  -8.486  1.00  0.00     0.165 C 
BRANCH  31  32
HETATM   32  O2  UNL     1       9.364  49.643  -8.541  1.00  0.00    -0.391 OA
HETATM   33  H11 UNL     1       9.698  48.734  -8.436  1.00  0.00     0.210 HD
ENDBRANCH  31  32
BRANCH  31  34
HETATM   34  C10 UNL     1       7.396  48.841  -9.720  1.00  0.00     0.198 C 
BRANCH  34  35
HETATM   35  O3  UNL     1       8.009  49.308 -10.914  1.00  0.00    -0.398 OA
HETATM   36  H14 UNL     1       7.434  49.989 -11.305  1.00  0.00     0.209 HD
ENDBRANCH  34  35
ENDBRANCH  31  34
ENDBRANCH  30  31
ENDBRANCH  29  30
ENDBRANCH  28  29
ENDBRANCH  16  28
ENDBRANCH   1  16
BRANCH   5  37
HETATM   37  O4  UNL     1       4.754  54.252  -7.301  1.00  0.00    -0.394 OA
HETATM   38  H21 UNL     1       4.979  53.304  -7.305  1.00  0.00     0.210 HD
ENDBRANCH   5  37
BRANCH   6  39
HETATM   39  C17 UNL     1       0.743  54.951  -9.215  1.00  0.00     0.012 C 
BRANCH  39  40
HETATM   40  C18 UNL     1      -0.624  55.404  -9.753  1.00  0.00     0.027 C 
BRANCH  40  41
HETATM   41  C19 UNL     1      -1.619  54.242  -9.793  1.00  0.00     0.164 C 
BRANCH  41  42
HETATM   42  O5  UNL     1      -2.493  54.379 -10.908  1.00  0.00    -0.401 OA
HETATM   43  H29 UNL     1      -2.138  53.835 -11.632  1.00  0.00     0.209 HD
ENDBRANCH  41  42
ENDBRANCH  40  41
ENDBRANCH  39  40
ENDBRANCH   6  39
BRANCH  14  44
HETATM   44  O7  UNL     1       3.514  55.875  -5.718  1.00  0.00    -0.389 OA
HETATM   45  H43 UNL     1       4.188  55.182  -5.888  1.00  0.00     0.210 HD
ENDBRANCH  14  44
BRANCH   8  46
HETATM   46  C22 UNL     1       0.103  53.685  -6.442  1.00  0.00     0.265 C 
HETATM   47  O6  UNL     1      -0.972  53.091  -6.461  1.00  0.00    -0.302 OA
ENDBRANCH   8  46
TORSDOF 20
ENDMDL
MODEL 6
REMARK minimizedAffinity -6.78957558
REMARK CNNscore 0.342336833
REMARK CNNaffinity 6.33437777
REMARK  20 active torsions:
REMARK  status: ('A' for Active; 'I' for Inactive)
REMARK    1  A    between atoms: C2_2  and  C3_3 
REMARK    2  A    between atoms: C2_2  and  C30_37 
REMARK    3  A    between atoms: C4_4  and  C5_5 
REMARK    4  A    between atoms: C6_6  and  C7_7 
REMARK    5  A    between atoms: C6_6  and  C11_14 
REMARK    6  A    between atoms: C7_7  and  O1_8 
REMARK    7  A    between atoms: O1_8  and  C8_9 
REMARK    8  A    between atoms: C8_9  and  C9_10 
REMARK    9  A    between atoms: C9_10  and  O2_11 
REMARK   10  A    between atoms: C9_10  and  C10_12 
REMARK   11  A    between atoms: C10_12  and  O3_13 
REMARK   12  A    between atoms: C15_18  and  O4_19 
REMARK   13  A    between atoms: C16_20  and  C17_21 
REMARK   14  A    between atoms: C17_21  and  C18_22 
REMARK   15  A    between atoms: C18_22  and  C19_23 
REMARK   16  A    between atoms: C19_23  and  O5_24 
REMARK   17  A    between atoms: C21_26  and  C22_27 
REMARK   18  A    between atoms: C28_34  and  O7_36 
REMARK   19  A    between atoms: C30_37  and  C31_38 
REMARK   20  A    between atoms: C31_38  and  C32_39 
ROOT
HETATM    1  C11 UNL     1      -8.149  47.753 -28.131  1.00  0.00     0.046 C 
HETATM    2  C12 UNL     1      -9.013  48.875 -28.705  1.00  0.00     0.013 C 
HETATM    3  C13 UNL     1      -8.970  48.593 -30.207  1.00  0.00     0.017 C 
HETATM    4  C14 UNL     1      -8.972  47.035 -30.359  1.00  0.00     0.024 C 
HETATM    5  C15 UNL     1      -8.720  46.529 -28.889  1.00  0.00     0.138 C 
HETATM    6  C16 UNL     1      -7.777  46.609 -31.346  1.00  0.00     0.029 C 
HETATM    7  C20 UNL     1      -8.151  45.305 -32.080  1.00  0.00    -0.061 C 
HETATM    8  C21 UNL     1      -7.703  44.036 -31.915  1.00  0.00    -0.017 C 
HETATM    9  C23 UNL     1      -8.109  42.885 -32.813  1.00  0.00     0.042 C 
HETATM   10  C24 UNL     1      -8.889  43.310 -34.052  1.00  0.00     0.005 C 
HETATM   11  C25 UNL     1      -9.936  44.342 -33.679  1.00  0.00     0.009 C 
HETATM   12  C26 UNL     1      -9.258  45.596 -33.103  1.00  0.00     0.018 C 
HETATM   13  C27 UNL     1     -10.323  46.547 -32.511  1.00  0.00     0.047 C 
HETATM   14  C28 UNL     1     -10.364  46.534 -30.966  1.00  0.00     0.066 C 
HETATM   15  C29 UNL     1     -11.619  47.312 -30.519  1.00  0.00     0.047 C 
ENDROOT
BRANCH   1  16
HETATM   16  C6  UNL     1      -7.954  47.536 -26.631  1.00  0.00    -0.050 C 
HETATM   17  C5  UNL     1      -6.839  47.640 -25.874  1.00  0.00     0.005 C 
BRANCH  17  18
HETATM   18  C4  UNL     1      -5.491  48.017 -26.238  1.00  0.00     0.001 C 
HETATM   19  C3  UNL     1      -4.576  48.386 -25.326  1.00  0.00     0.006 C 
BRANCH  19  20
HETATM   20  C2  UNL     1      -3.208  48.829 -25.596  1.00  0.00    -0.067 C 
HETATM   21  C1  UNL     1      -2.723  48.659 -26.839  1.00  0.00     0.019 C 
BRANCH  20  22
HETATM   22  C30 UNL     1      -2.400  49.433 -24.449  1.00  0.00     0.041 C 
BRANCH  22  23
HETATM   23  C31 UNL     1      -2.376  50.966 -24.287  1.00  0.00     0.032 C 
BRANCH  23  24
HETATM   24  C32 UNL     1      -1.536  51.409 -23.114  1.00  0.00    -0.024 C 
HETATM   25  C33 UNL     1      -0.319  51.990 -23.125  1.00  0.00    -0.091 C 
HETATM   26  C34 UNL     1       0.351  52.378 -21.832  1.00  0.00     0.042 C 
HETATM   27  C35 UNL     1       0.483  52.318 -24.353  1.00  0.00     0.042 C 
ENDBRANCH  23  24
ENDBRANCH  22  23
ENDBRANCH  20  22
ENDBRANCH  19  20
ENDBRANCH  17  18
BRANCH  16  28
HETATM   28  C7  UNL     1      -9.239  47.108 -25.918  1.00  0.00     0.202 C 
BRANCH  28  29
HETATM   29  O1  UNL     1      -8.889  46.314 -24.788  1.00  0.00    -0.384 OA
BRANCH  29  30
HETATM   30  C8  UNL     1      -9.752  46.491 -23.661  1.00  0.00     0.201 C 
BRANCH  30  31
HETATM   31  C9  UNL     1      -9.044  46.316 -22.306  1.00  0.00     0.165 C 
BRANCH  31  32
HETATM   32  O2  UNL     1      -8.911  47.588 -21.657  1.00  0.00    -0.391 OA
HETATM   33  H11 UNL     1      -8.648  47.414 -20.735  1.00  0.00     0.210 HD
ENDBRANCH  31  32
BRANCH  31  34
HETATM   34  C10 UNL     1      -7.670  45.648 -22.433  1.00  0.00     0.198 C 
BRANCH  34  35
HETATM   35  O3  UNL     1      -6.640  46.607 -22.627  1.00  0.00    -0.398 OA
HETATM   36  H14 UNL     1      -6.477  46.690 -23.583  1.00  0.00     0.209 HD
ENDBRANCH  34  35
ENDBRANCH  31  34
ENDBRANCH  30  31
ENDBRANCH  29  30
ENDBRANCH  28  29
ENDBRANCH  16  28
ENDBRANCH   1  16
BRANCH   5  37
HETATM   37  O4  UNL     1      -9.938  46.111 -28.253  1.00  0.00    -0.394 OA
HETATM   38  H21 UNL     1      -9.692  45.742 -27.386  1.00  0.00     0.210 HD
ENDBRANCH   5  37
BRANCH   6  39
HETATM   39  C17 UNL     1      -6.304  46.658 -30.848  1.00  0.00     0.012 C 
BRANCH  39  40
HETATM   40  C18 UNL     1      -5.497  47.918 -31.203  1.00  0.00     0.027 C 
BRANCH  40  41
HETATM   41  C19 UNL     1      -5.092  48.691 -29.946  1.00  0.00     0.164 C 
BRANCH  41  42
HETATM   42  O5  UNL     1      -4.458  49.915 -30.303  1.00  0.00    -0.401 OA
HETATM   43  H29 UNL     1      -5.130  50.617 -30.273  1.00  0.00     0.209 HD
ENDBRANCH  41  42
ENDBRANCH  40  41
ENDBRANCH  39  40
ENDBRANCH   6  39
BRANCH  14  44
HETATM   44  O7  UNL     1     -10.601  45.171 -30.566  1.00  0.00    -0.389 OA
HETATM   45  H43 UNL     1     -10.698  45.208 -29.591  1.00  0.00     0.210 HD
ENDBRANCH  14  44
BRANCH   8  46
HETATM   46  C22 UNL     1      -6.809  43.584 -30.806  1.00  0.00     0.265 C 
HETATM   47  O6  UNL     1      -7.167  43.546 -29.632  1.00  0.00    -0.302 OA
ENDBRANCH   8  46
TORSDOF 20
ENDMDL
MODEL 7
REMARK minimizedAffinity -8.0373106
REMARK CNNscore 0.320490032
REMARK CNNaffinity 6.62589645
REMARK  20 active torsions:
REMARK  status: ('A' for Active; 'I' for Inactive)
REMARK    1  A    between atoms: C2_2  and  C3_3 
REMARK    2  A    between atoms: C2_2  and  C30_37 
REMARK    3  A    between atoms: C4_4  and  C5_5 
REMARK    4  A    between atoms: C6_6  and  C7_7 
REMARK    5  A    between atoms: C6_6  and  C11_14 
REMARK    6  A    between atoms: C7_7  and  O1_8 
REMARK    7  A    between atoms: O1_8  and  C8_9 
REMARK    8  A    between atoms: C8_9  and  C9_10 
REMARK    9  A    between atoms: C9_10  and  O2_11 
REMARK   10  A    between atoms: C9_10  and  C10_12 
REMARK   11  A    between atoms: C10_12  and  O3_13 
REMARK   12  A    between atoms: C15_18  and  O4_19 
REMARK   13  A    between atoms: C16_20  and  C17_21 
REMARK   14  A    between atoms: C17_21  and  C18_22 
REMARK   15  A    between atoms: C18_22  and  C19_23 
REMARK   16  A    between atoms: C19_23  and  O5_24 
REMARK   17  A    between atoms: C21_26  and  C22_27 
REMARK   18  A    between atoms: C28_34  and  O7_36 
REMARK   19  A    between atoms: C30_37  and  C31_38 
REMARK   20  A    between atoms: C31_38  and  C32_39 
ROOT
HETATM    1  C11 UNL     1      -3.076  50.519 -22.534  1.00  0.00     0.046 C 
HETATM    2  C12 UNL     1      -3.477  49.122 -22.066  1.00  0.00     0.013 C 
HETATM    3  C13 UNL     1      -2.375  48.775 -21.065  1.00  0.00     0.017 C 
HETATM    4  C14 UNL     1      -2.023  50.110 -20.325  1.00  0.00     0.024 C 
HETATM    5  C15 UNL     1      -2.768  51.203 -21.179  1.00  0.00     0.138 C 
HETATM    6  C16 UNL     1      -0.430  50.316 -20.357  1.00  0.00     0.029 C 
HETATM    7  C20 UNL     1       0.014  51.118 -19.116  1.00  0.00    -0.061 C 
HETATM    8  C21 UNL     1       0.423  52.405 -18.993  1.00  0.00    -0.017 C 
HETATM    9  C23 UNL     1       0.931  52.997 -17.694  1.00  0.00     0.042 C 
HETATM   10  C24 UNL     1       1.156  51.971 -16.589  1.00  0.00     0.005 C 
HETATM   11  C25 UNL     1      -0.009  51.002 -16.536  1.00  0.00     0.009 C 
HETATM   12  C26 UNL     1      -0.120  50.237 -17.866  1.00  0.00     0.018 C 
HETATM   13  C27 UNL     1      -1.436  49.426 -17.899  1.00  0.00     0.047 C 
HETATM   14  C28 UNL     1      -2.520  50.053 -18.805  1.00  0.00     0.066 C 
HETATM   15  C29 UNL     1      -3.842  49.302 -18.551  1.00  0.00     0.047 C 
ENDROOT
BRANCH   1  16
HETATM   16  C6  UNL     1      -3.928  51.355 -23.488  1.00  0.00    -0.050 C 
HETATM   17  C5  UNL     1      -5.262  51.343 -23.702  1.00  0.00     0.005 C 
BRANCH  17  18
HETATM   18  C4  UNL     1      -6.305  50.561 -23.076  1.00  0.00     0.001 C 
HETATM   19  C3  UNL     1      -6.772  49.423 -23.614  1.00  0.00     0.006 C 
BRANCH  19  20
HETATM   20  C2  UNL     1      -7.852  48.589 -23.085  1.00  0.00    -0.067 C 
HETATM   21  C1  UNL     1      -8.014  48.540 -21.751  1.00  0.00     0.019 C 
BRANCH  20  22
HETATM   22  C30 UNL     1      -8.713  47.802 -24.070  1.00  0.00     0.041 C 
BRANCH  22  23
HETATM   23  C31 UNL     1      -8.088  46.598 -24.803  1.00  0.00     0.032 C 
BRANCH  23  24
HETATM   24  C32 UNL     1      -7.541  46.968 -26.160  1.00  0.00    -0.024 C 
HETATM   25  C33 UNL     1      -7.610  46.269 -27.311  1.00  0.00    -0.091 C 
HETATM   26  C34 UNL     1      -7.011  46.826 -28.577  1.00  0.00     0.042 C 
HETATM   27  C35 UNL     1      -8.261  44.926 -27.482  1.00  0.00     0.042 C 
ENDBRANCH  23  24
ENDBRANCH  22  23
ENDBRANCH  20  22
ENDBRANCH  19  20
ENDBRANCH  17  18
BRANCH  16  28
HETATM   28  C7  UNL     1      -3.098  52.324 -24.335  1.00  0.00     0.202 C 
BRANCH  28  29
HETATM   29  O1  UNL     1      -2.430  51.581 -25.351  1.00  0.00    -0.384 OA
BRANCH  29  30
HETATM   30  C8  UNL     1      -2.992  51.742 -26.656  1.00  0.00     0.201 C 
BRANCH  30  31
HETATM   31  C9  UNL     1      -2.773  50.530 -27.579  1.00  0.00     0.165 C 
BRANCH  31  32
HETATM   32  O2  UNL     1      -3.412  50.757 -28.843  1.00  0.00    -0.391 OA
HETATM   33  H11 UNL     1      -3.087  50.074 -29.456  1.00  0.00     0.210 HD
ENDBRANCH  31  32
BRANCH  31  34
HETATM   34  C10 UNL     1      -3.276  49.217 -26.969  1.00  0.00     0.198 C 
BRANCH  34  35
HETATM   35  O3  UNL     1      -3.586  48.260 -27.972  1.00  0.00    -0.398 OA
HETATM   36  H14 UNL     1      -4.538  48.316 -28.163  1.00  0.00     0.209 HD
ENDBRANCH  34  35
ENDBRANCH  31  34
ENDBRANCH  30  31
ENDBRANCH  29  30
ENDBRANCH  28  29
ENDBRANCH  16  28
ENDBRANCH   1  16
BRANCH   5  37
HETATM   37  O4  UNL     1      -4.004  51.606 -20.568  1.00  0.00    -0.394 OA
HETATM   38  H21 UNL     1      -4.363  52.333 -21.108  1.00  0.00     0.210 HD
ENDBRANCH   5  37
BRANCH   6  39
HETATM   39  C17 UNL     1       0.270  50.749 -21.677  1.00  0.00     0.012 C 
BRANCH  39  40
HETATM   40  C18 UNL     1      -0.348  51.941 -22.426  1.00  0.00     0.027 C 
BRANCH  40  41
HETATM   41  C19 UNL     1       0.599  52.472 -23.504  1.00  0.00     0.164 C 
BRANCH  41  42
HETATM   42  O5  UNL     1       0.344  51.828 -24.747  1.00  0.00    -0.401 OA
HETATM   43  H29 UNL     1      -0.243  52.404 -25.266  1.00  0.00     0.209 HD
ENDBRANCH  41  42
ENDBRANCH  40  41
ENDBRANCH  39  40
ENDBRANCH   6  39
BRANCH  14  44
HETATM   44  O7  UNL     1      -2.744  51.391 -18.322  1.00  0.00    -0.389 OA
HETATM   45  H43 UNL     1      -3.486  51.733 -18.865  1.00  0.00     0.210 HD
ENDBRANCH  14  44
BRANCH   8  46
HETATM   46  C22 UNL     1       0.372  53.424 -20.085  1.00  0.00     0.265 C 
HETATM   47  O6  UNL     1       1.277  54.228 -20.291  1.00  0.00    -0.302 OA
ENDBRANCH   8  46
TORSDOF 20
ENDMDL
MODEL 8
REMARK minimizedAffinity -8.36716747
REMARK CNNscore 0.309285223
REMARK CNNaffinity 6.01643753
REMARK  20 active torsions:
REMARK  status: ('A' for Active; 'I' for Inactive)
REMARK    1  A    between atoms: C2_2  and  C3_3 
REMARK    2  A    between atoms: C2_2  and  C30_37 
REMARK    3  A    between atoms: C4_4  and  C5_5 
REMARK    4  A    between atoms: C6_6  and  C7_7 
REMARK    5  A    between atoms: C6_6  and  C11_14 
REMARK    6  A    between atoms: C7_7  and  O1_8 
REMARK    7  A    between atoms: O1_8  and  C8_9 
REMARK    8  A    between atoms: C8_9  and  C9_10 
REMARK    9  A    between atoms: C9_10  and  O2_11 
REMARK   10  A    between atoms: C9_10  and  C10_12 
REMARK   11  A    between atoms: C10_12  and  O3_13 
REMARK   12  A    between atoms: C15_18  and  O4_19 
REMARK   13  A    between atoms: C16_20  and  C17_21 
REMARK   14  A    between atoms: C17_21  and  C18_22 
REMARK   15  A    between atoms: C18_22  and  C19_23 
REMARK   16  A    between atoms: C19_23  and  O5_24 
REMARK   17  A    between atoms: C21_26  and  C22_27 
REMARK   18  A    between atoms: C28_34  and  O7_36 
REMARK   19  A    between atoms: C30_37  and  C31_38 
REMARK   20  A    between atoms: C31_38  and  C32_39 
ROOT
HETATM    1  C11 UNL     1      -7.712  45.912 -28.636  1.00  0.00     0.046 C 
HETATM    2  C12 UNL     1      -7.350  44.436 -28.484  1.00  0.00     0.013 C 
HETATM    3  C13 UNL     1      -8.550  43.874 -27.720  1.00  0.00     0.017 C 
HETATM    4  C14 UNL     1      -9.807  44.635 -28.263  1.00  0.00     0.024 C 
HETATM    5  C15 UNL     1      -9.181  45.804 -29.113  1.00  0.00     0.138 C 
HETATM    6  C16 UNL     1     -10.652  45.194 -27.016  1.00  0.00     0.029 C 
HETATM    7  C20 UNL     1     -12.145  45.276 -27.397  1.00  0.00    -0.061 C 
HETATM    8  C21 UNL     1     -12.930  46.345 -27.677  1.00  0.00    -0.017 C 
HETATM    9  C23 UNL     1     -14.421  46.241 -27.927  1.00  0.00     0.042 C 
HETATM   10  C24 UNL     1     -15.009  44.868 -27.622  1.00  0.00     0.005 C 
HETATM   11  C25 UNL     1     -14.105  43.782 -28.172  1.00  0.00     0.009 C 
HETATM   12  C26 UNL     1     -12.722  43.857 -27.502  1.00  0.00     0.018 C 
HETATM   13  C27 UNL     1     -11.735  42.910 -28.222  1.00  0.00     0.047 C 
HETATM   14  C28 UNL     1     -10.725  43.651 -29.127  1.00  0.00     0.066 C 
HETATM   15  C29 UNL     1      -9.981  42.595 -29.971  1.00  0.00     0.047 C 
ENDROOT
BRANCH   1  16
HETATM   16  C6  UNL     1      -6.859  46.903 -29.426  1.00  0.00    -0.050 C 
HETATM   17  C5  UNL     1      -5.942  47.799 -28.998  1.00  0.00     0.005 C 
BRANCH  17  18
HETATM   18  C4  UNL     1      -5.459  48.080 -27.664  1.00  0.00     0.001 C 
HETATM   19  C3  UNL     1      -4.168  48.346 -27.408  1.00  0.00     0.006 C 
BRANCH  19  20
HETATM   20  C2  UNL     1      -3.574  48.596 -26.094  1.00  0.00    -0.067 C 
HETATM   21  C1  UNL     1      -4.360  48.459 -25.011  1.00  0.00     0.019 C 
BRANCH  20  22
HETATM   22  C30 UNL     1      -2.109  49.021 -26.027  1.00  0.00     0.041 C 
BRANCH  22  23
HETATM   23  C31 UNL     1      -1.750  50.489 -26.332  1.00  0.00     0.032 C 
BRANCH  23  24
HETATM   24  C32 UNL     1      -0.284  50.671 -26.647  1.00  0.00    -0.024 C 
HETATM   25  C33 UNL     1       0.637  51.383 -25.968  1.00  0.00    -0.091 C 
HETATM   26  C34 UNL     1       2.068  51.424 -26.441  1.00  0.00     0.042 C 
HETATM   27  C35 UNL     1       0.383  52.177 -24.717  1.00  0.00     0.042 C 
ENDBRANCH  23  24
ENDBRANCH  22  23
ENDBRANCH  20  22
ENDBRANCH  19  20
ENDBRANCH  17  18
BRANCH  16  28
HETATM   28  C7  UNL     1      -7.137  46.860 -30.932  1.00  0.00     0.202 C 
BRANCH  28  29
HETATM   29  O1  UNL     1      -5.913  46.603 -31.613  1.00  0.00    -0.384 OA
BRANCH  29  30
HETATM   30  C8  UNL     1      -6.052  46.467 -33.030  1.00  0.00     0.201 C 
BRANCH  30  31
HETATM   31  C9  UNL     1      -5.896  47.792 -33.797  1.00  0.00     0.165 C 
BRANCH  31  32
HETATM   32  O2  UNL     1      -6.633  47.734 -35.027  1.00  0.00    -0.391 OA
HETATM   33  H11 UNL     1      -6.676  48.641 -35.379  1.00  0.00     0.210 HD
ENDBRANCH  31  32
BRANCH  31  34
HETATM   34  C10 UNL     1      -4.433  48.148 -34.082  1.00  0.00     0.198 C 
BRANCH  34  35
HETATM   35  O3  UNL     1      -3.658  48.166 -32.890  1.00  0.00    -0.398 OA
HETATM   36  H14 UNL     1      -3.620  49.082 -32.565  1.00  0.00     0.209 HD
ENDBRANCH  34  35
ENDBRANCH  31  34
ENDBRANCH  30  31
ENDBRANCH  29  30
ENDBRANCH  28  29
ENDBRANCH  16  28
ENDBRANCH   1  16
BRANCH   5  37
HETATM   37  O4  UNL     1      -9.196  45.509 -30.518  1.00  0.00    -0.394 OA
HETATM   38  H21 UNL     1      -8.870  46.303 -30.978  1.00  0.00     0.210 HD
ENDBRANCH   5  37
BRANCH   6  39
HETATM   39  C17 UNL     1     -10.134  46.422 -26.214  1.00  0.00     0.012 C 
BRANCH  39  40
HETATM   40  C18 UNL     1      -9.625  47.617 -27.037  1.00  0.00     0.027 C 
BRANCH  40  41
HETATM   41  C19 UNL     1      -9.236  48.789 -26.133  1.00  0.00     0.164 C 
BRANCH  41  42
HETATM   42  O5  UNL     1     -10.231  49.806 -26.187  1.00  0.00    -0.401 OA
HETATM   43  H29 UNL     1     -10.825  49.681 -25.428  1.00  0.00     0.209 HD
ENDBRANCH  41  42
ENDBRANCH  40  41
ENDBRANCH  39  40
ENDBRANCH   6  39
BRANCH  14  44
HETATM   44  O7  UNL     1     -11.496  44.417 -30.072  1.00  0.00    -0.389 OA
HETATM   45  H43 UNL     1     -10.831  44.813 -30.676  1.00  0.00     0.210 HD
ENDBRANCH  14  44
BRANCH   8  46
HETATM   46  C22 UNL     1     -12.438  47.746 -27.839  1.00  0.00     0.265 C 
HETATM   47  O6  UNL     1     -12.856  48.684 -27.166  1.00  0.00    -0.302 OA
ENDBRANCH   8  46
TORSDOF 20
ENDMDL
MODEL 9
REMARK minimizedAffinity -7.85491419
REMARK CNNscore 0.298800468
REMARK CNNaffinity 7.12699461
REMARK  20 active torsions:
REMARK  status: ('A' for Active; 'I' for Inactive)
REMARK    1  A    between atoms: C2_2  and  C3_3 
REMARK    2  A    between atoms: C2_2  and  C30_37 
REMARK    3  A    between atoms: C4_4  and  C5_5 
REMARK    4  A    between atoms: C6_6  and  C7_7 
REMARK    5  A    between atoms: C6_6  and  C11_14 
REMARK    6  A    between atoms: C7_7  and  O1_8 
REMARK    7  A    between atoms: O1_8  and  C8_9 
REMARK    8  A    between atoms: C8_9  and  C9_10 
REMARK    9  A    between atoms: C9_10  and  O2_11 
REMARK   10  A    between atoms: C9_10  and  C10_12 
REMARK   11  A    between atoms: C10_12  and  O3_13 
REMARK   12  A    between atoms: C15_18  and  O4_19 
REMARK   13  A    between atoms: C16_20  and  C17_21 
REMARK   14  A    between atoms: C17_21  and  C18_22 
REMARK   15  A    between atoms: C18_22  and  C19_23 
REMARK   16  A    between atoms: C19_23  and  O5_24 
REMARK   17  A    between atoms: C21_26  and  C22_27 
REMARK   18  A    between atoms: C28_34  and  O7_36 
REMARK   19  A    between atoms: C30_37  and  C31_38 
REMARK   20  A    between atoms: C31_38  and  C32_39 
ROOT
HETATM    1  C11 UNL     1      -1.755  49.177 -19.770  1.00  0.00     0.046 C 
HETATM    2  C12 UNL     1      -0.822  48.864 -20.938  1.00  0.00     0.013 C 
HETATM    3  C13 UNL     1      -1.720  48.059 -21.877  1.00  0.00     0.017 C 
HETATM    4  C14 UNL     1      -3.147  48.696 -21.767  1.00  0.00     0.024 C 
HETATM    5  C15 UNL     1      -3.017  49.658 -20.527  1.00  0.00     0.138 C 
HETATM    6  C16 UNL     1      -4.216  47.526 -21.501  1.00  0.00     0.029 C 
HETATM    7  C20 UNL     1      -5.584  47.932 -22.088  1.00  0.00    -0.061 C 
HETATM    8  C21 UNL     1      -6.726  48.335 -21.477  1.00  0.00    -0.017 C 
HETATM    9  C23 UNL     1      -8.022  48.590 -22.218  1.00  0.00     0.042 C 
HETATM   10  C24 UNL     1      -8.002  48.146 -23.677  1.00  0.00     0.005 C 
HETATM   11  C25 UNL     1      -6.699  48.566 -24.330  1.00  0.00     0.009 C 
HETATM   12  C26 UNL     1      -5.513  47.891 -23.621  1.00  0.00     0.018 C 
HETATM   13  C27 UNL     1      -4.183  48.493 -24.129  1.00  0.00     0.047 C 
HETATM   14  C28 UNL     1      -3.523  49.460 -23.120  1.00  0.00     0.066 C 
HETATM   15  C29 UNL     1      -2.363  50.177 -23.840  1.00  0.00     0.047 C 
ENDROOT
BRANCH   1  16
HETATM   16  C6  UNL     1      -1.347  50.059 -18.590  1.00  0.00    -0.050 C 
HETATM   17  C5  UNL     1      -0.440  51.059 -18.523  1.00  0.00     0.005 C 
BRANCH  17  18
HETATM   18  C4  UNL     1       0.404  51.628 -19.550  1.00  0.00     0.001 C 
HETATM   19  C3  UNL     1      -0.070  52.462 -20.490  1.00  0.00     0.006 C 
BRANCH  19  20
HETATM   20  C2  UNL     1       0.690  53.052 -21.593  1.00  0.00    -0.067 C 
HETATM   21  C1  UNL     1       1.471  54.114 -21.324  1.00  0.00     0.019 C 
BRANCH  20  22
HETATM   22  C30 UNL     1       0.534  52.449 -22.987  1.00  0.00     0.041 C 
BRANCH  22  23
HETATM   23  C31 UNL     1       0.720  53.363 -24.215  1.00  0.00     0.032 C 
BRANCH  23  24
HETATM   24  C32 UNL     1       0.190  52.740 -25.484  1.00  0.00    -0.024 C 
HETATM   25  C33 UNL     1       0.833  51.939 -26.357  1.00  0.00    -0.091 C 
HETATM   26  C34 UNL     1       0.114  51.400 -27.568  1.00  0.00     0.042 C 
HETATM   27  C35 UNL     1       2.265  51.495 -26.247  1.00  0.00     0.042 C 
ENDBRANCH  23  24
ENDBRANCH  22  23
ENDBRANCH  20  22
ENDBRANCH  19  20
ENDBRANCH  17  18
BRANCH  16  28
HETATM   28  C7  UNL     1      -2.084  49.702 -17.297  1.00  0.00     0.202 C 
BRANCH  28  29
HETATM   29  O1  UNL     1      -1.930  50.777 -16.375  1.00  0.00    -0.384 OA
BRANCH  29  30
HETATM   30  C8  UNL     1      -1.423  50.381 -15.097  1.00  0.00     0.201 C 
BRANCH  30  31
HETATM   31  C9  UNL     1      -2.441  50.535 -13.953  1.00  0.00     0.165 C 
BRANCH  31  32
HETATM   32  O2  UNL     1      -3.405  49.473 -14.011  1.00  0.00    -0.391 OA
HETATM   33  H11 UNL     1      -3.899  49.488 -13.172  1.00  0.00     0.210 HD
ENDBRANCH  31  32
BRANCH  31  34
HETATM   34  C10 UNL     1      -3.157  51.890 -13.969  1.00  0.00     0.198 C 
BRANCH  34  35
HETATM   35  O3  UNL     1      -2.623  52.774 -12.993  1.00  0.00    -0.398 OA
HETATM   36  H14 UNL     1      -3.170  52.708 -12.191  1.00  0.00     0.209 HD
ENDBRANCH  34  35
ENDBRANCH  31  34
ENDBRANCH  30  31
ENDBRANCH  29  30
ENDBRANCH  28  29
ENDBRANCH  16  28
ENDBRANCH   1  16
BRANCH   5  37
HETATM   37  O4  UNL     1      -2.829  51.024 -20.930  1.00  0.00    -0.394 OA
HETATM   38  H21 UNL     1      -2.837  51.562 -20.118  1.00  0.00     0.210 HD
ENDBRANCH   5  37
BRANCH   6  39
HETATM   39  C17 UNL     1      -4.301  46.854 -20.101  1.00  0.00     0.012 C 
BRANCH  39  40
HETATM   40  C18 UNL     1      -4.031  45.341 -20.045  1.00  0.00     0.027 C 
BRANCH  40  41
HETATM   41  C19 UNL     1      -5.317  44.556 -19.775  1.00  0.00     0.164 C 
BRANCH  41  42
HETATM   42  O5  UNL     1      -5.181  43.214 -20.229  1.00  0.00    -0.401 OA
HETATM   43  H29 UNL     1      -4.927  42.667 -19.467  1.00  0.00     0.209 HD
ENDBRANCH  41  42
ENDBRANCH  40  41
ENDBRANCH  39  40
ENDBRANCH   6  39
BRANCH  14  44
HETATM   44  O7  UNL     1      -4.489  50.491 -22.838  1.00  0.00    -0.389 OA
HETATM   45  H43 UNL     1      -4.016  51.126 -22.258  1.00  0.00     0.210 HD
ENDBRANCH  14  44
BRANCH   8  46
HETATM   46  C22 UNL     1      -6.852  48.639 -20.020  1.00  0.00     0.265 C 
HETATM   47  O6  UNL     1      -7.886  49.064 -19.512  1.00  0.00    -0.302 OA
ENDBRANCH   8  46
TORSDOF 20
ENDMDL
