MODEL 1
REMARK minimizedAffinity -8.60283375
REMARK CNNscore 0.607593477
REMARK CNNaffinity 7.05631971
REMARK  12 active torsions:
REMARK  status: ('A' for Active; 'I' for Inactive)
REMARK    1  A    between atoms: C2_2  and  N1_3 
REMARK    2  A    between atoms: N1_3  and  C3_4 
REMARK    3  A    between atoms: C3_4  and  C4_5 
REMARK    4  A    between atoms: C4_5  and  C5_6 
REMARK    5  A    between atoms: C4_5  and  C32_37 
REMARK    6  A    between atoms: C5_6  and  C7_8 
REMARK    7  A    between atoms: C9_10  and  O1_11 
REMARK    8  A    between atoms: C31_35  and  O4_36 
REMARK    9  A    between atoms: C32_37  and  O5_38 
REMARK   10  A    between atoms: C32_37  and  C33_39 
REMARK   11  A    between atoms: C34_40  and  C36_42 
REMARK   12  A    between atoms: C36_42  and  O7_44 
ROOT
HETATM    1  C7  UNL     1      -0.293  10.651  17.144  1.00  0.00     0.002 C 
HETATM    2  C8  UNL     1      -1.054  11.961  16.792  1.00  0.00     0.038 C 
HETATM    3  C9  UNL     1      -2.342  11.545  16.040  1.00  0.00     0.132 C 
HETATM    4  C10 UNL     1      -2.451  10.001  16.245  1.00  0.00     0.017 C 
HETATM    5  C11 UNL     1      -3.083   9.725  17.656  1.00  0.00     0.023 C 
HETATM    6  C12 UNL     1      -3.272   9.125  15.288  1.00  0.00    -0.029 C 
HETATM    7  C13 UNL     1      -2.889   7.849  14.999  1.00  0.00     0.003 C 
HETATM    8  C14 UNL     1      -1.697   7.265  15.729  1.00  0.00     0.157 C 
HETATM    9  O2  UNL     1      -1.443   6.062  15.705  1.00  0.00    -0.293 OA
HETATM   10  C15 UNL     1      -0.770   8.165  16.515  1.00  0.00     0.094 C 
HETATM   11  C16 UNL     1      -0.905   9.632  16.111  1.00  0.00    -0.016 C 
HETATM   12  C17 UNL     1      -0.201   9.832  14.691  1.00  0.00     0.011 C 
HETATM   13  C18 UNL     1      -0.964  10.070  13.373  1.00  0.00     0.001 C 
HETATM   14  C19 UNL     1      -0.706   9.048  12.256  1.00  0.00     0.000 C 
HETATM   15  C20 UNL     1      -1.342   7.669  12.439  1.00  0.00     0.001 C 
HETATM   16  C21 UNL     1      -2.886   7.682  12.510  1.00  0.00     0.015 C 
HETATM   17  C22 UNL     1      -3.537   7.073  13.828  1.00  0.00    -0.004 C 
HETATM   18  C23 UNL     1      -3.266   5.532  13.796  1.00  0.00     0.022 C 
HETATM   19  C24 UNL     1      -4.220   4.769  12.895  1.00  0.00     0.080 C 
HETATM   20  C25 UNL     1      -5.602   4.829  13.479  1.00  0.00     0.135 C 
HETATM   21  O3  UNL     1      -6.362   3.866  13.376  1.00  0.00    -0.297 OA
HETATM   22  C26 UNL     1      -6.014   6.118  14.210  1.00  0.00     0.018 C 
HETATM   23  C27 UNL     1      -5.962   5.824  15.722  1.00  0.00     0.023 C 
HETATM   24  C28 UNL     1      -7.491   6.386  13.827  1.00  0.00     0.023 C 
HETATM   25  C29 UNL     1      -5.106   7.326  13.754  1.00  0.00     0.017 C 
HETATM   26  C30 UNL     1      -5.566   8.642  14.422  1.00  0.00     0.043 C 
HETATM   27  C31 UNL     1      -4.499   9.708  14.622  1.00  0.00     0.149 C 
ENDROOT
BRANCH   1  28
HETATM   28  C5  UNL     1       1.234  10.841  17.475  1.00  0.00    -0.005 C 
HETATM   29  C6  UNL     1       2.147   9.620  17.314  1.00  0.00     0.011 C 
BRANCH  28  30
HETATM   30  C4  UNL     1       1.469  11.654  18.804  1.00  0.00     0.050 C 
BRANCH  30  31
HETATM   31  C3  UNL     1       0.210  11.986  19.651  1.00  0.00     0.277 C 
BRANCH  31  32
HETATM   32  N1  UNL     1      -0.081  13.400  19.845  1.00  0.00     0.083 N 
HETATM   33  H6  UNL     1      -1.016  13.630  19.511  1.00  0.00     0.315 HD
BRANCH  32  34
HETATM   34  C2  UNL     1       0.896  14.253  19.172  1.00  0.00     0.265 C 
HETATM   35  C1  UNL     1       1.273  15.421  20.072  1.00  0.00     0.037 C 
ENDBRANCH  32  34
ENDBRANCH  31  32
ENDBRANCH  30  31
BRANCH  30  36
HETATM   36  C32 UNL     1       2.662  11.134  19.664  1.00  0.00     0.147 C 
BRANCH  36  37
HETATM   37  O5  UNL     1       3.660  10.676  18.754  1.00  0.00    -0.391 OA
HETATM   38  H50 UNL     1       4.256  11.423  18.594  1.00  0.00     0.210 HD
ENDBRANCH  36  37
BRANCH  36  39
HETATM   39  C33 UNL     1       2.341  10.064  20.673  1.00  0.00     0.018 C 
HETATM   40  C34 UNL     1       2.926   9.767  21.854  1.00  0.00     0.010 C 
HETATM   41  C35 UNL     1       4.081  10.517  22.462  1.00  0.00     0.055 C 
BRANCH  40  42
HETATM   42  C36 UNL     1       2.416   8.637  22.666  1.00  0.00     0.171 C 
HETATM   43  O6  UNL     1       1.821   7.660  22.243  1.00  0.00    -0.646 OA
BRANCH  42  44
HETATM   44  O7  UNL     1       2.628   8.775  23.984  1.00  0.00    -0.773 OA
HETATM   45  H55 UNL     1       2.223   7.964  24.353  1.00  0.00     0.167 HD
ENDBRANCH  42  44
ENDBRANCH  40  42
ENDBRANCH  36  39
ENDBRANCH  30  36
ENDBRANCH  28  30
ENDBRANCH   1  28
BRANCH   3  46
HETATM   46  O1  UNL     1      -3.418  12.338  16.512  1.00  0.00    -0.394 OA
HETATM   47  H18 UNL     1      -4.172  11.743  16.724  1.00  0.00     0.210 HD
ENDBRANCH   3  46
BRANCH  27  48
HETATM   48  O4  UNL     1      -5.100  10.699  15.450  1.00  0.00    -0.391 OA
HETATM   49  H48 UNL     1      -5.241  11.482  14.889  1.00  0.00     0.210 HD
ENDBRANCH  27  48
TORSDOF 12
ENDMDL
MODEL 2
REMARK minimizedAffinity -7.66073227
REMARK CNNscore 0.426545113
REMARK CNNaffinity 6.48094034
REMARK  12 active torsions:
REMARK  status: ('A' for Active; 'I' for Inactive)
REMARK    1  A    between atoms: C2_2  and  N1_3 
REMARK    2  A    between atoms: N1_3  and  C3_4 
REMARK    3  A    between atoms: C3_4  and  C4_5 
REMARK    4  A    between atoms: C4_5  and  C5_6 
REMARK    5  A    between atoms: C4_5  and  C32_37 
REMARK    6  A    between atoms: C5_6  and  C7_8 
REMARK    7  A    between atoms: C9_10  and  O1_11 
REMARK    8  A    between atoms: C31_35  and  O4_36 
REMARK    9  A    between atoms: C32_37  and  O5_38 
REMARK   10  A    between atoms: C32_37  and  C33_39 
REMARK   11  A    between atoms: C34_40  and  C36_42 
REMARK   12  A    between atoms: C36_42  and  O7_44 
ROOT
HETATM    1  C7  UNL     1       1.409   8.779  14.159  1.00  0.00     0.002 C 
HETATM    2  C8  UNL     1       1.776   7.371  14.710  1.00  0.00     0.038 C 
HETATM    3  C9  UNL     1       3.319   7.326  14.837  1.00  0.00     0.132 C 
HETATM    4  C10 UNL     1       3.785   8.804  14.653  1.00  0.00     0.017 C 
HETATM    5  C11 UNL     1       3.608   9.560  16.018  1.00  0.00     0.023 C 
HETATM    6  C12 UNL     1       5.219   9.141  14.220  1.00  0.00    -0.029 C 
HETATM    7  C13 UNL     1       5.480  10.225  13.435  1.00  0.00     0.003 C 
HETATM    8  C14 UNL     1       4.343  11.163  13.090  1.00  0.00     0.157 C 
HETATM    9  O2  UNL     1       4.541  12.274  12.600  1.00  0.00    -0.293 OA
HETATM   10  C15 UNL     1       2.911  10.746  13.336  1.00  0.00     0.094 C 
HETATM   11  C16 UNL     1       2.766   9.235  13.503  1.00  0.00    -0.016 C 
HETATM   12  C17 UNL     1       2.915   8.552  12.068  1.00  0.00     0.011 C 
HETATM   13  C18 UNL     1       4.144   7.734  11.621  1.00  0.00     0.001 C 
HETATM   14  C19 UNL     1       4.867   8.242  10.366  1.00  0.00     0.000 C 
HETATM   15  C20 UNL     1       5.704   9.512  10.533  1.00  0.00     0.001 C 
HETATM   16  C21 UNL     1       6.868   9.381  11.543  1.00  0.00     0.015 C 
HETATM   17  C22 UNL     1       6.863  10.401  12.763  1.00  0.00    -0.004 C 
HETATM   18  C23 UNL     1       7.158  11.818  12.169  1.00  0.00     0.022 C 
HETATM   19  C24 UNL     1       8.631  12.061  11.889  1.00  0.00     0.080 C 
HETATM   20  C25 UNL     1       9.378  12.108  13.191  1.00  0.00     0.135 C 
HETATM   21  O3  UNL     1      10.333  12.872  13.331  1.00  0.00    -0.297 OA
HETATM   22  C26 UNL     1       8.896  11.187  14.325  1.00  0.00     0.018 C 
HETATM   23  C27 UNL     1       8.137  12.065  15.338  1.00  0.00     0.023 C 
HETATM   24  C28 UNL     1      10.171  10.648  15.022  1.00  0.00     0.023 C 
HETATM   25  C29 UNL     1       8.048   9.990  13.742  1.00  0.00     0.017 C 
HETATM   26  C30 UNL     1       7.629   9.014  14.866  1.00  0.00     0.043 C 
HETATM   27  C31 UNL     1       6.350   8.226  14.635  1.00  0.00     0.149 C 
ENDROOT
BRANCH   1  28
HETATM   28  C5  UNL     1      -0.022   8.885  13.513  1.00  0.00    -0.005 C 
HETATM   29  C6  UNL     1      -0.846  10.139  13.828  1.00  0.00     0.011 C 
BRANCH  28  30
HETATM   30  C4  UNL     1      -0.832   7.537  13.611  1.00  0.00     0.050 C 
BRANCH  30  31
HETATM   31  C3  UNL     1      -1.974   7.484  14.662  1.00  0.00     0.277 C 
BRANCH  31  32
HETATM   32  N1  UNL     1      -1.567   7.551  16.059  1.00  0.00     0.083 N 
HETATM   33  H6  UNL     1      -1.544   6.623  16.479  1.00  0.00     0.315 HD
BRANCH  32  34
HETATM   34  C2  UNL     1      -2.450   8.413  16.841  1.00  0.00     0.265 C 
HETATM   35  C1  UNL     1      -3.496   9.045  15.934  1.00  0.00     0.037 C 
ENDBRANCH  32  34
ENDBRANCH  31  32
ENDBRANCH  30  31
BRANCH  30  36
HETATM   36  C32 UNL     1      -1.248   6.945  12.229  1.00  0.00     0.147 C 
BRANCH  36  37
HETATM   37  O5  UNL     1      -2.161   5.882  12.492  1.00  0.00    -0.391 OA
HETATM   38  H50 UNL     1      -3.052   6.265  12.462  1.00  0.00     0.210 HD
ENDBRANCH  36  37
BRANCH  36  39
HETATM   39  C33 UNL     1      -0.128   6.467  11.343  1.00  0.00     0.018 C 
HETATM   40  C34 UNL     1       0.427   7.031  10.247  1.00  0.00     0.010 C 
HETATM   41  C35 UNL     1       0.032   8.360   9.663  1.00  0.00     0.055 C 
BRANCH  40  42
HETATM   42  C36 UNL     1       1.528   6.337   9.540  1.00  0.00     0.171 C 
HETATM   43  O6  UNL     1       2.050   6.693   8.497  1.00  0.00    -0.646 OA
BRANCH  42  44
HETATM   44  O7  UNL     1       1.922   5.198  10.133  1.00  0.00    -0.773 OA
HETATM   45  H55 UNL     1       2.628   4.878   9.535  1.00  0.00     0.167 HD
ENDBRANCH  42  44
ENDBRANCH  40  42
ENDBRANCH  36  39
ENDBRANCH  30  36
ENDBRANCH  28  30
ENDBRANCH   1  28
BRANCH   3  46
HETATM   46  O1  UNL     1       3.653   6.689  16.058  1.00  0.00    -0.394 OA
HETATM   47  H18 UNL     1       4.318   7.244  16.526  1.00  0.00     0.210 HD
ENDBRANCH   3  46
BRANCH  27  48
HETATM   48  O4  UNL     1       6.059   7.596  15.879  1.00  0.00    -0.391 OA
HETATM   49  H48 UNL     1       6.221   6.644  15.754  1.00  0.00     0.210 HD
ENDBRANCH  27  48
TORSDOF 12
ENDMDL
MODEL 3
REMARK minimizedAffinity -7.01318693
REMARK CNNscore 0.3465437
REMARK CNNaffinity 6.25627565
REMARK  12 active torsions:
REMARK  status: ('A' for Active; 'I' for Inactive)
REMARK    1  A    between atoms: C2_2  and  N1_3 
REMARK    2  A    between atoms: N1_3  and  C3_4 
REMARK    3  A    between atoms: C3_4  and  C4_5 
REMARK    4  A    between atoms: C4_5  and  C5_6 
REMARK    5  A    between atoms: C4_5  and  C32_37 
REMARK    6  A    between atoms: C5_6  and  C7_8 
REMARK    7  A    between atoms: C9_10  and  O1_11 
REMARK    8  A    between atoms: C31_35  and  O4_36 
REMARK    9  A    between atoms: C32_37  and  O5_38 
REMARK   10  A    between atoms: C32_37  and  C33_39 
REMARK   11  A    between atoms: C34_40  and  C36_42 
REMARK   12  A    between atoms: C36_42  and  O7_44 
ROOT
HETATM    1  C7  UNL     1       0.908  11.646  17.512  1.00  0.00     0.002 C 
HETATM    2  C8  UNL     1       0.973  12.998  16.745  1.00  0.00     0.038 C 
HETATM    3  C9  UNL     1       2.296  13.688  17.161  1.00  0.00     0.132 C 
HETATM    4  C10 UNL     1       3.108  12.588  17.913  1.00  0.00     0.017 C 
HETATM    5  C11 UNL     1       3.817  11.673  16.852  1.00  0.00     0.023 C 
HETATM    6  C12 UNL     1       4.226  12.956  18.899  1.00  0.00    -0.029 C 
HETATM    7  C13 UNL     1       4.471  12.192  20.001  1.00  0.00     0.003 C 
HETATM    8  C14 UNL     1       3.695  10.904  20.180  1.00  0.00     0.157 C 
HETATM    9  O2  UNL     1       4.025  10.053  21.005  1.00  0.00    -0.293 OA
HETATM   10  C15 UNL     1       2.469  10.631  19.338  1.00  0.00     0.094 C 
HETATM   11  C16 UNL     1       1.905  11.901  18.704  1.00  0.00    -0.016 C 
HETATM   12  C17 UNL     1       1.167  12.747  19.839  1.00  0.00     0.011 C 
HETATM   13  C18 UNL     1       1.714  14.061  20.433  1.00  0.00     0.001 C 
HETATM   14  C19 UNL     1       1.939  14.067  21.952  1.00  0.00     0.000 C 
HETATM   15  C20 UNL     1       3.143  13.271  22.461  1.00  0.00     0.001 C 
HETATM   16  C21 UNL     1       4.508  13.770  21.933  1.00  0.00     0.015 C 
HETATM   17  C22 UNL     1       5.386  12.710  21.137  1.00  0.00    -0.004 C 
HETATM   18  C23 UNL     1       5.857  11.639  22.177  1.00  0.00     0.022 C 
HETATM   19  C24 UNL     1       7.041  12.090  23.012  1.00  0.00     0.080 C 
HETATM   20  C25 UNL     1       8.248  12.214  22.128  1.00  0.00     0.135 C 
HETATM   21  O3  UNL     1       9.365  11.926  22.558  1.00  0.00    -0.297 OA
HETATM   22  C26 UNL     1       8.030  12.696  20.684  1.00  0.00     0.018 C 
HETATM   23  C27 UNL     1       8.142  11.463  19.767  1.00  0.00     0.023 C 
HETATM   24  C28 UNL     1       9.210  13.645  20.356  1.00  0.00     0.023 C 
HETATM   25  C29 UNL     1       6.660  13.471  20.561  1.00  0.00     0.017 C 
HETATM   26  C30 UNL     1       6.470  14.030  19.133  1.00  0.00     0.043 C 
HETATM   27  C31 UNL     1       5.035  14.212  18.663  1.00  0.00     0.149 C 
ENDROOT
BRANCH   1  28
HETATM   28  C5  UNL     1      -0.529  11.013  17.616  1.00  0.00    -0.005 C 
HETATM   29  C6  UNL     1      -1.123  10.841  19.019  1.00  0.00     0.011 C 
BRANCH  28  30
HETATM   30  C4  UNL     1      -0.707   9.759  16.679  1.00  0.00     0.050 C 
BRANCH  30  31
HETATM   31  C3  UNL     1      -2.138   9.165  16.572  1.00  0.00     0.277 C 
BRANCH  31  32
HETATM   32  N1  UNL     1      -2.240   7.713  16.640  1.00  0.00     0.083 N 
HETATM   33  H6  UNL     1      -1.359   7.298  16.938  1.00  0.00     0.315 HD
BRANCH  32  34
HETATM   34  C2  UNL     1      -2.636   7.137  15.357  1.00  0.00     0.265 C 
HETATM   35  C1  UNL     1      -3.943   6.372  15.512  1.00  0.00     0.037 C 
ENDBRANCH  32  34
ENDBRANCH  31  32
ENDBRANCH  30  31
BRANCH  30  36
HETATM   36  C32 UNL     1       0.002   9.893  15.296  1.00  0.00     0.147 C 
BRANCH  36  37
HETATM   37  O5  UNL     1      -0.999  10.273  14.353  1.00  0.00    -0.391 OA
HETATM   38  H50 UNL     1      -0.993  11.243  14.316  1.00  0.00     0.210 HD
ENDBRANCH  36  37
BRANCH  36  39
HETATM   39  C33 UNL     1       0.748   8.680  14.808  1.00  0.00     0.018 C 
HETATM   40  C34 UNL     1       0.604   7.958  13.675  1.00  0.00     0.010 C 
HETATM   41  C35 UNL     1      -0.381   8.255  12.577  1.00  0.00     0.055 C 
BRANCH  40  42
HETATM   42  C36 UNL     1       1.474   6.782  13.436  1.00  0.00     0.171 C 
HETATM   43  O6  UNL     1       1.753   6.304  12.350  1.00  0.00    -0.646 OA
BRANCH  42  44
HETATM   44  O7  UNL     1       1.939   6.214  14.560  1.00  0.00    -0.773 OA
HETATM   45  H55 UNL     1       2.468   5.464  14.218  1.00  0.00     0.167 HD
ENDBRANCH  42  44
ENDBRANCH  40  42
ENDBRANCH  36  39
ENDBRANCH  30  36
ENDBRANCH  28  30
ENDBRANCH   1  28
BRANCH   3  46
HETATM   46  O1  UNL     1       2.891  14.257  16.006  1.00  0.00    -0.394 OA
HETATM   47  H18 UNL     1       3.837  13.991  15.982  1.00  0.00     0.210 HD
ENDBRANCH   3  46
BRANCH  27  48
HETATM   48  O4  UNL     1       5.123  14.502  17.271  1.00  0.00    -0.391 OA
HETATM   49  H48 UNL     1       4.877  15.439  17.166  1.00  0.00     0.210 HD
ENDBRANCH  27  48
TORSDOF 12
ENDMDL
MODEL 4
REMARK minimizedAffinity -6.83341646
REMARK CNNscore 0.343504965
REMARK CNNaffinity 6.28470182
REMARK  12 active torsions:
REMARK  status: ('A' for Active; 'I' for Inactive)
REMARK    1  A    between atoms: C2_2  and  N1_3 
REMARK    2  A    between atoms: N1_3  and  C3_4 
REMARK    3  A    between atoms: C3_4  and  C4_5 
REMARK    4  A    between atoms: C4_5  and  C5_6 
REMARK    5  A    between atoms: C4_5  and  C32_37 
REMARK    6  A    between atoms: C5_6  and  C7_8 
REMARK    7  A    between atoms: C9_10  and  O1_11 
REMARK    8  A    between atoms: C31_35  and  O4_36 
REMARK    9  A    between atoms: C32_37  and  O5_38 
REMARK   10  A    between atoms: C32_37  and  C33_39 
REMARK   11  A    between atoms: C34_40  and  C36_42 
REMARK   12  A    between atoms: C36_42  and  O7_44 
ROOT
HETATM    1  C7  UNL     1      -0.341  10.601  14.655  1.00  0.00     0.002 C 
HETATM    2  C8  UNL     1      -1.387  11.753  14.627  1.00  0.00     0.038 C 
HETATM    3  C9  UNL     1      -0.847  12.873  15.551  1.00  0.00     0.132 C 
HETATM    4  C10 UNL     1       0.634  12.478  15.843  1.00  0.00     0.017 C 
HETATM    5  C11 UNL     1       1.524  12.930  14.631  1.00  0.00     0.023 C 
HETATM    6  C12 UNL     1       1.376  13.019  17.075  1.00  0.00    -0.029 C 
HETATM    7  C13 UNL     1       2.308  12.264  17.722  1.00  0.00     0.003 C 
HETATM    8  C14 UNL     1       2.687  10.919  17.138  1.00  0.00     0.157 C 
HETATM    9  O2  UNL     1       3.678  10.299  17.521  1.00  0.00    -0.293 OA
HETATM   10  C15 UNL     1       1.837  10.293  16.055  1.00  0.00     0.094 C 
HETATM   11  C16 UNL     1       0.438  10.902  15.990  1.00  0.00    -0.016 C 
HETATM   12  C17 UNL     1      -0.408  10.358  17.230  1.00  0.00     0.011 C 
HETATM   13  C18 UNL     1      -0.797  11.212  18.454  1.00  0.00     0.001 C 
HETATM   14  C19 UNL     1      -0.314  10.691  19.815  1.00  0.00     0.000 C 
HETATM   15  C20 UNL     1       1.178  10.848  20.110  1.00  0.00     0.001 C 
HETATM   16  C21 UNL     1       1.673  12.313  20.134  1.00  0.00     0.015 C 
HETATM   17  C22 UNL     1       2.837  12.682  19.115  1.00  0.00    -0.004 C 
HETATM   18  C23 UNL     1       4.123  11.938  19.608  1.00  0.00     0.022 C 
HETATM   19  C24 UNL     1       4.822  12.639  20.760  1.00  0.00     0.080 C 
HETATM   20  C25 UNL     1       5.385  13.942  20.273  1.00  0.00     0.135 C 
HETATM   21  O3  UNL     1       6.454  14.361  20.718  1.00  0.00    -0.297 OA
HETATM   22  C26 UNL     1       4.590  14.710  19.204  1.00  0.00     0.018 C 
HETATM   23  C27 UNL     1       5.312  14.504  17.859  1.00  0.00     0.023 C 
HETATM   24  C28 UNL     1       4.692  16.211  19.575  1.00  0.00     0.023 C 
HETATM   25  C29 UNL     1       3.079  14.252  19.203  1.00  0.00     0.017 C 
HETATM   26  C30 UNL     1       2.254  15.076  18.189  1.00  0.00     0.043 C 
HETATM   27  C31 UNL     1       1.029  14.394  17.601  1.00  0.00     0.149 C 
ENDROOT
BRANCH   1  28
HETATM   28  C5  UNL     1      -0.885   9.201  14.186  1.00  0.00    -0.005 C 
HETATM   29  C6  UNL     1      -1.959   9.194  13.092  1.00  0.00     0.011 C 
BRANCH  28  30
HETATM   30  C4  UNL     1      -1.183   8.233  15.392  1.00  0.00     0.050 C 
BRANCH  30  31
HETATM   31  C3  UNL     1      -2.675   8.032  15.774  1.00  0.00     0.277 C 
BRANCH  31  32
HETATM   32  N1  UNL     1      -3.098   6.660  16.020  1.00  0.00     0.083 N 
HETATM   33  H6  UNL     1      -2.414   5.996  15.661  1.00  0.00     0.315 HD
BRANCH  32  34
HETATM   34  C2  UNL     1      -4.403   6.379  15.425  1.00  0.00     0.265 C 
HETATM   35  C1  UNL     1      -4.279   6.314  13.910  1.00  0.00     0.037 C 
ENDBRANCH  32  34
ENDBRANCH  31  32
ENDBRANCH  30  31
BRANCH  30  36
HETATM   36  C32 UNL     1      -0.382   6.895  15.345  1.00  0.00     0.147 C 
BRANCH  36  37
HETATM   37  O5  UNL     1       0.471   6.883  16.488  1.00  0.00    -0.391 OA
HETATM   38  H50 UNL     1      -0.014   6.429  17.194  1.00  0.00     0.210 HD
ENDBRANCH  36  37
BRANCH  36  39
HETATM   39  C33 UNL     1       0.415   6.638  14.094  1.00  0.00     0.018 C 
HETATM   40  C34 UNL     1       0.147   5.851  13.029  1.00  0.00     0.010 C 
HETATM   41  C35 UNL     1      -1.104   5.035  12.847  1.00  0.00     0.055 C 
BRANCH  40  42
HETATM   42  C36 UNL     1       1.120   5.764  11.914  1.00  0.00     0.171 C 
HETATM   43  O6  UNL     1       0.915   5.269  10.819  1.00  0.00    -0.646 OA
BRANCH  42  44
HETATM   44  O7  UNL     1       2.330   6.264  12.210  1.00  0.00    -0.773 OA
HETATM   45  H55 UNL     1       2.833   6.113  11.383  1.00  0.00     0.167 HD
ENDBRANCH  42  44
ENDBRANCH  40  42
ENDBRANCH  36  39
ENDBRANCH  30  36
ENDBRANCH  28  30
ENDBRANCH   1  28
BRANCH   3  46
HETATM   46  O1  UNL     1      -1.072  14.124  14.923  1.00  0.00    -0.394 OA
HETATM   47  H18 UNL     1      -0.236  14.641  14.953  1.00  0.00     0.210 HD
ENDBRANCH   3  46
BRANCH  27  48
HETATM   48  O4  UNL     1       0.589  15.243  16.544  1.00  0.00    -0.391 OA
HETATM   49  H48 UNL     1      -0.245  15.648  16.841  1.00  0.00     0.210 HD
ENDBRANCH  27  48
TORSDOF 12
ENDMDL
MODEL 5
REMARK minimizedAffinity -8.31974697
REMARK CNNscore 0.310997933
REMARK CNNaffinity 7.22345114
REMARK  12 active torsions:
REMARK  status: ('A' for Active; 'I' for Inactive)
REMARK    1  A    between atoms: C2_2  and  N1_3 
REMARK    2  A    between atoms: N1_3  and  C3_4 
REMARK    3  A    between atoms: C3_4  and  C4_5 
REMARK    4  A    between atoms: C4_5  and  C5_6 
REMARK    5  A    between atoms: C4_5  and  C32_37 
REMARK    6  A    between atoms: C5_6  and  C7_8 
REMARK    7  A    between atoms: C9_10  and  O1_11 
REMARK    8  A    between atoms: C31_35  and  O4_36 
REMARK    9  A    between atoms: C32_37  and  O5_38 
REMARK   10  A    between atoms: C32_37  and  C33_39 
REMARK   11  A    between atoms: C34_40  and  C36_42 
REMARK   12  A    between atoms: C36_42  and  O7_44 
ROOT
HETATM    1  C7  UNL     1     -10.409   7.641  14.428  1.00  0.00     0.002 C 
HETATM    2  C8  UNL     1     -11.583   6.673  14.105  1.00  0.00     0.038 C 
HETATM    3  C9  UNL     1     -12.798   7.552  13.718  1.00  0.00     0.132 C 
HETATM    4  C10 UNL     1     -12.215   8.987  13.525  1.00  0.00     0.017 C 
HETATM    5  C11 UNL     1     -11.580   9.083  12.092  1.00  0.00     0.023 C 
HETATM    6  C12 UNL     1     -13.110  10.231  13.624  1.00  0.00    -0.029 C 
HETATM    7  C13 UNL     1     -12.630  11.405  14.123  1.00  0.00     0.003 C 
HETATM    8  C14 UNL     1     -11.160  11.498  14.475  1.00  0.00     0.157 C 
HETATM    9  O2  UNL     1     -10.609  12.575  14.696  1.00  0.00    -0.293 OA
HETATM   10  C15 UNL     1     -10.320  10.244  14.572  1.00  0.00     0.094 C 
HETATM   11  C16 UNL     1     -11.171   8.986  14.731  1.00  0.00    -0.016 C 
HETATM   12  C17 UNL     1     -11.740   8.945  16.223  1.00  0.00     0.011 C 
HETATM   13  C18 UNL     1     -13.214   9.207  16.595  1.00  0.00     0.001 C 
HETATM   14  C19 UNL     1     -13.461  10.359  17.579  1.00  0.00     0.000 C 
HETATM   15  C20 UNL     1     -13.293  11.774  17.022  1.00  0.00     0.001 C 
HETATM   16  C21 UNL     1     -14.261  12.125  15.868  1.00  0.00     0.015 C 
HETATM   17  C22 UNL     1     -13.590  12.561  14.493  1.00  0.00    -0.004 C 
HETATM   18  C23 UNL     1     -12.920  13.954  14.737  1.00  0.00     0.022 C 
HETATM   19  C24 UNL     1     -13.902  15.111  14.700  1.00  0.00     0.080 C 
HETATM   20  C25 UNL     1     -14.431  15.262  13.302  1.00  0.00     0.135 C 
HETATM   21  O3  UNL     1     -14.677  16.380  12.849  1.00  0.00    -0.297 OA
HETATM   22  C26 UNL     1     -14.633  13.983  12.473  1.00  0.00     0.018 C 
HETATM   23  C27 UNL     1     -13.476  13.905  11.459  1.00  0.00     0.023 C 
HETATM   24  C28 UNL     1     -15.950  14.180  11.680  1.00  0.00     0.023 C 
HETATM   25  C29 UNL     1     -14.752  12.724  13.418  1.00  0.00     0.017 C 
HETATM   26  C30 UNL     1     -15.038  11.445  12.598  1.00  0.00     0.043 C 
HETATM   27  C31 UNL     1     -14.559  10.134  13.201  1.00  0.00     0.149 C 
ENDROOT
BRANCH   1  28
HETATM   28  C5  UNL     1      -9.248   7.012  15.283  1.00  0.00    -0.005 C 
HETATM   29  C6  UNL     1      -8.910   7.689  16.617  1.00  0.00     0.011 C 
BRANCH  28  30
HETATM   30  C4  UNL     1      -7.991   6.632  14.413  1.00  0.00     0.050 C 
BRANCH  30  31
HETATM   31  C3  UNL     1      -6.630   7.238  14.852  1.00  0.00     0.277 C 
BRANCH  31  32
HETATM   32  N1  UNL     1      -6.343   8.586  14.380  1.00  0.00     0.083 N 
HETATM   33  H6  UNL     1      -6.717   8.733  13.444  1.00  0.00     0.315 HD
BRANCH  32  34
HETATM   34  C2  UNL     1      -4.908   8.865  14.376  1.00  0.00     0.265 C 
HETATM   35  C1  UNL     1      -4.255   8.211  13.167  1.00  0.00     0.037 C 
ENDBRANCH  32  34
ENDBRANCH  31  32
ENDBRANCH  30  31
BRANCH  30  36
HETATM   36  C32 UNL     1      -7.898   5.115  14.061  1.00  0.00     0.147 C 
BRANCH  36  37
HETATM   37  O5  UNL     1      -7.794   4.409  15.295  1.00  0.00    -0.391 OA
HETATM   38  H50 UNL     1      -8.697   4.170  15.556  1.00  0.00     0.210 HD
ENDBRANCH  36  37
BRANCH  36  39
HETATM   39  C33 UNL     1      -6.782   4.714  13.132  1.00  0.00     0.018 C 
HETATM   40  C34 UNL     1      -6.535   3.538  12.514  1.00  0.00     0.010 C 
HETATM   41  C35 UNL     1      -7.401   2.310  12.609  1.00  0.00     0.055 C 
BRANCH  40  42
HETATM   42  C36 UNL     1      -5.343   3.399  11.646  1.00  0.00     0.171 C 
HETATM   43  O6  UNL     1      -4.296   4.014  11.758  1.00  0.00    -0.646 OA
BRANCH  42  44
HETATM   44  O7  UNL     1      -5.502   2.524  10.640  1.00  0.00    -0.773 OA
HETATM   45  H55 UNL     1      -4.642   2.572  10.175  1.00  0.00     0.167 HD
ENDBRANCH  42  44
ENDBRANCH  40  42
ENDBRANCH  36  39
ENDBRANCH  30  36
ENDBRANCH  28  30
ENDBRANCH   1  28
BRANCH   3  46
HETATM   46  O1  UNL     1     -13.447   6.962  12.604  1.00  0.00    -0.394 OA
HETATM   47  H18 UNL     1     -13.598   7.659  11.928  1.00  0.00     0.210 HD
ENDBRANCH   3  46
BRANCH  27  48
HETATM   48  O4  UNL     1     -14.722   9.159  12.174  1.00  0.00    -0.391 OA
HETATM   49  H48 UNL     1     -15.456   8.583  12.452  1.00  0.00     0.210 HD
ENDBRANCH  27  48
TORSDOF 12
ENDMDL
MODEL 6
REMARK minimizedAffinity -6.69538689
REMARK CNNscore 0.305885792
REMARK CNNaffinity 6.13709068
REMARK  12 active torsions:
REMARK  status: ('A' for Active; 'I' for Inactive)
REMARK    1  A    between atoms: C2_2  and  N1_3 
REMARK    2  A    between atoms: N1_3  and  C3_4 
REMARK    3  A    between atoms: C3_4  and  C4_5 
REMARK    4  A    between atoms: C4_5  and  C5_6 
REMARK    5  A    between atoms: C4_5  and  C32_37 
REMARK    6  A    between atoms: C5_6  and  C7_8 
REMARK    7  A    between atoms: C9_10  and  O1_11 
REMARK    8  A    between atoms: C31_35  and  O4_36 
REMARK    9  A    between atoms: C32_37  and  O5_38 
REMARK   10  A    between atoms: C32_37  and  C33_39 
REMARK   11  A    between atoms: C34_40  and  C36_42 
REMARK   12  A    between atoms: C36_42  and  O7_44 
ROOT
HETATM    1  C7  UNL     1      -7.608 -10.599   5.219  1.00  0.00     0.002 C 
HETATM    2  C8  UNL     1      -6.554 -11.630   4.724  1.00  0.00     0.038 C 
HETATM    3  C9  UNL     1      -6.576 -11.587   3.176  1.00  0.00     0.132 C 
HETATM    4  C10 UNL     1      -7.413 -10.319   2.817  1.00  0.00     0.017 C 
HETATM    5  C11 UNL     1      -6.485  -9.057   2.925  1.00  0.00     0.023 C 
HETATM    6  C12 UNL     1      -8.090 -10.171   1.447  1.00  0.00    -0.029 C 
HETATM    7  C13 UNL     1      -9.280  -9.521   1.317  1.00  0.00     0.003 C 
HETATM    8  C14 UNL     1      -9.874  -8.841   2.534  1.00  0.00     0.157 C 
HETATM    9  O2  UNL     1     -10.804  -8.042   2.445  1.00  0.00    -0.293 OA
HETATM   10  C15 UNL     1      -9.331  -9.141   3.913  1.00  0.00     0.094 C 
HETATM   11  C16 UNL     1      -8.528 -10.440   3.951  1.00  0.00    -0.016 C 
HETATM   12  C17 UNL     1      -9.548 -11.667   3.880  1.00  0.00     0.011 C 
HETATM   13  C18 UNL     1      -9.728 -12.573   2.645  1.00  0.00     0.001 C 
HETATM   14  C19 UNL     1     -11.146 -12.634   2.061  1.00  0.00     0.000 C 
HETATM   15  C20 UNL     1     -11.616 -11.398   1.292  1.00  0.00     0.001 C 
HETATM   16  C21 UNL     1     -10.769 -11.064   0.042  1.00  0.00     0.015 C 
HETATM   17  C22 UNL     1     -10.100  -9.621   0.008  1.00  0.00    -0.004 C 
HETATM   18  C23 UNL     1     -11.263  -8.586  -0.151  1.00  0.00     0.022 C 
HETATM   19  C24 UNL     1     -11.766  -8.457  -1.577  1.00  0.00     0.080 C 
HETATM   20  C25 UNL     1     -10.689  -7.845  -2.425  1.00  0.00     0.135 C 
HETATM   21  O3  UNL     1     -10.981  -7.076  -3.341  1.00  0.00    -0.297 OA
HETATM   22  C26 UNL     1      -9.230  -8.204  -2.096  1.00  0.00     0.018 C 
HETATM   23  C27 UNL     1      -8.612  -6.993  -1.372  1.00  0.00     0.023 C 
HETATM   24  C28 UNL     1      -8.503  -8.370  -3.455  1.00  0.00     0.023 C 
HETATM   25  C29 UNL     1      -9.163  -9.552  -1.276  1.00  0.00     0.017 C 
HETATM   26  C30 UNL     1      -7.697  -9.963  -1.012  1.00  0.00     0.043 C 
HETATM   27  C31 UNL     1      -7.443 -10.800   0.232  1.00  0.00     0.149 C 
ENDROOT
BRANCH   1  28
HETATM   28  C5  UNL     1      -8.090 -10.807   6.703  1.00  0.00    -0.005 C 
HETATM   29  C6  UNL     1      -9.388 -11.596   6.917  1.00  0.00     0.011 C 
BRANCH  28  30
HETATM   30  C4  UNL     1      -7.981  -9.494   7.565  1.00  0.00     0.050 C 
BRANCH  30  31
HETATM   31  C3  UNL     1      -9.257  -9.055   8.334  1.00  0.00     0.277 C 
BRANCH  31  32
HETATM   32  N1  UNL     1     -10.068  -8.023   7.700  1.00  0.00     0.083 N 
HETATM   33  H6  UNL     1      -9.717  -7.094   7.924  1.00  0.00     0.315 HD
BRANCH  32  34
HETATM   34  C2  UNL     1     -11.472  -8.118   8.095  1.00  0.00     0.265 C 
HETATM   35  C1  UNL     1     -12.150  -9.248   7.335  1.00  0.00     0.037 C 
ENDBRANCH  32  34
ENDBRANCH  31  32
ENDBRANCH  30  31
BRANCH  30  36
HETATM   36  C32 UNL     1      -6.688  -9.410   8.434  1.00  0.00     0.147 C 
BRANCH  36  37
HETATM   37  O5  UNL     1      -6.217 -10.746   8.605  1.00  0.00    -0.391 OA
HETATM   38  H50 UNL     1      -5.582 -10.911   7.890  1.00  0.00     0.210 HD
ENDBRANCH  36  37
BRANCH  36  39
HETATM   39  C33 UNL     1      -6.825  -8.728   9.770  1.00  0.00     0.018 C 
HETATM   40  C34 UNL     1      -6.106  -8.869  10.905  1.00  0.00     0.010 C 
HETATM   41  C35 UNL     1      -4.919  -9.779  11.072  1.00  0.00     0.055 C 
BRANCH  40  42
HETATM   42  C36 UNL     1      -6.459  -8.073  12.104  1.00  0.00     0.171 C 
HETATM   43  O6  UNL     1      -6.774  -6.895  12.118  1.00  0.00    -0.646 OA
BRANCH  42  44
HETATM   44  O7  UNL     1      -6.374  -8.759  13.255  1.00  0.00    -0.773 OA
HETATM   45  H55 UNL     1      -6.622  -8.088  13.924  1.00  0.00     0.167 HD
ENDBRANCH  42  44
ENDBRANCH  40  42
ENDBRANCH  36  39
ENDBRANCH  30  36
ENDBRANCH  28  30
ENDBRANCH   1  28
BRANCH   3  46
HETATM   46  O1  UNL     1      -5.240 -11.636   2.703  1.00  0.00    -0.394 OA
HETATM   47  H18 UNL     1      -5.120 -10.922   2.037  1.00  0.00     0.210 HD
ENDBRANCH   3  46
BRANCH  27  48
HETATM   48  O4  UNL     1      -6.027 -10.844   0.380  1.00  0.00    -0.391 OA
HETATM   49  H48 UNL     1      -5.754 -11.755   0.171  1.00  0.00     0.210 HD
ENDBRANCH  27  48
TORSDOF 12
ENDMDL
MODEL 7
REMARK minimizedAffinity -6.98958921
REMARK CNNscore 0.294783443
REMARK CNNaffinity 6.33639002
REMARK  12 active torsions:
REMARK  status: ('A' for Active; 'I' for Inactive)
REMARK    1  A    between atoms: C2_2  and  N1_3 
REMARK    2  A    between atoms: N1_3  and  C3_4 
REMARK    3  A    between atoms: C3_4  and  C4_5 
REMARK    4  A    between atoms: C4_5  and  C5_6 
REMARK    5  A    between atoms: C4_5  and  C32_37 
REMARK    6  A    between atoms: C5_6  and  C7_8 
REMARK    7  A    between atoms: C9_10  and  O1_11 
REMARK    8  A    between atoms: C31_35  and  O4_36 
REMARK    9  A    between atoms: C32_37  and  O5_38 
REMARK   10  A    between atoms: C32_37  and  C33_39 
REMARK   11  A    between atoms: C34_40  and  C36_42 
REMARK   12  A    between atoms: C36_42  and  O7_44 
ROOT
HETATM    1  C7  UNL     1       4.502  14.551  -0.208  1.00  0.00     0.002 C 
HETATM    2  C8  UNL     1       5.657  15.065   0.698  1.00  0.00     0.038 C 
HETATM    3  C9  UNL     1       5.001  15.657   1.970  1.00  0.00     0.132 C 
HETATM    4  C10 UNL     1       3.511  15.194   1.911  1.00  0.00     0.017 C 
HETATM    5  C11 UNL     1       3.421  13.720   2.446  1.00  0.00     0.023 C 
HETATM    6  C12 UNL     1       2.412  15.941   2.681  1.00  0.00    -0.029 C 
HETATM    7  C13 UNL     1       1.147  16.040   2.183  1.00  0.00     0.003 C 
HETATM    8  C14 UNL     1       0.809  15.299   0.906  1.00  0.00     0.157 C 
HETATM    9  O2  UNL     1      -0.352  15.142   0.532  1.00  0.00    -0.293 OA
HETATM   10  C15 UNL     1       1.912  14.732   0.041  1.00  0.00     0.094 C 
HETATM   11  C16 UNL     1       3.270  15.362   0.343  1.00  0.00    -0.016 C 
HETATM   12  C17 UNL     1       3.291  16.836  -0.270  1.00  0.00     0.011 C 
HETATM   13  C18 UNL     1       3.229  18.126   0.573  1.00  0.00     0.001 C 
HETATM   14  C19 UNL     1       2.061  19.074   0.263  1.00  0.00     0.000 C 
HETATM   15  C20 UNL     1       0.680  18.627   0.745  1.00  0.00     0.001 C 
HETATM   16  C21 UNL     1       0.561  18.462   2.278  1.00  0.00     0.015 C 
HETATM   17  C22 UNL     1       0.127  17.025   2.802  1.00  0.00    -0.004 C 
HETATM   18  C23 UNL     1      -1.365  16.820   2.376  1.00  0.00     0.022 C 
HETATM   19  C24 UNL     1      -2.355  17.522   3.288  1.00  0.00     0.080 C 
HETATM   20  C25 UNL     1      -2.326  16.871   4.640  1.00  0.00     0.135 C 
HETATM   21  O3  UNL     1      -3.360  16.766   5.301  1.00  0.00    -0.297 OA
HETATM   22  C26 UNL     1      -0.976  16.337   5.147  1.00  0.00     0.018 C 
HETATM   23  C27 UNL     1      -1.003  14.804   4.996  1.00  0.00     0.023 C 
HETATM   24  C28 UNL     1      -0.916  16.666   6.661  1.00  0.00     0.023 C 
HETATM   25  C29 UNL     1       0.217  17.041   4.390  1.00  0.00     0.017 C 
HETATM   26  C30 UNL     1       1.578  16.571   4.951  1.00  0.00     0.043 C 
HETATM   27  C31 UNL     1       2.757  16.616   3.991  1.00  0.00     0.149 C 
ENDROOT
BRANCH   1  28
HETATM   28  C5  UNL     1       4.887  14.351  -1.721  1.00  0.00    -0.005 C 
HETATM   29  C6  UNL     1       5.136  15.612  -2.557  1.00  0.00     0.011 C 
BRANCH  28  30
HETATM   30  C4  UNL     1       3.996  13.267  -2.435  1.00  0.00     0.050 C 
BRANCH  30  31
HETATM   31  C3  UNL     1       2.835  13.792  -3.324  1.00  0.00     0.277 C 
BRANCH  31  32
HETATM   32  N1  UNL     1       1.960  12.781  -3.903  1.00  0.00     0.083 N 
HETATM   33  H6  UNL     1       2.499  12.055  -4.372  1.00  0.00     0.315 HD
BRANCH  32  34
HETATM   34  C2  UNL     1       1.009  13.364  -4.848  1.00  0.00     0.265 C 
HETATM   35  C1  UNL     1      -0.096  14.088  -4.093  1.00  0.00     0.037 C 
ENDBRANCH  32  34
ENDBRANCH  31  32
ENDBRANCH  30  31
BRANCH  30  36
HETATM   36  C32 UNL     1       4.810  12.120  -3.111  1.00  0.00     0.147 C 
BRANCH  36  37
HETATM   37  O5  UNL     1       5.694  11.601  -2.121  1.00  0.00    -0.391 OA
HETATM   38  H50 UNL     1       5.233  10.860  -1.696  1.00  0.00     0.210 HD
ENDBRANCH  36  37
BRANCH  36  39
HETATM   39  C33 UNL     1       5.574  12.489  -4.355  1.00  0.00     0.018 C 
HETATM   40  C34 UNL     1       5.706  11.835  -5.531  1.00  0.00     0.010 C 
HETATM   41  C35 UNL     1       5.046  10.527  -5.873  1.00  0.00     0.055 C 
BRANCH  40  42
HETATM   42  C36 UNL     1       6.539  12.418  -6.609  1.00  0.00     0.171 C 
HETATM   43  O6  UNL     1       6.326  13.467  -7.193  1.00  0.00    -0.646 OA
BRANCH  42  44
HETATM   44  O7  UNL     1       7.592  11.660  -6.952  1.00  0.00    -0.773 OA
HETATM   45  H55 UNL     1       8.007  12.181  -7.669  1.00  0.00     0.167 HD
ENDBRANCH  42  44
ENDBRANCH  40  42
ENDBRANCH  36  39
ENDBRANCH  30  36
ENDBRANCH  28  30
ENDBRANCH   1  28
BRANCH   3  46
HETATM   46  O1  UNL     1       5.759  15.255   3.099  1.00  0.00    -0.394 OA
HETATM   47  H18 UNL     1       5.141  14.902   3.778  1.00  0.00     0.210 HD
ENDBRANCH   3  46
BRANCH  27  48
HETATM   48  O4  UNL     1       3.814  15.926   4.651  1.00  0.00    -0.391 OA
HETATM   49  H48 UNL     1       4.474  16.599   4.897  1.00  0.00     0.210 HD
ENDBRANCH  27  48
TORSDOF 12
ENDMDL
MODEL 8
REMARK minimizedAffinity -10.2922106
REMARK CNNscore 0.246200487
REMARK CNNaffinity 7.03169394
REMARK  12 active torsions:
REMARK  status: ('A' for Active; 'I' for Inactive)
REMARK    1  A    between atoms: C2_2  and  N1_3 
REMARK    2  A    between atoms: N1_3  and  C3_4 
REMARK    3  A    between atoms: C3_4  and  C4_5 
REMARK    4  A    between atoms: C4_5  and  C5_6 
REMARK    5  A    between atoms: C4_5  and  C32_37 
REMARK    6  A    between atoms: C5_6  and  C7_8 
REMARK    7  A    between atoms: C9_10  and  O1_11 
REMARK    8  A    between atoms: C31_35  and  O4_36 
REMARK    9  A    between atoms: C32_37  and  O5_38 
REMARK   10  A    between atoms: C32_37  and  C33_39 
REMARK   11  A    between atoms: C34_40  and  C36_42 
REMARK   12  A    between atoms: C36_42  and  O7_44 
ROOT
HETATM    1  C7  UNL     1      -2.791   7.483  13.904  1.00  0.00     0.002 C 
HETATM    2  C8  UNL     1      -2.394   6.824  15.256  1.00  0.00     0.038 C 
HETATM    3  C9  UNL     1      -0.848   6.860  15.337  1.00  0.00     0.132 C 
HETATM    4  C10 UNL     1      -0.403   7.812  14.183  1.00  0.00     0.017 C 
HETATM    5  C11 UNL     1      -0.550   9.298  14.671  1.00  0.00     0.023 C 
HETATM    6  C12 UNL     1       1.015   7.748  13.596  1.00  0.00    -0.029 C 
HETATM    7  C13 UNL     1       1.243   8.004  12.277  1.00  0.00     0.003 C 
HETATM    8  C14 UNL     1       0.086   8.469  11.417  1.00  0.00     0.157 C 
HETATM    9  O2  UNL     1       0.259   8.946  10.297  1.00  0.00    -0.293 OA
HETATM   10  C15 UNL     1      -1.334   8.347  11.921  1.00  0.00     0.094 C 
HETATM   11  C16 UNL     1      -1.457   7.356  13.076  1.00  0.00    -0.016 C 
HETATM   12  C17 UNL     1      -1.341   5.876  12.487  1.00  0.00     0.011 C 
HETATM   13  C18 UNL     1      -0.116   4.960  12.684  1.00  0.00     0.001 C 
HETATM   14  C19 UNL     1       0.566   4.469  11.399  1.00  0.00     0.000 C 
HETATM   15  C20 UNL     1       1.394   5.503  10.633  1.00  0.00     0.001 C 
HETATM   16  C21 UNL     1       2.587   6.082  11.429  1.00  0.00     0.015 C 
HETATM   17  C22 UNL     1       2.604   7.660  11.627  1.00  0.00    -0.004 C 
HETATM   18  C23 UNL     1       2.868   8.290  10.219  1.00  0.00     0.022 C 
HETATM   19  C24 UNL     1       4.329   8.261   9.808  1.00  0.00     0.080 C 
HETATM   20  C25 UNL     1       5.111   9.174  10.708  1.00  0.00     0.135 C 
HETATM   21  O3  UNL     1       6.061   9.818  10.264  1.00  0.00    -0.297 OA
HETATM   22  C26 UNL     1       4.671   9.277  12.178  1.00  0.00     0.018 C 
HETATM   23  C27 UNL     1       3.931  10.618  12.343  1.00  0.00     0.023 C 
HETATM   24  C28 UNL     1       5.971   9.343  13.020  1.00  0.00     0.023 C 
HETATM   25  C29 UNL     1       3.820   8.013  12.591  1.00  0.00     0.017 C 
HETATM   26  C30 UNL     1       3.444   8.068  14.089  1.00  0.00     0.043 C 
HETATM   27  C31 UNL     1       2.167   7.348  14.492  1.00  0.00     0.149 C 
ENDROOT
BRANCH   1  28
HETATM   28  C5  UNL     1      -4.241   7.137  13.399  1.00  0.00    -0.005 C 
HETATM   29  C6  UNL     1      -5.162   8.310  13.046  1.00  0.00     0.011 C 
BRANCH  28  30
HETATM   30  C4  UNL     1      -4.928   6.010  14.258  1.00  0.00     0.050 C 
BRANCH  30  31
HETATM   31  C3  UNL     1      -5.304   6.377  15.719  1.00  0.00     0.277 C 
BRANCH  31  32
HETATM   32  N1  UNL     1      -6.277   7.450  15.884  1.00  0.00     0.083 N 
HETATM   33  H6  UNL     1      -5.840   8.282  16.278  1.00  0.00     0.315 HD
BRANCH  32  34
HETATM   34  C2  UNL     1      -7.395   7.043  16.732  1.00  0.00     0.265 C 
HETATM   35  C1  UNL     1      -8.711   7.460  16.091  1.00  0.00     0.037 C 
ENDBRANCH  32  34
ENDBRANCH  31  32
ENDBRANCH  30  31
BRANCH  30  36
HETATM   36  C32 UNL     1      -6.064   5.246  13.511  1.00  0.00     0.147 C 
BRANCH  36  37
HETATM   37  O5  UNL     1      -6.942   4.729  14.509  1.00  0.00    -0.391 OA
HETATM   38  H50 UNL     1      -7.638   5.392  14.640  1.00  0.00     0.210 HD
ENDBRANCH  36  37
BRANCH  36  39
HETATM   39  C33 UNL     1      -5.628   4.148  12.577  1.00  0.00     0.018 C 
HETATM   40  C34 UNL     1      -6.243   2.996  12.228  1.00  0.00     0.010 C 
HETATM   41  C35 UNL     1      -7.599   2.557  12.711  1.00  0.00     0.055 C 
BRANCH  40  42
HETATM   42  C36 UNL     1      -5.583   2.066  11.282  1.00  0.00     0.171 C 
HETATM   43  O6  UNL     1      -5.800   0.871  11.180  1.00  0.00    -0.646 OA
BRANCH  42  44
HETATM   44  O7  UNL     1      -4.644   2.646  10.517  1.00  0.00    -0.773 OA
HETATM   45  H55 UNL     1      -4.313   1.898   9.979  1.00  0.00     0.167 HD
ENDBRANCH  42  44
ENDBRANCH  40  42
ENDBRANCH  36  39
ENDBRANCH  30  36
ENDBRANCH  28  30
ENDBRANCH   1  28
BRANCH   3  46
HETATM   46  O1  UNL     1      -0.472   7.222  16.655  1.00  0.00    -0.394 OA
HETATM   47  H18 UNL     1       0.199   7.939  16.601  1.00  0.00     0.210 HD
ENDBRANCH   3  46
BRANCH  27  48
HETATM   48  O4  UNL     1       1.917   7.738  15.840  1.00  0.00    -0.391 OA
HETATM   49  H48 UNL     1       2.086   6.954  16.392  1.00  0.00     0.210 HD
ENDBRANCH  27  48
TORSDOF 12
ENDMDL
MODEL 9
REMARK minimizedAffinity -6.56658411
REMARK CNNscore 0.244856417
REMARK CNNaffinity 5.68693924
REMARK  12 active torsions:
REMARK  status: ('A' for Active; 'I' for Inactive)
REMARK    1  A    between atoms: C2_2  and  N1_3 
REMARK    2  A    between atoms: N1_3  and  C3_4 
REMARK    3  A    between atoms: C3_4  and  C4_5 
REMARK    4  A    between atoms: C4_5  and  C5_6 
REMARK    5  A    between atoms: C4_5  and  C32_37 
REMARK    6  A    between atoms: C5_6  and  C7_8 
REMARK    7  A    between atoms: C9_10  and  O1_11 
REMARK    8  A    between atoms: C31_35  and  O4_36 
REMARK    9  A    between atoms: C32_37  and  O5_38 
REMARK   10  A    between atoms: C32_37  and  C33_39 
REMARK   11  A    between atoms: C34_40  and  C36_42 
REMARK   12  A    between atoms: C36_42  and  O7_44 
ROOT
HETATM    1  C7  UNL     1       1.585  13.372  17.501  1.00  0.00     0.002 C 
HETATM    2  C8  UNL     1       0.497  14.176  18.270  1.00  0.00     0.038 C 
HETATM    3  C9  UNL     1       1.131  14.625  19.609  1.00  0.00     0.132 C 
HETATM    4  C10 UNL     1       2.658  14.340  19.451  1.00  0.00     0.017 C 
HETATM    5  C11 UNL     1       3.309  15.522  18.647  1.00  0.00     0.023 C 
HETATM    6  C12 UNL     1       3.570  14.171  20.675  1.00  0.00    -0.029 C 
HETATM    7  C13 UNL     1       4.631  13.317  20.649  1.00  0.00     0.003 C 
HETATM    8  C14 UNL     1       4.969  12.617  19.350  1.00  0.00     0.157 C 
HETATM    9  O2  UNL     1       6.038  12.031  19.184  1.00  0.00    -0.293 OA
HETATM   10  C15 UNL     1       3.980  12.616  18.206  1.00  0.00     0.094 C 
HETATM   11  C16 UNL     1       2.563  12.956  18.664  1.00  0.00    -0.016 C 
HETATM   12  C17 UNL     1       1.963  11.691  19.431  1.00  0.00     0.011 C 
HETATM   13  C18 UNL     1       1.745  11.626  20.957  1.00  0.00     0.001 C 
HETATM   14  C19 UNL     1       2.474  10.490  21.689  1.00  0.00     0.000 C 
HETATM   15  C20 UNL     1       3.986  10.651  21.856  1.00  0.00     0.001 C 
HETATM   16  C21 UNL     1       4.409  11.888  22.682  1.00  0.00     0.015 C 
HETATM   17  C22 UNL     1       5.367  12.928  21.954  1.00  0.00    -0.004 C 
HETATM   18  C23 UNL     1       6.751  12.219  21.773  1.00  0.00     0.022 C 
HETATM   19  C24 UNL     1       7.599  12.220  23.032  1.00  0.00     0.080 C 
HETATM   20  C25 UNL     1       8.011  13.629  23.346  1.00  0.00     0.135 C 
HETATM   21  O3  UNL     1       9.119  13.858  23.832  1.00  0.00    -0.297 OA
HETATM   22  C26 UNL     1       7.013  14.754  23.025  1.00  0.00     0.018 C 
HETATM   23  C27 UNL     1       7.508  15.457  21.747  1.00  0.00     0.023 C 
HETATM   24  C28 UNL     1       7.106  15.768  24.194  1.00  0.00     0.023 C 
HETATM   25  C29 UNL     1       5.547  14.179  22.921  1.00  0.00     0.017 C 
HETATM   26  C30 UNL     1       4.526  15.315  22.681  1.00  0.00     0.043 C 
HETATM   27  C31 UNL     1       3.252  14.934  21.943  1.00  0.00     0.149 C 
ENDROOT
BRANCH   1  28
HETATM   28  C5  UNL     1       1.036  12.435  16.363  1.00  0.00    -0.005 C 
HETATM   29  C6  UNL     1       1.237  12.895  14.914  1.00  0.00     0.011 C 
BRANCH  28  30
HETATM   30  C4  UNL     1      -0.408  11.888  16.673  1.00  0.00     0.050 C 
BRANCH  30  31
HETATM   31  C3  UNL     1      -1.588  12.570  15.930  1.00  0.00     0.277 C 
BRANCH  31  32
HETATM   32  N1  UNL     1      -2.902  12.435  16.545  1.00  0.00     0.083 N 
HETATM   33  H6  UNL     1      -3.626  12.844  15.956  1.00  0.00     0.315 HD
BRANCH  32  34
HETATM   34  C2  UNL     1      -2.948  13.055  17.868  1.00  0.00     0.265 C 
HETATM   35  C1  UNL     1      -3.937  12.312  18.755  1.00  0.00     0.037 C 
ENDBRANCH  32  34
ENDBRANCH  31  32
ENDBRANCH  30  31
BRANCH  30  36
HETATM   36  C32 UNL     1      -0.510  10.331  16.676  1.00  0.00     0.147 C 
BRANCH  36  37
HETATM   37  O5  UNL     1      -1.229   9.965  17.852  1.00  0.00    -0.391 OA
HETATM   38  H50 UNL     1      -2.164   9.906  17.600  1.00  0.00     0.210 HD
ENDBRANCH  36  37
BRANCH  36  39
HETATM   39  C33 UNL     1       0.792   9.577  16.602  1.00  0.00     0.018 C 
HETATM   40  C34 UNL     1       1.240   8.686  15.690  1.00  0.00     0.010 C 
HETATM   41  C35 UNL     1       0.491   8.256  14.458  1.00  0.00     0.055 C 
BRANCH  40  42
HETATM   42  C36 UNL     1       2.577   8.070  15.858  1.00  0.00     0.171 C 
HETATM   43  O6  UNL     1       3.600   8.649  16.178  1.00  0.00    -0.646 OA
BRANCH  42  44
HETATM   44  O7  UNL     1       2.607   6.755  15.586  1.00  0.00    -0.773 OA
HETATM   45  H55 UNL     1       3.547   6.527  15.732  1.00  0.00     0.167 HD
ENDBRANCH  42  44
ENDBRANCH  40  42
ENDBRANCH  36  39
ENDBRANCH  30  36
ENDBRANCH  28  30
ENDBRANCH   1  28
BRANCH   3  46
HETATM   46  O1  UNL     1       0.746  15.965  19.865  1.00  0.00    -0.394 OA
HETATM   47  H18 UNL     1       1.550  16.479  20.102  1.00  0.00     0.210 HD
ENDBRANCH   3  46
BRANCH  27  48
HETATM   48  O4  UNL     1       2.602  16.166  21.642  1.00  0.00    -0.391 OA
HETATM   49  H48 UNL     1       1.812  16.209  22.209  1.00  0.00     0.210 HD
ENDBRANCH  27  48
TORSDOF 12
ENDMDL
