MODEL 1
REMARK minimizedAffinity -9.4765625
REMARK  10 active torsions:
REMARK  status: ('A' for Active; 'I' for Inactive)
REMARK    1  A    between atoms: C2_2  and  C3_3 
REMARK    2  A    between atoms: C2_2  and  C9_12 
REMARK    3  A    between atoms: C3_3  and  C4_4 
REMARK    4  A    between atoms: C4_4  and  O1_5 
REMARK    5  A    between atoms: C4_4  and  C5_6 
REMARK    6  A    between atoms: C5_6  and  O2_7 
REMARK    7  A    between atoms: C5_6  and  C6_8 
REMARK    8  A    between atoms: C6_8  and  O3_11 
REMARK    9  A    between atoms: C23_27  and  C25_29 
REMARK   10  A    between atoms: C25_29  and  O5_30 
ROOT
HETATM    1  C9  UNL     1      -2.708  49.312 -19.074  1.00  0.00    -0.002 C 
HETATM    2  C10 UNL     1      -3.384  48.072 -19.714  1.00  0.00     0.007 C 
HETATM    3  C11 UNL     1      -3.312  48.269 -21.248  1.00  0.00     0.015 C 
HETATM    4  C12 UNL     1      -2.834  49.725 -21.448  1.00  0.00    -0.013 C 
HETATM    5  C13 UNL     1      -4.120  50.615 -21.383  1.00  0.00     0.021 C 
HETATM    6  C14 UNL     1      -2.152  50.104 -22.758  1.00  0.00    -0.070 C 
HETATM    7  C15 UNL     1      -2.488  49.534 -23.930  1.00  0.00    -0.022 C 
HETATM    8  C16 UNL     1      -1.960  49.965 -25.269  1.00  0.00     0.034 C 
HETATM    9  C17 UNL     1      -0.808  50.995 -25.210  1.00  0.00     0.015 C 
HETATM   10  C18 UNL     1      -1.045  52.042 -24.060  1.00  0.00    -0.031 C 
HETATM   11  C19 UNL     1      -2.336  52.866 -24.281  1.00  0.00     0.016 C 
HETATM   12  C20 UNL     1       0.187  52.972 -24.038  1.00  0.00     0.017 C 
HETATM   13  C21 UNL     1       0.381  53.775 -25.309  1.00  0.00     0.080 C 
HETATM   14  C22 UNL     1      -0.159  53.123 -26.557  1.00  0.00     0.137 C 
HETATM   15  O4  UNL     1      -0.348  53.828 -27.554  1.00  0.00    -0.297 OA
HETATM   16  C23 UNL     1      -0.354  51.600 -26.602  1.00  0.00     0.043 C 
HETATM   17  C24 UNL     1       1.032  51.020 -26.969  1.00  0.00     0.026 C 
HETATM   18  C26 UNL     1      -1.120  51.235 -22.700  1.00  0.00     0.024 C 
HETATM   19  C27 UNL     1      -1.245  52.115 -21.427  1.00  0.00     0.010 C 
HETATM   20  C28 UNL     1      -1.452  51.365 -20.088  1.00  0.00     0.011 C 
HETATM   21  C29 UNL     1      -1.842  49.883 -20.242  1.00  0.00    -0.029 C 
HETATM   22  C30 UNL     1      -0.542  49.040 -20.389  1.00  0.00     0.016 C 
ENDROOT
BRANCH   1  23
HETATM   23  C2  UNL     1      -2.073  49.128 -17.661  1.00  0.00    -0.011 C 
HETATM   24  C1  UNL     1      -2.277  47.666 -17.222  1.00  0.00     0.010 C 
BRANCH  23  25
HETATM   25  C3  UNL     1      -0.579  49.527 -17.529  1.00  0.00     0.039 C 
BRANCH  25  26
HETATM   26  C4  UNL     1      -0.337  50.744 -16.609  1.00  0.00     0.150 C 
BRANCH  26  27
HETATM   27  O1  UNL     1      -1.082  50.529 -15.399  1.00  0.00    -0.393 OA
HETATM   28  H8  UNL     1      -0.730  51.158 -14.731  1.00  0.00     0.210 HD
ENDBRANCH  26  27
BRANCH  26  29
HETATM   29  C5  UNL     1       1.169  50.912 -16.263  1.00  0.00     0.180 C 
BRANCH  29  30
HETATM   30  O2  UNL     1       1.332  50.681 -14.851  1.00  0.00    -0.390 OA
HETATM   31  H10 UNL     1       0.628  51.208 -14.420  1.00  0.00     0.210 HD
ENDBRANCH  29  30
BRANCH  29  32
HETATM   32  C6  UNL     1       1.754  52.314 -16.619  1.00  0.00     0.079 C 
HETATM   33  C7  UNL     1       1.368  52.751 -18.036  1.00  0.00     0.048 C 
HETATM   34  C8  UNL     1       3.283  52.318 -16.475  1.00  0.00     0.048 C 
BRANCH  32  35
HETATM   35  O3  UNL     1       1.211  53.287 -15.708  1.00  0.00    -0.388 OA
HETATM   36  H17 UNL     1       1.735  54.102 -15.805  1.00  0.00     0.210 HD
ENDBRANCH  32  35
ENDBRANCH  29  32
ENDBRANCH  26  29
ENDBRANCH  25  26
ENDBRANCH  23  25
ENDBRANCH   1  23
BRANCH  16  37
HETATM   37  C25 UNL     1      -1.326  51.317 -27.779  1.00  0.00     0.181 C 
BRANCH  37  38
HETATM   38  O5  UNL     1      -2.468  52.166 -27.761  1.00  0.00    -0.400 OA
HETATM   39  H42 UNL     1      -3.153  51.723 -27.232  1.00  0.00     0.209 HD
ENDBRANCH  37  38
ENDBRANCH  16  37
TORSDOF 10
ENDMDL
MODEL 2
REMARK minimizedAffinity -9.46662521
REMARK  10 active torsions:
REMARK  status: ('A' for Active; 'I' for Inactive)
REMARK    1  A    between atoms: C2_2  and  C3_3 
REMARK    2  A    between atoms: C2_2  and  C9_12 
REMARK    3  A    between atoms: C3_3  and  C4_4 
REMARK    4  A    between atoms: C4_4  and  O1_5 
REMARK    5  A    between atoms: C4_4  and  C5_6 
REMARK    6  A    between atoms: C5_6  and  O2_7 
REMARK    7  A    between atoms: C5_6  and  C6_8 
REMARK    8  A    between atoms: C6_8  and  O3_11 
REMARK    9  A    between atoms: C23_27  and  C25_29 
REMARK   10  A    between atoms: C25_29  and  O5_30 
ROOT
HETATM    1  C9  UNL     1      -4.091  48.125 -20.133  1.00  0.00    -0.002 C 
HETATM    2  C10 UNL     1      -4.741  47.191 -21.185  1.00  0.00     0.007 C 
HETATM    3  C11 UNL     1      -4.336  47.737 -22.576  1.00  0.00     0.015 C 
HETATM    4  C12 UNL     1      -3.684  49.110 -22.297  1.00  0.00    -0.013 C 
HETATM    5  C13 UNL     1      -4.860  50.140 -22.224  1.00  0.00     0.021 C 
HETATM    6  C14 UNL     1      -2.713  49.686 -23.322  1.00  0.00    -0.070 C 
HETATM    7  C15 UNL     1      -2.856  49.471 -24.643  1.00  0.00    -0.022 C 
HETATM    8  C16 UNL     1      -2.024  50.126 -25.708  1.00  0.00     0.034 C 
HETATM    9  C17 UNL     1      -0.811  50.929 -25.181  1.00  0.00     0.015 C 
HETATM   10  C18 UNL     1      -1.174  51.693 -23.854  1.00  0.00    -0.031 C 
HETATM   11  C19 UNL     1      -2.303  52.729 -24.070  1.00  0.00     0.016 C 
HETATM   12  C20 UNL     1       0.114  52.396 -23.374  1.00  0.00     0.017 C 
HETATM   13  C21 UNL     1       0.644  53.443 -24.334  1.00  0.00     0.080 C 
HETATM   14  C22 UNL     1       0.310  53.197 -25.784  1.00  0.00     0.137 C 
HETATM   15  O4  UNL     1       0.401  54.141 -26.576  1.00  0.00    -0.297 OA
HETATM   16  C23 UNL     1      -0.023  51.776 -26.262  1.00  0.00     0.043 C 
HETATM   17  C24 UNL     1       1.343  51.101 -26.524  1.00  0.00     0.026 C 
HETATM   18  C26 UNL     1      -1.607  50.604 -22.790  1.00  0.00     0.024 C 
HETATM   19  C27 UNL     1      -1.902  51.161 -21.371  1.00  0.00     0.010 C 
HETATM   20  C28 UNL     1      -2.454  50.151 -20.335  1.00  0.00     0.011 C 
HETATM   21  C29 UNL     1      -2.950  48.824 -20.939  1.00  0.00    -0.029 C 
HETATM   22  C30 UNL     1      -1.739  47.857 -21.077  1.00  0.00     0.016 C 
ENDROOT
BRANCH   1  23
HETATM   23  C2  UNL     1      -3.782  47.515 -18.731  1.00  0.00    -0.011 C 
HETATM   24  C1  UNL     1      -3.474  46.017 -18.908  1.00  0.00     0.010 C 
BRANCH  23  25
HETATM   25  C3  UNL     1      -2.650  48.205 -17.923  1.00  0.00     0.039 C 
BRANCH  25  26
HETATM   26  C4  UNL     1      -3.162  49.171 -16.832  1.00  0.00     0.150 C 
BRANCH  26  27
HETATM   27  O1  UNL     1      -3.421  48.395 -15.650  1.00  0.00    -0.393 OA
HETATM   28  H8  UNL     1      -3.494  49.028 -14.902  1.00  0.00     0.210 HD
ENDBRANCH  26  27
BRANCH  26  29
HETATM   29  C5  UNL     1      -2.116  50.274 -16.503  1.00  0.00     0.180 C 
BRANCH  29  30
HETATM   30  O2  UNL     1      -2.378  51.406 -17.352  1.00  0.00    -0.390 OA
HETATM   31  H10 UNL     1      -2.490  51.034 -18.252  1.00  0.00     0.210 HD
ENDBRANCH  29  30
BRANCH  29  32
HETATM   32  C6  UNL     1      -0.633  49.826 -16.695  1.00  0.00     0.079 C 
HETATM   33  C7  UNL     1      -0.027  49.287 -15.395  1.00  0.00     0.048 C 
HETATM   34  C8  UNL     1       0.221  50.988 -17.221  1.00  0.00     0.048 C 
BRANCH  32  35
HETATM   35  O3  UNL     1      -0.593  48.761 -17.661  1.00  0.00    -0.388 OA
HETATM   36  H17 UNL     1       0.336  48.639 -17.923  1.00  0.00     0.210 HD
ENDBRANCH  32  35
ENDBRANCH  29  32
ENDBRANCH  26  29
ENDBRANCH  25  26
ENDBRANCH  23  25
ENDBRANCH   1  23
BRANCH  16  37
HETATM   37  C25 UNL     1      -0.755  51.931 -27.622  1.00  0.00     0.181 C 
BRANCH  37  38
HETATM   38  O5  UNL     1       0.128  52.291 -28.679  1.00  0.00    -0.400 OA
HETATM   39  H42 UNL     1       0.164  53.263 -28.712  1.00  0.00     0.209 HD
ENDBRANCH  37  38
ENDBRANCH  16  37
TORSDOF 10
ENDMDL
MODEL 3
REMARK minimizedAffinity -9.21663284
REMARK  10 active torsions:
REMARK  status: ('A' for Active; 'I' for Inactive)
REMARK    1  A    between atoms: C2_2  and  C3_3 
REMARK    2  A    between atoms: C2_2  and  C9_12 
REMARK    3  A    between atoms: C3_3  and  C4_4 
REMARK    4  A    between atoms: C4_4  and  O1_5 
REMARK    5  A    between atoms: C4_4  and  C5_6 
REMARK    6  A    between atoms: C5_6  and  O2_7 
REMARK    7  A    between atoms: C5_6  and  C6_8 
REMARK    8  A    between atoms: C6_8  and  O3_11 
REMARK    9  A    between atoms: C23_27  and  C25_29 
REMARK   10  A    between atoms: C25_29  and  O5_30 
ROOT
HETATM    1  C9  UNL     1      -4.155  48.133 -20.205  1.00  0.00    -0.002 C 
HETATM    2  C10 UNL     1      -4.750  47.168 -21.262  1.00  0.00     0.007 C 
HETATM    3  C11 UNL     1      -4.315  47.704 -22.647  1.00  0.00     0.015 C 
HETATM    4  C12 UNL     1      -3.706  49.098 -22.370  1.00  0.00    -0.013 C 
HETATM    5  C13 UNL     1      -4.909  50.098 -22.348  1.00  0.00     0.021 C 
HETATM    6  C14 UNL     1      -2.718  49.683 -23.373  1.00  0.00    -0.070 C 
HETATM    7  C15 UNL     1      -2.814  49.445 -24.695  1.00  0.00    -0.022 C 
HETATM    8  C16 UNL     1      -1.966  50.106 -25.743  1.00  0.00     0.034 C 
HETATM    9  C17 UNL     1      -0.791  50.946 -25.191  1.00  0.00     0.015 C 
HETATM   10  C18 UNL     1      -1.214  51.720 -23.888  1.00  0.00    -0.031 C 
HETATM   11  C19 UNL     1      -2.361  52.724 -24.153  1.00  0.00     0.016 C 
HETATM   12  C20 UNL     1       0.041  52.463 -23.379  1.00  0.00     0.017 C 
HETATM   13  C21 UNL     1       0.574  53.508 -24.338  1.00  0.00     0.080 C 
HETATM   14  C22 UNL     1       0.292  53.233 -25.794  1.00  0.00     0.137 C 
HETATM   15  O4  UNL     1       0.384  54.168 -26.597  1.00  0.00    -0.297 OA
HETATM   16  C23 UNL     1       0.009  51.798 -26.261  1.00  0.00     0.043 C 
HETATM   17  C24 UNL     1       1.399  51.154 -26.470  1.00  0.00     0.026 C 
HETATM   18  C26 UNL     1      -1.652  50.636 -22.821  1.00  0.00     0.024 C 
HETATM   19  C27 UNL     1      -2.005  51.205 -21.421  1.00  0.00     0.010 C 
HETATM   20  C28 UNL     1      -2.564  50.197 -20.387  1.00  0.00     0.011 C 
HETATM   21  C29 UNL     1      -3.008  48.849 -20.986  1.00  0.00    -0.029 C 
HETATM   22  C30 UNL     1      -1.769  47.911 -21.072  1.00  0.00     0.016 C 
ENDROOT
BRANCH   1  23
HETATM   23  C2  UNL     1      -3.875  47.552 -18.785  1.00  0.00    -0.011 C 
HETATM   24  C1  UNL     1      -2.415  47.866 -18.409  1.00  0.00     0.010 C 
BRANCH  23  25
HETATM   25  C3  UNL     1      -4.833  48.019 -17.657  1.00  0.00     0.039 C 
BRANCH  25  26
HETATM   26  C4  UNL     1      -6.242  47.389 -17.734  1.00  0.00     0.150 C 
BRANCH  26  27
HETATM   27  O1  UNL     1      -6.602  46.963 -16.410  1.00  0.00    -0.393 OA
HETATM   28  H8  UNL     1      -7.572  46.806 -16.413  1.00  0.00     0.210 HD
ENDBRANCH  26  27
BRANCH  26  29
HETATM   29  C5  UNL     1      -7.298  48.405 -18.252  1.00  0.00     0.180 C 
BRANCH  29  30
HETATM   30  O2  UNL     1      -8.149  48.768 -17.149  1.00  0.00    -0.390 OA
HETATM   31  H10 UNL     1      -8.394  47.920 -16.723  1.00  0.00     0.210 HD
ENDBRANCH  29  30
BRANCH  29  32
HETATM   32  C6  UNL     1      -8.182  47.869 -19.421  1.00  0.00     0.079 C 
HETATM   33  C7  UNL     1      -7.958  48.657 -20.715  1.00  0.00     0.048 C 
HETATM   34  C8  UNL     1      -9.669  47.909 -19.041  1.00  0.00     0.048 C 
BRANCH  32  35
HETATM   35  O3  UNL     1      -7.819  46.501 -19.684  1.00  0.00    -0.388 OA
HETATM   36  H17 UNL     1      -8.508  46.122 -20.259  1.00  0.00     0.210 HD
ENDBRANCH  32  35
ENDBRANCH  29  32
ENDBRANCH  26  29
ENDBRANCH  25  26
ENDBRANCH  23  25
ENDBRANCH   1  23
BRANCH  16  37
HETATM   37  C25 UNL     1      -0.684  51.915 -27.645  1.00  0.00     0.181 C 
BRANCH  37  38
HETATM   38  O5  UNL     1       0.204  52.364 -28.663  1.00  0.00    -0.400 OA
HETATM   39  H42 UNL     1       0.160  53.336 -28.681  1.00  0.00     0.209 HD
ENDBRANCH  37  38
ENDBRANCH  16  37
TORSDOF 10
ENDMDL
MODEL 4
REMARK minimizedAffinity -9.07201004
REMARK  10 active torsions:
REMARK  status: ('A' for Active; 'I' for Inactive)
REMARK    1  A    between atoms: C2_2  and  C3_3 
REMARK    2  A    between atoms: C2_2  and  C9_12 
REMARK    3  A    between atoms: C3_3  and  C4_4 
REMARK    4  A    between atoms: C4_4  and  O1_5 
REMARK    5  A    between atoms: C4_4  and  C5_6 
REMARK    6  A    between atoms: C5_6  and  O2_7 
REMARK    7  A    between atoms: C5_6  and  C6_8 
REMARK    8  A    between atoms: C6_8  and  O3_11 
REMARK    9  A    between atoms: C23_27  and  C25_29 
REMARK   10  A    between atoms: C25_29  and  O5_30 
ROOT
HETATM    1  C9  UNL     1      -0.732  52.094 -20.965  1.00  0.00    -0.002 C 
HETATM    2  C10 UNL     1      -0.039  51.085 -20.014  1.00  0.00     0.007 C 
HETATM    3  C11 UNL     1      -1.076  49.976 -19.712  1.00  0.00     0.015 C 
HETATM    4  C12 UNL     1      -2.412  50.504 -20.281  1.00  0.00    -0.013 C 
HETATM    5  C13 UNL     1      -3.034  51.404 -19.162  1.00  0.00     0.021 C 
HETATM    6  C14 UNL     1      -3.506  49.504 -20.643  1.00  0.00    -0.070 C 
HETATM    7  C15 UNL     1      -3.684  48.360 -19.957  1.00  0.00    -0.022 C 
HETATM    8  C16 UNL     1      -4.828  47.409 -20.168  1.00  0.00     0.034 C 
HETATM    9  C17 UNL     1      -5.705  47.716 -21.404  1.00  0.00     0.015 C 
HETATM   10  C18 UNL     1      -5.899  49.267 -21.587  1.00  0.00    -0.031 C 
HETATM   11  C19 UNL     1      -6.628  49.908 -20.383  1.00  0.00     0.016 C 
HETATM   12  C20 UNL     1      -6.720  49.468 -22.880  1.00  0.00     0.017 C 
HETATM   13  C21 UNL     1      -8.112  48.870 -22.829  1.00  0.00     0.080 C 
HETATM   14  C22 UNL     1      -8.254  47.676 -21.918  1.00  0.00     0.137 C 
HETATM   15  O4  UNL     1      -9.389  47.343 -21.560  1.00  0.00    -0.297 OA
HETATM   16  C23 UNL     1      -7.018  46.842 -21.550  1.00  0.00     0.043 C 
HETATM   17  C24 UNL     1      -6.828  45.851 -22.722  1.00  0.00     0.026 C 
HETATM   18  C26 UNL     1      -4.460  49.900 -21.774  1.00  0.00     0.024 C 
HETATM   19  C27 UNL     1      -4.453  51.422 -22.079  1.00  0.00     0.010 C 
HETATM   20  C28 UNL     1      -3.065  52.107 -22.139  1.00  0.00     0.011 C 
HETATM   21  C29 UNL     1      -1.913  51.264 -21.561  1.00  0.00    -0.029 C 
HETATM   22  C30 UNL     1      -1.378  50.321 -22.678  1.00  0.00     0.016 C 
ENDROOT
BRANCH   1  23
HETATM   23  C2  UNL     1       0.185  52.923 -21.916  1.00  0.00    -0.011 C 
HETATM   24  C1  UNL     1       1.457  53.320 -21.143  1.00  0.00     0.010 C 
BRANCH  23  25
HETATM   25  C3  UNL     1       0.563  52.244 -23.260  1.00  0.00     0.039 C 
BRANCH  25  26
HETATM   26  C4  UNL     1       0.246  53.104 -24.504  1.00  0.00     0.150 C 
BRANCH  26  27
HETATM   27  O1  UNL     1       1.079  54.274 -24.448  1.00  0.00    -0.393 OA
HETATM   28  H8  UNL     1       1.067  54.677 -25.344  1.00  0.00     0.210 HD
ENDBRANCH  26  27
BRANCH  26  29
HETATM   29  C5  UNL     1       0.531  52.333 -25.823  1.00  0.00     0.180 C 
BRANCH  29  30
HETATM   30  O2  UNL     1       1.944  52.404 -26.088  1.00  0.00    -0.390 OA
HETATM   31  H10 UNL     1       2.183  53.346 -25.963  1.00  0.00     0.210 HD
ENDBRANCH  29  30
BRANCH  29  32
HETATM   32  C6  UNL     1      -0.246  52.877 -27.062  1.00  0.00     0.079 C 
HETATM   33  C7  UNL     1      -1.720  52.461 -27.040  1.00  0.00     0.048 C 
HETATM   34  C8  UNL     1       0.407  52.398 -28.367  1.00  0.00     0.048 C 
BRANCH  32  35
HETATM   35  O3  UNL     1      -0.206  54.315 -27.037  1.00  0.00    -0.388 OA
HETATM   36  H17 UNL     1      -0.505  54.631 -27.908  1.00  0.00     0.210 HD
ENDBRANCH  32  35
ENDBRANCH  29  32
ENDBRANCH  26  29
ENDBRANCH  25  26
ENDBRANCH  23  25
ENDBRANCH   1  23
BRANCH  16  37
HETATM   37  C25 UNL     1      -7.399  46.029 -20.284  1.00  0.00     0.181 C 
BRANCH  37  38
HETATM   38  O5  UNL     1      -7.299  44.623 -20.489  1.00  0.00    -0.400 OA
HETATM   39  H42 UNL     1      -8.162  44.314 -20.814  1.00  0.00     0.209 HD
ENDBRANCH  37  38
ENDBRANCH  16  37
TORSDOF 10
ENDMDL
MODEL 5
REMARK minimizedAffinity -9.02262592
REMARK  10 active torsions:
REMARK  status: ('A' for Active; 'I' for Inactive)
REMARK    1  A    between atoms: C2_2  and  C3_3 
REMARK    2  A    between atoms: C2_2  and  C9_12 
REMARK    3  A    between atoms: C3_3  and  C4_4 
REMARK    4  A    between atoms: C4_4  and  O1_5 
REMARK    5  A    between atoms: C4_4  and  C5_6 
REMARK    6  A    between atoms: C5_6  and  O2_7 
REMARK    7  A    between atoms: C5_6  and  C6_8 
REMARK    8  A    between atoms: C6_8  and  O3_11 
REMARK    9  A    between atoms: C23_27  and  C25_29 
REMARK   10  A    between atoms: C25_29  and  O5_30 
ROOT
HETATM    1  C9  UNL     1      -0.955  51.525 -21.468  1.00  0.00    -0.002 C 
HETATM    2  C10 UNL     1      -0.250  50.284 -20.863  1.00  0.00     0.007 C 
HETATM    3  C11 UNL     1      -1.303  49.150 -20.825  1.00  0.00     0.015 C 
HETATM    4  C12 UNL     1      -2.647  49.833 -21.162  1.00  0.00    -0.013 C 
HETATM    5  C13 UNL     1      -3.194  50.402 -19.810  1.00  0.00     0.021 C 
HETATM    6  C14 UNL     1      -3.783  48.987 -21.727  1.00  0.00    -0.070 C 
HETATM    7  C15 UNL     1      -3.963  47.702 -21.371  1.00  0.00    -0.022 C 
HETATM    8  C16 UNL     1      -5.141  46.863 -21.777  1.00  0.00     0.034 C 
HETATM    9  C17 UNL     1      -6.063  47.509 -22.837  1.00  0.00     0.015 C 
HETATM   10  C18 UNL     1      -6.221  49.054 -22.581  1.00  0.00    -0.031 C 
HETATM   11  C19 UNL     1      -6.879  49.352 -21.212  1.00  0.00     0.016 C 
HETATM   12  C20 UNL     1      -7.091  49.613 -23.727  1.00  0.00     0.017 C 
HETATM   13  C21 UNL     1      -8.496  49.045 -23.773  1.00  0.00     0.080 C 
HETATM   14  C22 UNL     1      -8.632  47.650 -23.216  1.00  0.00     0.137 C 
HETATM   15  O4  UNL     1      -9.759  47.248 -22.906  1.00  0.00    -0.297 OA
HETATM   16  C23 UNL     1      -7.405  46.729 -23.151  1.00  0.00     0.043 C 
HETATM   17  C24 UNL     1      -7.294  46.094 -24.557  1.00  0.00     0.026 C 
HETATM   18  C26 UNL     1      -4.774  49.692 -22.659  1.00  0.00     0.024 C 
HETATM   19  C27 UNL     1      -4.738  51.239 -22.537  1.00  0.00     0.010 C 
HETATM   20  C28 UNL     1      -3.335  51.893 -22.477  1.00  0.00     0.011 C 
HETATM   21  C29 UNL     1      -2.183  50.907 -22.208  1.00  0.00    -0.029 C 
HETATM   22  C30 UNL     1      -1.724  50.298 -23.565  1.00  0.00     0.016 C 
ENDROOT
BRANCH   1  23
HETATM   23  C2  UNL     1      -0.057  52.569 -22.201  1.00  0.00    -0.011 C 
HETATM   24  C1  UNL     1       1.287  52.666 -21.454  1.00  0.00     0.010 C 
BRANCH  23  25
HETATM   25  C3  UNL     1       0.185  52.315 -23.713  1.00  0.00     0.039 C 
BRANCH  25  26
HETATM   26  C4  UNL     1       0.016  53.575 -24.592  1.00  0.00     0.150 C 
BRANCH  26  27
HETATM   27  O1  UNL     1       1.246  54.315 -24.534  1.00  0.00    -0.393 OA
HETATM   28  H8  UNL     1       1.229  54.957 -25.277  1.00  0.00     0.210 HD
ENDBRANCH  26  27
BRANCH  26  29
HETATM   29  C5  UNL     1      -0.295  53.207 -26.070  1.00  0.00     0.180 C 
BRANCH  29  30
HETATM   30  O2  UNL     1      -1.640  52.699 -26.132  1.00  0.00    -0.390 OA
HETATM   31  H10 UNL     1      -1.705  52.050 -25.400  1.00  0.00     0.210 HD
ENDBRANCH  29  30
BRANCH  29  32
HETATM   32  C6  UNL     1       0.676  52.151 -26.684  1.00  0.00     0.079 C 
HETATM   33  C7  UNL     1       0.778  52.286 -28.206  1.00  0.00     0.048 C 
HETATM   34  C8  UNL     1       0.233  50.728 -26.318  1.00  0.00     0.048 C 
BRANCH  32  35
HETATM   35  O3  UNL     1       1.993  52.367 -26.145  1.00  0.00    -0.388 OA
HETATM   36  H17 UNL     1       2.532  51.587 -26.369  1.00  0.00     0.210 HD
ENDBRANCH  32  35
ENDBRANCH  29  32
ENDBRANCH  26  29
ENDBRANCH  25  26
ENDBRANCH  23  25
ENDBRANCH   1  23
BRANCH  16  37
HETATM   37  C25 UNL     1      -7.753  45.606 -22.138  1.00  0.00     0.181 C 
BRANCH  37  38
HETATM   38  O5  UNL     1      -7.604  44.304 -22.695  1.00  0.00    -0.400 OA
HETATM   39  H42 UNL     1      -8.456  44.058 -23.094  1.00  0.00     0.209 HD
ENDBRANCH  37  38
ENDBRANCH  16  37
TORSDOF 10
ENDMDL
MODEL 6
REMARK minimizedAffinity -8.92287636
REMARK  10 active torsions:
REMARK  status: ('A' for Active; 'I' for Inactive)
REMARK    1  A    between atoms: C2_2  and  C3_3 
REMARK    2  A    between atoms: C2_2  and  C9_12 
REMARK    3  A    between atoms: C3_3  and  C4_4 
REMARK    4  A    between atoms: C4_4  and  O1_5 
REMARK    5  A    between atoms: C4_4  and  C5_6 
REMARK    6  A    between atoms: C5_6  and  O2_7 
REMARK    7  A    between atoms: C5_6  and  C6_8 
REMARK    8  A    between atoms: C6_8  and  O3_11 
REMARK    9  A    between atoms: C23_27  and  C25_29 
REMARK   10  A    between atoms: C25_29  and  O5_30 
ROOT
HETATM    1  C9  UNL     1      -1.701  50.227 -23.125  1.00  0.00    -0.002 C 
HETATM    2  C10 UNL     1      -2.989  49.367 -23.179  1.00  0.00     0.007 C 
HETATM    3  C11 UNL     1      -3.314  48.960 -21.721  1.00  0.00     0.015 C 
HETATM    4  C12 UNL     1      -2.072  49.373 -20.899  1.00  0.00    -0.013 C 
HETATM    5  C13 UNL     1      -1.061  48.184 -21.017  1.00  0.00     0.021 C 
HETATM    6  C14 UNL     1      -2.227  49.618 -19.402  1.00  0.00    -0.070 C 
HETATM    7  C15 UNL     1      -3.103  48.926 -18.651  1.00  0.00    -0.022 C 
HETATM    8  C16 UNL     1      -3.200  49.016 -17.155  1.00  0.00     0.034 C 
HETATM    9  C17 UNL     1      -2.356  50.144 -16.517  1.00  0.00     0.015 C 
HETATM   10  C18 UNL     1      -0.969  50.292 -17.248  1.00  0.00    -0.031 C 
HETATM   11  C19 UNL     1      -0.113  49.008 -17.135  1.00  0.00     0.016 C 
HETATM   12  C20 UNL     1      -0.240  51.483 -16.590  1.00  0.00     0.017 C 
HETATM   13  C21 UNL     1       0.075  51.282 -15.120  1.00  0.00     0.080 C 
HETATM   14  C22 UNL     1      -0.879  50.371 -14.389  1.00  0.00     0.137 C 
HETATM   15  O4  UNL     1      -0.519  49.890 -13.308  1.00  0.00    -0.297 OA
HETATM   16  C23 UNL     1      -2.297  50.149 -14.935  1.00  0.00     0.043 C 
HETATM   17  C24 UNL     1      -3.129  51.343 -14.411  1.00  0.00     0.026 C 
HETATM   18  C26 UNL     1      -1.273  50.633 -18.763  1.00  0.00     0.024 C 
HETATM   19  C27 UNL     1      -0.018  50.924 -19.629  1.00  0.00     0.010 C 
HETATM   20  C28 UNL     1      -0.259  51.134 -21.145  1.00  0.00     0.011 C 
HETATM   21  C29 UNL     1      -1.651  50.694 -21.636  1.00  0.00    -0.029 C 
HETATM   22  C30 UNL     1      -2.647  51.871 -21.423  1.00  0.00     0.016 C 
ENDROOT
BRANCH   1  23
HETATM   23  C2  UNL     1      -1.489  51.268 -24.267  1.00  0.00    -0.011 C 
HETATM   24  C1  UNL     1      -2.514  52.403 -24.089  1.00  0.00     0.010 C 
BRANCH  23  25
HETATM   25  C3  UNL     1      -0.056  51.851 -24.399  1.00  0.00     0.039 C 
BRANCH  25  26
HETATM   26  C4  UNL     1      -0.016  53.279 -24.987  1.00  0.00     0.150 C 
BRANCH  26  27
HETATM   27  O1  UNL     1       1.081  53.973 -24.370  1.00  0.00    -0.393 OA
HETATM   28  H8  UNL     1       1.261  54.768 -24.919  1.00  0.00     0.210 HD
ENDBRANCH  26  27
BRANCH  26  29
HETATM   29  C5  UNL     1       0.189  53.260 -26.528  1.00  0.00     0.180 C 
BRANCH  29  30
HETATM   30  O2  UNL     1      -1.097  53.425 -27.153  1.00  0.00    -0.390 OA
HETATM   31  H10 UNL     1      -1.691  52.798 -26.690  1.00  0.00     0.210 HD
ENDBRANCH  29  30
BRANCH  29  32
HETATM   32  C6  UNL     1       0.854  51.956 -27.069  1.00  0.00     0.079 C 
HETATM   33  C7  UNL     1      -0.101  50.760 -27.007  1.00  0.00     0.048 C 
HETATM   34  C8  UNL     1       2.136  51.635 -26.287  1.00  0.00     0.048 C 
BRANCH  32  35
HETATM   35  O3  UNL     1       1.204  52.155 -28.450  1.00  0.00    -0.388 OA
HETATM   36  H17 UNL     1       1.795  51.426 -28.710  1.00  0.00     0.210 HD
ENDBRANCH  32  35
ENDBRANCH  29  32
ENDBRANCH  26  29
ENDBRANCH  25  26
ENDBRANCH  23  25
ENDBRANCH   1  23
BRANCH  16  37
HETATM   37  C25 UNL     1      -2.829  48.856 -14.262  1.00  0.00     0.181 C 
BRANCH  37  38
HETATM   38  O5  UNL     1      -3.664  49.127 -13.142  1.00  0.00    -0.400 OA
HETATM   39  H42 UNL     1      -3.094  49.171 -12.356  1.00  0.00     0.209 HD
ENDBRANCH  37  38
ENDBRANCH  16  37
TORSDOF 10
ENDMDL
MODEL 7
REMARK minimizedAffinity -8.9204483
REMARK  10 active torsions:
REMARK  status: ('A' for Active; 'I' for Inactive)
REMARK    1  A    between atoms: C2_2  and  C3_3 
REMARK    2  A    between atoms: C2_2  and  C9_12 
REMARK    3  A    between atoms: C3_3  and  C4_4 
REMARK    4  A    between atoms: C4_4  and  O1_5 
REMARK    5  A    between atoms: C4_4  and  C5_6 
REMARK    6  A    between atoms: C5_6  and  O2_7 
REMARK    7  A    between atoms: C5_6  and  C6_8 
REMARK    8  A    between atoms: C6_8  and  O3_11 
REMARK    9  A    between atoms: C23_27  and  C25_29 
REMARK   10  A    between atoms: C25_29  and  O5_30 
ROOT
HETATM    1  C9  UNL     1      -3.761  47.833 -20.201  1.00  0.00    -0.002 C 
HETATM    2  C10 UNL     1      -4.530  47.018 -21.273  1.00  0.00     0.007 C 
HETATM    3  C11 UNL     1      -4.248  47.699 -22.634  1.00  0.00     0.015 C 
HETATM    4  C12 UNL     1      -3.544  49.029 -22.285  1.00  0.00    -0.013 C 
HETATM    5  C13 UNL     1      -4.685  50.059 -21.993  1.00  0.00     0.021 C 
HETATM    6  C14 UNL     1      -2.664  49.696 -23.336  1.00  0.00    -0.070 C 
HETATM    7  C15 UNL     1      -2.937  49.618 -24.652  1.00  0.00    -0.022 C 
HETATM    8  C16 UNL     1      -2.197  50.370 -25.722  1.00  0.00     0.034 C 
HETATM    9  C17 UNL     1      -0.923  51.100 -25.237  1.00  0.00     0.015 C 
HETATM   10  C18 UNL     1      -1.141  51.729 -23.811  1.00  0.00    -0.031 C 
HETATM   11  C19 UNL     1      -2.263  52.794 -23.810  1.00  0.00     0.016 C 
HETATM   12  C20 UNL     1       0.202  52.365 -23.391  1.00  0.00     0.017 C 
HETATM   13  C21 UNL     1       0.659  53.498 -24.288  1.00  0.00     0.080 C 
HETATM   14  C22 UNL     1       0.183  53.405 -25.716  1.00  0.00     0.137 C 
HETATM   15  O4  UNL     1       0.217  54.424 -26.414  1.00  0.00    -0.297 OA
HETATM   16  C23 UNL     1      -0.225  52.045 -26.300  1.00  0.00     0.043 C 
HETATM   17  C24 UNL     1       1.095  51.384 -26.760  1.00  0.00     0.026 C 
HETATM   18  C26 UNL     1      -1.492  50.542 -22.825  1.00  0.00     0.024 C 
HETATM   19  C27 UNL     1      -1.638  50.954 -21.336  1.00  0.00     0.010 C 
HETATM   20  C28 UNL     1      -2.109  49.850 -20.357  1.00  0.00     0.011 C 
HETATM   21  C29 UNL     1      -2.689  48.597 -21.040  1.00  0.00    -0.029 C 
HETATM   22  C30 UNL     1      -1.517  47.636 -21.392  1.00  0.00     0.016 C 
ENDROOT
BRANCH   1  23
HETATM   23  C2  UNL     1      -3.332  47.079 -18.904  1.00  0.00    -0.011 C 
HETATM   24  C1  UNL     1      -4.197  47.587 -17.736  1.00  0.00     0.010 C 
BRANCH  23  25
HETATM   25  C3  UNL     1      -3.376  45.529 -18.972  1.00  0.00     0.039 C 
BRANCH  25  26
HETATM   26  C4  UNL     1      -4.158  44.876 -17.811  1.00  0.00     0.150 C 
BRANCH  26  27
HETATM   27  O1  UNL     1      -5.354  44.299 -18.362  1.00  0.00    -0.393 OA
HETATM   28  H8  UNL     1      -5.708  43.677 -17.689  1.00  0.00     0.210 HD
ENDBRANCH  26  27
BRANCH  26  29
HETATM   29  C5  UNL     1      -3.327  43.765 -17.111  1.00  0.00     0.180 C 
BRANCH  29  30
HETATM   30  O2  UNL     1      -2.006  44.281 -16.866  1.00  0.00    -0.390 OA
HETATM   31  H10 UNL     1      -1.730  44.696 -17.710  1.00  0.00     0.210 HD
ENDBRANCH  29  30
BRANCH  29  32
HETATM   32  C6  UNL     1      -3.211  42.441 -17.929  1.00  0.00     0.079 C 
HETATM   33  C7  UNL     1      -4.315  41.444 -17.562  1.00  0.00     0.048 C 
HETATM   34  C8  UNL     1      -1.836  41.790 -17.720  1.00  0.00     0.048 C 
BRANCH  32  35
HETATM   35  O3  UNL     1      -3.359  42.747 -19.327  1.00  0.00    -0.388 OA
HETATM   36  H17 UNL     1      -3.080  41.962 -19.830  1.00  0.00     0.210 HD
ENDBRANCH  32  35
ENDBRANCH  29  32
ENDBRANCH  26  29
ENDBRANCH  25  26
ENDBRANCH  23  25
ENDBRANCH   1  23
BRANCH  16  37
HETATM   37  C25 UNL     1      -1.081  52.346 -27.559  1.00  0.00     0.181 C 
BRANCH  37  38
HETATM   38  O5  UNL     1      -2.109  53.297 -27.305  1.00  0.00    -0.400 OA
HETATM   39  H42 UNL     1      -2.898  52.805 -27.021  1.00  0.00     0.209 HD
ENDBRANCH  37  38
ENDBRANCH  16  37
TORSDOF 10
ENDMDL
MODEL 8
REMARK minimizedAffinity -8.86723137
REMARK  10 active torsions:
REMARK  status: ('A' for Active; 'I' for Inactive)
REMARK    1  A    between atoms: C2_2  and  C3_3 
REMARK    2  A    between atoms: C2_2  and  C9_12 
REMARK    3  A    between atoms: C3_3  and  C4_4 
REMARK    4  A    between atoms: C4_4  and  O1_5 
REMARK    5  A    between atoms: C4_4  and  C5_6 
REMARK    6  A    between atoms: C5_6  and  O2_7 
REMARK    7  A    between atoms: C5_6  and  C6_8 
REMARK    8  A    between atoms: C6_8  and  O3_11 
REMARK    9  A    between atoms: C23_27  and  C25_29 
REMARK   10  A    between atoms: C25_29  and  O5_30 
ROOT
HETATM    1  C9  UNL     1      -0.377  52.519 -21.883  1.00  0.00    -0.002 C 
HETATM    2  C10 UNL     1       0.923  53.291 -21.542  1.00  0.00     0.007 C 
HETATM    3  C11 UNL     1       1.251  52.976 -20.062  1.00  0.00     0.015 C 
HETATM    4  C12 UNL     1       0.003  52.247 -19.516  1.00  0.00    -0.013 C 
HETATM    5  C13 UNL     1      -0.992  53.369 -19.068  1.00  0.00     0.021 C 
HETATM    6  C14 UNL     1       0.152  51.338 -18.301  1.00  0.00    -0.070 C 
HETATM    7  C15 UNL     1       1.037  51.596 -17.319  1.00  0.00    -0.022 C 
HETATM    8  C16 UNL     1       1.130  50.826 -16.033  1.00  0.00     0.034 C 
HETATM    9  C17 UNL     1       0.269  49.542 -15.982  1.00  0.00     0.015 C 
HETATM   10  C18 UNL     1      -1.118  49.764 -16.692  1.00  0.00    -0.031 C 
HETATM   11  C19 UNL     1      -1.957  50.862 -15.997  1.00  0.00     0.016 C 
HETATM   12  C20 UNL     1      -1.864  48.413 -16.653  1.00  0.00     0.017 C 
HETATM   13  C21 UNL     1      -2.178  47.919 -15.255  1.00  0.00     0.080 C 
HETATM   14  C22 UNL     1      -1.213  48.379 -14.190  1.00  0.00     0.137 C 
HETATM   15  O4  UNL     1      -1.568  48.312 -13.008  1.00  0.00    -0.297 OA
HETATM   16  C23 UNL     1       0.208  48.809 -14.580  1.00  0.00     0.043 C 
HETATM   17  C24 UNL     1       1.023  47.497 -14.668  1.00  0.00     0.026 C 
HETATM   18  C26 UNL     1      -0.816  50.155 -18.196  1.00  0.00     0.024 C 
HETATM   19  C27 UNL     1      -2.074  50.312 -19.093  1.00  0.00     0.010 C 
HETATM   20  C28 UNL     1      -1.834  50.820 -20.536  1.00  0.00     0.011 C 
HETATM   21  C29 UNL     1      -0.435  51.419 -20.776  1.00  0.00    -0.029 C 
HETATM   22  C30 UNL     1       0.545  50.264 -21.134  1.00  0.00     0.016 C 
ENDROOT
BRANCH   1  23
HETATM   23  C2  UNL     1      -0.601  52.124 -23.375  1.00  0.00    -0.011 C 
HETATM   24  C1  UNL     1      -2.010  52.583 -23.795  1.00  0.00     0.010 C 
BRANCH  23  25
HETATM   25  C3  UNL     1       0.458  52.645 -24.384  1.00  0.00     0.039 C 
BRANCH  25  26
HETATM   26  C4  UNL     1      -0.071  53.747 -25.329  1.00  0.00     0.150 C 
BRANCH  26  27
HETATM   27  O1  UNL     1       0.595  54.973 -24.985  1.00  0.00    -0.393 OA
HETATM   28  H8  UNL     1       0.457  55.594 -25.733  1.00  0.00     0.210 HD
ENDBRANCH  26  27
BRANCH  26  29
HETATM   29  C5  UNL     1       0.212  53.409 -26.820  1.00  0.00     0.180 C 
BRANCH  29  30
HETATM   30  O2  UNL     1      -0.970  53.717 -27.581  1.00  0.00    -0.390 OA
HETATM   31  H10 UNL     1      -1.711  53.318 -27.080  1.00  0.00     0.210 HD
ENDBRANCH  29  30
BRANCH  29  32
HETATM   32  C6  UNL     1       0.608  51.921 -27.075  1.00  0.00     0.079 C 
HETATM   33  C7  UNL     1      -0.517  50.957 -26.688  1.00  0.00     0.048 C 
HETATM   34  C8  UNL     1       1.886  51.560 -26.305  1.00  0.00     0.048 C 
BRANCH  32  35
HETATM   35  O3  UNL     1       0.860  51.745 -28.480  1.00  0.00    -0.388 OA
HETATM   36  H17 UNL     1       1.301  50.884 -28.592  1.00  0.00     0.210 HD
ENDBRANCH  32  35
ENDBRANCH  29  32
ENDBRANCH  26  29
ENDBRANCH  25  26
ENDBRANCH  23  25
ENDBRANCH   1  23
BRANCH  16  37
HETATM   37  C25 UNL     1       0.757  49.641 -13.390  1.00  0.00     0.181 C 
BRANCH  37  38
HETATM   38  O5  UNL     1      -0.169  50.623 -12.938  1.00  0.00    -0.400 OA
HETATM   39  H42 UNL     1      -0.001  51.437 -13.443  1.00  0.00     0.209 HD
ENDBRANCH  37  38
ENDBRANCH  16  37
TORSDOF 10
ENDMDL
MODEL 9
REMARK minimizedAffinity -8.83029461
REMARK  10 active torsions:
REMARK  status: ('A' for Active; 'I' for Inactive)
REMARK    1  A    between atoms: C2_2  and  C3_3 
REMARK    2  A    between atoms: C2_2  and  C9_12 
REMARK    3  A    between atoms: C3_3  and  C4_4 
REMARK    4  A    between atoms: C4_4  and  O1_5 
REMARK    5  A    between atoms: C4_4  and  C5_6 
REMARK    6  A    between atoms: C5_6  and  O2_7 
REMARK    7  A    between atoms: C5_6  and  C6_8 
REMARK    8  A    between atoms: C6_8  and  O3_11 
REMARK    9  A    between atoms: C23_27  and  C25_29 
REMARK   10  A    between atoms: C25_29  and  O5_30 
ROOT
HETATM    1  C9  UNL     1      -1.415  51.306 -23.202  1.00  0.00    -0.002 C 
HETATM    2  C10 UNL     1      -2.731  51.826 -23.834  1.00  0.00     0.007 C 
HETATM    3  C11 UNL     1      -3.867  50.914 -23.310  1.00  0.00     0.015 C 
HETATM    4  C12 UNL     1      -3.151  49.741 -22.603  1.00  0.00    -0.013 C 
HETATM    5  C13 UNL     1      -2.817  48.700 -23.723  1.00  0.00     0.021 C 
HETATM    6  C14 UNL     1      -3.904  48.952 -21.537  1.00  0.00    -0.070 C 
HETATM    7  C15 UNL     1      -5.232  48.745 -21.605  1.00  0.00    -0.022 C 
HETATM    8  C16 UNL     1      -6.005  47.859 -20.671  1.00  0.00     0.034 C 
HETATM    9  C17 UNL     1      -5.203  47.345 -19.453  1.00  0.00     0.015 C 
HETATM   10  C18 UNL     1      -3.723  46.996 -19.859  1.00  0.00    -0.031 C 
HETATM   11  C19 UNL     1      -3.660  45.865 -20.913  1.00  0.00     0.016 C 
HETATM   12  C20 UNL     1      -2.992  46.567 -18.568  1.00  0.00     0.017 C 
HETATM   13  C21 UNL     1      -3.559  45.319 -17.920  1.00  0.00     0.080 C 
HETATM   14  C22 UNL     1      -5.028  45.088 -18.172  1.00  0.00     0.137 C 
HETATM   15  O4  UNL     1      -5.486  43.957 -17.978  1.00  0.00    -0.297 OA
HETATM   16  C23 UNL     1      -5.935  46.268 -18.551  1.00  0.00     0.043 C 
HETATM   17  C24 UNL     1      -6.330  46.929 -17.210  1.00  0.00     0.026 C 
HETATM   18  C26 UNL     1      -3.066  48.323 -20.419  1.00  0.00     0.024 C 
HETATM   19  C27 UNL     1      -1.560  48.204 -20.774  1.00  0.00     0.010 C 
HETATM   20  C28 UNL     1      -0.910  49.438 -21.447  1.00  0.00     0.011 C 
HETATM   21  C29 UNL     1      -1.915  50.479 -21.976  1.00  0.00    -0.029 C 
HETATM   22  C30 UNL     1      -2.289  51.443 -20.812  1.00  0.00     0.016 C 
ENDROOT
BRANCH   1  23
HETATM   23  C2  UNL     1      -0.256  52.334 -23.019  1.00  0.00    -0.011 C 
HETATM   24  C1  UNL     1       0.631  51.864 -21.852  1.00  0.00     0.010 C 
BRANCH  23  25
HETATM   25  C3  UNL     1       0.611  52.613 -24.276  1.00  0.00     0.039 C 
BRANCH  25  26
HETATM   26  C4  UNL     1       0.002  53.661 -25.234  1.00  0.00     0.150 C 
BRANCH  26  27
HETATM   27  O1  UNL     1       0.571  54.938 -24.899  1.00  0.00    -0.393 OA
HETATM   28  H8  UNL     1       0.388  55.540 -25.654  1.00  0.00     0.210 HD
ENDBRANCH  26  27
BRANCH  26  29
HETATM   29  C5  UNL     1       0.315  53.332 -26.720  1.00  0.00     0.180 C 
BRANCH  29  30
HETATM   30  O2  UNL     1      -0.842  53.668 -27.507  1.00  0.00    -0.390 OA
HETATM   31  H10 UNL     1      -1.603  53.278 -27.027  1.00  0.00     0.210 HD
ENDBRANCH  29  30
BRANCH  29  32
HETATM   32  C6  UNL     1       0.690  51.840 -26.980  1.00  0.00     0.079 C 
HETATM   33  C7  UNL     1      -0.431  50.887 -26.554  1.00  0.00     0.048 C 
HETATM   34  C8  UNL     1       1.989  51.471 -26.248  1.00  0.00     0.048 C 
BRANCH  32  35
HETATM   35  O3  UNL     1       0.898  51.654 -28.391  1.00  0.00    -0.388 OA
HETATM   36  H17 UNL     1       1.329  50.790 -28.513  1.00  0.00     0.210 HD
ENDBRANCH  32  35
ENDBRANCH  29  32
ENDBRANCH  26  29
ENDBRANCH  25  26
ENDBRANCH  23  25
ENDBRANCH   1  23
BRANCH  16  37
HETATM   37  C25 UNL     1      -7.212  45.654 -19.184  1.00  0.00     0.181 C 
BRANCH  37  38
HETATM   38  O5  UNL     1      -8.140  45.197 -18.205  1.00  0.00    -0.400 OA
HETATM   39  H42 UNL     1      -7.924  44.269 -18.009  1.00  0.00     0.209 HD
ENDBRANCH  37  38
ENDBRANCH  16  37
TORSDOF 10
ENDMDL
