MODEL 1
REMARK minimizedAffinity -8.8161726
REMARK CNNscore 0.677256405
REMARK CNNaffinity 6.63701773
REMARK  4 active torsions:
REMARK  status: ('A' for Active; 'I' for Inactive)
REMARK    1  A    between atoms: C3_3  and  C4_4 
REMARK    2  A    between atoms: C4_4  and  O1_5 
REMARK    3  A    between atoms: C6_9  and  C7_10 
REMARK    4  A    between atoms: C7_10  and  C9_12 
ROOT
HETATM    1  C9  UNL     1       0.572  10.531  18.078  1.00  0.00     0.000 C 
HETATM    2  C10 UNL     1      -0.641  11.369  18.578  1.00  0.00     0.006 C 
HETATM    3  C11 UNL     1      -1.847  10.997  17.703  1.00  0.00     0.006 C 
HETATM    4  C12 UNL     1      -1.347   9.820  16.878  1.00  0.00    -0.001 C 
HETATM    5  C13 UNL     1      -2.115   9.437  15.605  1.00  0.00     0.000 C 
HETATM    6  C14 UNL     1      -3.622   9.253  15.845  1.00  0.00     0.010 C 
HETATM    7  C15 UNL     1      -4.360   8.926  14.547  1.00  0.00     0.036 C 
HETATM    8  C16 UNL     1      -3.723   7.780  13.794  1.00  0.00    -0.063 A 
HETATM    9  C17 UNL     1      -4.466   6.721  13.424  1.00  0.00     0.058 A 
HETATM   10  C18 UNL     1      -3.880   5.561  12.719  1.00  0.00     0.172 A 
HETATM   11  O4  UNL     1      -4.573   4.619  12.353  1.00  0.00    -0.289 OA
HETATM   12  C19 UNL     1      -2.426   5.577  12.482  1.00  0.00     0.052 A 
HETATM   13  C20 UNL     1      -1.680   6.627  12.849  1.00  0.00    -0.008 A 
HETATM   14  C21 UNL     1      -2.213   7.890  13.524  1.00  0.00     0.005 A 
HETATM   15  C22 UNL     1      -1.999   9.012  12.477  1.00  0.00     0.025 C 
HETATM   16  C23 UNL     1      -1.471   8.168  14.917  1.00  0.00    -0.025 C 
HETATM   17  C24 UNL     1      -1.618   6.902  15.827  1.00  0.00     0.017 C 
HETATM   18  C25 UNL     1       0.063   8.418  14.741  1.00  0.00     0.012 C 
HETATM   19  C26 UNL     1       0.794   8.904  16.012  1.00  0.00     0.011 C 
HETATM   20  C27 UNL     1       0.147  10.163  16.618  1.00  0.00    -0.036 C 
HETATM   21  C28 UNL     1       0.360  11.370  15.669  1.00  0.00     0.016 C 
ENDROOT
BRANCH   1  22
HETATM   22  C7  UNL     1       1.942  11.233  18.344  1.00  0.00     0.016 C 
HETATM   23  C8  UNL     1       3.009  10.758  17.343  1.00  0.00     0.013 C 
BRANCH  22  24
HETATM   24  C6  UNL     1       2.516  10.999  19.779  1.00  0.00     0.140 C 
HETATM   25  O3  UNL     1       2.042   9.742  20.292  1.00  0.00    -0.311 OA
HETATM   26  C5  UNL     1       2.311   9.385  21.572  1.00  0.00     0.292 C 
HETATM   27  C3  UNL     1       2.865  10.436  22.472  1.00  0.00     0.042 C 
HETATM   28  O2  UNL     1       2.089   8.247  21.966  1.00  0.00    -0.260 OA
HETATM   29  C2  UNL     1       2.799  11.738  22.113  1.00  0.00    -0.067 C 
HETATM   30  C1  UNL     1       3.265  12.888  22.961  1.00  0.00     0.044 C 
HETATM   31  C29 UNL     1       2.224  12.121  20.772  1.00  0.00     0.067 C 
BRANCH  27  32
HETATM   32  C4  UNL     1       3.467   9.920  23.748  1.00  0.00     0.209 C 
BRANCH  32  33
HETATM   33  O1  UNL     1       2.469   9.568  24.699  1.00  0.00    -0.396 OA
HETATM   34  H6  UNL     1       1.594   9.774  24.324  1.00  0.00     0.209 HD
ENDBRANCH  32  33
ENDBRANCH  27  32
ENDBRANCH  22  24
ENDBRANCH   1  22
TORSDOF 4
ENDMDL
MODEL 2
REMARK minimizedAffinity -7.20704222
REMARK CNNscore 0.635093033
REMARK CNNaffinity 6.6170516
REMARK  4 active torsions:
REMARK  status: ('A' for Active; 'I' for Inactive)
REMARK    1  A    between atoms: C3_3  and  C4_4 
REMARK    2  A    between atoms: C4_4  and  O1_5 
REMARK    3  A    between atoms: C6_9  and  C7_10 
REMARK    4  A    between atoms: C7_10  and  C9_12 
ROOT
HETATM    1  C9  UNL     1     -12.665 -10.819  27.138  1.00  0.00     0.000 C 
HETATM    2  C10 UNL     1     -13.438 -10.311  25.887  1.00  0.00     0.006 C 
HETATM    3  C11 UNL     1     -14.327  -9.143  26.340  1.00  0.00     0.006 C 
HETATM    4  C12 UNL     1     -13.885  -8.886  27.773  1.00  0.00    -0.001 C 
HETATM    5  C13 UNL     1     -14.812  -8.080  28.694  1.00  0.00     0.000 C 
HETATM    6  C14 UNL     1     -15.256  -6.743  28.078  1.00  0.00     0.010 C 
HETATM    7  C15 UNL     1     -16.219  -5.995  29.000  1.00  0.00     0.036 C 
HETATM    8  C16 UNL     1     -15.686  -5.864  30.408  1.00  0.00    -0.063 A 
HETATM    9  C17 UNL     1     -15.614  -4.655  30.993  1.00  0.00     0.058 A 
HETATM   10  C18 UNL     1     -15.067  -4.474  32.354  1.00  0.00     0.172 A 
HETATM   11  O4  UNL     1     -15.041  -3.373  32.892  1.00  0.00    -0.289 OA
HETATM   12  C19 UNL     1     -14.542  -5.669  33.038  1.00  0.00     0.052 A 
HETATM   13  C20 UNL     1     -14.608  -6.877  32.461  1.00  0.00    -0.008 A 
HETATM   14  C21 UNL     1     -15.214  -7.162  31.087  1.00  0.00     0.005 A 
HETATM   15  C22 UNL     1     -16.467  -8.024  31.383  1.00  0.00     0.025 C 
HETATM   16  C23 UNL     1     -14.159  -7.882  30.120  1.00  0.00    -0.025 C 
HETATM   17  C24 UNL     1     -12.873  -6.993  30.028  1.00  0.00     0.017 C 
HETATM   18  C25 UNL     1     -13.703  -9.277  30.660  1.00  0.00     0.012 C 
HETATM   19  C26 UNL     1     -12.858 -10.113  29.674  1.00  0.00     0.011 C 
HETATM   20  C27 UNL     1     -13.559 -10.306  28.316  1.00  0.00    -0.036 C 
HETATM   21  C28 UNL     1     -14.802 -11.214  28.491  1.00  0.00     0.016 C 
ENDROOT
BRANCH   1  22
HETATM   22  C7  UNL     1     -12.287 -12.332  27.041  1.00  0.00     0.016 C 
HETATM   23  C8  UNL     1     -12.302 -12.995  28.429  1.00  0.00     0.013 C 
BRANCH  22  24
HETATM   24  C6  UNL     1     -10.882 -12.604  26.413  1.00  0.00     0.140 C 
HETATM   25  O3  UNL     1     -10.984 -12.600  24.978  1.00  0.00    -0.311 OA
HETATM   26  C5  UNL     1      -9.912 -12.939  24.220  1.00  0.00     0.292 C 
HETATM   27  C3  UNL     1      -8.748 -13.557  24.918  1.00  0.00     0.042 C 
HETATM   28  O2  UNL     1      -9.916 -12.755  23.009  1.00  0.00    -0.260 OA
HETATM   29  C2  UNL     1      -8.890 -14.037  26.175  1.00  0.00    -0.067 C 
HETATM   30  C1  UNL     1      -7.812 -14.734  26.955  1.00  0.00     0.044 C 
HETATM   31  C29 UNL     1     -10.208 -13.888  26.893  1.00  0.00     0.067 C 
BRANCH  27  32
HETATM   32  C4  UNL     1      -7.477 -13.587  24.119  1.00  0.00     0.209 C 
BRANCH  32  33
HETATM   33  O1  UNL     1      -6.777 -14.815  24.285  1.00  0.00    -0.396 OA
HETATM   34  H6  UNL     1      -7.265 -15.368  24.922  1.00  0.00     0.209 HD
ENDBRANCH  32  33
ENDBRANCH  27  32
ENDBRANCH  22  24
ENDBRANCH   1  22
TORSDOF 4
ENDMDL
MODEL 3
REMARK minimizedAffinity -9.95831203
REMARK CNNscore 0.586412072
REMARK CNNaffinity 7.09141731
REMARK  4 active torsions:
REMARK  status: ('A' for Active; 'I' for Inactive)
REMARK    1  A    between atoms: C3_3  and  C4_4 
REMARK    2  A    between atoms: C4_4  and  O1_5 
REMARK    3  A    between atoms: C6_9  and  C7_10 
REMARK    4  A    between atoms: C7_10  and  C9_12 
ROOT
HETATM    1  C9  UNL     1      -1.525   5.941  12.909  1.00  0.00     0.000 C 
HETATM    2  C10 UNL     1      -1.807   4.613  12.148  1.00  0.00     0.006 C 
HETATM    3  C11 UNL     1      -3.302   4.300  12.312  1.00  0.00     0.006 C 
HETATM    4  C12 UNL     1      -3.863   5.550  12.974  1.00  0.00    -0.001 C 
HETATM    5  C13 UNL     1      -5.229   5.461  13.670  1.00  0.00     0.000 C 
HETATM    6  C14 UNL     1      -6.322   4.856  12.774  1.00  0.00     0.010 C 
HETATM    7  C15 UNL     1      -7.652   4.734  13.518  1.00  0.00     0.036 C 
HETATM    8  C16 UNL     1      -8.062   6.028  14.183  1.00  0.00    -0.063 A 
HETATM    9  C17 UNL     1      -9.277   6.553  13.944  1.00  0.00     0.058 A 
HETATM   10  C18 UNL     1      -9.709   7.835  14.542  1.00  0.00     0.172 A 
HETATM   11  O4  UNL     1     -10.833   8.285  14.349  1.00  0.00    -0.289 OA
HETATM   12  C19 UNL     1      -8.731   8.557  15.375  1.00  0.00     0.052 A 
HETATM   13  C20 UNL     1      -7.518   8.041  15.615  1.00  0.00    -0.008 A 
HETATM   14  C21 UNL     1      -7.014   6.697  15.089  1.00  0.00     0.005 A 
HETATM   15  C22 UNL     1      -6.853   5.818  16.355  1.00  0.00     0.025 C 
HETATM   16  C23 UNL     1      -5.659   6.866  14.253  1.00  0.00    -0.025 C 
HETATM   17  C24 UNL     1      -5.902   7.899  13.102  1.00  0.00     0.017 C 
HETATM   18  C25 UNL     1      -4.484   7.428  15.120  1.00  0.00     0.012 C 
HETATM   19  C26 UNL     1      -3.101   7.410  14.434  1.00  0.00     0.011 C 
HETATM   20  C27 UNL     1      -2.718   6.010  13.919  1.00  0.00    -0.036 C 
HETATM   21  C28 UNL     1      -2.471   5.060  15.118  1.00  0.00     0.016 C 
ENDROOT
BRANCH   1  22
HETATM   22  C7  UNL     1      -0.053   6.041  13.424  1.00  0.00     0.016 C 
HETATM   23  C8  UNL     1       0.073   7.099  14.533  1.00  0.00     0.013 C 
BRANCH  22  24
HETATM   24  C6  UNL     1       0.992   6.401  12.319  1.00  0.00     0.140 C 
HETATM   25  O3  UNL     1       2.194   6.896  12.931  1.00  0.00    -0.311 OA
HETATM   26  C5  UNL     1       3.197   7.390  12.162  1.00  0.00     0.292 C 
HETATM   27  C3  UNL     1       2.895   7.637  10.723  1.00  0.00     0.042 C 
HETATM   28  O2  UNL     1       4.296   7.633  12.643  1.00  0.00    -0.260 OA
HETATM   29  C2  UNL     1       1.611   7.666  10.296  1.00  0.00    -0.067 C 
HETATM   30  C1  UNL     1       1.181   7.967   8.888  1.00  0.00     0.044 C 
HETATM   31  C29 UNL     1       0.489   7.384  11.264  1.00  0.00     0.067 C 
BRANCH  27  32
HETATM   32  C4  UNL     1       4.100   7.839   9.852  1.00  0.00     0.209 C 
BRANCH  32  33
HETATM   33  O1  UNL     1       5.111   6.872  10.114  1.00  0.00    -0.396 OA
HETATM   34  H6  UNL     1       4.811   6.297  10.841  1.00  0.00     0.209 HD
ENDBRANCH  32  33
ENDBRANCH  27  32
ENDBRANCH  22  24
ENDBRANCH   1  22
TORSDOF 4
ENDMDL
MODEL 4
REMARK minimizedAffinity -8.43296242
REMARK CNNscore 0.455116451
REMARK CNNaffinity 7.02951288
REMARK  4 active torsions:
REMARK  status: ('A' for Active; 'I' for Inactive)
REMARK    1  A    between atoms: C3_3  and  C4_4 
REMARK    2  A    between atoms: C4_4  and  O1_5 
REMARK    3  A    between atoms: C6_9  and  C7_10 
REMARK    4  A    between atoms: C7_10  and  C9_12 
ROOT
HETATM    1  C9  UNL     1      -8.349   7.203  13.793  1.00  0.00     0.000 C 
HETATM    2  C10 UNL     1      -9.397   6.183  13.261  1.00  0.00     0.006 C 
HETATM    3  C11 UNL     1     -10.785   6.694  13.675  1.00  0.00     0.006 C 
HETATM    4  C12 UNL     1     -10.508   8.078  14.241  1.00  0.00    -0.001 C 
HETATM    5  C13 UNL     1     -11.574   8.735  15.130  1.00  0.00     0.000 C 
HETATM    6  C14 UNL     1     -12.969   8.747  14.485  1.00  0.00     0.010 C 
HETATM    7  C15 UNL     1     -14.013   9.359  15.420  1.00  0.00     0.036 C 
HETATM    8  C16 UNL     1     -13.585  10.704  15.961  1.00  0.00    -0.063 A 
HETATM    9  C17 UNL     1     -14.393  11.771  15.831  1.00  0.00     0.058 A 
HETATM   10  C18 UNL     1     -14.002  13.114  16.312  1.00  0.00     0.172 A 
HETATM   11  O4  UNL     1     -14.762  14.071  16.223  1.00  0.00    -0.289 OA
HETATM   12  C19 UNL     1     -12.657  13.259  16.895  1.00  0.00     0.052 A 
HETATM   13  C20 UNL     1     -11.845  12.201  17.026  1.00  0.00    -0.008 A 
HETATM   14  C21 UNL     1     -12.193  10.771  16.614  1.00  0.00     0.005 A 
HETATM   15  C22 UNL     1     -12.258   9.985  17.948  1.00  0.00     0.025 C 
HETATM   16  C23 UNL     1     -11.122  10.182  15.579  1.00  0.00    -0.025 C 
HETATM   17  C24 UNL     1     -11.028  11.146  14.349  1.00  0.00     0.017 C 
HETATM   18  C25 UNL     1      -9.685  10.090  16.189  1.00  0.00     0.012 C 
HETATM   19  C26 UNL     1      -8.656   9.333  15.321  1.00  0.00     0.011 C 
HETATM   20  C27 UNL     1      -9.131   7.917  14.945  1.00  0.00    -0.036 C 
HETATM   21  C28 UNL     1      -9.171   7.024  16.211  1.00  0.00     0.016 C 
ENDROOT
BRANCH   1  22
HETATM   22  C7  UNL     1      -6.959   6.548  14.076  1.00  0.00     0.016 C 
HETATM   23  C8  UNL     1      -5.830   7.588  13.981  1.00  0.00     0.013 C 
BRANCH  22  24
HETATM   24  C6  UNL     1      -6.592   5.375  13.110  1.00  0.00     0.140 C 
HETATM   25  O3  UNL     1      -7.342   4.201  13.466  1.00  0.00    -0.311 OA
HETATM   26  C5  UNL     1      -7.096   3.022  12.843  1.00  0.00     0.292 C 
HETATM   27  C3  UNL     1      -5.871   2.939  11.997  1.00  0.00     0.042 C 
HETATM   28  O2  UNL     1      -7.846   2.066  12.989  1.00  0.00    -0.260 OA
HETATM   29  C2  UNL     1      -4.907   3.882  12.108  1.00  0.00    -0.067 C 
HETATM   30  C1  UNL     1      -3.605   3.872  11.357  1.00  0.00     0.044 C 
HETATM   31  C29 UNL     1      -5.101   5.052  13.039  1.00  0.00     0.067 C 
BRANCH  27  32
HETATM   32  C4  UNL     1      -5.827   1.763  11.066  1.00  0.00     0.209 C 
BRANCH  32  33
HETATM   33  O1  UNL     1      -4.748   0.887  11.370  1.00  0.00    -0.396 OA
HETATM   34  H6  UNL     1      -4.239   1.265  12.110  1.00  0.00     0.209 HD
ENDBRANCH  32  33
ENDBRANCH  27  32
ENDBRANCH  22  24
ENDBRANCH   1  22
TORSDOF 4
ENDMDL
MODEL 5
REMARK minimizedAffinity -7.70235682
REMARK CNNscore 0.424090117
REMARK CNNaffinity 6.37049055
REMARK  4 active torsions:
REMARK  status: ('A' for Active; 'I' for Inactive)
REMARK    1  A    between atoms: C3_3  and  C4_4 
REMARK    2  A    between atoms: C4_4  and  O1_5 
REMARK    3  A    between atoms: C6_9  and  C7_10 
REMARK    4  A    between atoms: C7_10  and  C9_12 
ROOT
HETATM    1  C9  UNL     1     -14.065   5.591  22.870  1.00  0.00     0.000 C 
HETATM    2  C10 UNL     1     -14.259   5.546  21.327  1.00  0.00     0.006 C 
HETATM    3  C11 UNL     1     -13.742   6.877  20.761  1.00  0.00     0.006 C 
HETATM    4  C12 UNL     1     -13.083   7.548  21.957  1.00  0.00    -0.001 C 
HETATM    5  C13 UNL     1     -12.817   9.059  21.896  1.00  0.00     0.000 C 
HETATM    6  C14 UNL     1     -12.062   9.485  20.627  1.00  0.00     0.010 C 
HETATM    7  C15 UNL     1     -11.863  11.000  20.576  1.00  0.00     0.036 C 
HETATM    8  C16 UNL     1     -11.260  11.546  21.851  1.00  0.00    -0.063 A 
HETATM    9  C17 UNL     1     -10.152  12.306  21.801  1.00  0.00     0.058 A 
HETATM   10  C18 UNL     1      -9.506  12.832  23.023  1.00  0.00     0.172 A 
HETATM   11  O4  UNL     1      -8.519  13.555  22.964  1.00  0.00    -0.289 OA
HETATM   12  C19 UNL     1     -10.092  12.444  24.318  1.00  0.00     0.052 A 
HETATM   13  C20 UNL     1     -11.194  11.685  24.376  1.00  0.00    -0.008 A 
HETATM   14  C21 UNL     1     -11.959  11.153  23.164  1.00  0.00     0.005 A 
HETATM   15  C22 UNL     1     -13.324  11.885  23.211  1.00  0.00     0.025 C 
HETATM   16  C23 UNL     1     -12.089   9.558  23.208  1.00  0.00    -0.025 C 
HETATM   17  C24 UNL     1     -10.656   8.938  23.323  1.00  0.00     0.017 C 
HETATM   18  C25 UNL     1     -12.897   9.055  24.450  1.00  0.00     0.012 C 
HETATM   19  C26 UNL     1     -13.243   7.550  24.436  1.00  0.00     0.011 C 
HETATM   20  C27 UNL     1     -13.983   7.127  23.154  1.00  0.00    -0.036 C 
HETATM   21  C28 UNL     1     -15.397   7.761  23.132  1.00  0.00     0.016 C 
ENDROOT
BRANCH   1  22
HETATM   22  C7  UNL     1     -15.101   4.706  23.635  1.00  0.00     0.016 C 
HETATM   23  C8  UNL     1     -16.098   5.575  24.419  1.00  0.00     0.013 C 
BRANCH  22  24
HETATM   24  C6  UNL     1     -14.463   3.702  24.650  1.00  0.00     0.140 C 
HETATM   25  O3  UNL     1     -14.508   4.258  25.975  1.00  0.00    -0.311 OA
HETATM   26  C5  UNL     1     -13.898   3.618  27.003  1.00  0.00     0.292 C 
HETATM   27  C3  UNL     1     -12.981   2.493  26.659  1.00  0.00     0.042 C 
HETATM   28  O2  UNL     1     -14.086   3.967  28.161  1.00  0.00    -0.260 OA
HETATM   29  C2  UNL     1     -12.546   2.339  25.387  1.00  0.00    -0.067 C 
HETATM   30  C1  UNL     1     -11.576   1.286  24.933  1.00  0.00     0.044 C 
HETATM   31  C29 UNL     1     -13.041   3.266  24.305  1.00  0.00     0.067 C 
BRANCH  27  32
HETATM   32  C4  UNL     1     -12.614   1.604  27.812  1.00  0.00     0.209 C 
BRANCH  32  33
HETATM   33  O1  UNL     1     -13.757   1.218  28.567  1.00  0.00    -0.396 OA
HETATM   34  H6  UNL     1     -14.543   1.651  28.186  1.00  0.00     0.209 HD
ENDBRANCH  32  33
ENDBRANCH  27  32
ENDBRANCH  22  24
ENDBRANCH   1  22
TORSDOF 4
ENDMDL
MODEL 6
REMARK minimizedAffinity -7.51121378
REMARK CNNscore 0.384438604
REMARK CNNaffinity 5.53175688
REMARK  4 active torsions:
REMARK  status: ('A' for Active; 'I' for Inactive)
REMARK    1  A    between atoms: C3_3  and  C4_4 
REMARK    2  A    between atoms: C4_4  and  O1_5 
REMARK    3  A    between atoms: C6_9  and  C7_10 
REMARK    4  A    between atoms: C7_10  and  C9_12 
ROOT
HETATM    1  C9  UNL     1      -6.024 -10.157   8.137  1.00  0.00     0.000 C 
HETATM    2  C10 UNL     1      -7.070  -9.199   7.497  1.00  0.00     0.006 C 
HETATM    3  C11 UNL     1      -6.858  -9.239   5.976  1.00  0.00     0.006 C 
HETATM    4  C12 UNL     1      -5.851 -10.363   5.781  1.00  0.00    -0.001 C 
HETATM    5  C13 UNL     1      -5.081 -10.435   4.454  1.00  0.00     0.000 C 
HETATM    6  C14 UNL     1      -5.999 -10.390   3.223  1.00  0.00     0.010 C 
HETATM    7  C15 UNL     1      -5.194 -10.409   1.923  1.00  0.00     0.036 C 
HETATM    8  C16 UNL     1      -4.187 -11.536   1.885  1.00  0.00    -0.063 A 
HETATM    9  C17 UNL     1      -4.174 -12.393   0.849  1.00  0.00     0.058 A 
HETATM   10  C18 UNL     1      -3.231 -13.531   0.785  1.00  0.00     0.172 A 
HETATM   11  O4  UNL     1      -3.202 -14.284  -0.182  1.00  0.00    -0.289 OA
HETATM   12  C19 UNL     1      -2.334 -13.732   1.937  1.00  0.00     0.052 A 
HETATM   13  C20 UNL     1      -2.344 -12.883   2.973  1.00  0.00    -0.008 A 
HETATM   14  C21 UNL     1      -3.238 -11.650   3.091  1.00  0.00     0.005 A 
HETATM   15  C22 UNL     1      -2.258 -10.450   3.037  1.00  0.00     0.025 C 
HETATM   16  C23 UNL     1      -4.122 -11.692   4.426  1.00  0.00    -0.025 C 
HETATM   17  C24 UNL     1      -4.944 -13.024   4.443  1.00  0.00     0.017 C 
HETATM   18  C25 UNL     1      -3.249 -11.686   5.724  1.00  0.00     0.012 C 
HETATM   19  C26 UNL     1      -4.040 -11.506   7.039  1.00  0.00     0.011 C 
HETATM   20  C27 UNL     1      -4.927 -10.248   7.026  1.00  0.00    -0.036 C 
HETATM   21  C28 UNL     1      -4.037  -8.979   7.035  1.00  0.00     0.016 C 
ENDROOT
BRANCH   1  22
HETATM   22  C7  UNL     1      -5.635  -9.741   9.592  1.00  0.00     0.016 C 
HETATM   23  C8  UNL     1      -4.234 -10.258   9.958  1.00  0.00     0.013 C 
BRANCH  22  24
HETATM   24  C6  UNL     1      -6.620 -10.254  10.692  1.00  0.00     0.140 C 
HETATM   25  O3  UNL     1      -7.237  -9.134  11.351  1.00  0.00    -0.311 OA
HETATM   26  C5  UNL     1      -8.037  -9.334  12.427  1.00  0.00     0.292 C 
HETATM   27  C3  UNL     1      -8.030 -10.693  13.041  1.00  0.00     0.042 C 
HETATM   28  O2  UNL     1      -8.721  -8.425  12.879  1.00  0.00    -0.260 OA
HETATM   29  C2  UNL     1      -7.046 -11.569  12.733  1.00  0.00    -0.067 C 
HETATM   30  C1  UNL     1      -6.897 -12.939  13.332  1.00  0.00     0.044 C 
HETATM   31  C29 UNL     1      -5.994 -11.194  11.720  1.00  0.00     0.067 C 
BRANCH  27  32
HETATM   32  C4  UNL     1      -9.166 -10.965  13.984  1.00  0.00     0.209 C 
BRANCH  32  33
HETATM   33  O1  UNL     1      -9.182 -10.048  15.072  1.00  0.00    -0.396 OA
HETATM   34  H6  UNL     1      -8.416  -9.452  14.988  1.00  0.00     0.209 HD
ENDBRANCH  32  33
ENDBRANCH  27  32
ENDBRANCH  22  24
ENDBRANCH   1  22
TORSDOF 4
ENDMDL
MODEL 7
REMARK minimizedAffinity -8.52361679
REMARK CNNscore 0.339398146
REMARK CNNaffinity 6.50470781
REMARK  4 active torsions:
REMARK  status: ('A' for Active; 'I' for Inactive)
REMARK    1  A    between atoms: C3_3  and  C4_4 
REMARK    2  A    between atoms: C4_4  and  O1_5 
REMARK    3  A    between atoms: C6_9  and  C7_10 
REMARK    4  A    between atoms: C7_10  and  C9_12 
ROOT
HETATM    1  C9  UNL     1      -1.195   8.060  13.195  1.00  0.00     0.000 C 
HETATM    2  C10 UNL     1      -2.638   8.248  12.643  1.00  0.00     0.006 C 
HETATM    3  C11 UNL     1      -3.375   9.196  13.600  1.00  0.00     0.006 C 
HETATM    4  C12 UNL     1      -2.283   9.680  14.543  1.00  0.00    -0.001 C 
HETATM    5  C13 UNL     1      -2.695  10.311  15.881  1.00  0.00     0.000 C 
HETATM    6  C14 UNL     1      -3.729  11.437  15.721  1.00  0.00     0.010 C 
HETATM    7  C15 UNL     1      -4.155  12.003  17.076  1.00  0.00     0.036 C 
HETATM    8  C16 UNL     1      -2.973  12.385  17.938  1.00  0.00    -0.063 A 
HETATM    9  C17 UNL     1      -2.893  13.622  18.461  1.00  0.00     0.058 A 
HETATM   10  C18 UNL     1      -1.739  14.053  19.280  1.00  0.00     0.172 A 
HETATM   11  O4  UNL     1      -1.694  15.169  19.784  1.00  0.00    -0.289 OA
HETATM   12  C19 UNL     1      -0.639  13.089  19.460  1.00  0.00     0.052 A 
HETATM   13  C20 UNL     1      -0.712  11.856  18.940  1.00  0.00    -0.008 A 
HETATM   14  C21 UNL     1      -1.891  11.310  18.136  1.00  0.00     0.005 A 
HETATM   15  C22 UNL     1      -2.490  10.195  19.030  1.00  0.00     0.025 C 
HETATM   16  C23 UNL     1      -1.427  10.790  16.694  1.00  0.00    -0.025 C 
HETATM   17  C24 UNL     1      -0.693  11.957  15.951  1.00  0.00     0.017 C 
HETATM   18  C25 UNL     1      -0.411   9.604  16.781  1.00  0.00     0.012 C 
HETATM   19  C26 UNL     1      -0.093   8.918  15.434  1.00  0.00     0.011 C 
HETATM   20  C27 UNL     1      -1.361   8.438  14.704  1.00  0.00    -0.036 C 
HETATM   21  C28 UNL     1      -2.009   7.271  15.490  1.00  0.00     0.016 C 
ENDROOT
BRANCH   1  22
HETATM   22  C7  UNL     1      -0.570   6.684  12.795  1.00  0.00     0.016 C 
HETATM   23  C8  UNL     1       0.163   6.782  11.447  1.00  0.00     0.013 C 
BRANCH  22  24
HETATM   24  C6  UNL     1      -1.605   5.519  12.676  1.00  0.00     0.140 C 
HETATM   25  O3  UNL     1      -1.361   4.774  11.471  1.00  0.00    -0.311 OA
HETATM   26  C5  UNL     1      -2.214   3.791  11.093  1.00  0.00     0.292 C 
HETATM   27  C3  UNL     1      -3.516   3.703  11.814  1.00  0.00     0.042 C 
HETATM   28  O2  UNL     1      -1.924   3.021  10.186  1.00  0.00    -0.260 OA
HETATM   29  C2  UNL     1      -3.941   4.739  12.573  1.00  0.00    -0.067 C 
HETATM   30  C1  UNL     1      -5.259   4.793  13.293  1.00  0.00     0.044 C 
HETATM   31  C29 UNL     1      -3.067   5.956  12.742  1.00  0.00     0.067 C 
BRANCH  27  32
HETATM   32  C4  UNL     1      -4.261   2.415  11.615  1.00  0.00     0.209 C 
BRANCH  32  33
HETATM   33  O1  UNL     1      -5.054   2.439  10.433  1.00  0.00    -0.396 OA
HETATM   34  H6  UNL     1      -4.968   3.317  10.019  1.00  0.00     0.209 HD
ENDBRANCH  32  33
ENDBRANCH  27  32
ENDBRANCH  22  24
ENDBRANCH   1  22
TORSDOF 4
ENDMDL
MODEL 8
REMARK minimizedAffinity -9.6368227
REMARK CNNscore 0.325205326
REMARK CNNaffinity 6.83302116
REMARK  4 active torsions:
REMARK  status: ('A' for Active; 'I' for Inactive)
REMARK    1  A    between atoms: C3_3  and  C4_4 
REMARK    2  A    between atoms: C4_4  and  O1_5 
REMARK    3  A    between atoms: C6_9  and  C7_10 
REMARK    4  A    between atoms: C7_10  and  C9_12 
ROOT
HETATM    1  C9  UNL     1      -4.834   7.779  13.868  1.00  0.00     0.000 C 
HETATM    2  C10 UNL     1      -5.014   9.118  14.641  1.00  0.00     0.006 C 
HETATM    3  C11 UNL     1      -3.618   9.730  14.828  1.00  0.00     0.006 C 
HETATM    4  C12 UNL     1      -2.716   8.841  13.984  1.00  0.00    -0.001 C 
HETATM    5  C13 UNL     1      -1.203   8.877  14.240  1.00  0.00     0.000 C 
HETATM    6  C14 UNL     1      -0.625  10.301  14.227  1.00  0.00     0.010 C 
HETATM    7  C15 UNL     1       0.872  10.301  14.539  1.00  0.00     0.036 C 
HETATM    8  C16 UNL     1       1.641   9.329  13.673  1.00  0.00    -0.063 A 
HETATM    9  C17 UNL     1       2.706   9.751  12.968  1.00  0.00     0.058 A 
HETATM   10  C18 UNL     1       3.467   8.845  12.081  1.00  0.00     0.172 A 
HETATM   11  O4  UNL     1       4.459   9.231  11.473  1.00  0.00    -0.289 OA
HETATM   12  C19 UNL     1       2.980   7.461  11.948  1.00  0.00     0.052 A 
HETATM   13  C20 UNL     1       1.919   7.035  12.645  1.00  0.00    -0.008 A 
HETATM   14  C21 UNL     1       1.115   7.884  13.630  1.00  0.00     0.005 A 
HETATM   15  C22 UNL     1       1.385   7.239  15.013  1.00  0.00     0.025 C 
HETATM   16  C23 UNL     1      -0.437   7.924  13.237  1.00  0.00    -0.025 C 
HETATM   17  C24 UNL     1      -0.571   8.438  11.764  1.00  0.00     0.017 C 
HETATM   18  C25 UNL     1      -1.105   6.510  13.282  1.00  0.00     0.012 C 
HETATM   19  C26 UNL     1      -2.642   6.510  13.127  1.00  0.00     0.011 C 
HETATM   20  C27 UNL     1      -3.337   7.425  14.152  1.00  0.00    -0.036 C 
HETATM   21  C28 UNL     1      -3.179   6.833  15.575  1.00  0.00     0.016 C 
ENDROOT
BRANCH   1  22
HETATM   22  C7  UNL     1      -5.960   6.743  14.185  1.00  0.00     0.016 C 
HETATM   23  C8  UNL     1      -5.844   6.227  15.629  1.00  0.00     0.013 C 
BRANCH  22  24
HETATM   24  C6  UNL     1      -5.966   5.494  13.245  1.00  0.00     0.140 C 
HETATM   25  O3  UNL     1      -7.181   4.748  13.438  1.00  0.00    -0.311 OA
HETATM   26  C5  UNL     1      -7.352   3.554  12.819  1.00  0.00     0.292 C 
HETATM   27  C3  UNL     1      -6.156   2.944  12.170  1.00  0.00     0.042 C 
HETATM   28  O2  UNL     1      -8.444   3.001  12.812  1.00  0.00    -0.260 OA
HETATM   29  C2  UNL     1      -4.918   3.404  12.463  1.00  0.00    -0.067 C 
HETATM   30  C1  UNL     1      -3.639   2.831  11.923  1.00  0.00     0.044 C 
HETATM   31  C29 UNL     1      -4.753   4.578  13.394  1.00  0.00     0.067 C 
BRANCH  27  32
HETATM   32  C4  UNL     1      -6.459   1.826  11.214  1.00  0.00     0.209 C 
BRANCH  32  33
HETATM   33  O1  UNL     1      -5.392   0.887  11.143  1.00  0.00    -0.396 OA
HETATM   34  H6  UNL     1      -4.666   1.196  11.714  1.00  0.00     0.209 HD
ENDBRANCH  32  33
ENDBRANCH  27  32
ENDBRANCH  22  24
ENDBRANCH   1  22
TORSDOF 4
ENDMDL
MODEL 9
REMARK minimizedAffinity -7.88323927
REMARK CNNscore 0.308390856
REMARK CNNaffinity 6.90464067
REMARK  4 active torsions:
REMARK  status: ('A' for Active; 'I' for Inactive)
REMARK    1  A    between atoms: C3_3  and  C4_4 
REMARK    2  A    between atoms: C4_4  and  O1_5 
REMARK    3  A    between atoms: C6_9  and  C7_10 
REMARK    4  A    between atoms: C7_10  and  C9_12 
ROOT
HETATM    1  C9  UNL     1      -7.554   6.245  15.473  1.00  0.00     0.000 C 
HETATM    2  C10 UNL     1      -7.507   6.898  16.885  1.00  0.00     0.006 C 
HETATM    3  C11 UNL     1      -8.796   7.715  17.055  1.00  0.00     0.006 C 
HETATM    4  C12 UNL     1      -9.626   7.341  15.836  1.00  0.00    -0.001 C 
HETATM    5  C13 UNL     1     -10.793   8.254  15.435  1.00  0.00     0.000 C 
HETATM    6  C14 UNL     1     -11.751   8.551  16.600  1.00  0.00     0.010 C 
HETATM    7  C15 UNL     1     -12.868   9.505  16.176  1.00  0.00     0.036 C 
HETATM    8  C16 UNL     1     -13.570   9.049  14.917  1.00  0.00    -0.063 A 
HETATM    9  C17 UNL     1     -14.908   8.916  14.902  1.00  0.00     0.058 A 
HETATM   10  C18 UNL     1     -15.635   8.439  13.705  1.00  0.00     0.172 A 
HETATM   11  O4  UNL     1     -16.858   8.358  13.690  1.00  0.00    -0.289 OA
HETATM   12  C19 UNL     1     -14.829   8.054  12.533  1.00  0.00     0.052 A 
HETATM   13  C20 UNL     1     -13.496   8.182  12.542  1.00  0.00    -0.008 A 
HETATM   14  C21 UNL     1     -12.673   8.725  13.710  1.00  0.00     0.005 A 
HETATM   15  C22 UNL     1     -12.083  10.059  13.186  1.00  0.00     0.025 C 
HETATM   16  C23 UNL     1     -11.558   7.675  14.178  1.00  0.00    -0.025 C 
HETATM   17  C24 UNL     1     -12.258   6.318  14.526  1.00  0.00     0.017 C 
HETATM   18  C25 UNL     1     -10.514   7.366  13.055  1.00  0.00     0.012 C 
HETATM   19  C26 UNL     1      -9.295   6.533  13.510  1.00  0.00     0.011 C 
HETATM   20  C27 UNL     1      -8.567   7.164  14.712  1.00  0.00    -0.036 C 
HETATM   21  C28 UNL     1      -7.883   8.484  14.277  1.00  0.00     0.016 C 
ENDROOT
BRANCH   1  22
HETATM   22  C7  UNL     1      -6.132   5.985  14.880  1.00  0.00     0.016 C 
HETATM   23  C8  UNL     1      -5.447   7.305  14.488  1.00  0.00     0.013 C 
BRANCH  22  24
HETATM   24  C6  UNL     1      -6.121   5.064  13.617  1.00  0.00     0.140 C 
HETATM   25  O3  UNL     1      -6.996   3.943  13.826  1.00  0.00    -0.311 OA
HETATM   26  C5  UNL     1      -7.051   2.943  12.912  1.00  0.00     0.292 C 
HETATM   27  C3  UNL     1      -6.002   2.926  11.854  1.00  0.00     0.042 C 
HETATM   28  O2  UNL     1      -7.922   2.084  12.972  1.00  0.00    -0.260 OA
HETATM   29  C2  UNL     1      -4.886   3.678  11.994  1.00  0.00    -0.067 C 
HETATM   30  C1  UNL     1      -3.735   3.697  11.029  1.00  0.00     0.044 C 
HETATM   31  C29 UNL     1      -4.735   4.583  13.191  1.00  0.00     0.067 C 
BRANCH  27  32
HETATM   32  C4  UNL     1      -6.300   2.034  10.684  1.00  0.00     0.209 C 
BRANCH  32  33
HETATM   33  O1  UNL     1      -6.506   0.685  11.086  1.00  0.00    -0.396 OA
HETATM   34  H6  UNL     1      -6.371   0.623  12.049  1.00  0.00     0.209 HD
ENDBRANCH  32  33
ENDBRANCH  27  32
ENDBRANCH  22  24
ENDBRANCH   1  22
TORSDOF 4
ENDMDL
