MODEL 1
REMARK minimizedAffinity -9.72060966
REMARK CNNscore 0.625922501
REMARK CNNaffinity 7.3093667
REMARK  9 active torsions:
REMARK  status: ('A' for Active; 'I' for Inactive)
REMARK    1  A    between atoms: C4_4  and  C5_5 
REMARK    2  A    between atoms: C7_7  and  O1_9 
REMARK    3  A    between atoms: C20_21  and  O2_22 
REMARK    4  A    between atoms: O2_22  and  C21_23 
REMARK    5  A    between atoms: C22_25  and  C23_26 
REMARK    6  A    between atoms: C23_26  and  O4_27 
REMARK    7  A    between atoms: C24_28  and  O5_29 
REMARK    8  A    between atoms: C25_30  and  O6_31 
REMARK    9  A    between atoms: C26_32  and  O7_33 
ROOT
HETATM    1  C5  UNL     1      -0.882  51.240 -25.713  1.00  0.00     0.147 C 
HETATM    2  C6  UNL     1      -1.545  50.060 -26.462  1.00  0.00     0.074 C 
HETATM    3  C7  UNL     1      -3.003  49.799 -26.019  1.00  0.00     0.064 C 
HETATM    4  C8  UNL     1      -3.521  48.511 -26.664  1.00  0.00     0.046 C 
HETATM    5  C9  UNL     1      -2.995  49.742 -24.483  1.00  0.00     0.058 C 
HETATM    6  C10 UNL     1      -2.443  51.094 -23.972  1.00  0.00     0.131 C 
HETATM    7  C11 UNL     1      -2.790  51.170 -22.470  1.00  0.00     0.042 C 
HETATM    8  C12 UNL     1      -3.564  49.855 -22.167  1.00  0.00    -0.029 C 
HETATM    9  C13 UNL     1      -2.447  48.849 -21.731  1.00  0.00     0.016 C 
HETATM   10  C14 UNL     1      -4.700  49.954 -21.106  1.00  0.00     0.014 C 
HETATM   11  C15 UNL     1      -4.245  50.452 -19.724  1.00  0.00     0.034 C 
HETATM   12  C16 UNL     1      -4.036  49.388 -18.685  1.00  0.00    -0.022 C 
HETATM   13  C17 UNL     1      -4.310  48.078 -18.820  1.00  0.00    -0.059 C 
HETATM   14  C18 UNL     1      -4.956  47.535 -20.101  1.00  0.00     0.057 C 
HETATM   15  C19 UNL     1      -5.911  46.389 -19.802  1.00  0.00     0.024 C 
HETATM   16  C20 UNL     1      -6.138  45.814 -18.607  1.00  0.00     0.116 C 
HETATM   17  C27 UNL     1      -5.356  46.320 -17.430  1.00  0.00     0.194 C 
HETATM   18  O8  UNL     1      -5.766  46.079 -16.289  1.00  0.00    -0.289 OA
HETATM   19  C28 UNL     1      -4.031  47.046 -17.709  1.00  0.00     0.044 C 
HETATM   20  C29 UNL     1      -3.540  47.667 -16.384  1.00  0.00     0.028 C 
HETATM   21  C30 UNL     1      -2.975  46.018 -18.153  1.00  0.00     0.028 C 
HETATM   22  C31 UNL     1      -5.595  48.653 -21.013  1.00  0.00     0.032 C 
HETATM   23  C32 UNL     1      -6.975  49.093 -20.438  1.00  0.00     0.025 C 
HETATM   24  C33 UNL     1      -5.867  48.035 -22.419  1.00  0.00     0.137 C 
HETATM   25  O9  UNL     1      -6.899  47.394 -22.646  1.00  0.00    -0.297 OA
HETATM   26  C34 UNL     1      -4.814  48.131 -23.521  1.00  0.00     0.089 C 
HETATM   27  C35 UNL     1      -4.223  49.536 -23.574  1.00  0.00    -0.021 C 
HETATM   28  C36 UNL     1      -5.375  50.502 -23.996  1.00  0.00     0.017 C 
HETATM   29  O10 UNL     1      -1.057  51.137 -24.283  1.00  0.00    -0.376 OA
ENDROOT
BRANCH  16  30
HETATM   30  O2  UNL     1      -7.019  44.801 -18.334  1.00  0.00    -0.314 OA
BRANCH  30  31
HETATM   31  C21 UNL     1      -8.011  44.402 -19.277  1.00  0.00     0.298 C 
HETATM   32  O3  UNL     1      -8.473  43.076 -18.981  1.00  0.00    -0.348 OA
HETATM   33  C22 UNL     1      -7.450  42.066 -18.968  1.00  0.00     0.179 C 
HETATM   34  C24 UNL     1      -6.301  42.346 -19.954  1.00  0.00     0.180 C 
HETATM   35  C25 UNL     1      -6.864  43.124 -21.142  1.00  0.00     0.183 C 
HETATM   36  C26 UNL     1      -7.385  44.486 -20.693  1.00  0.00     0.205 C 
BRANCH  33  37
HETATM   37  C23 UNL     1      -6.930  41.829 -17.541  1.00  0.00     0.198 C 
BRANCH  37  38
HETATM   38  O4  UNL     1      -5.586  42.271 -17.378  1.00  0.00    -0.398 OA
HETATM   39  H32 UNL     1      -5.447  43.056 -17.931  1.00  0.00     0.209 HD
ENDBRANCH  37  38
ENDBRANCH  33  37
BRANCH  34  40
HETATM   40  O5  UNL     1      -5.728  41.128 -20.441  1.00  0.00    -0.390 OA
HETATM   41  H34 UNL     1      -5.095  40.809 -19.773  1.00  0.00     0.210 HD
ENDBRANCH  34  40
BRANCH  35  42
HETATM   42  O6  UNL     1      -5.856  43.317 -22.144  1.00  0.00    -0.390 OA
HETATM   43  H36 UNL     1      -5.538  42.415 -22.354  1.00  0.00     0.210 HD
ENDBRANCH  35  42
BRANCH  36  44
HETATM   44  O7  UNL     1      -8.339  44.947 -21.664  1.00  0.00    -0.388 OA
HETATM   45  H38 UNL     1      -7.867  44.913 -22.519  1.00  0.00     0.210 HD
ENDBRANCH  36  44
ENDBRANCH  30  31
ENDBRANCH  16  30
BRANCH   3  46
HETATM   46  O1  UNL     1      -3.810  50.878 -26.492  1.00  0.00    -0.390 OA
HETATM   47  H14 UNL     1      -3.840  50.834 -27.465  1.00  0.00     0.210 HD
ENDBRANCH   3  46
BRANCH   1  48
HETATM   48  C4  UNL     1       0.602  51.246 -25.965  1.00  0.00     0.007 C 
HETATM   49  C2  UNL     1       1.268  51.684 -27.055  1.00  0.00    -0.089 C 
HETATM   50  C1  UNL     1       2.772  51.600 -27.107  1.00  0.00     0.042 C 
HETATM   51  C3  UNL     1       0.639  52.274 -28.285  1.00  0.00     0.042 C 
ENDBRANCH   1  48
TORSDOF 9
ENDMDL
MODEL 2
REMARK minimizedAffinity -8.14999771
REMARK CNNscore 0.576049984
REMARK CNNaffinity 6.89118814
REMARK  9 active torsions:
REMARK  status: ('A' for Active; 'I' for Inactive)
REMARK    1  A    between atoms: C4_4  and  C5_5 
REMARK    2  A    between atoms: C7_7  and  O1_9 
REMARK    3  A    between atoms: C20_21  and  O2_22 
REMARK    4  A    between atoms: O2_22  and  C21_23 
REMARK    5  A    between atoms: C22_25  and  C23_26 
REMARK    6  A    between atoms: C23_26  and  O4_27 
REMARK    7  A    between atoms: C24_28  and  O5_29 
REMARK    8  A    between atoms: C25_30  and  O6_31 
REMARK    9  A    between atoms: C26_32  and  O7_33 
ROOT
HETATM    1  C5  UNL     1       0.771  57.802  -4.495  1.00  0.00     0.147 C 
HETATM    2  C6  UNL     1       1.794  57.321  -3.438  1.00  0.00     0.074 C 
HETATM    3  C7  UNL     1       3.230  57.190  -3.996  1.00  0.00     0.064 C 
HETATM    4  C8  UNL     1       4.136  56.534  -2.950  1.00  0.00     0.046 C 
HETATM    5  C9  UNL     1       3.127  56.376  -5.296  1.00  0.00     0.058 C 
HETATM    6  C10 UNL     1       2.179  57.144  -6.248  1.00  0.00     0.131 C 
HETATM    7  C11 UNL     1       2.380  56.536  -7.652  1.00  0.00     0.042 C 
HETATM    8  C12 UNL     1       3.470  55.442  -7.466  1.00  0.00    -0.029 C 
HETATM    9  C13 UNL     1       2.654  54.142  -7.155  1.00  0.00     0.016 C 
HETATM   10  C14 UNL     1       4.451  55.238  -8.657  1.00  0.00     0.014 C 
HETATM   11  C15 UNL     1       3.775  54.874  -9.991  1.00  0.00     0.034 C 
HETATM   12  C16 UNL     1       3.801  53.419 -10.358  1.00  0.00    -0.022 C 
HETATM   13  C17 UNL     1       4.443  52.440  -9.694  1.00  0.00    -0.059 C 
HETATM   14  C18 UNL     1       5.307  52.756  -8.467  1.00  0.00     0.057 C 
HETATM   15  C19 UNL     1       6.523  51.845  -8.391  1.00  0.00     0.024 C 
HETATM   16  C20 UNL     1       6.816  50.815  -9.206  1.00  0.00     0.116 C 
HETATM   17  C27 UNL     1       5.840  50.491 -10.299  1.00  0.00     0.194 C 
HETATM   18  O8  UNL     1       6.216  49.808 -11.258  1.00  0.00    -0.289 OA
HETATM   19  C28 UNL     1       4.387  50.961 -10.124  1.00  0.00     0.044 C 
HETATM   20  C29 UNL     1       3.646  50.722 -11.457  1.00  0.00     0.028 C 
HETATM   21  C30 UNL     1       3.700  50.094  -9.055  1.00  0.00     0.028 C 
HETATM   22  C31 UNL     1       5.668  54.286  -8.321  1.00  0.00     0.032 C 
HETATM   23  C32 UNL     1       6.823  54.662  -9.299  1.00  0.00     0.025 C 
HETATM   24  C33 UNL     1       6.206  54.521  -6.876  1.00  0.00     0.137 C 
HETATM   25  O9  UNL     1       7.391  54.312  -6.593  1.00  0.00    -0.297 OA
HETATM   26  C34 UNL     1       5.252  54.926  -5.755  1.00  0.00     0.089 C 
HETATM   27  C35 UNL     1       4.293  56.011  -6.235  1.00  0.00    -0.021 C 
HETATM   28  C36 UNL     1       5.152  57.277  -6.546  1.00  0.00     0.017 C 
HETATM   29  O10 UNL     1       0.864  57.042  -5.719  1.00  0.00    -0.376 OA
ENDROOT
BRANCH  16  30
HETATM   30  O2  UNL     1       7.925  50.013  -9.155  1.00  0.00    -0.314 OA
BRANCH  30  31
HETATM   31  C21 UNL     1       7.822  48.614  -8.898  1.00  0.00     0.298 C 
HETATM   32  O3  UNL     1       8.276  48.318  -7.570  1.00  0.00    -0.348 OA
HETATM   33  C22 UNL     1       9.628  48.717  -7.287  1.00  0.00     0.179 C 
HETATM   34  C24 UNL     1      10.554  48.653  -8.516  1.00  0.00     0.180 C 
HETATM   35  C25 UNL     1      10.056  47.543  -9.438  1.00  0.00     0.183 C 
HETATM   36  C26 UNL     1       8.662  47.869  -9.967  1.00  0.00     0.205 C 
BRANCH  33  37
HETATM   37  C23 UNL     1       9.664  50.100  -6.617  1.00  0.00     0.198 C 
BRANCH  37  38
HETATM   38  O4  UNL     1      10.964  50.431  -6.138  1.00  0.00    -0.398 OA
HETATM   39  H32 UNL     1      11.624  50.053  -6.740  1.00  0.00     0.209 HD
ENDBRANCH  37  38
ENDBRANCH  33  37
BRANCH  34  40
HETATM   40  O5  UNL     1      11.901  48.354  -8.134  1.00  0.00    -0.390 OA
HETATM   41  H34 UNL     1      12.319  49.186  -7.845  1.00  0.00     0.210 HD
ENDBRANCH  34  40
BRANCH  35  42
HETATM   42  O6  UNL     1      10.947  47.368 -10.548  1.00  0.00    -0.390 OA
HETATM   43  H36 UNL     1      11.823  47.205 -10.140  1.00  0.00     0.210 HD
ENDBRANCH  35  42
BRANCH  36  44
HETATM   44  O7  UNL     1       8.033  46.642 -10.371  1.00  0.00    -0.388 OA
HETATM   45  H38 UNL     1       8.659  46.230 -10.997  1.00  0.00     0.210 HD
ENDBRANCH  36  44
ENDBRANCH  30  31
ENDBRANCH  16  30
BRANCH   3  46
HETATM   46  O1  UNL     1       3.731  58.503  -4.245  1.00  0.00    -0.390 OA
HETATM   47  H14 UNL     1       3.842  58.956  -3.390  1.00  0.00     0.210 HD
ENDBRANCH   3  46
BRANCH   1  48
HETATM   48  C4  UNL     1      -0.631  57.619  -3.980  1.00  0.00     0.007 C 
HETATM   49  C2  UNL     1      -1.316  58.394  -3.112  1.00  0.00    -0.089 C 
HETATM   50  C1  UNL     1      -2.727  58.031  -2.723  1.00  0.00     0.042 C 
HETATM   51  C3  UNL     1      -0.797  59.642  -2.457  1.00  0.00     0.042 C 
ENDBRANCH   1  48
TORSDOF 9
ENDMDL
MODEL 3
REMARK minimizedAffinity -9.4577055
REMARK CNNscore 0.548789859
REMARK CNNaffinity 7.29858017
REMARK  9 active torsions:
REMARK  status: ('A' for Active; 'I' for Inactive)
REMARK    1  A    between atoms: C4_4  and  C5_5 
REMARK    2  A    between atoms: C7_7  and  O1_9 
REMARK    3  A    between atoms: C20_21  and  O2_22 
REMARK    4  A    between atoms: O2_22  and  C21_23 
REMARK    5  A    between atoms: C22_25  and  C23_26 
REMARK    6  A    between atoms: C23_26  and  O4_27 
REMARK    7  A    between atoms: C24_28  and  O5_29 
REMARK    8  A    between atoms: C25_30  and  O6_31 
REMARK    9  A    between atoms: C26_32  and  O7_33 
ROOT
HETATM    1  C5  UNL     1      -0.854  51.284 -25.663  1.00  0.00     0.147 C 
HETATM    2  C6  UNL     1      -1.609  50.135 -26.371  1.00  0.00     0.074 C 
HETATM    3  C7  UNL     1      -3.058  49.953 -25.864  1.00  0.00     0.064 C 
HETATM    4  C8  UNL     1      -3.668  48.688 -26.473  1.00  0.00     0.046 C 
HETATM    5  C9  UNL     1      -2.986  49.907 -24.329  1.00  0.00     0.058 C 
HETATM    6  C10 UNL     1      -2.344  51.232 -23.855  1.00  0.00     0.131 C 
HETATM    7  C11 UNL     1      -2.621  51.338 -22.341  1.00  0.00     0.042 C 
HETATM    8  C12 UNL     1      -3.448  50.068 -21.993  1.00  0.00    -0.029 C 
HETATM    9  C13 UNL     1      -2.367  49.008 -21.595  1.00  0.00     0.016 C 
HETATM   10  C14 UNL     1      -4.531  50.233 -20.885  1.00  0.00     0.014 C 
HETATM   11  C15 UNL     1      -3.992  50.717 -19.528  1.00  0.00     0.034 C 
HETATM   12  C16 UNL     1      -3.794  49.652 -18.489  1.00  0.00    -0.022 C 
HETATM   13  C17 UNL     1      -4.139  48.357 -18.599  1.00  0.00    -0.059 C 
HETATM   14  C18 UNL     1      -4.867  47.838 -19.846  1.00  0.00     0.057 C 
HETATM   15  C19 UNL     1      -5.866  46.746 -19.496  1.00  0.00     0.024 C 
HETATM   16  C20 UNL     1      -6.071  46.192 -18.286  1.00  0.00     0.116 C 
HETATM   17  C27 UNL     1      -5.214  46.665 -17.149  1.00  0.00     0.194 C 
HETATM   18  O8  UNL     1      -5.586  46.455 -15.989  1.00  0.00    -0.289 OA
HETATM   19  C28 UNL     1      -3.867  47.320 -17.491  1.00  0.00     0.044 C 
HETATM   20  C29 UNL     1      -3.288  47.925 -16.194  1.00  0.00     0.028 C 
HETATM   21  C30 UNL     1      -2.885  46.236 -17.970  1.00  0.00     0.028 C 
HETATM   22  C31 UNL     1      -5.487  48.981 -20.741  1.00  0.00     0.032 C 
HETATM   23  C32 UNL     1      -6.817  49.496 -20.112  1.00  0.00     0.025 C 
HETATM   24  C33 UNL     1      -5.851  48.367 -22.128  1.00  0.00     0.137 C 
HETATM   25  O9  UNL     1      -6.923  47.778 -22.305  1.00  0.00    -0.297 OA
HETATM   26  C34 UNL     1      -4.842  48.400 -23.274  1.00  0.00     0.089 C 
HETATM   27  C35 UNL     1      -4.183  49.772 -23.366  1.00  0.00    -0.021 C 
HETATM   28  C36 UNL     1      -5.301  50.793 -23.749  1.00  0.00     0.017 C 
HETATM   29  O10 UNL     1      -0.972  51.201 -24.226  1.00  0.00    -0.376 OA
ENDROOT
BRANCH  16  30
HETATM   30  O2  UNL     1      -6.990  45.229 -17.966  1.00  0.00    -0.314 OA
BRANCH  30  31
HETATM   31  C21 UNL     1      -8.052  44.886 -18.855  1.00  0.00     0.298 C 
HETATM   32  O3  UNL     1      -9.147  45.799 -18.696  1.00  0.00    -0.348 OA
HETATM   33  C22 UNL     1      -9.693  45.867 -17.367  1.00  0.00     0.179 C 
HETATM   34  C24 UNL     1      -9.602  44.535 -16.600  1.00  0.00     0.180 C 
HETATM   35  C25 UNL     1      -9.677  43.391 -17.609  1.00  0.00     0.183 C 
HETATM   36  C26 UNL     1      -8.476  43.426 -18.551  1.00  0.00     0.205 C 
BRANCH  33  37
HETATM   37  C23 UNL     1      -9.065  47.026 -16.575  1.00  0.00     0.198 C 
BRANCH  37  38
HETATM   38  O4  UNL     1      -9.928  47.502 -15.547  1.00  0.00    -0.398 OA
HETATM   39  H32 UNL     1     -10.434  46.754 -15.192  1.00  0.00     0.209 HD
ENDBRANCH  37  38
ENDBRANCH  33  37
BRANCH  34  40
HETATM   40  O5  UNL     1     -10.686  44.396 -15.676  1.00  0.00    -0.390 OA
HETATM   41  H34 UNL     1     -10.455  44.892 -14.869  1.00  0.00     0.210 HD
ENDBRANCH  34  40
BRANCH  35  42
HETATM   42  O6  UNL     1      -9.706  42.124 -16.937  1.00  0.00    -0.390 OA
HETATM   43  H36 UNL     1     -10.467  42.186 -16.324  1.00  0.00     0.210 HD
ENDBRANCH  35  42
BRANCH  36  44
HETATM   44  O7  UNL     1      -8.823  42.717 -19.751  1.00  0.00    -0.388 OA
HETATM   45  H38 UNL     1      -9.124  41.838 -19.449  1.00  0.00     0.210 HD
ENDBRANCH  36  44
ENDBRANCH  30  31
ENDBRANCH  16  30
BRANCH   3  46
HETATM   46  O1  UNL     1      -3.827  51.069 -26.312  1.00  0.00    -0.390 OA
HETATM   47  H14 UNL     1      -3.902  51.019 -27.283  1.00  0.00     0.210 HD
ENDBRANCH   3  46
BRANCH   1  48
HETATM   48  C4  UNL     1       0.616  51.211 -25.978  1.00  0.00     0.007 C 
HETATM   49  C2  UNL     1       1.270  51.695 -27.056  1.00  0.00    -0.089 C 
HETATM   50  C1  UNL     1       2.761  51.515 -27.180  1.00  0.00     0.042 C 
HETATM   51  C3  UNL     1       0.639  52.429 -28.204  1.00  0.00     0.042 C 
ENDBRANCH   1  48
TORSDOF 9
ENDMDL
MODEL 4
REMARK minimizedAffinity -9.37021923
REMARK CNNscore 0.441633046
REMARK CNNaffinity 7.07349157
REMARK  9 active torsions:
REMARK  status: ('A' for Active; 'I' for Inactive)
REMARK    1  A    between atoms: C4_4  and  C5_5 
REMARK    2  A    between atoms: C7_7  and  O1_9 
REMARK    3  A    between atoms: C20_21  and  O2_22 
REMARK    4  A    between atoms: O2_22  and  C21_23 
REMARK    5  A    between atoms: C22_25  and  C23_26 
REMARK    6  A    between atoms: C23_26  and  O4_27 
REMARK    7  A    between atoms: C24_28  and  O5_29 
REMARK    8  A    between atoms: C25_30  and  O6_31 
REMARK    9  A    between atoms: C26_32  and  O7_33 
ROOT
HETATM    1  C5  UNL     1      -0.508  52.102 -25.440  1.00  0.00     0.147 C 
HETATM    2  C6  UNL     1      -1.426  51.208 -26.306  1.00  0.00     0.074 C 
HETATM    3  C7  UNL     1      -2.876  51.130 -25.776  1.00  0.00     0.064 C 
HETATM    4  C8  UNL     1      -3.665  50.086 -26.571  1.00  0.00     0.046 C 
HETATM    5  C9  UNL     1      -2.783  50.801 -24.278  1.00  0.00     0.058 C 
HETATM    6  C10 UNL     1      -1.956  51.924 -23.607  1.00  0.00     0.131 C 
HETATM    7  C11 UNL     1      -2.188  51.793 -22.088  1.00  0.00     0.042 C 
HETATM    8  C12 UNL     1      -3.174  50.600 -21.932  1.00  0.00    -0.029 C 
HETATM    9  C13 UNL     1      -2.241  49.354 -21.772  1.00  0.00     0.016 C 
HETATM   10  C14 UNL     1      -4.203  50.705 -20.767  1.00  0.00     0.014 C 
HETATM   11  C15 UNL     1      -3.578  50.864 -19.370  1.00  0.00     0.034 C 
HETATM   12  C16 UNL     1      -3.507  49.613 -18.543  1.00  0.00    -0.022 C 
HETATM   13  C17 UNL     1      -4.029  48.415 -18.863  1.00  0.00    -0.059 C 
HETATM   14  C18 UNL     1      -4.844  48.229 -20.149  1.00  0.00     0.057 C 
HETATM   15  C19 UNL     1      -5.977  47.232 -19.952  1.00  0.00     0.024 C 
HETATM   16  C20 UNL     1      -6.232  46.503 -18.851  1.00  0.00     0.116 C 
HETATM   17  C27 UNL     1      -5.298  46.648 -17.686  1.00  0.00     0.194 C 
HETATM   18  O8  UNL     1      -5.673  46.284 -16.565  1.00  0.00    -0.289 OA
HETATM   19  C28 UNL     1      -3.880  47.170 -17.966  1.00  0.00     0.044 C 
HETATM   20  C29 UNL     1      -3.200  47.452 -16.609  1.00  0.00     0.028 C 
HETATM   21  C30 UNL     1      -3.066  46.070 -18.668  1.00  0.00     0.028 C 
HETATM   22  C31 UNL     1      -5.318  49.585 -20.803  1.00  0.00     0.032 C 
HETATM   23  C32 UNL     1      -6.553  50.149 -20.037  1.00  0.00     0.025 C 
HETATM   24  C33 UNL     1      -5.789  49.282 -22.259  1.00  0.00     0.137 C 
HETATM   25  O9  UNL     1      -6.935  48.881 -22.489  1.00  0.00    -0.297 OA
HETATM   26  C34 UNL     1      -4.808  49.386 -23.424  1.00  0.00     0.089 C 
HETATM   27  C35 UNL     1      -3.968  50.654 -23.303  1.00  0.00    -0.021 C 
HETATM   28  C36 UNL     1      -4.943  51.865 -23.453  1.00  0.00     0.017 C 
HETATM   29  O10 UNL     1      -0.609  51.780 -24.036  1.00  0.00    -0.376 OA
ENDROOT
BRANCH  16  30
HETATM   30  O2  UNL     1      -7.269  45.627 -18.665  1.00  0.00    -0.314 OA
BRANCH  30  31
HETATM   31  C21 UNL     1      -8.315  45.896 -17.733  1.00  0.00     0.298 C 
HETATM   32  O3  UNL     1      -9.388  44.960 -17.907  1.00  0.00    -0.348 OA
HETATM   33  C22 UNL     1      -9.968  44.940 -19.222  1.00  0.00     0.179 C 
HETATM   34  C24 UNL     1      -9.936  46.309 -19.926  1.00  0.00     0.180 C 
HETATM   35  C25 UNL     1     -10.014  47.400 -18.862  1.00  0.00     0.183 C 
HETATM   36  C26 UNL     1      -8.787  47.356 -17.955  1.00  0.00     0.205 C 
BRANCH  33  37
HETATM   37  C23 UNL     1      -9.332  43.839 -20.086  1.00  0.00     0.198 C 
BRANCH  37  38
HETATM   38  O4  UNL     1      -9.066  44.284 -21.413  1.00  0.00    -0.398 OA
HETATM   39  H32 UNL     1      -8.823  45.223 -21.384  1.00  0.00     0.209 HD
ENDBRANCH  37  38
ENDBRANCH  33  37
BRANCH  34  40
HETATM   40  O5  UNL     1     -11.048  46.461 -20.814  1.00  0.00    -0.390 OA
HETATM   41  H34 UNL     1     -10.826  46.011 -21.649  1.00  0.00     0.210 HD
ENDBRANCH  34  40
BRANCH  35  42
HETATM   42  O6  UNL     1     -10.097  48.697 -19.470  1.00  0.00    -0.390 OA
HETATM   43  H36 UNL     1     -10.873  48.643 -20.065  1.00  0.00     0.210 HD
ENDBRANCH  35  42
BRANCH  36  44
HETATM   44  O7  UNL     1      -9.120  47.996 -16.712  1.00  0.00    -0.388 OA
HETATM   45  H38 UNL     1      -9.453  48.880 -16.964  1.00  0.00     0.210 HD
ENDBRANCH  36  44
ENDBRANCH  30  31
ENDBRANCH  16  30
BRANCH   3  46
HETATM   46  O1  UNL     1      -3.494  52.399 -25.990  1.00  0.00    -0.390 OA
HETATM   47  H14 UNL     1      -3.593  52.535 -26.950  1.00  0.00     0.210 HD
ENDBRANCH   3  46
BRANCH   1  48
HETATM   48  C4  UNL     1       0.932  51.895 -25.826  1.00  0.00     0.007 C 
HETATM   49  C2  UNL     1       1.479  51.885 -27.061  1.00  0.00    -0.089 C 
HETATM   50  C1  UNL     1       2.959  51.658 -27.232  1.00  0.00     0.042 C 
HETATM   51  C3  UNL     1       0.733  52.085 -28.349  1.00  0.00     0.042 C 
ENDBRANCH   1  48
TORSDOF 9
ENDMDL
MODEL 5
REMARK minimizedAffinity -8.14841938
REMARK CNNscore 0.423378944
REMARK CNNaffinity 6.60868979
REMARK  9 active torsions:
REMARK  status: ('A' for Active; 'I' for Inactive)
REMARK    1  A    between atoms: C4_4  and  C5_5 
REMARK    2  A    between atoms: C7_7  and  O1_9 
REMARK    3  A    between atoms: C20_21  and  O2_22 
REMARK    4  A    between atoms: O2_22  and  C21_23 
REMARK    5  A    between atoms: C22_25  and  C23_26 
REMARK    6  A    between atoms: C23_26  and  O4_27 
REMARK    7  A    between atoms: C24_28  and  O5_29 
REMARK    8  A    between atoms: C25_30  and  O6_31 
REMARK    9  A    between atoms: C26_32  and  O7_33 
ROOT
HETATM    1  C5  UNL     1       1.494  57.594  -4.230  1.00  0.00     0.147 C 
HETATM    2  C6  UNL     1       2.598  56.514  -4.147  1.00  0.00     0.074 C 
HETATM    3  C7  UNL     1       3.092  56.040  -5.533  1.00  0.00     0.064 C 
HETATM    4  C8  UNL     1       4.039  54.848  -5.368  1.00  0.00     0.046 C 
HETATM    5  C9  UNL     1       1.839  55.702  -6.357  1.00  0.00     0.058 C 
HETATM    6  C10 UNL     1       0.975  56.984  -6.432  1.00  0.00     0.131 C 
HETATM    7  C11 UNL     1      -0.061  56.750  -7.551  1.00  0.00     0.042 C 
HETATM    8  C12 UNL     1       0.261  55.335  -8.110  1.00  0.00    -0.029 C 
HETATM    9  C13 UNL     1      -0.632  54.376  -7.253  1.00  0.00     0.016 C 
HETATM   10  C14 UNL     1       0.032  55.128  -9.636  1.00  0.00     0.014 C 
HETATM   11  C15 UNL     1      -1.405  55.405 -10.113  1.00  0.00     0.034 C 
HETATM   12  C16 UNL     1      -2.267  54.194 -10.318  1.00  0.00    -0.022 C 
HETATM   13  C17 UNL     1      -1.874  52.910 -10.228  1.00  0.00    -0.059 C 
HETATM   14  C18 UNL     1      -0.407  52.553  -9.956  1.00  0.00     0.057 C 
HETATM   15  C19 UNL     1       0.005  51.286 -10.691  1.00  0.00     0.024 C 
HETATM   16  C20 UNL     1      -0.785  50.483 -11.426  1.00  0.00     0.116 C 
HETATM   17  C27 UNL     1      -2.240  50.836 -11.524  1.00  0.00     0.194 C 
HETATM   18  O8  UNL     1      -2.916  50.352 -12.440  1.00  0.00    -0.289 OA
HETATM   19  C28 UNL     1      -2.838  51.723 -10.422  1.00  0.00     0.044 C 
HETATM   20  C29 UNL     1      -4.260  52.135 -10.859  1.00  0.00     0.028 C 
HETATM   21  C30 UNL     1      -2.976  50.900  -9.129  1.00  0.00     0.028 C 
HETATM   22  C31 UNL     1       0.592  53.754 -10.182  1.00  0.00     0.032 C 
HETATM   23  C32 UNL     1       0.865  53.948 -11.705  1.00  0.00     0.025 C 
HETATM   24  C33 UNL     1       1.955  53.381  -9.522  1.00  0.00     0.137 C 
HETATM   25  O9  UNL     1       2.791  52.697 -10.124  1.00  0.00    -0.297 OA
HETATM   26  C34 UNL     1       2.246  53.776  -8.076  1.00  0.00     0.089 C 
HETATM   27  C35 UNL     1       1.815  55.217  -7.820  1.00  0.00    -0.021 C 
HETATM   28  C36 UNL     1       2.722  56.131  -8.705  1.00  0.00     0.017 C 
HETATM   29  O10 UNL     1       0.436  57.214  -5.137  1.00  0.00    -0.376 OA
ENDROOT
BRANCH  16  30
HETATM   30  O2  UNL     1      -0.408  49.358 -12.111  1.00  0.00    -0.314 OA
BRANCH  30  31
HETATM   31  C21 UNL     1       0.967  49.040 -12.322  1.00  0.00     0.298 C 
HETATM   32  O3  UNL     1       1.536  49.921 -13.300  1.00  0.00    -0.348 OA
HETATM   33  C22 UNL     1       0.882  49.911 -14.581  1.00  0.00     0.179 C 
HETATM   34  C24 UNL     1       0.275  48.544 -14.946  1.00  0.00     0.180 C 
HETATM   35  C25 UNL     1       1.118  47.451 -14.292  1.00  0.00     0.183 C 
HETATM   36  C26 UNL     1       1.049  47.558 -12.771  1.00  0.00     0.205 C 
BRANCH  33  37
HETATM   37  C23 UNL     1      -0.157  51.040 -14.677  1.00  0.00     0.198 C 
BRANCH  37  38
HETATM   38  O4  UNL     1      -1.465  50.544 -14.943  1.00  0.00    -0.398 OA
HETATM   39  H32 UNL     1      -1.570  49.686 -14.504  1.00  0.00     0.209 HD
ENDBRANCH  37  38
ENDBRANCH  33  37
BRANCH  34  40
HETATM   40  O5  UNL     1       0.284  48.335 -16.363  1.00  0.00    -0.390 OA
HETATM   41  H34 UNL     1      -0.491  48.794 -16.735  1.00  0.00     0.210 HD
ENDBRANCH  34  40
BRANCH  35  42
HETATM   42  O6  UNL     1       0.659  46.151 -14.690  1.00  0.00    -0.390 OA
HETATM   43  H36 UNL     1       0.689  46.166 -15.669  1.00  0.00     0.210 HD
ENDBRANCH  35  42
BRANCH  36  44
HETATM   44  O7  UNL     1       2.204  46.904 -12.220  1.00  0.00    -0.388 OA
HETATM   45  H38 UNL     1       2.192  46.005 -12.602  1.00  0.00     0.210 HD
ENDBRANCH  36  44
ENDBRANCH  30  31
ENDBRANCH  16  30
BRANCH   3  46
HETATM   46  O1  UNL     1       3.832  57.105  -6.129  1.00  0.00    -0.390 OA
HETATM   47  H14 UNL     1       4.647  57.238  -5.613  1.00  0.00     0.210 HD
ENDBRANCH   3  46
BRANCH   1  48
HETATM   48  C4  UNL     1       0.855  57.787  -2.881  1.00  0.00     0.007 C 
HETATM   49  C2  UNL     1       0.956  58.844  -2.046  1.00  0.00    -0.089 C 
HETATM   50  C1  UNL     1       0.227  58.838  -0.727  1.00  0.00     0.042 C 
HETATM   51  C3  UNL     1       1.760  60.086  -2.302  1.00  0.00     0.042 C 
ENDBRANCH   1  48
TORSDOF 9
ENDMDL
MODEL 6
REMARK minimizedAffinity -8.75957108
REMARK CNNscore 0.407883644
REMARK CNNaffinity 6.04780769
REMARK  9 active torsions:
REMARK  status: ('A' for Active; 'I' for Inactive)
REMARK    1  A    between atoms: C4_4  and  C5_5 
REMARK    2  A    between atoms: C7_7  and  O1_9 
REMARK    3  A    between atoms: C20_21  and  O2_22 
REMARK    4  A    between atoms: O2_22  and  C21_23 
REMARK    5  A    between atoms: C22_25  and  C23_26 
REMARK    6  A    between atoms: C23_26  and  O4_27 
REMARK    7  A    between atoms: C24_28  and  O5_29 
REMARK    8  A    between atoms: C25_30  and  O6_31 
REMARK    9  A    between atoms: C26_32  and  O7_33 
ROOT
HETATM    1  C5  UNL     1      -5.764  48.175 -28.239  1.00  0.00     0.147 C 
HETATM    2  C6  UNL     1      -5.036  48.173 -29.604  1.00  0.00     0.074 C 
HETATM    3  C7  UNL     1      -5.998  48.032 -30.807  1.00  0.00     0.064 C 
HETATM    4  C8  UNL     1      -5.194  47.849 -32.097  1.00  0.00     0.046 C 
HETATM    5  C9  UNL     1      -6.919  46.841 -30.499  1.00  0.00     0.058 C 
HETATM    6  C10 UNL     1      -7.654  47.154 -29.174  1.00  0.00     0.131 C 
HETATM    7  C11 UNL     1      -8.827  46.157 -29.076  1.00  0.00     0.042 C 
HETATM    8  C12 UNL     1      -8.745  45.308 -30.377  1.00  0.00    -0.029 C 
HETATM    9  C13 UNL     1      -7.842  44.093 -29.981  1.00  0.00     0.016 C 
HETATM   10  C14 UNL     1     -10.103  44.846 -30.984  1.00  0.00     0.014 C 
HETATM   11  C15 UNL     1     -10.976  44.003 -30.039  1.00  0.00     0.034 C 
HETATM   12  C16 UNL     1     -10.931  42.520 -30.260  1.00  0.00    -0.022 C 
HETATM   13  C17 UNL     1     -10.295  41.881 -31.259  1.00  0.00    -0.059 C 
HETATM   14  C18 UNL     1      -9.570  42.666 -32.360  1.00  0.00     0.057 C 
HETATM   15  C19 UNL     1      -9.679  41.968 -33.707  1.00  0.00     0.024 C 
HETATM   16  C20 UNL     1     -10.242  40.772 -33.957  1.00  0.00     0.116 C 
HETATM   17  C27 UNL     1     -10.805  40.010 -32.794  1.00  0.00     0.194 C 
HETATM   18  O8  UNL     1     -11.619  39.103 -33.006  1.00  0.00    -0.289 OA
HETATM   19  C28 UNL     1     -10.273  40.346 -31.392  1.00  0.00     0.044 C 
HETATM   20  C29 UNL     1     -11.155  39.614 -30.359  1.00  0.00     0.028 C 
HETATM   21  C30 UNL     1      -8.844  39.793 -31.248  1.00  0.00     0.028 C 
HETATM   22  C31 UNL     1      -9.966  44.193 -32.418  1.00  0.00     0.032 C 
HETATM   23  C32 UNL     1     -11.344  44.364 -33.128  1.00  0.00     0.025 C 
HETATM   24  C33 UNL     1      -8.911  44.934 -33.295  1.00  0.00     0.137 C 
HETATM   25  O9  UNL     1      -9.008  44.960 -34.527  1.00  0.00    -0.297 OA
HETATM   26  C34 UNL     1      -7.680  45.567 -32.650  1.00  0.00     0.089 C 
HETATM   27  C35 UNL     1      -8.070  46.327 -31.387  1.00  0.00    -0.021 C 
HETATM   28  C36 UNL     1      -8.980  47.516 -31.831  1.00  0.00     0.017 C 
HETATM   29  O10 UNL     1      -6.698  47.080 -28.125  1.00  0.00    -0.376 OA
ENDROOT
BRANCH  16  30
HETATM   30  O2  UNL     1     -10.365  40.157 -35.175  1.00  0.00    -0.314 OA
BRANCH  30  31
HETATM   31  C21 UNL     1     -11.490  40.393 -36.019  1.00  0.00     0.298 C 
HETATM   32  O3  UNL     1     -11.173  40.051 -37.376  1.00  0.00    -0.348 OA
HETATM   33  C22 UNL     1     -10.051  40.757 -37.934  1.00  0.00     0.179 C 
HETATM   34  C24 UNL     1      -9.886  42.182 -37.375  1.00  0.00     0.180 C 
HETATM   35  C25 UNL     1     -11.267  42.718 -37.005  1.00  0.00     0.183 C 
HETATM   36  C26 UNL     1     -11.883  41.886 -35.883  1.00  0.00     0.205 C 
BRANCH  33  37
HETATM   37  C23 UNL     1      -8.760  39.935 -37.792  1.00  0.00     0.198 C 
BRANCH  37  38
HETATM   38  O4  UNL     1      -8.336  39.380 -39.033  1.00  0.00    -0.398 OA
HETATM   39  H32 UNL     1      -8.564  39.999 -39.745  1.00  0.00     0.209 HD
ENDBRANCH  37  38
ENDBRANCH  33  37
BRANCH  34  40
HETATM   40  O5  UNL     1      -9.307  43.056 -38.349  1.00  0.00    -0.390 OA
HETATM   41  H34 UNL     1      -8.342  42.923 -38.332  1.00  0.00     0.210 HD
ENDBRANCH  34  40
BRANCH  35  42
HETATM   42  O6  UNL     1     -11.182  44.085 -36.579  1.00  0.00    -0.390 OA
HETATM   43  H36 UNL     1     -10.743  44.550 -37.322  1.00  0.00     0.210 HD
ENDBRANCH  35  42
BRANCH  36  44
HETATM   44  O7  UNL     1     -13.309  42.061 -35.922  1.00  0.00    -0.388 OA
HETATM   45  H38 UNL     1     -13.447  43.028 -35.885  1.00  0.00     0.210 HD
ENDBRANCH  36  44
ENDBRANCH  30  31
ENDBRANCH  16  30
BRANCH   3  46
HETATM   46  O1  UNL     1      -6.742  49.244 -30.924  1.00  0.00    -0.390 OA
HETATM   47  H14 UNL     1      -6.129  49.956 -31.185  1.00  0.00     0.210 HD
ENDBRANCH   3  46
BRANCH   1  48
HETATM   48  C4  UNL     1      -4.769  48.010 -27.121  1.00  0.00     0.007 C 
HETATM   49  C2  UNL     1      -3.766  48.838 -26.759  1.00  0.00    -0.089 C 
HETATM   50  C1  UNL     1      -2.875  48.484 -25.596  1.00  0.00     0.042 C 
HETATM   51  C3  UNL     1      -3.424  50.140 -27.425  1.00  0.00     0.042 C 
ENDBRANCH   1  48
TORSDOF 9
ENDMDL
MODEL 7
REMARK minimizedAffinity -8.8115139
REMARK CNNscore 0.3728773
REMARK CNNaffinity 6.04801559
REMARK  9 active torsions:
REMARK  status: ('A' for Active; 'I' for Inactive)
REMARK    1  A    between atoms: C4_4  and  C5_5 
REMARK    2  A    between atoms: C7_7  and  O1_9 
REMARK    3  A    between atoms: C20_21  and  O2_22 
REMARK    4  A    between atoms: O2_22  and  C21_23 
REMARK    5  A    between atoms: C22_25  and  C23_26 
REMARK    6  A    between atoms: C23_26  and  O4_27 
REMARK    7  A    between atoms: C24_28  and  O5_29 
REMARK    8  A    between atoms: C25_30  and  O6_31 
REMARK    9  A    between atoms: C26_32  and  O7_33 
ROOT
HETATM    1  C5  UNL     1      -5.772  46.239 -31.029  1.00  0.00     0.147 C 
HETATM    2  C6  UNL     1      -6.819  47.033 -31.846  1.00  0.00     0.074 C 
HETATM    3  C7  UNL     1      -7.831  47.795 -30.961  1.00  0.00     0.064 C 
HETATM    4  C8  UNL     1      -8.937  48.395 -31.833  1.00  0.00     0.046 C 
HETATM    5  C9  UNL     1      -8.362  46.788 -29.927  1.00  0.00     0.058 C 
HETATM    6  C10 UNL     1      -7.145  46.258 -29.131  1.00  0.00     0.131 C 
HETATM    7  C11 UNL     1      -7.712  45.560 -27.878  1.00  0.00     0.042 C 
HETATM    8  C12 UNL     1      -9.254  45.736 -27.980  1.00  0.00    -0.029 C 
HETATM    9  C13 UNL     1      -9.731  44.461 -28.753  1.00  0.00     0.016 C 
HETATM   10  C14 UNL     1     -10.018  45.915 -26.634  1.00  0.00     0.014 C 
HETATM   11  C15 UNL     1      -9.835  44.761 -25.634  1.00  0.00     0.034 C 
HETATM   12  C16 UNL     1     -10.958  43.767 -25.574  1.00  0.00    -0.022 C 
HETATM   13  C17 UNL     1     -12.133  43.852 -26.223  1.00  0.00    -0.059 C 
HETATM   14  C18 UNL     1     -12.472  45.076 -27.083  1.00  0.00     0.057 C 
HETATM   15  C19 UNL     1     -13.952  45.417 -27.010  1.00  0.00     0.024 C 
HETATM   16  C20 UNL     1     -14.913  44.725 -26.371  1.00  0.00     0.116 C 
HETATM   17  C27 UNL     1     -14.512  43.460 -25.670  1.00  0.00     0.194 C 
HETATM   18  O8  UNL     1     -15.258  42.991 -24.802  1.00  0.00    -0.289 OA
HETATM   19  C28 UNL     1     -13.222  42.764 -26.130  1.00  0.00     0.044 C 
HETATM   20  C29 UNL     1     -12.901  41.640 -25.123  1.00  0.00     0.028 C 
HETATM   21  C30 UNL     1     -13.465  42.100 -27.497  1.00  0.00     0.028 C 
HETATM   22  C31 UNL     1     -11.536  46.319 -26.815  1.00  0.00     0.032 C 
HETATM   23  C32 UNL     1     -11.970  47.048 -25.507  1.00  0.00     0.025 C 
HETATM   24  C33 UNL     1     -11.731  47.333 -27.984  1.00  0.00     0.137 C 
HETATM   25  O9  UNL     1     -12.658  48.150 -27.974  1.00  0.00    -0.297 OA
HETATM   26  C34 UNL     1     -10.829  47.272 -29.215  1.00  0.00     0.089 C 
HETATM   27  C35 UNL     1      -9.373  47.086 -28.803  1.00  0.00    -0.021 C 
HETATM   28  C36 UNL     1      -8.949  48.372 -28.023  1.00  0.00     0.017 C 
HETATM   29  O10 UNL     1      -6.389  45.430 -30.004  1.00  0.00    -0.376 OA
ENDROOT
BRANCH  16  30
HETATM   30  O2  UNL     1     -16.241  45.047 -26.283  1.00  0.00    -0.314 OA
BRANCH  30  31
HETATM   31  C21 UNL     1     -17.119  44.905 -27.398  1.00  0.00     0.298 C 
HETATM   32  O3  UNL     1     -18.378  45.536 -27.123  1.00  0.00    -0.348 OA
HETATM   33  C22 UNL     1     -19.064  45.041 -25.960  1.00  0.00     0.179 C 
HETATM   34  C24 UNL     1     -18.804  43.548 -25.686  1.00  0.00     0.180 C 
HETATM   35  C25 UNL     1     -18.553  42.849 -27.020  1.00  0.00     0.183 C 
HETATM   36  C26 UNL     1     -17.289  43.390 -27.681  1.00  0.00     0.205 C 
BRANCH  33  37
HETATM   37  C23 UNL     1     -18.755  45.909 -24.729  1.00  0.00     0.198 C 
BRANCH  37  38
HETATM   38  O4  UNL     1     -19.291  47.223 -24.850  1.00  0.00    -0.398 OA
HETATM   39  H32 UNL     1     -20.128  47.174 -25.340  1.00  0.00     0.209 HD
ENDBRANCH  37  38
ENDBRANCH  33  37
BRANCH  34  40
HETATM   40  O5  UNL     1     -19.933  42.933 -25.056  1.00  0.00    -0.390 OA
HETATM   41  H34 UNL     1     -19.886  43.130 -24.103  1.00  0.00     0.210 HD
ENDBRANCH  34  40
BRANCH  35  42
HETATM   42  O6  UNL     1     -18.412  41.434 -26.831  1.00  0.00    -0.390 OA
HETATM   43  H36 UNL     1     -19.232  41.162 -26.369  1.00  0.00     0.210 HD
ENDBRANCH  35  42
BRANCH  36  44
HETATM   44  O7  UNL     1     -17.366  43.123 -29.091  1.00  0.00    -0.388 OA
HETATM   45  H38 UNL     1     -17.525  42.161 -29.159  1.00  0.00     0.210 HD
ENDBRANCH  36  44
ENDBRANCH  30  31
ENDBRANCH  16  30
BRANCH   3  46
HETATM   46  O1  UNL     1      -7.143  48.873 -30.327  1.00  0.00    -0.390 OA
HETATM   47  H14 UNL     1      -6.885  49.517 -31.011  1.00  0.00     0.210 HD
ENDBRANCH   3  46
BRANCH   1  48
HETATM   48  C4  UNL     1      -5.020  45.294 -31.928  1.00  0.00     0.007 C 
HETATM   49  C2  UNL     1      -5.326  44.019 -32.252  1.00  0.00    -0.089 C 
HETATM   50  C1  UNL     1      -4.432  43.239 -33.181  1.00  0.00     0.042 C 
HETATM   51  C3  UNL     1      -6.522  43.256 -31.760  1.00  0.00     0.042 C 
ENDBRANCH   1  48
TORSDOF 9
ENDMDL
MODEL 8
REMARK minimizedAffinity -7.92280197
REMARK CNNscore 0.372614145
REMARK CNNaffinity 6.45643616
REMARK  9 active torsions:
REMARK  status: ('A' for Active; 'I' for Inactive)
REMARK    1  A    between atoms: C4_4  and  C5_5 
REMARK    2  A    between atoms: C7_7  and  O1_9 
REMARK    3  A    between atoms: C20_21  and  O2_22 
REMARK    4  A    between atoms: O2_22  and  C21_23 
REMARK    5  A    between atoms: C22_25  and  C23_26 
REMARK    6  A    between atoms: C23_26  and  O4_27 
REMARK    7  A    between atoms: C24_28  and  O5_29 
REMARK    8  A    between atoms: C25_30  and  O6_31 
REMARK    9  A    between atoms: C26_32  and  O7_33 
ROOT
HETATM    1  C5  UNL     1       0.943  57.968  -4.306  1.00  0.00     0.147 C 
HETATM    2  C6  UNL     1       2.016  57.491  -3.299  1.00  0.00     0.074 C 
HETATM    3  C7  UNL     1       3.423  57.353  -3.926  1.00  0.00     0.064 C 
HETATM    4  C8  UNL     1       4.378  56.702  -2.923  1.00  0.00     0.046 C 
HETATM    5  C9  UNL     1       3.254  56.533  -5.216  1.00  0.00     0.058 C 
HETATM    6  C10 UNL     1       2.261  57.297  -6.124  1.00  0.00     0.131 C 
HETATM    7  C11 UNL     1       2.392  56.681  -7.532  1.00  0.00     0.042 C 
HETATM    8  C12 UNL     1       3.487  55.586  -7.394  1.00  0.00    -0.029 C 
HETATM    9  C13 UNL     1       2.686  54.289  -7.036  1.00  0.00     0.016 C 
HETATM   10  C14 UNL     1       4.408  55.373  -8.632  1.00  0.00     0.014 C 
HETATM   11  C15 UNL     1       3.667  55.003  -9.928  1.00  0.00     0.034 C 
HETATM   12  C16 UNL     1       3.672  53.546 -10.288  1.00  0.00    -0.022 C 
HETATM   13  C17 UNL     1       4.344  52.570  -9.651  1.00  0.00    -0.059 C 
HETATM   14  C18 UNL     1       5.268  52.891  -8.470  1.00  0.00     0.057 C 
HETATM   15  C19 UNL     1       6.485  51.978  -8.450  1.00  0.00     0.024 C 
HETATM   16  C20 UNL     1       6.736  50.943  -9.272  1.00  0.00     0.116 C 
HETATM   17  C27 UNL     1       5.706  50.615 -10.313  1.00  0.00     0.194 C 
HETATM   18  O8  UNL     1       6.033  49.926 -11.286  1.00  0.00    -0.289 OA
HETATM   19  C28 UNL     1       4.265  51.088 -10.070  1.00  0.00     0.044 C 
HETATM   20  C29 UNL     1       3.458  50.844 -11.363  1.00  0.00     0.028 C 
HETATM   21  C30 UNL     1       3.630  50.228  -8.963  1.00  0.00     0.028 C 
HETATM   22  C31 UNL     1       5.639  54.421  -8.350  1.00  0.00     0.032 C 
HETATM   23  C32 UNL     1       6.744  54.789  -9.387  1.00  0.00     0.025 C 
HETATM   24  C33 UNL     1       6.248  54.663  -6.935  1.00  0.00     0.137 C 
HETATM   25  O9  UNL     1       7.445  54.453  -6.710  1.00  0.00    -0.297 OA
HETATM   26  C34 UNL     1       5.351  55.076  -5.770  1.00  0.00     0.089 C 
HETATM   27  C35 UNL     1       4.371  56.160  -6.209  1.00  0.00    -0.021 C 
HETATM   28  C36 UNL     1       5.216  57.423  -6.570  1.00  0.00     0.017 C 
HETATM   29  O10 UNL     1       0.974  57.201  -5.530  1.00  0.00    -0.376 OA
ENDROOT
BRANCH  16  30
HETATM   30  O2  UNL     1       7.844  50.139  -9.271  1.00  0.00    -0.314 OA
BRANCH  30  31
HETATM   31  C21 UNL     1       8.246  49.423  -8.104  1.00  0.00     0.298 C 
HETATM   32  O3  UNL     1       9.333  48.541  -8.412  1.00  0.00    -0.348 OA
HETATM   33  C22 UNL     1       9.060  47.577  -9.444  1.00  0.00     0.179 C 
HETATM   34  C24 UNL     1       7.587  47.130  -9.489  1.00  0.00     0.180 C 
HETATM   35  C25 UNL     1       7.018  47.205  -8.074  1.00  0.00     0.183 C 
HETATM   36  C26 UNL     1       7.013  48.647  -7.573  1.00  0.00     0.205 C 
BRANCH  33  37
HETATM   37  C23 UNL     1       9.543  48.086 -10.812  1.00  0.00     0.198 C 
BRANCH  37  38
HETATM   38  O4  UNL     1      10.912  48.477 -10.788  1.00  0.00    -0.398 OA
HETATM   39  H32 UNL     1      11.391  47.897 -10.175  1.00  0.00     0.209 HD
ENDBRANCH  37  38
ENDBRANCH  33  37
BRANCH  34  40
HETATM   40  O5  UNL     1       7.470  45.780  -9.953  1.00  0.00    -0.390 OA
HETATM   41  H34 UNL     1       7.509  45.797 -10.926  1.00  0.00     0.210 HD
ENDBRANCH  34  40
BRANCH  35  42
HETATM   42  O6  UNL     1       5.677  46.695  -8.040  1.00  0.00    -0.390 OA
HETATM   43  H36 UNL     1       5.746  45.791  -8.410  1.00  0.00     0.210 HD
ENDBRANCH  35  42
BRANCH  36  44
HETATM   44  O7  UNL     1       6.981  48.627  -6.137  1.00  0.00    -0.388 OA
HETATM   45  H38 UNL     1       6.208  48.075  -5.908  1.00  0.00     0.210 HD
ENDBRANCH  36  44
ENDBRANCH  30  31
ENDBRANCH  16  30
BRANCH   3  46
HETATM   46  O1  UNL     1       3.913  58.664  -4.208  1.00  0.00    -0.390 OA
HETATM   47  H14 UNL     1       4.067  59.122  -3.361  1.00  0.00     0.210 HD
ENDBRANCH   3  46
BRANCH   1  48
HETATM   48  C4  UNL     1      -0.432  57.790  -3.722  1.00  0.00     0.007 C 
HETATM   49  C2  UNL     1      -1.111  58.621  -2.901  1.00  0.00    -0.089 C 
HETATM   50  C1  UNL     1      -2.493  58.252  -2.425  1.00  0.00     0.042 C 
HETATM   51  C3  UNL     1      -0.610  59.938  -2.383  1.00  0.00     0.042 C 
ENDBRANCH   1  48
TORSDOF 9
ENDMDL
MODEL 9
REMARK minimizedAffinity -9.44896221
REMARK CNNscore 0.309949636
REMARK CNNaffinity 7.38886833
REMARK  9 active torsions:
REMARK  status: ('A' for Active; 'I' for Inactive)
REMARK    1  A    between atoms: C4_4  and  C5_5 
REMARK    2  A    between atoms: C7_7  and  O1_9 
REMARK    3  A    between atoms: C20_21  and  O2_22 
REMARK    4  A    between atoms: O2_22  and  C21_23 
REMARK    5  A    between atoms: C22_25  and  C23_26 
REMARK    6  A    between atoms: C23_26  and  O4_27 
REMARK    7  A    between atoms: C24_28  and  O5_29 
REMARK    8  A    between atoms: C25_30  and  O6_31 
REMARK    9  A    between atoms: C26_32  and  O7_33 
ROOT
HETATM    1  C5  UNL     1      -8.467  46.290 -16.654  1.00  0.00     0.147 C 
HETATM    2  C6  UNL     1      -9.235  46.944 -17.827  1.00  0.00     0.074 C 
HETATM    3  C7  UNL     1      -8.504  46.813 -19.183  1.00  0.00     0.064 C 
HETATM    4  C8  UNL     1      -9.229  47.642 -20.246  1.00  0.00     0.046 C 
HETATM    5  C9  UNL     1      -7.055  47.268 -18.950  1.00  0.00     0.058 C 
HETATM    6  C10 UNL     1      -6.455  46.359 -17.851  1.00  0.00     0.131 C 
HETATM    7  C11 UNL     1      -4.927  46.566 -17.897  1.00  0.00     0.042 C 
HETATM    8  C12 UNL     1      -4.691  47.580 -19.052  1.00  0.00    -0.029 C 
HETATM    9  C13 UNL     1      -4.734  48.977 -18.345  1.00  0.00     0.016 C 
HETATM   10  C14 UNL     1      -3.385  47.391 -19.878  1.00  0.00     0.014 C 
HETATM   11  C15 UNL     1      -2.088  47.451 -19.053  1.00  0.00     0.034 C 
HETATM   12  C16 UNL     1      -1.346  48.755 -19.099  1.00  0.00    -0.022 C 
HETATM   13  C17 UNL     1      -1.649  49.817 -19.866  1.00  0.00    -0.059 C 
HETATM   14  C18 UNL     1      -2.810  49.762 -20.867  1.00  0.00     0.057 C 
HETATM   15  C19 UNL     1      -2.502  50.562 -22.124  1.00  0.00     0.024 C 
HETATM   16  C20 UNL     1      -1.415  51.320 -22.356  1.00  0.00     0.116 C 
HETATM   17  C27 UNL     1      -0.393  51.427 -21.263  1.00  0.00     0.194 C 
HETATM   18  O8  UNL     1       0.749  51.807 -21.543  1.00  0.00    -0.289 OA
HETATM   19  C28 UNL     1      -0.849  51.135 -19.825  1.00  0.00     0.044 C 
HETATM   20  C29 UNL     1       0.406  51.080 -18.929  1.00  0.00     0.028 C 
HETATM   21  C30 UNL     1      -1.720  52.301 -19.324  1.00  0.00     0.028 C 
HETATM   22  C31 UNL     1      -3.316  48.298 -21.172  1.00  0.00     0.032 C 
HETATM   23  C32 UNL     1      -2.349  47.592 -22.171  1.00  0.00     0.025 C 
HETATM   24  C33 UNL     1      -4.701  48.402 -21.882  1.00  0.00     0.137 C 
HETATM   25  O9  UNL     1      -4.783  48.582 -23.101  1.00  0.00    -0.297 OA
HETATM   26  C34 UNL     1      -5.990  48.377 -21.063  1.00  0.00     0.089 C 
HETATM   27  C35 UNL     1      -5.927  47.285 -20.000  1.00  0.00    -0.021 C 
HETATM   28  C36 UNL     1      -5.869  45.917 -20.751  1.00  0.00     0.017 C 
HETATM   29  O10 UNL     1      -7.083  46.698 -16.622  1.00  0.00    -0.376 OA
ENDROOT
BRANCH  16  30
HETATM   30  O2  UNL     1      -1.126  52.017 -23.499  1.00  0.00    -0.314 OA
BRANCH  30  31
HETATM   31  C21 UNL     1      -0.508  51.389 -24.620  1.00  0.00     0.298 C 
HETATM   32  O3  UNL     1       0.816  51.907 -24.813  1.00  0.00    -0.348 OA
HETATM   33  C22 UNL     1       0.888  53.329 -25.014  1.00  0.00     0.179 C 
HETATM   34  C24 UNL     1      -0.346  53.908 -25.732  1.00  0.00     0.180 C 
HETATM   35  C25 UNL     1      -0.910  52.837 -26.662  1.00  0.00     0.183 C 
HETATM   36  C26 UNL     1      -1.405  51.636 -25.860  1.00  0.00     0.205 C 
BRANCH  33  37
HETATM   37  C23 UNL     1       1.171  54.057 -23.690  1.00  0.00     0.198 C 
BRANCH  37  38
HETATM   38  O4  UNL     1       1.560  55.412 -23.894  1.00  0.00    -0.398 OA
HETATM   39  H32 UNL     1       1.086  55.760 -24.666  1.00  0.00     0.209 HD
ENDBRANCH  37  38
ENDBRANCH  33  37
BRANCH  34  40
HETATM   40  O5  UNL     1       0.003  55.053 -26.518  1.00  0.00    -0.390 OA
HETATM   41  H34 UNL     1       0.036  55.823 -25.922  1.00  0.00     0.210 HD
ENDBRANCH  34  40
BRANCH  35  42
HETATM   42  O6  UNL     1      -1.997  53.361 -27.437  1.00  0.00    -0.390 OA
HETATM   43  H36 UNL     1      -1.625  54.146 -27.889  1.00  0.00     0.210 HD
ENDBRANCH  35  42
BRANCH  36  44
HETATM   44  O7  UNL     1      -1.430  50.492 -26.730  1.00  0.00    -0.388 OA
HETATM   45  H38 UNL     1      -1.970  50.767 -27.496  1.00  0.00     0.210 HD
ENDBRANCH  36  44
ENDBRANCH  30  31
ENDBRANCH  16  30
BRANCH   3  46
HETATM   46  O1  UNL     1      -8.558  45.444 -19.585  1.00  0.00    -0.390 OA
HETATM   47  H14 UNL     1      -9.485  45.220 -19.785  1.00  0.00     0.210 HD
ENDBRANCH   3  46
BRANCH   1  48
HETATM   48  C4  UNL     1      -9.070  46.710 -15.340  1.00  0.00     0.007 C 
HETATM   49  C2  UNL     1      -8.925  46.136 -14.127  1.00  0.00    -0.089 C 
HETATM   50  C1  UNL     1      -9.622  46.721 -12.925  1.00  0.00     0.042 C 
HETATM   51  C3  UNL     1      -8.105  44.913 -13.831  1.00  0.00     0.042 C 
ENDBRANCH   1  48
TORSDOF 9
ENDMDL
