MODEL 1
REMARK minimizedAffinity -7.98242521
REMARK CNNscore 0.608613014
REMARK CNNaffinity 7.59053612
REMARK  19 active torsions:
REMARK  status: ('A' for Active; 'I' for Inactive)
REMARK    1  A    between atoms: C2_2  and  C3_3 
REMARK    2  A    between atoms: C3_3  and  C4_4 
REMARK    3  A    between atoms: C4_4  and  S1_5 
REMARK    4  A    between atoms: C4_4  and  C15_25 
REMARK    5  A    between atoms: S1_5  and  C5_6 
REMARK    6  A    between atoms: C5_6  and  C6_7 
REMARK    7  A    between atoms: C6_7  and  N1_8 
REMARK    8  A    between atoms: C6_7  and  C12_18 
REMARK       I    between atoms: N1_8  and  C7_9 
REMARK    9  A    between atoms: C7_9  and  C8_11 
REMARK   10  A    between atoms: C8_11  and  C9_12 
REMARK   11  A    between atoms: C9_12  and  C10_13 
REMARK   12  A    between atoms: C10_13  and  N2_14 
REMARK   13  A    between atoms: C10_13  and  C11_15 
REMARK   14  A    between atoms: C11_15  and  O3_17 
REMARK       I    between atoms: C12_18  and  N3_20 
REMARK   15  A    between atoms: N3_20  and  C13_21 
REMARK   16  A    between atoms: C13_21  and  C14_22 
REMARK   17  A    between atoms: C14_22  and  O6_24 
REMARK   18  A    between atoms: C19_29  and  C20_30 
REMARK   19  A    between atoms: C20_30  and  C21_31 
ROOT
HETATM    1  S1  UNL     1      -2.831  50.896 -17.701  1.00  0.00    -0.154 SA
ENDROOT
BRANCH   1   2
HETATM    2  C4  UNL     1      -2.745  50.800 -19.552  1.00  0.00     0.113 C 
BRANCH   2   3
HETATM    3  C3  UNL     1      -3.405  49.573 -20.310  1.00  0.00    -0.022 C 
HETATM    4  C30 UNL     1      -4.043  49.930 -21.682  1.00  0.00     0.011 C 
HETATM    5  C31 UNL     1      -5.453  49.353 -21.671  1.00  0.00     0.001 C 
HETATM    6  C32 UNL     1      -5.868  49.465 -20.220  1.00  0.00     0.001 C 
HETATM    7  C33 UNL     1      -4.614  49.047 -19.464  1.00  0.00     0.011 C 
BRANCH   3   8
HETATM    8  C2  UNL     1      -2.336  48.445 -20.469  1.00  0.00     0.006 C 
HETATM    9  C1  UNL     1      -2.405  47.268 -19.497  1.00  0.00     0.006 C 
ENDBRANCH   3   8
ENDBRANCH   2   3
BRANCH   2  10
HETATM   10  C15 UNL     1      -1.353  51.224 -19.985  1.00  0.00     0.075 C 
HETATM   11  C16 UNL     1      -0.769  51.058 -21.171  1.00  0.00    -0.031 C 
HETATM   12  C17 UNL     1      -1.257  50.520 -22.472  1.00  0.00     0.042 C 
HETATM   13  C28 UNL     1       0.565  51.707 -21.176  1.00  0.00     0.140 C 
HETATM   14  C18 UNL     1      -1.258  51.647 -23.522  1.00  0.00     0.038 C 
HETATM   15  C19 UNL     1      -0.098  52.631 -23.413  1.00  0.00    -0.078 C 
HETATM   16  C27 UNL     1       0.724  52.641 -22.341  1.00  0.00    -0.005 C 
HETATM   17  C29 UNL     1       0.516  52.381 -19.810  1.00  0.00     0.275 C 
HETATM   18  O7  UNL     1       1.354  53.158 -19.368  1.00  0.00    -0.264 OA
HETATM   19  O8  UNL     1      -0.577  51.962 -19.082  1.00  0.00    -0.281 OA
BRANCH  15  20
HETATM   20  C20 UNL     1       0.081  53.601 -24.564  1.00  0.00     0.072 C 
BRANCH  20  21
HETATM   21  C21 UNL     1       0.525  52.937 -25.848  1.00  0.00    -0.054 A 
HETATM   22  C22 UNL     1      -0.144  53.198 -27.053  1.00  0.00     0.007 A 
HETATM   23  C23 UNL     1       0.287  52.612 -28.244  1.00  0.00     0.001 A 
HETATM   24  C24 UNL     1       1.388  51.760 -28.241  1.00  0.00     0.000 A 
HETATM   25  C25 UNL     1       2.061  51.489 -27.049  1.00  0.00     0.001 A 
HETATM   26  C26 UNL     1       1.630  52.073 -25.858  1.00  0.00     0.007 A 
ENDBRANCH  20  21
ENDBRANCH  15  20
ENDBRANCH   2  10
ENDBRANCH   1   2
BRANCH   1  27
HETATM   27  C5  UNL     1      -1.415  49.873 -17.164  1.00  0.00     0.109 C 
BRANCH  27  28
HETATM   28  C6  UNL     1      -0.684  50.455 -15.937  1.00  0.00     0.185 C 
BRANCH  28  29
HETATM   29  N1  UNL     1       0.683  50.854 -16.323  1.00  0.00    -0.347 N 
HETATM   30  C7  UNL     1       1.275  51.994 -15.820  1.00  0.00     0.218 C 
HETATM   31  O1  UNL     1       0.716  52.775 -15.062  1.00  0.00    -0.274 OA
HETATM   32  H10 UNL     1       1.259  50.170 -16.804  1.00  0.00     0.163 HD
BRANCH  30  33
HETATM   33  C8  UNL     1       2.697  52.208 -16.296  1.00  0.00     0.105 C 
BRANCH  33  34
HETATM   34  C9  UNL     1       3.727  51.610 -15.330  1.00  0.00     0.056 C 
BRANCH  34  35
HETATM   35  C10 UNL     1       3.134  51.126 -13.999  1.00  0.00     0.315 C 
BRANCH  35  36
HETATM   36  N2  UNL     1       3.155  52.211 -12.997  1.00  0.00     0.093 N 
HETATM   37  H16 UNL     1       2.848  53.083 -13.434  1.00  0.00     0.314 HD
HETATM   38  H17 UNL     1       4.123  52.358 -12.699  1.00  0.00     0.314 HD
ENDBRANCH  35  36
BRANCH  35  39
HETATM   39  C11 UNL     1       3.895  49.903 -13.477  1.00  0.00     0.173 C 
HETATM   40  O2  UNL     1       5.093  49.871 -13.226  1.00  0.00    -0.648 OA
BRANCH  39  41
HETATM   41  O3  UNL     1       3.105  48.840 -13.216  1.00  0.00    -0.775 OA
HETATM   42  H18 UNL     1       3.718  48.130 -12.932  1.00  0.00     0.167 HD
ENDBRANCH  39  41
ENDBRANCH  35  39
ENDBRANCH  34  35
ENDBRANCH  33  34
ENDBRANCH  30  33
ENDBRANCH  28  29
BRANCH  28  43
HETATM   43  C12 UNL     1      -0.667  49.419 -14.784  1.00  0.00     0.241 C 
HETATM   44  O4  UNL     1       0.220  49.385 -13.931  1.00  0.00    -0.271 OA
HETATM   45  N3  UNL     1      -1.675  48.477 -14.804  1.00  0.00    -0.349 N 
HETATM   46  H19 UNL     1      -2.518  48.679 -15.329  1.00  0.00     0.163 HD
BRANCH  45  47
HETATM   47  C13 UNL     1      -1.802  47.520 -13.717  1.00  0.00     0.232 C 
BRANCH  47  48
HETATM   48  C14 UNL     1      -2.799  47.941 -12.642  1.00  0.00     0.158 C 
HETATM   49  O5  UNL     1      -2.575  47.969 -11.440  1.00  0.00    -0.649 OA
BRANCH  48  50
HETATM   50  O6  UNL     1      -4.026  48.278 -13.098  1.00  0.00    -0.775 OA
HETATM   51  H22 UNL     1      -4.480  48.591 -12.287  1.00  0.00     0.167 HD
ENDBRANCH  48  50
ENDBRANCH  47  48
ENDBRANCH  45  47
ENDBRANCH  28  43
ENDBRANCH  27  28
ENDBRANCH   1  27
TORSDOF 19
ENDMDL
MODEL 2
REMARK minimizedAffinity -8.26310635
REMARK CNNscore 0.453990698
REMARK CNNaffinity 6.97725105
REMARK  19 active torsions:
REMARK  status: ('A' for Active; 'I' for Inactive)
REMARK    1  A    between atoms: C2_2  and  C3_3 
REMARK    2  A    between atoms: C3_3  and  C4_4 
REMARK    3  A    between atoms: C4_4  and  S1_5 
REMARK    4  A    between atoms: C4_4  and  C15_25 
REMARK    5  A    between atoms: S1_5  and  C5_6 
REMARK    6  A    between atoms: C5_6  and  C6_7 
REMARK    7  A    between atoms: C6_7  and  N1_8 
REMARK    8  A    between atoms: C6_7  and  C12_18 
REMARK       I    between atoms: N1_8  and  C7_9 
REMARK    9  A    between atoms: C7_9  and  C8_11 
REMARK   10  A    between atoms: C8_11  and  C9_12 
REMARK   11  A    between atoms: C9_12  and  C10_13 
REMARK   12  A    between atoms: C10_13  and  N2_14 
REMARK   13  A    between atoms: C10_13  and  C11_15 
REMARK   14  A    between atoms: C11_15  and  O3_17 
REMARK       I    between atoms: C12_18  and  N3_20 
REMARK   15  A    between atoms: N3_20  and  C13_21 
REMARK   16  A    between atoms: C13_21  and  C14_22 
REMARK   17  A    between atoms: C14_22  and  O6_24 
REMARK   18  A    between atoms: C19_29  and  C20_30 
REMARK   19  A    between atoms: C20_30  and  C21_31 
ROOT
HETATM    1  S1  UNL     1      -4.416  50.651 -20.788  1.00  0.00    -0.154 SA
ENDROOT
BRANCH   1   2
HETATM    2  C4  UNL     1      -3.142  49.665 -21.709  1.00  0.00     0.113 C 
BRANCH   2   3
HETATM    3  C3  UNL     1      -1.612  49.782 -21.307  1.00  0.00    -0.022 C 
HETATM    4  C30 UNL     1      -1.321  50.795 -20.166  1.00  0.00     0.011 C 
HETATM    5  C31 UNL     1      -0.195  51.696 -20.659  1.00  0.00     0.001 C 
HETATM    6  C32 UNL     1      -0.439  51.782 -22.149  1.00  0.00     0.001 C 
HETATM    7  C33 UNL     1      -0.812  50.354 -22.526  1.00  0.00     0.011 C 
BRANCH   3   8
HETATM    8  C2  UNL     1      -1.077  48.360 -20.940  1.00  0.00     0.006 C 
HETATM    9  C1  UNL     1      -1.969  47.165 -21.274  1.00  0.00     0.006 C 
ENDBRANCH   3   8
ENDBRANCH   2   3
BRANCH   2  10
HETATM   10  C15 UNL     1      -3.483  49.712 -23.188  1.00  0.00     0.075 C 
HETATM   11  C16 UNL     1      -3.715  50.781 -23.950  1.00  0.00    -0.031 C 
HETATM   12  C17 UNL     1      -3.636  52.245 -23.688  1.00  0.00     0.042 C 
HETATM   13  C28 UNL     1      -3.921  50.364 -25.358  1.00  0.00     0.140 C 
HETATM   14  C18 UNL     1      -2.521  52.859 -24.555  1.00  0.00     0.038 C 
HETATM   15  C19 UNL     1      -2.381  52.256 -25.949  1.00  0.00    -0.078 C 
HETATM   16  C27 UNL     1      -3.029  51.123 -26.298  1.00  0.00    -0.005 C 
HETATM   17  C29 UNL     1      -3.606  48.879 -25.225  1.00  0.00     0.275 C 
HETATM   18  O7  UNL     1      -3.520  48.083 -26.153  1.00  0.00    -0.264 OA
HETATM   19  O8  UNL     1      -3.483  48.508 -23.904  1.00  0.00    -0.281 OA
BRANCH  15  20
HETATM   20  C20 UNL     1      -1.473  52.986 -26.917  1.00  0.00     0.072 C 
BRANCH  20  21
HETATM   21  C21 UNL     1      -0.064  52.440 -26.950  1.00  0.00    -0.054 A 
HETATM   22  C22 UNL     1       0.591  52.231 -28.173  1.00  0.00     0.007 A 
HETATM   23  C23 UNL     1       1.905  51.760 -28.203  1.00  0.00     0.001 A 
HETATM   24  C24 UNL     1       2.574  51.490 -27.012  1.00  0.00     0.000 A 
HETATM   25  C25 UNL     1       1.933  51.691 -25.789  1.00  0.00     0.001 A 
HETATM   26  C26 UNL     1       0.621  52.160 -25.758  1.00  0.00     0.007 A 
ENDBRANCH  20  21
ENDBRANCH  15  20
ENDBRANCH   2  10
ENDBRANCH   1   2
BRANCH   1  27
HETATM   27  C5  UNL     1      -5.932  49.647 -20.970  1.00  0.00     0.109 C 
BRANCH  27  28
HETATM   28  C6  UNL     1      -5.641  48.139 -21.115  1.00  0.00     0.185 C 
BRANCH  28  29
HETATM   29  N1  UNL     1      -5.930  47.713 -22.498  1.00  0.00    -0.347 N 
HETATM   30  C7  UNL     1      -7.129  48.007 -23.111  1.00  0.00     0.218 C 
HETATM   31  O1  UNL     1      -8.050  48.595 -22.562  1.00  0.00    -0.274 OA
HETATM   32  H10 UNL     1      -5.155  47.379 -23.063  1.00  0.00     0.163 HD
BRANCH  30  33
HETATM   33  C8  UNL     1      -7.218  47.529 -24.547  1.00  0.00     0.105 C 
BRANCH  33  34
HETATM   34  C9  UNL     1      -8.662  47.238 -24.972  1.00  0.00     0.056 C 
BRANCH  34  35
HETATM   35  C10 UNL     1      -9.267  48.294 -25.908  1.00  0.00     0.315 C 
BRANCH  35  36
HETATM   36  N2  UNL     1      -8.849  49.650 -25.500  1.00  0.00     0.093 N 
HETATM   37  H16 UNL     1      -7.852  49.644 -25.273  1.00  0.00     0.314 HD
HETATM   38  H17 UNL     1      -9.344  49.896 -24.639  1.00  0.00     0.314 HD
ENDBRANCH  35  36
BRANCH  35  39
HETATM   39  C11 UNL     1     -10.795  48.190 -25.930  1.00  0.00     0.173 C 
HETATM   40  O2  UNL     1     -11.456  47.365 -25.310  1.00  0.00    -0.648 OA
BRANCH  39  41
HETATM   41  O3  UNL     1     -11.398  49.167 -26.639  1.00  0.00    -0.775 OA
HETATM   42  H18 UNL     1     -12.355  48.957 -26.601  1.00  0.00     0.167 HD
ENDBRANCH  39  41
ENDBRANCH  35  39
ENDBRANCH  34  35
ENDBRANCH  33  34
ENDBRANCH  30  33
ENDBRANCH  28  29
BRANCH  28  43
HETATM   43  C12 UNL     1      -6.476  47.332 -20.088  1.00  0.00     0.241 C 
HETATM   44  O4  UNL     1      -6.333  46.121 -19.917  1.00  0.00    -0.271 OA
HETATM   45  N3  UNL     1      -7.452  48.038 -19.417  1.00  0.00    -0.349 N 
HETATM   46  H19 UNL     1      -7.375  49.047 -19.367  1.00  0.00     0.163 HD
BRANCH  45  47
HETATM   47  C13 UNL     1      -8.226  47.397 -18.367  1.00  0.00     0.232 C 
BRANCH  47  48
HETATM   48  C14 UNL     1      -9.535  48.111 -18.043  1.00  0.00     0.158 C 
HETATM   49  O5  UNL     1     -10.516  48.158 -18.773  1.00  0.00    -0.649 OA
BRANCH  48  50
HETATM   50  O6  UNL     1      -9.559  48.752 -16.854  1.00  0.00    -0.775 OA
HETATM   51  H22 UNL     1     -10.486  49.066 -16.795  1.00  0.00     0.167 HD
ENDBRANCH  48  50
ENDBRANCH  47  48
ENDBRANCH  45  47
ENDBRANCH  28  43
ENDBRANCH  27  28
ENDBRANCH   1  27
TORSDOF 19
ENDMDL
MODEL 3
REMARK minimizedAffinity -7.78500843
REMARK CNNscore 0.280567706
REMARK CNNaffinity 7.25972176
REMARK  19 active torsions:
REMARK  status: ('A' for Active; 'I' for Inactive)
REMARK    1  A    between atoms: C2_2  and  C3_3 
REMARK    2  A    between atoms: C3_3  and  C4_4 
REMARK    3  A    between atoms: C4_4  and  S1_5 
REMARK    4  A    between atoms: C4_4  and  C15_25 
REMARK    5  A    between atoms: S1_5  and  C5_6 
REMARK    6  A    between atoms: C5_6  and  C6_7 
REMARK    7  A    between atoms: C6_7  and  N1_8 
REMARK    8  A    between atoms: C6_7  and  C12_18 
REMARK       I    between atoms: N1_8  and  C7_9 
REMARK    9  A    between atoms: C7_9  and  C8_11 
REMARK   10  A    between atoms: C8_11  and  C9_12 
REMARK   11  A    between atoms: C9_12  and  C10_13 
REMARK   12  A    between atoms: C10_13  and  N2_14 
REMARK   13  A    between atoms: C10_13  and  C11_15 
REMARK   14  A    between atoms: C11_15  and  O3_17 
REMARK       I    between atoms: C12_18  and  N3_20 
REMARK   15  A    between atoms: N3_20  and  C13_21 
REMARK   16  A    between atoms: C13_21  and  C14_22 
REMARK   17  A    between atoms: C14_22  and  O6_24 
REMARK   18  A    between atoms: C19_29  and  C20_30 
REMARK   19  A    between atoms: C20_30  and  C21_31 
ROOT
HETATM    1  S1  UNL     1      -3.300  47.960 -20.722  1.00  0.00    -0.154 SA
ENDROOT
BRANCH   1   2
HETATM    2  C4  UNL     1      -3.662  49.780 -20.757  1.00  0.00     0.113 C 
BRANCH   2   3
HETATM    3  C3  UNL     1      -4.736  50.351 -21.775  1.00  0.00    -0.022 C 
HETATM    4  C30 UNL     1      -4.444  50.030 -23.268  1.00  0.00     0.011 C 
HETATM    5  C31 UNL     1      -4.543  51.349 -24.025  1.00  0.00     0.001 C 
HETATM    6  C32 UNL     1      -4.057  52.369 -23.020  1.00  0.00     0.001 C 
HETATM    7  C33 UNL     1      -4.704  51.916 -21.718  1.00  0.00     0.011 C 
BRANCH   3   8
HETATM    8  C2  UNL     1      -6.150  49.832 -21.360  1.00  0.00     0.006 C 
HETATM    9  C1  UNL     1      -6.484  49.816 -19.868  1.00  0.00     0.006 C 
ENDBRANCH   3   8
ENDBRANCH   2   3
BRANCH   2  10
HETATM   10  C15 UNL     1      -2.346  50.528 -20.635  1.00  0.00     0.075 C 
HETATM   11  C16 UNL     1      -1.329  50.559 -21.496  1.00  0.00    -0.031 C 
HETATM   12  C17 UNL     1      -1.142  49.993 -22.861  1.00  0.00     0.042 C 
HETATM   13  C28 UNL     1      -0.283  51.491 -21.010  1.00  0.00     0.140 C 
HETATM   14  C18 UNL     1      -0.995  51.144 -23.874  1.00  0.00     0.038 C 
HETATM   15  C19 UNL     1      -0.223  52.357 -23.365  1.00  0.00    -0.078 C 
HETATM   16  C27 UNL     1       0.096  52.496 -22.061  1.00  0.00    -0.005 C 
HETATM   17  C29 UNL     1      -1.006  52.065 -19.798  1.00  0.00     0.275 C 
HETATM   18  O7  UNL     1      -0.603  52.988 -19.098  1.00  0.00    -0.264 OA
HETATM   19  O8  UNL     1      -2.168  51.374 -19.532  1.00  0.00    -0.281 OA
BRANCH  15  20
HETATM   20  C20 UNL     1       0.159  53.400 -24.396  1.00  0.00     0.072 C 
BRANCH  20  21
HETATM   21  C21 UNL     1       0.585  52.810 -25.721  1.00  0.00    -0.054 A 
HETATM   22  C22 UNL     1      -0.137  53.092 -26.891  1.00  0.00     0.007 A 
HETATM   23  C23 UNL     1       0.276  52.575 -28.120  1.00  0.00     0.001 A 
HETATM   24  C24 UNL     1       1.410  51.771 -28.191  1.00  0.00     0.000 A 
HETATM   25  C25 UNL     1       2.135  51.480 -27.035  1.00  0.00     0.001 A 
HETATM   26  C26 UNL     1       1.723  51.995 -25.806  1.00  0.00     0.007 A 
ENDBRANCH  20  21
ENDBRANCH  15  20
ENDBRANCH   2  10
ENDBRANCH   1   2
BRANCH   1  27
HETATM   27  C5  UNL     1      -2.112  47.798 -19.342  1.00  0.00     0.109 C 
BRANCH  27  28
HETATM   28  C6  UNL     1      -2.685  48.284 -17.995  1.00  0.00     0.185 C 
BRANCH  28  29
HETATM   29  N1  UNL     1      -1.610  48.914 -17.203  1.00  0.00    -0.347 N 
HETATM   30  C7  UNL     1      -1.855  49.986 -16.372  1.00  0.00     0.218 C 
HETATM   31  O1  UNL     1      -2.949  50.522 -16.255  1.00  0.00    -0.274 OA
HETATM   32  H10 UNL     1      -0.728  48.417 -17.120  1.00  0.00     0.163 HD
BRANCH  30  33
HETATM   33  C8  UNL     1      -0.637  50.461 -15.606  1.00  0.00     0.105 C 
BRANCH  33  34
HETATM   34  C9  UNL     1       0.533  50.809 -16.535  1.00  0.00     0.056 C 
BRANCH  34  35
HETATM   35  C10 UNL     1       1.313  52.065 -16.121  1.00  0.00     0.315 C 
BRANCH  35  36
HETATM   36  N2  UNL     1       1.565  52.928 -17.292  1.00  0.00     0.093 N 
HETATM   37  H16 UNL     1       0.716  52.989 -17.859  1.00  0.00     0.314 HD
HETATM   38  H17 UNL     1       2.277  52.482 -17.876  1.00  0.00     0.314 HD
ENDBRANCH  35  36
BRANCH  35  39
HETATM   39  C11 UNL     1       2.633  51.686 -15.442  1.00  0.00     0.173 C 
HETATM   40  O2  UNL     1       3.740  52.090 -15.777  1.00  0.00    -0.648 OA
BRANCH  39  41
HETATM   41  O3  UNL     1       2.481  50.913 -14.346  1.00  0.00    -0.775 OA
HETATM   42  H18 UNL     1       3.393  50.719 -14.042  1.00  0.00     0.167 HD
ENDBRANCH  39  41
ENDBRANCH  35  39
ENDBRANCH  34  35
ENDBRANCH  33  34
ENDBRANCH  30  33
ENDBRANCH  28  29
BRANCH  28  43
HETATM   43  C12 UNL     1      -3.332  47.102 -17.231  1.00  0.00     0.241 C 
HETATM   44  O4  UNL     1      -3.185  45.928 -17.571  1.00  0.00    -0.271 OA
HETATM   45  N3  UNL     1      -4.153  47.442 -16.176  1.00  0.00    -0.349 N 
HETATM   46  H19 UNL     1      -4.048  48.357 -15.754  1.00  0.00     0.163 HD
BRANCH  45  47
HETATM   47  C13 UNL     1      -4.733  46.406 -15.338  1.00  0.00     0.232 C 
BRANCH  47  48
HETATM   48  C14 UNL     1      -6.149  46.007 -15.744  1.00  0.00     0.158 C 
HETATM   49  O5  UNL     1      -6.465  44.944 -16.261  1.00  0.00    -0.649 OA
BRANCH  48  50
HETATM   50  O6  UNL     1      -7.095  46.945 -15.517  1.00  0.00    -0.775 OA
HETATM   51  H22 UNL     1      -7.924  46.479 -15.759  1.00  0.00     0.167 HD
ENDBRANCH  48  50
ENDBRANCH  47  48
ENDBRANCH  45  47
ENDBRANCH  28  43
ENDBRANCH  27  28
ENDBRANCH   1  27
TORSDOF 19
ENDMDL
MODEL 4
REMARK minimizedAffinity -8.67916203
REMARK CNNscore 0.273535639
REMARK CNNaffinity 7.37012243
REMARK  19 active torsions:
REMARK  status: ('A' for Active; 'I' for Inactive)
REMARK    1  A    between atoms: C2_2  and  C3_3 
REMARK    2  A    between atoms: C3_3  and  C4_4 
REMARK    3  A    between atoms: C4_4  and  S1_5 
REMARK    4  A    between atoms: C4_4  and  C15_25 
REMARK    5  A    between atoms: S1_5  and  C5_6 
REMARK    6  A    between atoms: C5_6  and  C6_7 
REMARK    7  A    between atoms: C6_7  and  N1_8 
REMARK    8  A    between atoms: C6_7  and  C12_18 
REMARK       I    between atoms: N1_8  and  C7_9 
REMARK    9  A    between atoms: C7_9  and  C8_11 
REMARK   10  A    between atoms: C8_11  and  C9_12 
REMARK   11  A    between atoms: C9_12  and  C10_13 
REMARK   12  A    between atoms: C10_13  and  N2_14 
REMARK   13  A    between atoms: C10_13  and  C11_15 
REMARK   14  A    between atoms: C11_15  and  O3_17 
REMARK       I    between atoms: C12_18  and  N3_20 
REMARK   15  A    between atoms: N3_20  and  C13_21 
REMARK   16  A    between atoms: C13_21  and  C14_22 
REMARK   17  A    between atoms: C14_22  and  O6_24 
REMARK   18  A    between atoms: C19_29  and  C20_30 
REMARK   19  A    between atoms: C20_30  and  C21_31 
ROOT
HETATM    1  S1  UNL     1      -1.553  50.114 -24.231  1.00  0.00    -0.154 SA
ENDROOT
BRANCH   1   2
HETATM    2  C4  UNL     1      -0.972  51.850 -24.534  1.00  0.00     0.113 C 
BRANCH   2   3
HETATM    3  C3  UNL     1      -0.126  52.183 -25.834  1.00  0.00    -0.022 C 
HETATM    4  C30 UNL     1       0.128  53.698 -26.066  1.00  0.00     0.011 C 
HETATM    5  C31 UNL     1      -0.273  53.992 -27.507  1.00  0.00     0.001 C 
HETATM    6  C32 UNL     1      -1.417  53.032 -27.756  1.00  0.00     0.001 C 
HETATM    7  C33 UNL     1      -0.944  51.745 -27.096  1.00  0.00     0.011 C 
BRANCH   3   8
HETATM    8  C2  UNL     1       1.222  51.395 -25.773  1.00  0.00     0.006 C 
HETATM    9  C1  UNL     1       2.194  51.573 -26.939  1.00  0.00     0.006 C 
ENDBRANCH   3   8
ENDBRANCH   2   3
BRANCH   2  10
HETATM   10  C15 UNL     1      -0.486  52.425 -23.215  1.00  0.00     0.075 C 
HETATM   11  C16 UNL     1      -1.054  52.334 -22.013  1.00  0.00    -0.031 C 
HETATM   12  C17 UNL     1      -2.250  51.599 -21.513  1.00  0.00     0.042 C 
HETATM   13  C28 UNL     1      -0.186  52.970 -20.993  1.00  0.00     0.140 C 
HETATM   14  C18 UNL     1      -1.803  50.525 -20.504  1.00  0.00     0.038 C 
HETATM   15  C19 UNL     1      -0.640  50.930 -19.604  1.00  0.00    -0.078 C 
HETATM   16  C27 UNL     1       0.081  52.047 -19.838  1.00  0.00    -0.005 C 
HETATM   17  C29 UNL     1       1.026  53.286 -21.861  1.00  0.00     0.275 C 
HETATM   18  O7  UNL     1       2.096  53.727 -21.458  1.00  0.00    -0.264 OA
HETATM   19  O8  UNL     1       0.757  53.070 -23.196  1.00  0.00    -0.281 OA
BRANCH  15  20
HETATM   20  C20 UNL     1      -0.331  50.011 -18.439  1.00  0.00     0.072 C 
BRANCH  20  21
HETATM   21  C21 UNL     1       0.003  50.748 -17.162  1.00  0.00    -0.054 A 
HETATM   22  C22 UNL     1      -0.752  50.537 -15.999  1.00  0.00     0.007 A 
HETATM   23  C23 UNL     1      -0.422  51.192 -14.810  1.00  0.00     0.001 A 
HETATM   24  C24 UNL     1       0.662  52.064 -14.776  1.00  0.00     0.000 A 
HETATM   25  C25 UNL     1       1.419  52.286 -15.926  1.00  0.00     0.001 A 
HETATM   26  C26 UNL     1       1.090  51.634 -17.114  1.00  0.00     0.007 A 
ENDBRANCH  20  21
ENDBRANCH  15  20
ENDBRANCH   2  10
ENDBRANCH   1   2
BRANCH   1  27
HETATM   27  C5  UNL     1      -3.303  50.162 -24.755  1.00  0.00     0.109 C 
BRANCH  27  28
HETATM   28  C6  UNL     1      -3.925  48.758 -24.906  1.00  0.00     0.185 C 
BRANCH  28  29
HETATM   29  N1  UNL     1      -4.719  48.704 -26.149  1.00  0.00    -0.347 N 
HETATM   30  C7  UNL     1      -4.150  48.374 -27.360  1.00  0.00     0.218 C 
HETATM   31  O1  UNL     1      -2.957  48.144 -27.512  1.00  0.00    -0.274 OA
HETATM   32  H10 UNL     1      -5.731  48.712 -26.066  1.00  0.00     0.163 HD
BRANCH  30  33
HETATM   33  C8  UNL     1      -5.135  48.323 -28.509  1.00  0.00     0.105 C 
BRANCH  33  34
HETATM   34  C9  UNL     1      -6.447  47.632 -28.118  1.00  0.00     0.056 C 
BRANCH  34  35
HETATM   35  C10 UNL     1      -7.376  47.329 -29.302  1.00  0.00     0.315 C 
BRANCH  35  36
HETATM   36  N2  UNL     1      -6.616  46.733 -30.418  1.00  0.00     0.093 N 
HETATM   37  H16 UNL     1      -5.969  46.030 -30.053  1.00  0.00     0.314 HD
HETATM   38  H17 UNL     1      -6.042  47.464 -30.847  1.00  0.00     0.314 HD
ENDBRANCH  35  36
BRANCH  35  39
HETATM   39  C11 UNL     1      -8.099  48.598 -29.765  1.00  0.00     0.173 C 
HETATM   40  O2  UNL     1      -8.283  48.919 -30.933  1.00  0.00    -0.648 OA
BRANCH  39  41
HETATM   41  O3  UNL     1      -8.622  49.326 -28.756  1.00  0.00    -0.775 OA
HETATM   42  H18 UNL     1      -9.014  50.115 -29.188  1.00  0.00     0.167 HD
ENDBRANCH  39  41
ENDBRANCH  35  39
ENDBRANCH  34  35
ENDBRANCH  33  34
ENDBRANCH  30  33
ENDBRANCH  28  29
BRANCH  28  43
HETATM   43  C12 UNL     1      -4.791  48.421 -23.666  1.00  0.00     0.241 C 
HETATM   44  O4  UNL     1      -5.750  47.651 -23.712  1.00  0.00    -0.271 OA
HETATM   45  N3  UNL     1      -4.470  49.093 -22.505  1.00  0.00    -0.349 N 
HETATM   46  H19 UNL     1      -3.544  49.496 -22.417  1.00  0.00     0.163 HD
BRANCH  45  47
HETATM   47  C13 UNL     1      -5.159  48.779 -21.265  1.00  0.00     0.232 C 
BRANCH  47  48
HETATM   48  C14 UNL     1      -6.388  49.646 -21.008  1.00  0.00     0.158 C 
HETATM   49  O5  UNL     1      -7.549  49.292 -21.158  1.00  0.00    -0.649 OA
BRANCH  48  50
HETATM   50  O6  UNL     1      -6.125  50.910 -20.607  1.00  0.00    -0.775 OA
HETATM   51  H22 UNL     1      -7.018  51.268 -20.418  1.00  0.00     0.167 HD
ENDBRANCH  48  50
ENDBRANCH  47  48
ENDBRANCH  45  47
ENDBRANCH  28  43
ENDBRANCH  27  28
ENDBRANCH   1  27
TORSDOF 19
ENDMDL
MODEL 5
REMARK minimizedAffinity -8.95140076
REMARK CNNscore 0.24481976
REMARK CNNaffinity 7.36299562
REMARK  19 active torsions:
REMARK  status: ('A' for Active; 'I' for Inactive)
REMARK    1  A    between atoms: C2_2  and  C3_3 
REMARK    2  A    between atoms: C3_3  and  C4_4 
REMARK    3  A    between atoms: C4_4  and  S1_5 
REMARK    4  A    between atoms: C4_4  and  C15_25 
REMARK    5  A    between atoms: S1_5  and  C5_6 
REMARK    6  A    between atoms: C5_6  and  C6_7 
REMARK    7  A    between atoms: C6_7  and  N1_8 
REMARK    8  A    between atoms: C6_7  and  C12_18 
REMARK       I    between atoms: N1_8  and  C7_9 
REMARK    9  A    between atoms: C7_9  and  C8_11 
REMARK   10  A    between atoms: C8_11  and  C9_12 
REMARK   11  A    between atoms: C9_12  and  C10_13 
REMARK   12  A    between atoms: C10_13  and  N2_14 
REMARK   13  A    between atoms: C10_13  and  C11_15 
REMARK   14  A    between atoms: C11_15  and  O3_17 
REMARK       I    between atoms: C12_18  and  N3_20 
REMARK   15  A    between atoms: N3_20  and  C13_21 
REMARK   16  A    between atoms: C13_21  and  C14_22 
REMARK   17  A    between atoms: C14_22  and  O6_24 
REMARK   18  A    between atoms: C19_29  and  C20_30 
REMARK   19  A    between atoms: C20_30  and  C21_31 
ROOT
HETATM    1  S1  UNL     1      -4.478  50.858 -20.875  1.00  0.00    -0.154 SA
ENDROOT
BRANCH   1   2
HETATM    2  C4  UNL     1      -3.068  49.906 -20.134  1.00  0.00     0.113 C 
BRANCH   2   3
HETATM    3  C3  UNL     1      -3.285  49.094 -18.789  1.00  0.00    -0.022 C 
HETATM    4  C30 UNL     1      -3.458  49.979 -17.523  1.00  0.00     0.011 C 
HETATM    5  C31 UNL     1      -2.487  49.443 -16.479  1.00  0.00     0.001 C 
HETATM    6  C32 UNL     1      -1.320  48.948 -17.305  1.00  0.00     0.001 C 
HETATM    7  C33 UNL     1      -1.992  48.263 -18.487  1.00  0.00     0.011 C 
BRANCH   3   8
HETATM    8  C2  UNL     1      -4.505  48.135 -18.970  1.00  0.00     0.006 C 
HETATM    9  C1  UNL     1      -5.761  48.432 -18.152  1.00  0.00     0.006 C 
ENDBRANCH   3   8
ENDBRANCH   2   3
BRANCH   2  10
HETATM   10  C15 UNL     1      -1.813  50.753 -20.247  1.00  0.00     0.075 C 
HETATM   11  C16 UNL     1      -0.917  50.777 -21.233  1.00  0.00    -0.031 C 
HETATM   12  C17 UNL     1      -0.857  50.105 -22.561  1.00  0.00     0.042 C 
HETATM   13  C28 UNL     1       0.103  51.821 -20.966  1.00  0.00     0.140 C 
HETATM   14  C18 UNL     1      -0.931  51.167 -23.674  1.00  0.00     0.038 C 
HETATM   15  C19 UNL     1      -0.203  52.472 -23.370  1.00  0.00    -0.078 C 
HETATM   16  C27 UNL     1       0.265  52.750 -22.135  1.00  0.00    -0.005 C 
HETATM   17  C29 UNL     1      -0.508  52.449 -19.719  1.00  0.00     0.275 C 
HETATM   18  O7  UNL     1      -0.097  53.458 -19.155  1.00  0.00    -0.264 OA
HETATM   19  O8  UNL     1      -1.568  51.705 -19.249  1.00  0.00    -0.281 OA
BRANCH  15  20
HETATM   20  C20 UNL     1      -0.038  53.442 -24.523  1.00  0.00     0.072 C 
BRANCH  20  21
HETATM   21  C21 UNL     1       0.488  52.795 -25.784  1.00  0.00    -0.054 A 
HETATM   22  C22 UNL     1      -0.217  52.910 -26.991  1.00  0.00     0.007 A 
HETATM   23  C23 UNL     1       0.286  52.342 -28.163  1.00  0.00     0.001 A 
HETATM   24  C24 UNL     1       1.495  51.653 -28.139  1.00  0.00     0.000 A 
HETATM   25  C25 UNL     1       2.205  51.528 -26.944  1.00  0.00     0.001 A 
HETATM   26  C26 UNL     1       1.703  52.094 -25.773  1.00  0.00     0.007 A 
ENDBRANCH  20  21
ENDBRANCH  15  20
ENDBRANCH   2  10
ENDBRANCH   1   2
BRANCH   1  27
HETATM   27  C5  UNL     1      -4.994  49.813 -22.282  1.00  0.00     0.109 C 
BRANCH  27  28
HETATM   28  C6  UNL     1      -5.697  50.611 -23.399  1.00  0.00     0.185 C 
BRANCH  28  29
HETATM   29  N1  UNL     1      -6.678  49.744 -24.080  1.00  0.00    -0.347 N 
HETATM   30  C7  UNL     1      -7.736  49.175 -23.403  1.00  0.00     0.218 C 
HETATM   31  O1  UNL     1      -7.924  49.304 -22.201  1.00  0.00    -0.274 OA
HETATM   32  H10 UNL     1      -6.681  49.738 -25.096  1.00  0.00     0.163 HD
BRANCH  30  33
HETATM   33  C8  UNL     1      -8.661  48.359 -24.283  1.00  0.00     0.105 C 
BRANCH  33  34
HETATM   34  C9  UNL     1      -9.158  49.155 -25.496  1.00  0.00     0.056 C 
BRANCH  34  35
HETATM   35  C10 UNL     1      -9.359  48.310 -26.762  1.00  0.00     0.315 C 
BRANCH  35  36
HETATM   36  N2  UNL     1      -8.816  49.009 -27.944  1.00  0.00     0.093 N 
HETATM   37  H16 UNL     1      -7.907  49.415 -27.711  1.00  0.00     0.314 HD
HETATM   38  H17 UNL     1      -9.437  49.791 -28.172  1.00  0.00     0.314 HD
ENDBRANCH  35  36
BRANCH  35  39
HETATM   39  C11 UNL     1     -10.842  47.985 -26.969  1.00  0.00     0.173 C 
HETATM   40  O2  UNL     1     -11.325  47.507 -27.989  1.00  0.00    -0.648 OA
BRANCH  39  41
HETATM   41  O3  UNL     1     -11.602  48.184 -25.871  1.00  0.00    -0.775 OA
HETATM   42  H18 UNL     1     -12.518  47.976 -26.154  1.00  0.00     0.167 HD
ENDBRANCH  39  41
ENDBRANCH  35  39
ENDBRANCH  34  35
ENDBRANCH  33  34
ENDBRANCH  30  33
ENDBRANCH  28  29
BRANCH  28  43
HETATM   43  C12 UNL     1      -4.650  51.172 -24.395  1.00  0.00     0.241 C 
HETATM   44  O4  UNL     1      -4.155  52.294 -24.281  1.00  0.00    -0.271 OA
HETATM   45  N3  UNL     1      -4.350  50.365 -25.473  1.00  0.00    -0.349 N 
HETATM   46  H19 UNL     1      -4.547  49.374 -25.408  1.00  0.00     0.163 HD
BRANCH  45  47
HETATM   47  C13 UNL     1      -3.314  50.759 -26.413  1.00  0.00     0.232 C 
BRANCH  47  48
HETATM   48  C14 UNL     1      -3.330  49.963 -27.715  1.00  0.00     0.158 C 
HETATM   49  O5  UNL     1      -3.296  48.743 -27.800  1.00  0.00    -0.649 OA
BRANCH  48  50
HETATM   50  O6  UNL     1      -3.359  50.708 -28.842  1.00  0.00    -0.775 OA
HETATM   51  H22 UNL     1      -3.449  50.032 -29.546  1.00  0.00     0.167 HD
ENDBRANCH  48  50
ENDBRANCH  47  48
ENDBRANCH  45  47
ENDBRANCH  28  43
ENDBRANCH  27  28
ENDBRANCH   1  27
TORSDOF 19
ENDMDL
MODEL 6
REMARK minimizedAffinity -8.89670277
REMARK CNNscore 0.227457851
REMARK CNNaffinity 6.33789396
REMARK  19 active torsions:
REMARK  status: ('A' for Active; 'I' for Inactive)
REMARK    1  A    between atoms: C2_2  and  C3_3 
REMARK    2  A    between atoms: C3_3  and  C4_4 
REMARK    3  A    between atoms: C4_4  and  S1_5 
REMARK    4  A    between atoms: C4_4  and  C15_25 
REMARK    5  A    between atoms: S1_5  and  C5_6 
REMARK    6  A    between atoms: C5_6  and  C6_7 
REMARK    7  A    between atoms: C6_7  and  N1_8 
REMARK    8  A    between atoms: C6_7  and  C12_18 
REMARK       I    between atoms: N1_8  and  C7_9 
REMARK    9  A    between atoms: C7_9  and  C8_11 
REMARK   10  A    between atoms: C8_11  and  C9_12 
REMARK   11  A    between atoms: C9_12  and  C10_13 
REMARK   12  A    between atoms: C10_13  and  N2_14 
REMARK   13  A    between atoms: C10_13  and  C11_15 
REMARK   14  A    between atoms: C11_15  and  O3_17 
REMARK       I    between atoms: C12_18  and  N3_20 
REMARK   15  A    between atoms: N3_20  and  C13_21 
REMARK   16  A    between atoms: C13_21  and  C14_22 
REMARK   17  A    between atoms: C14_22  and  O6_24 
REMARK   18  A    between atoms: C19_29  and  C20_30 
REMARK   19  A    between atoms: C20_30  and  C21_31 
ROOT
HETATM    1  S1  UNL     1      -3.498  52.222 -23.309  1.00  0.00    -0.154 SA
ENDROOT
BRANCH   1   2
HETATM    2  C4  UNL     1      -1.789  51.715 -23.823  1.00  0.00     0.113 C 
BRANCH   2   3
HETATM    3  C3  UNL     1      -1.493  51.365 -25.341  1.00  0.00    -0.022 C 
HETATM    4  C30 UNL     1      -2.184  52.306 -26.367  1.00  0.00     0.011 C 
HETATM    5  C31 UNL     1      -2.896  51.409 -27.372  1.00  0.00     0.001 C 
HETATM    6  C32 UNL     1      -3.313  50.213 -26.543  1.00  0.00     0.001 C 
HETATM    7  C33 UNL     1      -2.098  49.956 -25.662  1.00  0.00     0.011 C 
BRANCH   3   8
HETATM    8  C2  UNL     1       0.054  51.341 -25.561  1.00  0.00     0.006 C 
HETATM    9  C1  UNL     1       0.561  51.009 -26.964  1.00  0.00     0.006 C 
ENDBRANCH   3   8
ENDBRANCH   2   3
BRANCH   2  10
HETATM   10  C15 UNL     1      -1.235  50.776 -22.767  1.00  0.00     0.075 C 
HETATM   11  C16 UNL     1      -0.327  51.032 -21.826  1.00  0.00    -0.031 C 
HETATM   12  C17 UNL     1       0.374  52.279 -21.410  1.00  0.00     0.042 C 
HETATM   13  C28 UNL     1      -0.151  49.845 -20.954  1.00  0.00     0.140 C 
HETATM   14  C18 UNL     1      -0.052  52.649 -19.976  1.00  0.00     0.038 C 
HETATM   15  C19 UNL     1      -0.264  51.464 -19.040  1.00  0.00    -0.078 C 
HETATM   16  C27 UNL     1      -0.301  50.195 -19.501  1.00  0.00    -0.005 C 
HETATM   17  C29 UNL     1      -1.250  48.956 -21.522  1.00  0.00     0.275 C 
HETATM   18  O7  UNL     1      -1.604  47.876 -21.061  1.00  0.00    -0.264 OA
HETATM   19  O8  UNL     1      -1.779  49.488 -22.678  1.00  0.00    -0.281 OA
BRANCH  15  20
HETATM   20  C20 UNL     1      -0.438  51.783 -17.569  1.00  0.00     0.072 C 
BRANCH  20  21
HETATM   21  C21 UNL     1       0.861  51.789 -16.796  1.00  0.00    -0.054 A 
HETATM   22  C22 UNL     1       1.911  52.640 -17.174  1.00  0.00     0.007 A 
HETATM   23  C23 UNL     1       3.098  52.670 -16.439  1.00  0.00     0.001 A 
HETATM   24  C24 UNL     1       3.247  51.850 -15.324  1.00  0.00     0.000 A 
HETATM   25  C25 UNL     1       2.213  50.997 -14.939  1.00  0.00     0.001 A 
HETATM   26  C26 UNL     1       1.027  50.965 -15.673  1.00  0.00     0.007 A 
ENDBRANCH  20  21
ENDBRANCH  15  20
ENDBRANCH   2  10
ENDBRANCH   1   2
BRANCH   1  27
HETATM   27  C5  UNL     1      -4.325  50.626 -22.980  1.00  0.00     0.109 C 
BRANCH  27  28
HETATM   28  C6  UNL     1      -5.861  50.708 -23.100  1.00  0.00     0.185 C 
BRANCH  28  29
HETATM   29  N1  UNL     1      -6.463  50.655 -21.754  1.00  0.00    -0.347 N 
HETATM   30  C7  UNL     1      -6.353  49.537 -20.954  1.00  0.00     0.218 C 
HETATM   31  O1  UNL     1      -5.797  48.503 -21.300  1.00  0.00    -0.274 OA
HETATM   32  H10 UNL     1      -6.783  51.526 -21.342  1.00  0.00     0.163 HD
BRANCH  30  33
HETATM   33  C8  UNL     1      -6.993  49.692 -19.590  1.00  0.00     0.105 C 
BRANCH  33  34
HETATM   34  C9  UNL     1      -6.816  48.442 -18.721  1.00  0.00     0.056 C 
BRANCH  34  35
HETATM   35  C10 UNL     1      -8.056  47.539 -18.658  1.00  0.00     0.315 C 
BRANCH  35  36
HETATM   36  N2  UNL     1      -8.232  46.809 -19.929  1.00  0.00     0.093 N 
HETATM   37  H16 UNL     1      -7.327  46.453 -20.245  1.00  0.00     0.314 HD
HETATM   38  H17 UNL     1      -8.551  47.472 -20.641  1.00  0.00     0.314 HD
ENDBRANCH  35  36
BRANCH  35  39
HETATM   39  C11 UNL     1      -9.310  48.359 -18.334  1.00  0.00     0.173 C 
HETATM   40  O2  UNL     1     -10.277  48.490 -19.074  1.00  0.00    -0.648 OA
BRANCH  39  41
HETATM   41  O3  UNL     1      -9.316  48.876 -17.088  1.00  0.00    -0.775 OA
HETATM   42  H18 UNL     1     -10.145  49.399 -17.033  1.00  0.00     0.167 HD
ENDBRANCH  39  41
ENDBRANCH  35  39
ENDBRANCH  34  35
ENDBRANCH  33  34
ENDBRANCH  30  33
ENDBRANCH  28  29
BRANCH  28  43
HETATM   43  C12 UNL     1      -6.389  49.563 -24.002  1.00  0.00     0.241 C 
HETATM   44  O4  UNL     1      -5.657  48.690 -24.468  1.00  0.00    -0.271 OA
HETATM   45  N3  UNL     1      -7.731  49.615 -24.318  1.00  0.00    -0.349 N 
HETATM   46  H19 UNL     1      -8.349  50.157 -23.727  1.00  0.00     0.163 HD
BRANCH  45  47
HETATM   47  C13 UNL     1      -8.343  48.538 -25.079  1.00  0.00     0.232 C 
BRANCH  47  48
HETATM   48  C14 UNL     1      -9.662  48.926 -25.740  1.00  0.00     0.158 C 
HETATM   49  O5  UNL     1     -10.627  48.188 -25.882  1.00  0.00    -0.649 OA
BRANCH  48  50
HETATM   50  O6  UNL     1      -9.716  50.190 -26.215  1.00  0.00    -0.775 OA
HETATM   51  H22 UNL     1     -10.646  50.269 -26.516  1.00  0.00     0.167 HD
ENDBRANCH  48  50
ENDBRANCH  47  48
ENDBRANCH  45  47
ENDBRANCH  28  43
ENDBRANCH  27  28
ENDBRANCH   1  27
TORSDOF 19
ENDMDL
MODEL 7
REMARK minimizedAffinity -8.60712147
REMARK CNNscore 0.189147428
REMARK CNNaffinity 6.17662001
REMARK  19 active torsions:
REMARK  status: ('A' for Active; 'I' for Inactive)
REMARK    1  A    between atoms: C2_2  and  C3_3 
REMARK    2  A    between atoms: C3_3  and  C4_4 
REMARK    3  A    between atoms: C4_4  and  S1_5 
REMARK    4  A    between atoms: C4_4  and  C15_25 
REMARK    5  A    between atoms: S1_5  and  C5_6 
REMARK    6  A    between atoms: C5_6  and  C6_7 
REMARK    7  A    between atoms: C6_7  and  N1_8 
REMARK    8  A    between atoms: C6_7  and  C12_18 
REMARK       I    between atoms: N1_8  and  C7_9 
REMARK    9  A    between atoms: C7_9  and  C8_11 
REMARK   10  A    between atoms: C8_11  and  C9_12 
REMARK   11  A    between atoms: C9_12  and  C10_13 
REMARK   12  A    between atoms: C10_13  and  N2_14 
REMARK   13  A    between atoms: C10_13  and  C11_15 
REMARK   14  A    between atoms: C11_15  and  O3_17 
REMARK       I    between atoms: C12_18  and  N3_20 
REMARK   15  A    between atoms: N3_20  and  C13_21 
REMARK   16  A    between atoms: C13_21  and  C14_22 
REMARK   17  A    between atoms: C14_22  and  O6_24 
REMARK   18  A    between atoms: C19_29  and  C20_30 
REMARK   19  A    between atoms: C20_30  and  C21_31 
ROOT
HETATM    1  S1  UNL     1      -3.811  51.957 -23.076  1.00  0.00    -0.154 SA
ENDROOT
BRANCH   1   2
HETATM    2  C4  UNL     1      -1.985  52.040 -23.399  1.00  0.00     0.113 C 
BRANCH   2   3
HETATM    3  C3  UNL     1      -1.451  52.134 -24.890  1.00  0.00    -0.022 C 
HETATM    4  C30 UNL     1      -0.686  50.873 -25.381  1.00  0.00     0.011 C 
HETATM    5  C31 UNL     1       0.630  51.364 -25.972  1.00  0.00     0.001 C 
HETATM    6  C32 UNL     1       0.964  52.576 -25.130  1.00  0.00     0.001 C 
HETATM    7  C33 UNL     1      -0.380  53.274 -24.972  1.00  0.00     0.011 C 
BRANCH   3   8
HETATM    8  C2  UNL     1      -2.651  52.461 -25.836  1.00  0.00     0.006 C 
HETATM    9  C1  UNL     1      -3.044  51.403 -26.866  1.00  0.00     0.006 C 
ENDBRANCH   3   8
ENDBRANCH   2   3
BRANCH   2  10
HETATM   10  C15 UNL     1      -1.293  51.060 -22.468  1.00  0.00     0.075 C 
HETATM   11  C16 UNL     1      -0.367  51.310 -21.544  1.00  0.00    -0.031 C 
HETATM   12  C17 UNL     1       0.235  52.573 -21.031  1.00  0.00     0.042 C 
HETATM   13  C28 UNL     1      -0.037  50.066 -20.806  1.00  0.00     0.140 C 
HETATM   14  C18 UNL     1      -0.150  52.757 -19.552  1.00  0.00     0.038 C 
HETATM   15  C19 UNL     1      -0.203  51.471 -18.734  1.00  0.00    -0.078 C 
HETATM   16  C27 UNL     1      -0.146  50.257 -19.320  1.00  0.00    -0.005 C 
HETATM   17  C29 UNL     1      -1.077  49.134 -21.416  1.00  0.00     0.275 C 
HETATM   18  O7  UNL     1      -1.305  47.985 -21.054  1.00  0.00    -0.264 OA
HETATM   19  O8  UNL     1      -1.711  49.722 -22.490  1.00  0.00    -0.281 OA
BRANCH  15  20
HETATM   20  C20 UNL     1      -0.332  51.626 -17.232  1.00  0.00     0.072 C 
BRANCH  20  21
HETATM   21  C21 UNL     1       0.998  51.720 -16.520  1.00  0.00    -0.054 A 
HETATM   22  C22 UNL     1       1.255  50.938 -15.384  1.00  0.00     0.007 A 
HETATM   23  C23 UNL     1       2.496  51.000 -14.746  1.00  0.00     0.001 A 
HETATM   24  C24 UNL     1       3.488  51.845 -15.236  1.00  0.00     0.000 A 
HETATM   25  C25 UNL     1       3.245  52.630 -16.363  1.00  0.00     0.001 A 
HETATM   26  C26 UNL     1       2.006  52.570 -16.999  1.00  0.00     0.007 A 
ENDBRANCH  20  21
ENDBRANCH  15  20
ENDBRANCH   2  10
ENDBRANCH   1   2
BRANCH   1  27
HETATM   27  C5  UNL     1      -4.229  50.226 -23.490  1.00  0.00     0.109 C 
BRANCH  27  28
HETATM   28  C6  UNL     1      -5.702  49.877 -23.196  1.00  0.00     0.185 C 
BRANCH  28  29
HETATM   29  N1  UNL     1      -5.782  49.098 -21.945  1.00  0.00    -0.347 N 
HETATM   30  C7  UNL     1      -5.045  47.948 -21.758  1.00  0.00     0.218 C 
HETATM   31  O1  UNL     1      -4.310  47.463 -22.609  1.00  0.00    -0.274 OA
HETATM   32  H10 UNL     1      -6.231  49.532 -21.144  1.00  0.00     0.163 HD
BRANCH  30  33
HETATM   33  C8  UNL     1      -5.224  47.318 -20.392  1.00  0.00     0.105 C 
BRANCH  33  34
HETATM   34  C9  UNL     1      -4.341  46.079 -20.205  1.00  0.00     0.056 C 
BRANCH  34  35
HETATM   35  C10 UNL     1      -5.121  44.790 -19.909  1.00  0.00     0.315 C 
BRANCH  35  36
HETATM   36  N2  UNL     1      -4.197  43.650 -19.745  1.00  0.00     0.093 N 
HETATM   37  H16 UNL     1      -3.402  43.937 -19.170  1.00  0.00     0.314 HD
HETATM   38  H17 UNL     1      -3.821  43.403 -20.664  1.00  0.00     0.314 HD
ENDBRANCH  35  36
BRANCH  35  39
HETATM   39  C11 UNL     1      -6.135  44.501 -21.021  1.00  0.00     0.173 C 
HETATM   40  O2  UNL     1      -7.149  45.152 -21.239  1.00  0.00    -0.648 OA
BRANCH  39  41
HETATM   41  O3  UNL     1      -5.773  43.489 -21.838  1.00  0.00    -0.775 OA
HETATM   42  H18 UNL     1      -6.519  43.390 -22.468  1.00  0.00     0.167 HD
ENDBRANCH  39  41
ENDBRANCH  35  39
ENDBRANCH  34  35
ENDBRANCH  33  34
ENDBRANCH  30  33
ENDBRANCH  28  29
BRANCH  28  43
HETATM   43  C12 UNL     1      -6.315  49.098 -24.387  1.00  0.00     0.241 C 
HETATM   44  O4  UNL     1      -5.629  48.535 -25.240  1.00  0.00    -0.271 OA
HETATM   45  N3  UNL     1      -7.691  49.127 -24.483  1.00  0.00    -0.349 N 
HETATM   46  H19 UNL     1      -8.232  49.349 -23.655  1.00  0.00     0.163 HD
BRANCH  45  47
HETATM   47  C13 UNL     1      -8.369  48.351 -25.508  1.00  0.00     0.232 C 
BRANCH  47  48
HETATM   48  C14 UNL     1      -9.738  48.904 -25.894  1.00  0.00     0.158 C 
HETATM   49  O5  UNL     1     -10.767  48.249 -25.980  1.00  0.00    -0.649 OA
BRANCH  48  50
HETATM   50  O6  UNL     1      -9.763  50.225 -26.179  1.00  0.00    -0.775 OA
HETATM   51  H22 UNL     1     -10.718  50.398 -26.316  1.00  0.00     0.167 HD
ENDBRANCH  48  50
ENDBRANCH  47  48
ENDBRANCH  45  47
ENDBRANCH  28  43
ENDBRANCH  27  28
ENDBRANCH   1  27
TORSDOF 19
ENDMDL
MODEL 8
REMARK minimizedAffinity -8.99683189
REMARK CNNscore 0.187589556
REMARK CNNaffinity 6.03929377
REMARK  19 active torsions:
REMARK  status: ('A' for Active; 'I' for Inactive)
REMARK    1  A    between atoms: C2_2  and  C3_3 
REMARK    2  A    between atoms: C3_3  and  C4_4 
REMARK    3  A    between atoms: C4_4  and  S1_5 
REMARK    4  A    between atoms: C4_4  and  C15_25 
REMARK    5  A    between atoms: S1_5  and  C5_6 
REMARK    6  A    between atoms: C5_6  and  C6_7 
REMARK    7  A    between atoms: C6_7  and  N1_8 
REMARK    8  A    between atoms: C6_7  and  C12_18 
REMARK       I    between atoms: N1_8  and  C7_9 
REMARK    9  A    between atoms: C7_9  and  C8_11 
REMARK   10  A    between atoms: C8_11  and  C9_12 
REMARK   11  A    between atoms: C9_12  and  C10_13 
REMARK   12  A    between atoms: C10_13  and  N2_14 
REMARK   13  A    between atoms: C10_13  and  C11_15 
REMARK   14  A    between atoms: C11_15  and  O3_17 
REMARK       I    between atoms: C12_18  and  N3_20 
REMARK   15  A    between atoms: N3_20  and  C13_21 
REMARK   16  A    between atoms: C13_21  and  C14_22 
REMARK   17  A    between atoms: C14_22  and  O6_24 
REMARK   18  A    between atoms: C19_29  and  C20_30 
REMARK   19  A    between atoms: C20_30  and  C21_31 
ROOT
HETATM    1  S1  UNL     1      -3.651  52.295 -23.157  1.00  0.00    -0.154 SA
ENDROOT
BRANCH   1   2
HETATM    2  C4  UNL     1      -1.869  52.093 -23.634  1.00  0.00     0.113 C 
BRANCH   2   3
HETATM    3  C3  UNL     1      -1.468  51.988 -25.165  1.00  0.00    -0.022 C 
HETATM    4  C30 UNL     1      -0.852  50.622 -25.578  1.00  0.00     0.011 C 
HETATM    5  C31 UNL     1       0.438  50.934 -26.327  1.00  0.00     0.001 C 
HETATM    6  C32 UNL     1       0.941  52.191 -25.652  1.00  0.00     0.001 C 
HETATM    7  C33 UNL     1      -0.324  53.016 -25.460  1.00  0.00     0.011 C 
BRANCH   3   8
HETATM    8  C2  UNL     1      -2.721  52.321 -26.037  1.00  0.00     0.006 C 
HETATM    9  C1  UNL     1      -2.937  51.493 -27.304  1.00  0.00     0.006 C 
ENDBRANCH   3   8
ENDBRANCH   2   3
BRANCH   2  10
HETATM   10  C15 UNL     1      -1.230  51.105 -22.674  1.00  0.00     0.075 C 
HETATM   11  C16 UNL     1      -0.316  51.338 -21.732  1.00  0.00    -0.031 C 
HETATM   12  C17 UNL     1       0.315  52.588 -21.224  1.00  0.00     0.042 C 
HETATM   13  C28 UNL     1      -0.043  50.095 -20.971  1.00  0.00     0.140 C 
HETATM   14  C18 UNL     1      -0.096  52.806 -19.756  1.00  0.00     0.038 C 
HETATM   15  C19 UNL     1      -0.209  51.535 -18.922  1.00  0.00    -0.078 C 
HETATM   16  C27 UNL     1      -0.178  50.311 -19.490  1.00  0.00    -0.005 C 
HETATM   17  C29 UNL     1      -1.099  49.189 -21.591  1.00  0.00     0.275 C 
HETATM   18  O7  UNL     1      -1.372  48.053 -21.218  1.00  0.00    -0.264 OA
HETATM   19  O8  UNL     1      -1.690  49.781 -22.686  1.00  0.00    -0.281 OA
BRANCH  15  20
HETATM   20  C20 UNL     1      -0.365  51.716 -17.425  1.00  0.00     0.072 C 
BRANCH  20  21
HETATM   21  C21 UNL     1       0.952  51.825 -16.691  1.00  0.00    -0.054 A 
HETATM   22  C22 UNL     1       1.194  51.055 -15.544  1.00  0.00     0.007 A 
HETATM   23  C23 UNL     1       2.423  51.130 -14.885  1.00  0.00     0.001 A 
HETATM   24  C24 UNL     1       3.418  51.977 -15.365  1.00  0.00     0.000 A 
HETATM   25  C25 UNL     1       3.189  52.751 -16.502  1.00  0.00     0.001 A 
HETATM   26  C26 UNL     1       1.962  52.678 -17.160  1.00  0.00     0.007 A 
ENDBRANCH  20  21
ENDBRANCH  15  20
ENDBRANCH   2  10
ENDBRANCH   1   2
BRANCH   1  27
HETATM   27  C5  UNL     1      -4.260  50.574 -23.082  1.00  0.00     0.109 C 
BRANCH  27  28
HETATM   28  C6  UNL     1      -5.793  50.484 -22.934  1.00  0.00     0.185 C 
BRANCH  28  29
HETATM   29  N1  UNL     1      -6.135  50.209 -21.525  1.00  0.00    -0.347 N 
HETATM   30  C7  UNL     1      -5.545  49.181 -20.823  1.00  0.00     0.218 C 
HETATM   31  O1  UNL     1      -4.737  48.400 -21.307  1.00  0.00    -0.274 OA
HETATM   32  H10 UNL     1      -6.660  50.915 -21.018  1.00  0.00     0.163 HD
BRANCH  30  33
HETATM   33  C8  UNL     1      -5.990  49.089 -19.377  1.00  0.00     0.105 C 
BRANCH  33  34
HETATM   34  C9  UNL     1      -5.701  47.712 -18.768  1.00  0.00     0.056 C 
BRANCH  34  35
HETATM   35  C10 UNL     1      -4.625  47.722 -17.673  1.00  0.00     0.315 C 
BRANCH  35  36
HETATM   36  N2  UNL     1      -4.152  49.098 -17.423  1.00  0.00     0.093 N 
HETATM   37  H16 UNL     1      -4.953  49.732 -17.390  1.00  0.00     0.314 HD
HETATM   38  H17 UNL     1      -3.577  49.392 -18.216  1.00  0.00     0.314 HD
ENDBRANCH  35  36
BRANCH  35  39
HETATM   39  C11 UNL     1      -3.452  46.815 -18.056  1.00  0.00     0.173 C 
HETATM   40  O2  UNL     1      -3.237  46.375 -19.179  1.00  0.00    -0.648 OA
BRANCH  39  41
HETATM   41  O3  UNL     1      -2.581  46.595 -17.049  1.00  0.00    -0.775 OA
HETATM   42  H18 UNL     1      -1.914  45.978 -17.418  1.00  0.00     0.167 HD
ENDBRANCH  39  41
ENDBRANCH  35  39
ENDBRANCH  34  35
ENDBRANCH  33  34
ENDBRANCH  30  33
ENDBRANCH  28  29
BRANCH  28  43
HETATM   43  C12 UNL     1      -6.358  49.392 -23.877  1.00  0.00     0.241 C 
HETATM   44  O4  UNL     1      -5.677  48.457 -24.299  1.00  0.00    -0.271 OA
HETATM   45  N3  UNL     1      -7.665  49.563 -24.283  1.00  0.00    -0.349 N 
HETATM   46  H19 UNL     1      -8.272  50.158 -23.731  1.00  0.00     0.163 HD
BRANCH  45  47
HETATM   47  C13 UNL     1      -8.318  48.546 -25.091  1.00  0.00     0.232 C 
BRANCH  47  48
HETATM   48  C14 UNL     1      -9.640  49.001 -25.702  1.00  0.00     0.158 C 
HETATM   49  O5  UNL     1     -10.647  48.314 -25.803  1.00  0.00    -0.649 OA
BRANCH  48  50
HETATM   50  O6  UNL     1      -9.646  50.265 -26.179  1.00  0.00    -0.775 OA
HETATM   51  H22 UNL     1     -10.581  50.392 -26.445  1.00  0.00     0.167 HD
ENDBRANCH  48  50
ENDBRANCH  47  48
ENDBRANCH  45  47
ENDBRANCH  28  43
ENDBRANCH  27  28
ENDBRANCH   1  27
TORSDOF 19
ENDMDL
MODEL 9
REMARK minimizedAffinity -8.25177479
REMARK CNNscore 0.187323451
REMARK CNNaffinity 6.25111389
REMARK  19 active torsions:
REMARK  status: ('A' for Active; 'I' for Inactive)
REMARK    1  A    between atoms: C2_2  and  C3_3 
REMARK    2  A    between atoms: C3_3  and  C4_4 
REMARK    3  A    between atoms: C4_4  and  S1_5 
REMARK    4  A    between atoms: C4_4  and  C15_25 
REMARK    5  A    between atoms: S1_5  and  C5_6 
REMARK    6  A    between atoms: C5_6  and  C6_7 
REMARK    7  A    between atoms: C6_7  and  N1_8 
REMARK    8  A    between atoms: C6_7  and  C12_18 
REMARK       I    between atoms: N1_8  and  C7_9 
REMARK    9  A    between atoms: C7_9  and  C8_11 
REMARK   10  A    between atoms: C8_11  and  C9_12 
REMARK   11  A    between atoms: C9_12  and  C10_13 
REMARK   12  A    between atoms: C10_13  and  N2_14 
REMARK   13  A    between atoms: C10_13  and  C11_15 
REMARK   14  A    between atoms: C11_15  and  O3_17 
REMARK       I    between atoms: C12_18  and  N3_20 
REMARK   15  A    between atoms: N3_20  and  C13_21 
REMARK   16  A    between atoms: C13_21  and  C14_22 
REMARK   17  A    between atoms: C14_22  and  O6_24 
REMARK   18  A    between atoms: C19_29  and  C20_30 
REMARK   19  A    between atoms: C20_30  and  C21_31 
ROOT
HETATM    1  S1  UNL     1      -6.333  49.625 -20.702  1.00  0.00    -0.154 SA
ENDROOT
BRANCH   1   2
HETATM    2  C4  UNL     1      -5.932  47.832 -20.963  1.00  0.00     0.113 C 
BRANCH   2   3
HETATM    3  C3  UNL     1      -7.071  46.738 -20.812  1.00  0.00    -0.022 C 
HETATM    4  C30 UNL     1      -6.560  45.271 -20.816  1.00  0.00     0.011 C 
HETATM    5  C31 UNL     1      -7.403  44.517 -21.837  1.00  0.00     0.001 C 
HETATM    6  C32 UNL     1      -7.702  45.565 -22.888  1.00  0.00     0.001 C 
HETATM    7  C33 UNL     1      -8.008  46.809 -22.065  1.00  0.00     0.011 C 
BRANCH   3   8
HETATM    8  C2  UNL     1      -7.891  47.040 -19.517  1.00  0.00     0.006 C 
HETATM    9  C1  UNL     1      -9.344  47.482 -19.690  1.00  0.00     0.006 C 
ENDBRANCH   3   8
ENDBRANCH   2   3
BRANCH   2  10
HETATM   10  C15 UNL     1      -4.594  47.544 -20.305  1.00  0.00     0.075 C 
HETATM   11  C16 UNL     1      -3.400  48.058 -20.599  1.00  0.00    -0.031 C 
HETATM   12  C17 UNL     1      -2.961  49.114 -21.553  1.00  0.00     0.042 C 
HETATM   13  C28 UNL     1      -2.384  47.560 -19.640  1.00  0.00     0.140 C 
HETATM   14  C18 UNL     1      -2.395  50.310 -20.764  1.00  0.00     0.038 C 
HETATM   15  C19 UNL     1      -1.607  49.943 -19.512  1.00  0.00    -0.078 C 
HETATM   16  C27 UNL     1      -1.609  48.686 -19.018  1.00  0.00    -0.005 C 
HETATM   17  C29 UNL     1      -3.296  46.799 -18.686  1.00  0.00     0.275 C 
HETATM   18  O7  UNL     1      -2.951  46.282 -17.629  1.00  0.00    -0.264 OA
HETATM   19  O8  UNL     1      -4.576  46.700 -19.187  1.00  0.00    -0.281 OA
BRANCH  15  20
HETATM   20  C20 UNL     1      -0.828  51.060 -18.847  1.00  0.00     0.072 C 
BRANCH  20  21
HETATM   21  C21 UNL     1      -0.115  51.964 -19.827  1.00  0.00    -0.054 A 
HETATM   22  C22 UNL     1       0.126  53.309 -19.511  1.00  0.00     0.007 A 
HETATM   23  C23 UNL     1       0.815  54.134 -20.401  1.00  0.00     0.001 A 
HETATM   24  C24 UNL     1       1.266  53.624 -21.615  1.00  0.00     0.000 A 
HETATM   25  C25 UNL     1       1.030  52.289 -21.944  1.00  0.00     0.001 A 
HETATM   26  C26 UNL     1       0.341  51.464 -21.056  1.00  0.00     0.007 A 
ENDBRANCH  20  21
ENDBRANCH  15  20
ENDBRANCH   2  10
ENDBRANCH   1   2
BRANCH   1  27
HETATM   27  C5  UNL     1      -6.891  50.172 -22.355  1.00  0.00     0.109 C 
BRANCH  27  28
HETATM   28  C6  UNL     1      -5.941  49.729 -23.487  1.00  0.00     0.185 C 
BRANCH  28  29
HETATM   29  N1  UNL     1      -5.361  50.921 -24.135  1.00  0.00    -0.347 N 
HETATM   30  C7  UNL     1      -4.129  50.883 -24.753  1.00  0.00     0.218 C 
HETATM   31  O1  UNL     1      -3.410  49.894 -24.780  1.00  0.00    -0.274 OA
HETATM   32  H10 UNL     1      -5.971  51.716 -24.300  1.00  0.00     0.163 HD
BRANCH  30  33
HETATM   33  C8  UNL     1      -3.727  52.192 -25.403  1.00  0.00     0.105 C 
BRANCH  33  34
HETATM   34  C9  UNL     1      -2.825  51.979 -26.624  1.00  0.00     0.056 C 
BRANCH  34  35
HETATM   35  C10 UNL     1      -1.366  52.408 -26.411  1.00  0.00     0.315 C 
BRANCH  35  36
HETATM   36  N2  UNL     1      -1.233  53.194 -25.169  1.00  0.00     0.093 N 
HETATM   37  H16 UNL     1      -1.773  52.748 -24.424  1.00  0.00     0.314 HD
HETATM   38  H17 UNL     1      -1.651  54.116 -25.322  1.00  0.00     0.314 HD
ENDBRANCH  35  36
BRANCH  35  39
HETATM   39  C11 UNL     1      -0.856  53.213 -27.610  1.00  0.00     0.173 C 
HETATM   40  O2  UNL     1      -0.898  54.433 -27.711  1.00  0.00    -0.648 OA
BRANCH  39  41
HETATM   41  O3  UNL     1      -0.246  52.462 -28.552  1.00  0.00    -0.775 OA
HETATM   42  H18 UNL     1      -0.009  53.091 -29.266  1.00  0.00     0.167 HD
ENDBRANCH  39  41
ENDBRANCH  35  39
ENDBRANCH  34  35
ENDBRANCH  33  34
ENDBRANCH  30  33
ENDBRANCH  28  29
BRANCH  28  43
HETATM   43  C12 UNL     1      -6.701  48.844 -24.507  1.00  0.00     0.241 C 
HETATM   44  O4  UNL     1      -6.155  47.945 -25.147  1.00  0.00    -0.271 OA
HETATM   45  N3  UNL     1      -8.026  49.168 -24.717  1.00  0.00    -0.349 N 
HETATM   46  H19 UNL     1      -8.513  49.706 -24.011  1.00  0.00     0.163 HD
BRANCH  45  47
HETATM   47  C13 UNL     1      -8.851  48.341 -25.583  1.00  0.00     0.232 C 
BRANCH  47  48
HETATM   48  C14 UNL     1     -10.180  48.986 -25.964  1.00  0.00     0.158 C 
HETATM   49  O5  UNL     1     -11.203  48.381 -26.255  1.00  0.00    -0.649 OA
BRANCH  48  50
HETATM   50  O6  UNL     1     -10.174  50.337 -25.994  1.00  0.00    -0.775 OA
HETATM   51  H22 UNL     1     -11.114  50.554 -26.171  1.00  0.00     0.167 HD
ENDBRANCH  48  50
ENDBRANCH  47  48
ENDBRANCH  45  47
ENDBRANCH  28  43
ENDBRANCH  27  28
ENDBRANCH   1  27
TORSDOF 19
ENDMDL
