MODEL 1
REMARK minimizedAffinity -7.09486628
REMARK CNNscore 0.705547154
REMARK CNNaffinity 6.76426077
REMARK  11 active torsions:
REMARK  status: ('A' for Active; 'I' for Inactive)
REMARK    1  A    between atoms: C4_4  and  C5_5 
REMARK    2  A    between atoms: C5_5  and  O2_7 
REMARK    3  A    between atoms: O2_7  and  C6_8 
REMARK    4  A    between atoms: C6_8  and  C7_9 
REMARK    5  A    between atoms: C17_19  and  O3_21 
REMARK    6  A    between atoms: C19_22  and  C20_23 
REMARK    7  A    between atoms: C20_23  and  C21_24 
REMARK    8  A    between atoms: C21_24  and  C22_25 
REMARK    9  A    between atoms: C22_25  and  C24_27 
REMARK   10  A    between atoms: C24_27  and  C25_28 
REMARK   11  A    between atoms: C25_28  and  O4_29 
ROOT
HETATM    1  C7  UNL     1      -4.248  49.701 -24.500  1.00  0.00    -0.018 C 
HETATM    2  C8  UNL     1      -3.509  49.135 -25.734  1.00  0.00     0.018 C 
HETATM    3  C9  UNL     1      -4.375  51.232 -24.697  1.00  0.00     0.012 C 
HETATM    4  C10 UNL     1      -4.565  51.954 -23.378  1.00  0.00     0.002 C 
HETATM    5  C11 UNL     1      -3.318  51.845 -22.506  1.00  0.00     0.010 C 
HETATM    6  C12 UNL     1      -2.610  50.445 -22.490  1.00  0.00    -0.033 C 
HETATM    7  C13 UNL     1      -1.323  50.552 -23.352  1.00  0.00     0.016 C 
HETATM    8  C14 UNL     1      -3.565  49.361 -23.108  1.00  0.00     0.004 C 
HETATM    9  C15 UNL     1      -2.933  47.952 -23.078  1.00  0.00     0.009 C 
HETATM   10  C16 UNL     1      -2.113  47.648 -21.823  1.00  0.00     0.038 C 
HETATM   11  C17 UNL     1      -2.475  48.531 -20.629  1.00  0.00     0.059 C 
HETATM   12  C18 UNL     1      -1.751  48.011 -19.376  1.00  0.00     0.046 C 
HETATM   13  C19 UNL     1      -2.254  50.062 -20.952  1.00  0.00     0.028 C 
ENDROOT
BRANCH   1  14
HETATM   14  C6  UNL     1      -5.676  49.058 -24.487  1.00  0.00     0.188 C 
BRANCH  14  15
HETATM   15  O2  UNL     1      -5.720  47.892 -25.326  1.00  0.00    -0.317 OA
BRANCH  15  16
HETATM   16  C5  UNL     1      -6.916  47.695 -25.939  1.00  0.00     0.283 C 
HETATM   17  O1  UNL     1      -8.007  47.681 -25.400  1.00  0.00    -0.260 OA
BRANCH  16  18
HETATM   18  C4  UNL     1      -6.643  47.526 -27.389  1.00  0.00     0.084 C 
HETATM   19  C2  UNL     1      -7.109  46.547 -28.187  1.00  0.00    -0.082 C 
HETATM   20  C1  UNL     1      -7.959  45.383 -27.755  1.00  0.00     0.043 C 
HETATM   21  C3  UNL     1      -6.788  46.557 -29.660  1.00  0.00     0.043 C 
ENDBRANCH  16  18
ENDBRANCH  15  16
ENDBRANCH  14  15
ENDBRANCH   1  14
BRANCH  13  22
HETATM   22  C20 UNL     1      -0.871  50.581 -20.445  1.00  0.00     0.009 C 
BRANCH  22  23
HETATM   23  C21 UNL     1      -0.830  51.971 -19.785  1.00  0.00     0.005 C 
BRANCH  23  24
HETATM   24  C22 UNL     1       0.566  52.610 -19.573  1.00  0.00    -0.017 C 
HETATM   25  C23 UNL     1       0.950  52.661 -18.091  1.00  0.00     0.010 C 
BRANCH  24  26
HETATM   26  C24 UNL     1       0.691  53.988 -20.249  1.00  0.00     0.030 C 
BRANCH  26  27
HETATM   27  C25 UNL     1       1.934  54.162 -21.121  1.00  0.00     0.164 C 
BRANCH  27  28
HETATM   28  O4  UNL     1       1.678  55.015 -22.227  1.00  0.00    -0.401 OA
HETATM   29  H44 UNL     1       1.307  55.845 -21.882  1.00  0.00     0.209 HD
ENDBRANCH  27  28
ENDBRANCH  26  27
ENDBRANCH  24  26
ENDBRANCH  23  24
ENDBRANCH  22  23
ENDBRANCH  13  22
BRANCH  11  30
HETATM   30  O3  UNL     1      -3.877  48.354 -20.348  1.00  0.00    -0.390 OA
HETATM   31  H30 UNL     1      -4.037  47.411 -20.177  1.00  0.00     0.210 HD
ENDBRANCH  11  30
TORSDOF 11
ENDMDL
MODEL 2
REMARK minimizedAffinity -7.15506649
REMARK CNNscore 0.541723847
REMARK CNNaffinity 6.80760431
REMARK  11 active torsions:
REMARK  status: ('A' for Active; 'I' for Inactive)
REMARK    1  A    between atoms: C4_4  and  C5_5 
REMARK    2  A    between atoms: C5_5  and  O2_7 
REMARK    3  A    between atoms: O2_7  and  C6_8 
REMARK    4  A    between atoms: C6_8  and  C7_9 
REMARK    5  A    between atoms: C17_19  and  O3_21 
REMARK    6  A    between atoms: C19_22  and  C20_23 
REMARK    7  A    between atoms: C20_23  and  C21_24 
REMARK    8  A    between atoms: C21_24  and  C22_25 
REMARK    9  A    between atoms: C22_25  and  C24_27 
REMARK   10  A    between atoms: C24_27  and  C25_28 
REMARK   11  A    between atoms: C25_28  and  O4_29 
ROOT
HETATM    1  C7  UNL     1      -4.228  50.192 -22.996  1.00  0.00    -0.018 C 
HETATM    2  C8  UNL     1      -4.265  48.651 -23.121  1.00  0.00     0.018 C 
HETATM    3  C9  UNL     1      -4.795  50.778 -24.313  1.00  0.00     0.012 C 
HETATM    4  C10 UNL     1      -4.321  52.199 -24.544  1.00  0.00     0.002 C 
HETATM    5  C11 UNL     1      -2.817  52.244 -24.795  1.00  0.00     0.010 C 
HETATM    6  C12 UNL     1      -1.940  51.307 -23.891  1.00  0.00    -0.033 C 
HETATM    7  C13 UNL     1      -1.489  50.097 -24.754  1.00  0.00     0.016 C 
HETATM    8  C14 UNL     1      -2.794  50.793 -22.675  1.00  0.00     0.004 C 
HETATM    9  C15 UNL     1      -1.966  49.899 -21.728  1.00  0.00     0.009 C 
HETATM   10  C16 UNL     1      -0.517  50.348 -21.531  1.00  0.00     0.038 C 
HETATM   11  C17 UNL     1      -0.286  51.823 -21.856  1.00  0.00     0.059 C 
HETATM   12  C18 UNL     1       1.137  52.219 -21.431  1.00  0.00     0.046 C 
HETATM   13  C19 UNL     1      -0.662  52.153 -23.356  1.00  0.00     0.028 C 
ENDROOT
BRANCH   1  14
HETATM   14  C6  UNL     1      -5.170  50.576 -21.806  1.00  0.00     0.188 C 
BRANCH  14  15
HETATM   15  O2  UNL     1      -4.601  50.172 -20.550  1.00  0.00    -0.317 OA
BRANCH  15  16
HETATM   16  C5  UNL     1      -5.397  49.348 -19.820  1.00  0.00     0.283 C 
HETATM   17  O1  UNL     1      -6.573  49.527 -19.562  1.00  0.00    -0.260 OA
BRANCH  16  18
HETATM   18  C4  UNL     1      -4.571  48.181 -19.421  1.00  0.00     0.084 C 
HETATM   19  C2  UNL     1      -3.692  48.126 -18.401  1.00  0.00    -0.082 C 
HETATM   20  C1  UNL     1      -3.324  49.265 -17.490  1.00  0.00     0.043 C 
HETATM   21  C3  UNL     1      -2.978  46.837 -18.089  1.00  0.00     0.043 C 
ENDBRANCH  16  18
ENDBRANCH  15  16
ENDBRANCH  14  15
ENDBRANCH   1  14
BRANCH  13  22
HETATM   22  C20 UNL     1       0.585  52.132 -24.296  1.00  0.00     0.009 C 
BRANCH  22  23
HETATM   23  C21 UNL     1       0.465  52.849 -25.653  1.00  0.00     0.005 C 
BRANCH  23  24
HETATM   24  C22 UNL     1       0.804  52.023 -26.920  1.00  0.00    -0.017 C 
HETATM   25  C23 UNL     1       2.296  51.680 -26.993  1.00  0.00     0.010 C 
BRANCH  24  26
HETATM   26  C24 UNL     1       0.302  52.692 -28.212  1.00  0.00     0.030 C 
BRANCH  26  27
HETATM   27  C25 UNL     1      -0.617  53.894 -27.995  1.00  0.00     0.164 C 
BRANCH  27  28
HETATM   28  O4  UNL     1      -1.985  53.513 -28.021  1.00  0.00    -0.401 OA
HETATM   29  H44 UNL     1      -2.104  52.792 -27.380  1.00  0.00     0.209 HD
ENDBRANCH  27  28
ENDBRANCH  26  27
ENDBRANCH  24  26
ENDBRANCH  23  24
ENDBRANCH  22  23
ENDBRANCH  13  22
BRANCH  11  30
HETATM   30  O3  UNL     1      -1.156  52.609 -21.018  1.00  0.00    -0.390 OA
HETATM   31  H30 UNL     1      -0.960  52.396 -20.090  1.00  0.00     0.210 HD
ENDBRANCH  11  30
TORSDOF 11
ENDMDL
MODEL 3
REMARK minimizedAffinity -8.41474056
REMARK CNNscore 0.480171978
REMARK CNNaffinity 6.71504641
REMARK  11 active torsions:
REMARK  status: ('A' for Active; 'I' for Inactive)
REMARK    1  A    between atoms: C4_4  and  C5_5 
REMARK    2  A    between atoms: C5_5  and  O2_7 
REMARK    3  A    between atoms: O2_7  and  C6_8 
REMARK    4  A    between atoms: C6_8  and  C7_9 
REMARK    5  A    between atoms: C17_19  and  O3_21 
REMARK    6  A    between atoms: C19_22  and  C20_23 
REMARK    7  A    between atoms: C20_23  and  C21_24 
REMARK    8  A    between atoms: C21_24  and  C22_25 
REMARK    9  A    between atoms: C22_25  and  C24_27 
REMARK   10  A    between atoms: C24_27  and  C25_28 
REMARK   11  A    between atoms: C25_28  and  O4_29 
ROOT
HETATM    1  C7  UNL     1       0.264  52.797 -24.833  1.00  0.00    -0.018 C 
HETATM    2  C8  UNL     1      -0.008  54.313 -24.960  1.00  0.00     0.018 C 
HETATM    3  C9  UNL     1       1.268  52.411 -25.948  1.00  0.00     0.012 C 
HETATM    4  C10 UNL     1       1.195  50.934 -26.282  1.00  0.00     0.002 C 
HETATM    5  C11 UNL     1      -0.144  50.579 -26.921  1.00  0.00     0.010 C 
HETATM    6  C12 UNL     1      -1.409  51.260 -26.290  1.00  0.00    -0.033 C 
HETATM    7  C13 UNL     1      -1.875  52.386 -27.253  1.00  0.00     0.016 C 
HETATM    8  C14 UNL     1      -1.035  51.886 -24.897  1.00  0.00     0.004 C 
HETATM    9  C15 UNL     1      -2.257  52.534 -24.210  1.00  0.00     0.009 C 
HETATM   10  C16 UNL     1      -3.571  51.774 -24.399  1.00  0.00     0.038 C 
HETATM   11  C17 UNL     1      -3.379  50.302 -24.758  1.00  0.00     0.059 C 
HETATM   12  C18 UNL     1      -4.740  49.589 -24.721  1.00  0.00     0.046 C 
HETATM   13  C19 UNL     1      -2.564  50.134 -26.102  1.00  0.00     0.028 C 
ENDROOT
BRANCH   1  14
HETATM   14  C6  UNL     1       0.926  52.566 -23.433  1.00  0.00     0.188 C 
BRANCH  14  15
HETATM   15  O2  UNL     1       1.152  53.816 -22.761  1.00  0.00    -0.317 OA
BRANCH  15  16
HETATM   16  C5  UNL     1       1.035  53.748 -21.409  1.00  0.00     0.283 C 
HETATM   17  O1  UNL     1       1.647  54.422 -20.601  1.00  0.00    -0.260 OA
BRANCH  16  18
HETATM   18  C4  UNL     1       0.006  52.722 -21.108  1.00  0.00     0.084 C 
HETATM   19  C2  UNL     1      -0.282  52.201 -19.900  1.00  0.00    -0.082 C 
HETATM   20  C1  UNL     1       0.429  52.511 -18.611  1.00  0.00     0.043 C 
HETATM   21  C3  UNL     1      -1.407  51.209 -19.756  1.00  0.00     0.043 C 
ENDBRANCH  16  18
ENDBRANCH  15  16
ENDBRANCH  14  15
ENDBRANCH   1  14
BRANCH  13  22
HETATM   22  C20 UNL     1      -3.496  49.932 -27.339  1.00  0.00     0.009 C 
BRANCH  22  23
HETATM   23  C21 UNL     1      -3.879  48.489 -27.714  1.00  0.00     0.005 C 
BRANCH  23  24
HETATM   24  C22 UNL     1      -5.277  48.272 -28.346  1.00  0.00    -0.017 C 
HETATM   25  C23 UNL     1      -6.220  47.523 -27.399  1.00  0.00     0.010 C 
BRANCH  24  26
HETATM   26  C24 UNL     1      -5.199  47.603 -29.731  1.00  0.00     0.030 C 
BRANCH  26  27
HETATM   27  C25 UNL     1      -5.276  48.569 -30.913  1.00  0.00     0.164 C 
BRANCH  27  28
HETATM   28  O4  UNL     1      -4.728  49.837 -30.584  1.00  0.00    -0.401 OA
HETATM   29  H44 UNL     1      -3.830  49.691 -30.239  1.00  0.00     0.209 HD
ENDBRANCH  27  28
ENDBRANCH  26  27
ENDBRANCH  24  26
ENDBRANCH  23  24
ENDBRANCH  22  23
ENDBRANCH  13  22
BRANCH  11  30
HETATM   30  O3  UNL     1      -2.605  49.682 -23.713  1.00  0.00    -0.390 OA
HETATM   31  H30 UNL     1      -3.077  49.802 -22.872  1.00  0.00     0.210 HD
ENDBRANCH  11  30
TORSDOF 11
ENDMDL
MODEL 4
REMARK minimizedAffinity -6.90132666
REMARK CNNscore 0.453968763
REMARK CNNaffinity 6.02020264
REMARK  11 active torsions:
REMARK  status: ('A' for Active; 'I' for Inactive)
REMARK    1  A    between atoms: C4_4  and  C5_5 
REMARK    2  A    between atoms: C5_5  and  O2_7 
REMARK    3  A    between atoms: O2_7  and  C6_8 
REMARK    4  A    between atoms: C6_8  and  C7_9 
REMARK    5  A    between atoms: C17_19  and  O3_21 
REMARK    6  A    between atoms: C19_22  and  C20_23 
REMARK    7  A    between atoms: C20_23  and  C21_24 
REMARK    8  A    between atoms: C21_24  and  C22_25 
REMARK    9  A    between atoms: C22_25  and  C24_27 
REMARK   10  A    between atoms: C24_27  and  C25_28 
REMARK   11  A    between atoms: C25_28  and  O4_29 
ROOT
HETATM    1  C7  UNL     1      -7.466  46.638 -29.328  1.00  0.00    -0.018 C 
HETATM    2  C8  UNL     1      -7.480  45.130 -28.984  1.00  0.00     0.018 C 
HETATM    3  C9  UNL     1      -8.939  47.094 -29.476  1.00  0.00     0.012 C 
HETATM    4  C10 UNL     1      -9.055  48.347 -30.321  1.00  0.00     0.002 C 
HETATM    5  C11 UNL     1      -8.658  48.074 -31.768  1.00  0.00     0.010 C 
HETATM    6  C12 UNL     1      -7.403  47.154 -31.975  1.00  0.00    -0.033 C 
HETATM    7  C13 UNL     1      -7.906  45.758 -32.432  1.00  0.00     0.016 C 
HETATM    8  C14 UNL     1      -6.621  47.012 -30.619  1.00  0.00     0.004 C 
HETATM    9  C15 UNL     1      -5.350  46.149 -30.776  1.00  0.00     0.009 C 
HETATM   10  C16 UNL     1      -4.600  46.352 -32.093  1.00  0.00     0.038 C 
HETATM   11  C17 UNL     1      -4.907  47.687 -32.771  1.00  0.00     0.059 C 
HETATM   12  C18 UNL     1      -3.957  47.880 -33.964  1.00  0.00     0.046 C 
HETATM   13  C19 UNL     1      -6.447  47.829 -33.101  1.00  0.00     0.028 C 
ENDROOT
BRANCH   1  14
HETATM   14  C6  UNL     1      -6.811  47.378 -28.113  1.00  0.00     0.188 C 
BRANCH  14  15
HETATM   15  O2  UNL     1      -5.805  48.302 -28.558  1.00  0.00    -0.317 OA
BRANCH  15  16
HETATM   16  C5  UNL     1      -4.659  48.268 -27.830  1.00  0.00     0.283 C 
HETATM   17  O1  UNL     1      -3.526  48.338 -28.270  1.00  0.00    -0.260 OA
BRANCH  16  18
HETATM   18  C4  UNL     1      -5.050  48.159 -26.402  1.00  0.00     0.084 C 
HETATM   19  C2  UNL     1      -4.296  48.485 -25.334  1.00  0.00    -0.082 C 
HETATM   20  C1  UNL     1      -2.873  48.973 -25.372  1.00  0.00     0.043 C 
HETATM   21  C3  UNL     1      -4.869  48.374 -23.945  1.00  0.00     0.043 C 
ENDBRANCH  16  18
ENDBRANCH  15  16
ENDBRANCH  14  15
ENDBRANCH   1  14
BRANCH  13  22
HETATM   22  C20 UNL     1      -6.776  47.427 -34.574  1.00  0.00     0.009 C 
BRANCH  22  23
HETATM   23  C21 UNL     1      -8.226  47.611 -35.055  1.00  0.00     0.005 C 
BRANCH  23  24
HETATM   24  C22 UNL     1      -8.615  46.937 -36.395  1.00  0.00    -0.017 C 
HETATM   25  C23 UNL     1      -8.346  47.853 -37.593  1.00  0.00     0.010 C 
BRANCH  24  26
HETATM   26  C24 UNL     1     -10.061  46.406 -36.389  1.00  0.00     0.030 C 
BRANCH  26  27
HETATM   27  C25 UNL     1     -10.186  44.890 -36.537  1.00  0.00     0.164 C 
BRANCH  27  28
HETATM   28  O4  UNL     1      -9.726  44.453 -37.808  1.00  0.00    -0.401 OA
HETATM   29  H44 UNL     1      -8.826  44.798 -37.932  1.00  0.00     0.209 HD
ENDBRANCH  27  28
ENDBRANCH  26  27
ENDBRANCH  24  26
ENDBRANCH  23  24
ENDBRANCH  22  23
ENDBRANCH  13  22
BRANCH  11  30
HETATM   30  O3  UNL     1      -4.571  48.745 -31.852  1.00  0.00    -0.390 OA
HETATM   31  H30 UNL     1      -3.633  48.654 -31.613  1.00  0.00     0.210 HD
ENDBRANCH  11  30
TORSDOF 11
ENDMDL
MODEL 5
REMARK minimizedAffinity -6.74726582
REMARK CNNscore 0.410709113
REMARK CNNaffinity 6.27432013
REMARK  11 active torsions:
REMARK  status: ('A' for Active; 'I' for Inactive)
REMARK    1  A    between atoms: C4_4  and  C5_5 
REMARK    2  A    between atoms: C5_5  and  O2_7 
REMARK    3  A    between atoms: O2_7  and  C6_8 
REMARK    4  A    between atoms: C6_8  and  C7_9 
REMARK    5  A    between atoms: C17_19  and  O3_21 
REMARK    6  A    between atoms: C19_22  and  C20_23 
REMARK    7  A    between atoms: C20_23  and  C21_24 
REMARK    8  A    between atoms: C21_24  and  C22_25 
REMARK    9  A    between atoms: C22_25  and  C24_27 
REMARK   10  A    between atoms: C24_27  and  C25_28 
REMARK   11  A    between atoms: C25_28  and  O4_29 
ROOT
HETATM    1  C7  UNL     1      -0.799  50.074 -15.740  1.00  0.00    -0.018 C 
HETATM    2  C8  UNL     1      -0.764  48.533 -15.626  1.00  0.00     0.018 C 
HETATM    3  C9  UNL     1       0.662  50.560 -15.920  1.00  0.00     0.012 C 
HETATM    4  C10 UNL     1       0.827  52.007 -15.502  1.00  0.00     0.002 C 
HETATM    5  C11 UNL     1       0.617  52.174 -14.000  1.00  0.00     0.010 C 
HETATM    6  C12 UNL     1      -0.565  51.352 -13.375  1.00  0.00    -0.033 C 
HETATM    7  C13 UNL     1       0.045  50.155 -12.597  1.00  0.00     0.016 C 
HETATM    8  C14 UNL     1      -1.497  50.811 -14.520  1.00  0.00     0.004 C 
HETATM    9  C15 UNL     1      -2.704  50.028 -13.957  1.00  0.00     0.009 C 
HETATM   10  C16 UNL     1      -3.299  50.610 -12.674  1.00  0.00     0.038 C 
HETATM   11  C17 UNL     1      -2.968  52.086 -12.462  1.00  0.00     0.059 C 
HETATM   12  C18 UNL     1      -3.775  52.621 -11.268  1.00  0.00     0.046 C 
HETATM   13  C19 UNL     1      -1.407  52.326 -12.386  1.00  0.00     0.028 C 
ENDROOT
BRANCH   1  14
HETATM   14  C6  UNL     1      -1.624  50.419 -17.026  1.00  0.00     0.188 C 
BRANCH  14  15
HETATM   15  O2  UNL     1      -0.772  50.946 -18.056  1.00  0.00    -0.317 OA
BRANCH  15  16
HETATM   16  C5  UNL     1      -1.325  51.960 -18.769  1.00  0.00     0.283 C 
HETATM   17  O1  UNL     1      -2.513  52.131 -18.973  1.00  0.00    -0.260 OA
BRANCH  16  18
HETATM   18  C4  UNL     1      -0.214  52.832 -19.228  1.00  0.00     0.084 C 
HETATM   19  C2  UNL     1       0.300  52.894 -20.471  1.00  0.00    -0.082 C 
HETATM   20  C1  UNL     1      -0.111  52.042 -21.641  1.00  0.00     0.043 C 
HETATM   21  C3  UNL     1       1.390  53.885 -20.788  1.00  0.00     0.043 C 
ENDBRANCH  16  18
ENDBRANCH  15  16
ENDBRANCH  14  15
ENDBRANCH   1  14
BRANCH  13  22
HETATM   22  C20 UNL     1      -0.888  52.379 -10.913  1.00  0.00     0.009 C 
BRANCH  22  23
HETATM   23  C21 UNL     1       0.249  53.367 -10.595  1.00  0.00     0.005 C 
BRANCH  23  24
HETATM   24  C22 UNL     1      -0.093  54.561  -9.668  1.00  0.00    -0.017 C 
HETATM   25  C23 UNL     1      -1.296  55.357 -10.184  1.00  0.00     0.010 C 
BRANCH  24  26
HETATM   26  C24 UNL     1       1.124  55.465  -9.398  1.00  0.00     0.030 C 
BRANCH  26  27
HETATM   27  C25 UNL     1       2.398  55.060 -10.137  1.00  0.00     0.164 C 
BRANCH  27  28
HETATM   28  O4  UNL     1       2.712  55.978 -11.174  1.00  0.00    -0.401 OA
HETATM   29  H44 UNL     1       2.737  56.869 -10.784  1.00  0.00     0.209 HD
ENDBRANCH  27  28
ENDBRANCH  26  27
ENDBRANCH  24  26
ENDBRANCH  23  24
ENDBRANCH  22  23
ENDBRANCH  13  22
BRANCH  11  30
HETATM   30  O3  UNL     1      -3.454  52.823 -13.600  1.00  0.00    -0.390 OA
HETATM   31  H30 UNL     1      -4.410  52.663 -13.682  1.00  0.00     0.210 HD
ENDBRANCH  11  30
TORSDOF 11
ENDMDL
MODEL 6
REMARK minimizedAffinity -7.27884197
REMARK CNNscore 0.378790975
REMARK CNNaffinity 6.28606033
REMARK  11 active torsions:
REMARK  status: ('A' for Active; 'I' for Inactive)
REMARK    1  A    between atoms: C4_4  and  C5_5 
REMARK    2  A    between atoms: C5_5  and  O2_7 
REMARK    3  A    between atoms: O2_7  and  C6_8 
REMARK    4  A    between atoms: C6_8  and  C7_9 
REMARK    5  A    between atoms: C17_19  and  O3_21 
REMARK    6  A    between atoms: C19_22  and  C20_23 
REMARK    7  A    between atoms: C20_23  and  C21_24 
REMARK    8  A    between atoms: C21_24  and  C22_25 
REMARK    9  A    between atoms: C22_25  and  C24_27 
REMARK   10  A    between atoms: C24_27  and  C25_28 
REMARK   11  A    between atoms: C25_28  and  O4_29 
ROOT
HETATM    1  C7  UNL     1      -3.220  50.067 -24.819  1.00  0.00    -0.018 C 
HETATM    2  C8  UNL     1      -1.884  49.971 -25.590  1.00  0.00     0.018 C 
HETATM    3  C9  UNL     1      -3.802  51.481 -25.073  1.00  0.00     0.012 C 
HETATM    4  C10 UNL     1      -4.774  51.891 -23.985  1.00  0.00     0.002 C 
HETATM    5  C11 UNL     1      -4.059  52.074 -22.649  1.00  0.00     0.010 C 
HETATM    6  C12 UNL     1      -2.965  51.005 -22.302  1.00  0.00    -0.033 C 
HETATM    7  C13 UNL     1      -1.573  51.661 -22.507  1.00  0.00     0.016 C 
HETATM    8  C14 UNL     1      -3.108  49.769 -23.264  1.00  0.00     0.004 C 
HETATM    9  C15 UNL     1      -2.080  48.664 -22.937  1.00  0.00     0.009 C 
HETATM   10  C16 UNL     1      -1.810  48.465 -21.445  1.00  0.00     0.038 C 
HETATM   11  C17 UNL     1      -2.930  48.988 -20.547  1.00  0.00     0.059 C 
HETATM   12  C18 UNL     1      -2.660  48.558 -19.097  1.00  0.00     0.046 C 
HETATM   13  C19 UNL     1      -3.171  50.536 -20.761  1.00  0.00     0.028 C 
ENDROOT
BRANCH   1  14
HETATM   14  C6  UNL     1      -4.180  48.992 -25.431  1.00  0.00     0.188 C 
BRANCH  14  15
HETATM   15  O2  UNL     1      -3.611  48.413 -26.617  1.00  0.00    -0.317 OA
BRANCH  15  16
HETATM   16  C5  UNL     1      -4.470  48.339 -27.666  1.00  0.00     0.283 C 
HETATM   17  O1  UNL     1      -4.191  48.514 -28.838  1.00  0.00    -0.260 OA
BRANCH  16  18
HETATM   18  C4  UNL     1      -5.801  47.978 -27.117  1.00  0.00     0.084 C 
HETATM   19  C2  UNL     1      -6.706  47.152 -27.678  1.00  0.00    -0.082 C 
HETATM   20  C1  UNL     1      -6.573  46.470 -29.012  1.00  0.00     0.043 C 
HETATM   21  C3  UNL     1      -7.991  46.839 -26.955  1.00  0.00     0.043 C 
ENDBRANCH  16  18
ENDBRANCH  15  16
ENDBRANCH  14  15
ENDBRANCH   1  14
BRANCH  13  22
HETATM   22  C20 UNL     1      -2.419  51.403 -19.701  1.00  0.00     0.009 C 
BRANCH  22  23
HETATM   23  C21 UNL     1      -0.893  51.231 -19.593  1.00  0.00     0.005 C 
BRANCH  23  24
HETATM   24  C22 UNL     1      -0.140  52.201 -18.648  1.00  0.00    -0.017 C 
HETATM   25  C23 UNL     1       0.859  53.078 -19.410  1.00  0.00     0.010 C 
BRANCH  24  26
HETATM   26  C24 UNL     1       0.520  51.474 -17.461  1.00  0.00     0.030 C 
BRANCH  26  27
HETATM   27  C25 UNL     1       1.734  52.188 -16.869  1.00  0.00     0.164 C 
BRANCH  27  28
HETATM   28  O4  UNL     1       1.347  53.293 -16.067  1.00  0.00    -0.401 OA
HETATM   29  H44 UNL     1       0.706  52.972 -15.409  1.00  0.00     0.209 HD
ENDBRANCH  27  28
ENDBRANCH  26  27
ENDBRANCH  24  26
ENDBRANCH  23  24
ENDBRANCH  22  23
ENDBRANCH  13  22
BRANCH  11  30
HETATM   30  O3  UNL     1      -4.150  48.315 -20.914  1.00  0.00    -0.390 OA
HETATM   31  H30 UNL     1      -4.011  47.357 -20.818  1.00  0.00     0.210 HD
ENDBRANCH  11  30
TORSDOF 11
ENDMDL
MODEL 7
REMARK minimizedAffinity -8.02637386
REMARK CNNscore 0.373185456
REMARK CNNaffinity 6.37678576
REMARK  11 active torsions:
REMARK  status: ('A' for Active; 'I' for Inactive)
REMARK    1  A    between atoms: C4_4  and  C5_5 
REMARK    2  A    between atoms: C5_5  and  O2_7 
REMARK    3  A    between atoms: O2_7  and  C6_8 
REMARK    4  A    between atoms: C6_8  and  C7_9 
REMARK    5  A    between atoms: C17_19  and  O3_21 
REMARK    6  A    between atoms: C19_22  and  C20_23 
REMARK    7  A    between atoms: C20_23  and  C21_24 
REMARK    8  A    between atoms: C21_24  and  C22_25 
REMARK    9  A    between atoms: C22_25  and  C24_27 
REMARK   10  A    between atoms: C24_27  and  C25_28 
REMARK   11  A    between atoms: C25_28  and  O4_29 
ROOT
HETATM    1  C7  UNL     1      -4.755  49.141 -23.914  1.00  0.00    -0.018 C 
HETATM    2  C8  UNL     1      -6.086  49.873 -23.627  1.00  0.00     0.018 C 
HETATM    3  C9  UNL     1      -4.445  48.245 -22.689  1.00  0.00     0.012 C 
HETATM    4  C10 UNL     1      -2.968  47.918 -22.592  1.00  0.00     0.002 C 
HETATM    5  C11 UNL     1      -2.146  49.167 -22.291  1.00  0.00     0.010 C 
HETATM    6  C12 UNL     1      -2.569  50.470 -23.057  1.00  0.00    -0.033 C 
HETATM    7  C13 UNL     1      -3.315  51.392 -22.055  1.00  0.00     0.016 C 
HETATM    8  C14 UNL     1      -3.533  50.099 -24.243  1.00  0.00     0.004 C 
HETATM    9  C15 UNL     1      -3.947  51.343 -25.059  1.00  0.00     0.009 C 
HETATM   10  C16 UNL     1      -2.839  52.379 -25.248  1.00  0.00     0.038 C 
HETATM   11  C17 UNL     1      -1.432  51.808 -25.073  1.00  0.00     0.059 C 
HETATM   12  C18 UNL     1      -0.399  52.870 -25.483  1.00  0.00     0.046 C 
HETATM   13  C19 UNL     1      -1.232  51.190 -23.632  1.00  0.00     0.028 C 
ENDROOT
BRANCH   1  14
HETATM   14  C6  UNL     1      -4.991  48.239 -25.172  1.00  0.00     0.188 C 
BRANCH  14  15
HETATM   15  O2  UNL     1      -3.856  48.281 -26.053  1.00  0.00    -0.317 OA
BRANCH  15  16
HETATM   16  C5  UNL     1      -4.170  48.511 -27.353  1.00  0.00     0.283 C 
HETATM   17  O1  UNL     1      -3.475  49.088 -28.170  1.00  0.00    -0.260 OA
BRANCH  16  18
HETATM   18  C4  UNL     1      -5.503  47.906 -27.596  1.00  0.00     0.084 C 
HETATM   19  C2  UNL     1      -5.998  47.496 -28.781  1.00  0.00    -0.082 C 
HETATM   20  C1  UNL     1      -5.317  47.627 -30.116  1.00  0.00     0.043 C 
HETATM   21  C3  UNL     1      -7.352  46.839 -28.846  1.00  0.00     0.043 C 
ENDBRANCH  16  18
ENDBRANCH  15  16
ENDBRANCH  14  15
ENDBRANCH   1  14
BRANCH  13  22
HETATM   22  C20 UNL     1      -0.547  52.192 -22.648  1.00  0.00     0.009 C 
BRANCH  22  23
HETATM   23  C21 UNL     1       0.400  51.609 -21.584  1.00  0.00     0.005 C 
BRANCH  23  24
HETATM   24  C22 UNL     1       0.522  52.385 -20.248  1.00  0.00    -0.017 C 
HETATM   25  C23 UNL     1      -0.741  52.246 -19.391  1.00  0.00     0.010 C 
BRANCH  24  26
HETATM   26  C24 UNL     1       0.918  53.859 -20.456  1.00  0.00     0.030 C 
BRANCH  26  27
HETATM   27  C25 UNL     1       1.242  54.236 -21.900  1.00  0.00     0.164 C 
BRANCH  27  28
HETATM   28  O4  UNL     1       2.364  55.104 -21.971  1.00  0.00    -0.401 OA
HETATM   29  H44 UNL     1       3.096  54.682 -21.490  1.00  0.00     0.209 HD
ENDBRANCH  27  28
ENDBRANCH  26  27
ENDBRANCH  24  26
ENDBRANCH  23  24
ENDBRANCH  22  23
ENDBRANCH  13  22
BRANCH  11  30
HETATM   30  O3  UNL     1      -1.262  50.737 -26.021  1.00  0.00    -0.390 OA
HETATM   31  H30 UNL     1      -1.412  51.092 -26.913  1.00  0.00     0.210 HD
ENDBRANCH  11  30
TORSDOF 11
ENDMDL
MODEL 8
REMARK minimizedAffinity -7.1233511
REMARK CNNscore 0.348110378
REMARK CNNaffinity 6.13803101
REMARK  11 active torsions:
REMARK  status: ('A' for Active; 'I' for Inactive)
REMARK    1  A    between atoms: C4_4  and  C5_5 
REMARK    2  A    between atoms: C5_5  and  O2_7 
REMARK    3  A    between atoms: O2_7  and  C6_8 
REMARK    4  A    between atoms: C6_8  and  C7_9 
REMARK    5  A    between atoms: C17_19  and  O3_21 
REMARK    6  A    between atoms: C19_22  and  C20_23 
REMARK    7  A    between atoms: C20_23  and  C21_24 
REMARK    8  A    between atoms: C21_24  and  C22_25 
REMARK    9  A    between atoms: C22_25  and  C24_27 
REMARK   10  A    between atoms: C24_27  and  C25_28 
REMARK   11  A    between atoms: C25_28  and  O4_29 
ROOT
HETATM    1  C7  UNL     1      -3.550  50.544 -21.003  1.00  0.00    -0.018 C 
HETATM    2  C8  UNL     1      -4.699  51.543 -20.737  1.00  0.00     0.018 C 
HETATM    3  C9  UNL     1      -2.266  51.131 -20.364  1.00  0.00     0.012 C 
HETATM    4  C10 UNL     1      -1.013  50.563 -20.999  1.00  0.00     0.002 C 
HETATM    5  C11 UNL     1      -0.880  51.010 -22.452  1.00  0.00     0.010 C 
HETATM    6  C12 UNL     1      -2.204  51.011 -23.295  1.00  0.00    -0.033 C 
HETATM    7  C13 UNL     1      -2.662  52.485 -23.462  1.00  0.00     0.016 C 
HETATM    8  C14 UNL     1      -3.316  50.200 -22.536  1.00  0.00     0.004 C 
HETATM    9  C15 UNL     1      -4.631  50.132 -23.343  1.00  0.00     0.009 C 
HETATM   10  C16 UNL     1      -4.445  49.978 -24.853  1.00  0.00     0.038 C 
HETATM   11  C17 UNL     1      -3.083  49.406 -25.244  1.00  0.00     0.059 C 
HETATM   12  C18 UNL     1      -3.076  49.100 -26.751  1.00  0.00     0.046 C 
HETATM   13  C19 UNL     1      -1.901  50.325 -24.735  1.00  0.00     0.028 C 
ENDROOT
BRANCH   1  14
HETATM   14  C6  UNL     1      -3.928  49.208 -20.279  1.00  0.00     0.188 C 
BRANCH  14  15
HETATM   15  O2  UNL     1      -5.340  48.956 -20.373  1.00  0.00    -0.317 OA
BRANCH  15  16
HETATM   16  C5  UNL     1      -5.886  48.430 -19.246  1.00  0.00     0.283 C 
HETATM   17  O1  UNL     1      -5.374  48.407 -18.142  1.00  0.00    -0.260 OA
BRANCH  16  18
HETATM   18  C4  UNL     1      -7.230  47.916 -19.610  1.00  0.00     0.084 C 
HETATM   19  C2  UNL     1      -8.414  48.356 -19.140  1.00  0.00    -0.082 C 
HETATM   20  C1  UNL     1      -8.611  49.423 -18.098  1.00  0.00     0.043 C 
HETATM   21  C3  UNL     1      -9.698  47.766 -19.662  1.00  0.00     0.043 C 
ENDBRANCH  16  18
ENDBRANCH  15  16
ENDBRANCH  14  15
ENDBRANCH   1  14
BRANCH  13  22
HETATM   22  C20 UNL     1      -1.394  51.305 -25.840  1.00  0.00     0.009 C 
BRANCH  22  23
HETATM   23  C21 UNL     1       0.106  51.649 -25.854  1.00  0.00     0.005 C 
BRANCH  23  24
HETATM   24  C22 UNL     1       0.859  51.467 -27.196  1.00  0.00    -0.017 C 
HETATM   25  C23 UNL     1       2.364  51.710 -27.043  1.00  0.00     0.010 C 
BRANCH  24  26
HETATM   26  C24 UNL     1       0.251  52.312 -28.331  1.00  0.00     0.030 C 
BRANCH  26  27
HETATM   27  C25 UNL     1      -0.251  53.691 -27.904  1.00  0.00     0.164 C 
BRANCH  27  28
HETATM   28  O4  UNL     1      -1.638  53.842 -28.167  1.00  0.00    -0.401 OA
HETATM   29  H44 UNL     1      -2.102  53.096 -27.749  1.00  0.00     0.209 HD
ENDBRANCH  27  28
ENDBRANCH  26  27
ENDBRANCH  24  26
ENDBRANCH  23  24
ENDBRANCH  22  23
ENDBRANCH  13  22
BRANCH  11  30
HETATM   30  O3  UNL     1      -2.931  48.125 -24.603  1.00  0.00    -0.390 OA
HETATM   31  H30 UNL     1      -3.669  47.556 -24.881  1.00  0.00     0.210 HD
ENDBRANCH  11  30
TORSDOF 11
ENDMDL
MODEL 9
REMARK minimizedAffinity -7.02969551
REMARK CNNscore 0.332434267
REMARK CNNaffinity 5.82606554
REMARK  11 active torsions:
REMARK  status: ('A' for Active; 'I' for Inactive)
REMARK    1  A    between atoms: C4_4  and  C5_5 
REMARK    2  A    between atoms: C5_5  and  O2_7 
REMARK    3  A    between atoms: O2_7  and  C6_8 
REMARK    4  A    between atoms: C6_8  and  C7_9 
REMARK    5  A    between atoms: C17_19  and  O3_21 
REMARK    6  A    between atoms: C19_22  and  C20_23 
REMARK    7  A    between atoms: C20_23  and  C21_24 
REMARK    8  A    between atoms: C21_24  and  C22_25 
REMARK    9  A    between atoms: C22_25  and  C24_27 
REMARK   10  A    between atoms: C24_27  and  C25_28 
REMARK   11  A    between atoms: C25_28  and  O4_29 
ROOT
HETATM    1  C7  UNL     1      -3.086  50.052 -21.124  1.00  0.00    -0.018 C 
HETATM    2  C8  UNL     1      -2.083  49.048 -20.511  1.00  0.00     0.018 C 
HETATM    3  C9  UNL     1      -4.253  50.214 -20.119  1.00  0.00     0.012 C 
HETATM    4  C10 UNL     1      -5.515  50.706 -20.799  1.00  0.00     0.002 C 
HETATM    5  C11 UNL     1      -6.066  49.659 -21.762  1.00  0.00     0.010 C 
HETATM    6  C12 UNL     1      -5.004  48.897 -22.631  1.00  0.00    -0.033 C 
HETATM    7  C13 UNL     1      -4.843  47.469 -22.043  1.00  0.00     0.016 C 
HETATM    8  C14 UNL     1      -3.625  49.649 -22.563  1.00  0.00     0.004 C 
HETATM    9  C15 UNL     1      -2.552  48.964 -23.436  1.00  0.00     0.009 C 
HETATM   10  C16 UNL     1      -3.071  48.403 -24.761  1.00  0.00     0.038 C 
HETATM   11  C17 UNL     1      -4.377  49.045 -25.225  1.00  0.00     0.059 C 
HETATM   12  C18 UNL     1      -4.700  48.565 -26.650  1.00  0.00     0.046 C 
HETATM   13  C19 UNL     1      -5.532  48.842 -24.165  1.00  0.00     0.028 C 
ENDROOT
BRANCH   1  14
HETATM   14  C6  UNL     1      -2.334  51.417 -21.274  1.00  0.00     0.188 C 
BRANCH  14  15
HETATM   15  O2  UNL     1      -1.986  51.662 -22.647  1.00  0.00    -0.317 OA
BRANCH  15  16
HETATM   16  C5  UNL     1      -0.680  51.981 -22.841  1.00  0.00     0.283 C 
HETATM   17  O1  UNL     1      -0.122  52.102 -23.916  1.00  0.00    -0.260 OA
BRANCH  16  18
HETATM   18  C4  UNL     1      -0.074  52.178 -21.500  1.00  0.00     0.084 C 
HETATM   19  C2  UNL     1       0.778  53.157 -21.139  1.00  0.00    -0.082 C 
HETATM   20  C1  UNL     1       1.339  54.221 -22.044  1.00  0.00     0.043 C 
HETATM   21  C3  UNL     1       1.254  53.254 -19.712  1.00  0.00     0.043 C 
ENDBRANCH  16  18
ENDBRANCH  15  16
ENDBRANCH  14  15
ENDBRANCH   1  14
BRANCH  13  22
HETATM   22  C20 UNL     1      -6.442  47.620 -24.507  1.00  0.00     0.009 C 
BRANCH  22  23
HETATM   23  C21 UNL     1      -7.942  47.735 -24.179  1.00  0.00     0.005 C 
BRANCH  23  24
HETATM   24  C22 UNL     1      -8.937  47.159 -25.218  1.00  0.00    -0.017 C 
HETATM   25  C23 UNL     1      -8.304  46.044 -26.057  1.00  0.00     0.010 C 
BRANCH  24  26
HETATM   26  C24 UNL     1      -9.569  48.254 -26.098  1.00  0.00     0.030 C 
BRANCH  26  27
HETATM   27  C25 UNL     1     -10.978  47.938 -26.598  1.00  0.00     0.164 C 
BRANCH  27  28
HETATM   28  O4  UNL     1     -11.759  49.117 -26.729  1.00  0.00    -0.401 OA
HETATM   29  H44 UNL     1     -11.263  49.741 -27.286  1.00  0.00     0.209 HD
ENDBRANCH  27  28
ENDBRANCH  26  27
ENDBRANCH  24  26
ENDBRANCH  23  24
ENDBRANCH  22  23
ENDBRANCH  13  22
BRANCH  11  30
HETATM   30  O3  UNL     1      -4.161  50.464 -25.351  1.00  0.00    -0.390 OA
HETATM   31  H30 UNL     1      -3.431  50.606 -25.977  1.00  0.00     0.210 HD
ENDBRANCH  11  30
TORSDOF 11
ENDMDL
