MODEL 1
REMARK minimizedAffinity -9.38877201
REMARK CNNscore 0.548968971
REMARK CNNaffinity 7.3118577
REMARK  10 active torsions:
REMARK  status: ('A' for Active; 'I' for Inactive)
REMARK    1  A    between atoms: O1_2  and  C2_3 
REMARK    2  A    between atoms: C2_3  and  C3_5 
REMARK    3  A    between atoms: C3_5  and  C4_6 
REMARK    4  A    between atoms: C3_5  and  N1_13 
REMARK    5  A    between atoms: C4_6  and  C5_7 
REMARK       I    between atoms: N1_13  and  C11_14 
REMARK    6  A    between atoms: C11_14  and  C12_16 
REMARK    7  A    between atoms: C12_16  and  O4_17 
REMARK    8  A    between atoms: O4_17  and  N2_18 
REMARK    9  A    between atoms: C27_34  and  O5_35 
REMARK   10  A    between atoms: C27_34  and  C28_36 
ROOT
HETATM    1  N2  UNL     1      -2.189  50.075 -15.646  1.00  0.00    -0.271 N 
ATOM      2  H2  UNL     1      -2.570  49.198 -15.290  1.00  0.00     0.194 HD
HETATM    3  C13 UNL     1      -1.835  50.269 -16.885  1.00  0.00     0.032 C 
HETATM    4  C14 UNL     1      -1.919  49.118 -17.820  1.00  0.00     0.030 C 
HETATM    5  C15 UNL     1      -1.628  49.242 -19.128  1.00  0.00    -0.069 C 
HETATM    6  C16 UNL     1      -1.602  48.012 -20.004  1.00  0.00     0.035 C 
HETATM    7  C17 UNL     1      -2.440  48.188 -21.264  1.00  0.00     0.010 C 
HETATM    8  C18 UNL     1      -2.012  49.435 -22.050  1.00  0.00    -0.004 C 
HETATM    9  C19 UNL     1      -2.125  50.699 -21.144  1.00  0.00     0.002 C 
HETATM   10  C20 UNL     1      -1.843  51.999 -21.940  1.00  0.00     0.007 C 
HETATM   11  C21 UNL     1      -2.659  52.108 -23.240  1.00  0.00     0.013 C 
HETATM   12  C22 UNL     1      -2.487  50.871 -24.141  1.00  0.00    -0.002 C 
HETATM   13  C23 UNL     1      -1.027  50.809 -24.663  1.00  0.00     0.019 C 
HETATM   14  C24 UNL     1      -2.888  49.637 -23.293  1.00  0.00     0.002 C 
HETATM   15  C25 UNL     1      -2.965  48.508 -24.312  1.00  0.00     0.009 C 
HETATM   16  C26 UNL     1      -3.488  49.183 -25.594  1.00  0.00     0.047 C 
HETATM   17  C27 UNL     1      -3.492  50.717 -25.327  1.00  0.00     0.125 C 
HETATM   18  C30 UNL     1      -1.297  50.576 -19.808  1.00  0.00    -0.016 C 
HETATM   19  C31 UNL     1       0.227  50.625 -20.063  1.00  0.00     0.020 C 
HETATM   20  C32 UNL     1      -1.691  51.759 -18.877  1.00  0.00     0.020 C 
HETATM   21  C33 UNL     1      -1.275  51.568 -17.425  1.00  0.00     0.060 C 
ENDROOT
BRANCH   1  22
HETATM   22  O4  UNL     1      -1.982  51.217 -14.864  1.00  0.00    -0.271 OA
BRANCH  22  23
HETATM   23  C12 UNL     1      -1.233  50.866 -13.703  1.00  0.00     0.303 C 
BRANCH  23  24
HETATM   24  C11 UNL     1      -0.479  52.077 -13.164  1.00  0.00     0.244 C 
HETATM   25  N1  UNL     1      -0.658  52.310 -11.814  1.00  0.00    -0.345 N 
HETATM   26  H12 UNL     1      -1.448  51.826 -11.401  1.00  0.00     0.163 HD
HETATM   27  O3  UNL     1       0.196  52.807 -13.883  1.00  0.00    -0.271 OA
BRANCH  25  28
HETATM   28  C3  UNL     1      -0.227  53.572 -11.196  1.00  0.00     0.188 C 
BRANCH  28  29
HETATM   29  C2  UNL     1      -1.416  54.327 -10.565  1.00  0.00     0.281 C 
HETATM   30  O2  UNL     1      -1.475  55.543 -10.434  1.00  0.00    -0.263 OA
BRANCH  29  31
HETATM   31  O1  UNL     1      -2.379  53.466 -10.114  1.00  0.00    -0.325 OA
HETATM   32  C1  UNL     1      -3.702  53.788 -10.545  1.00  0.00     0.213 C 
ENDBRANCH  29  31
ENDBRANCH  28  29
BRANCH  28  33
HETATM   33  C4  UNL     1       0.824  53.282 -10.112  1.00  0.00     0.074 C 
BRANCH  33  34
HETATM   34  C5  UNL     1       2.091  54.085 -10.284  1.00  0.00    -0.056 A 
HETATM   35  C6  UNL     1       3.342  53.516 -10.015  1.00  0.00     0.007 A 
HETATM   36  C7  UNL     1       4.507  54.271 -10.162  1.00  0.00     0.001 A 
HETATM   37  C8  UNL     1       4.433  55.599 -10.577  1.00  0.00     0.000 A 
HETATM   38  C9  UNL     1       3.194  56.175 -10.844  1.00  0.00     0.001 A 
HETATM   39  C10 UNL     1       2.028  55.423 -10.696  1.00  0.00     0.007 A 
ENDBRANCH  33  34
ENDBRANCH  28  33
ENDBRANCH  25  28
ENDBRANCH  23  24
ENDBRANCH  22  23
ENDBRANCH   1  22
BRANCH  17  40
HETATM   40  O5  UNL     1      -4.810  51.077 -24.897  1.00  0.00    -0.381 OA
HETATM   41  H34 UNL     1      -5.445  50.756 -25.561  1.00  0.00     0.211 HD
ENDBRANCH  17  40
BRANCH  17  42
HETATM   42  C28 UNL     1      -3.137  51.535 -26.591  1.00  0.00     0.158 C 
HETATM   43  C29 UNL     1      -2.977  50.783 -27.890  1.00  0.00     0.094 C 
HETATM   44  O6  UNL     1      -2.985  52.757 -26.568  1.00  0.00    -0.295 OA
ENDBRANCH  17  42
TORSDOF 10
ENDMDL
MODEL 2
REMARK minimizedAffinity -9.30004978
REMARK CNNscore 0.425444573
REMARK CNNaffinity 7.16032791
REMARK  10 active torsions:
REMARK  status: ('A' for Active; 'I' for Inactive)
REMARK    1  A    between atoms: O1_2  and  C2_3 
REMARK    2  A    between atoms: C2_3  and  C3_5 
REMARK    3  A    between atoms: C3_5  and  C4_6 
REMARK    4  A    between atoms: C3_5  and  N1_13 
REMARK    5  A    between atoms: C4_6  and  C5_7 
REMARK       I    between atoms: N1_13  and  C11_14 
REMARK    6  A    between atoms: C11_14  and  C12_16 
REMARK    7  A    between atoms: C12_16  and  O4_17 
REMARK    8  A    between atoms: O4_17  and  N2_18 
REMARK    9  A    between atoms: C27_34  and  O5_35 
REMARK   10  A    between atoms: C27_34  and  C28_36 
ROOT
HETATM    1  N2  UNL     1      -3.184  50.504 -17.415  1.00  0.00    -0.271 N 
ATOM      2  H2  UNL     1      -3.963  49.854 -17.307  1.00  0.00     0.194 HD
HETATM    3  C13 UNL     1      -2.453  50.599 -18.490  1.00  0.00     0.032 C 
HETATM    4  C14 UNL     1      -2.721  49.649 -19.598  1.00  0.00     0.030 C 
HETATM    5  C15 UNL     1      -2.055  49.712 -20.765  1.00  0.00    -0.069 C 
HETATM    6  C16 UNL     1      -2.273  48.640 -21.806  1.00  0.00     0.035 C 
HETATM    7  C17 UNL     1      -2.588  49.227 -23.176  1.00  0.00     0.010 C 
HETATM    8  C18 UNL     1      -1.504  50.216 -23.623  1.00  0.00    -0.004 C 
HETATM    9  C19 UNL     1      -1.355  51.355 -22.567  1.00  0.00     0.002 C 
HETATM   10  C20 UNL     1      -0.375  52.454 -23.048  1.00  0.00     0.007 C 
HETATM   11  C21 UNL     1      -0.685  52.974 -24.463  1.00  0.00     0.013 C 
HETATM   12  C22 UNL     1      -0.773  51.835 -25.496  1.00  0.00    -0.002 C 
HETATM   13  C23 UNL     1       0.627  51.188 -25.673  1.00  0.00     0.019 C 
HETATM   14  C24 UNL     1      -1.846  50.843 -24.981  1.00  0.00     0.002 C 
HETATM   15  C25 UNL     1      -2.076  49.913 -26.166  1.00  0.00     0.009 C 
HETATM   16  C26 UNL     1      -1.912  50.818 -27.401  1.00  0.00     0.047 C 
HETATM   17  C27 UNL     1      -1.384  52.191 -26.888  1.00  0.00     0.125 C 
HETATM   18  C30 UNL     1      -1.050  50.815 -21.118  1.00  0.00    -0.016 C 
HETATM   19  C31 UNL     1       0.375  50.227 -21.006  1.00  0.00     0.020 C 
HETATM   20  C32 UNL     1      -1.187  51.998 -20.116  1.00  0.00     0.020 C 
HETATM   21  C33 UNL     1      -1.301  51.566 -18.661  1.00  0.00     0.060 C 
ENDROOT
BRANCH   1  22
HETATM   22  O4  UNL     1      -2.769  51.403 -16.425  1.00  0.00    -0.271 OA
BRANCH  22  23
HETATM   23  C12 UNL     1      -3.243  50.962 -15.156  1.00  0.00     0.303 C 
BRANCH  23  24
HETATM   24  C11 UNL     1      -2.101  50.379 -14.329  1.00  0.00     0.244 C 
HETATM   25  N1  UNL     1      -1.564  51.249 -13.400  1.00  0.00    -0.345 N 
HETATM   26  H12 UNL     1      -1.803  52.224 -13.545  1.00  0.00     0.163 HD
HETATM   27  O3  UNL     1      -1.670  49.244 -14.509  1.00  0.00    -0.271 OA
BRANCH  25  28
HETATM   28  C3  UNL     1      -0.299  50.946 -12.716  1.00  0.00     0.188 C 
BRANCH  28  29
HETATM   29  C2  UNL     1       0.871  51.759 -13.307  1.00  0.00     0.281 C 
HETATM   30  O2  UNL     1       2.019  51.736 -12.878  1.00  0.00    -0.263 OA
BRANCH  29  31
HETATM   31  O1  UNL     1       0.462  52.560 -14.338  1.00  0.00    -0.325 OA
HETATM   32  C1  UNL     1       1.062  52.250 -15.596  1.00  0.00     0.213 C 
ENDBRANCH  29  31
ENDBRANCH  28  29
BRANCH  28  33
HETATM   33  C4  UNL     1      -0.434  51.265 -11.218  1.00  0.00     0.074 C 
BRANCH  33  34
HETATM   34  C5  UNL     1      -1.594  52.182 -10.909  1.00  0.00    -0.056 A 
HETATM   35  C6  UNL     1      -2.889  51.672 -10.754  1.00  0.00     0.007 A 
HETATM   36  C7  UNL     1      -3.958  52.529 -10.484  1.00  0.00     0.001 A 
HETATM   37  C8  UNL     1      -3.742  53.900 -10.366  1.00  0.00     0.000 A 
HETATM   38  C9  UNL     1      -2.459  54.418 -10.521  1.00  0.00     0.001 A 
HETATM   39  C10 UNL     1      -1.390  53.563 -10.793  1.00  0.00     0.007 A 
ENDBRANCH  33  34
ENDBRANCH  28  33
ENDBRANCH  25  28
ENDBRANCH  23  24
ENDBRANCH  22  23
ENDBRANCH   1  22
BRANCH  17  40
HETATM   40  O5  UNL     1      -2.516  53.051 -26.716  1.00  0.00    -0.381 OA
HETATM   41  H34 UNL     1      -3.014  53.069 -27.552  1.00  0.00     0.211 HD
ENDBRANCH  17  40
BRANCH  17  42
HETATM   42  C28 UNL     1      -0.399  52.850 -27.881  1.00  0.00     0.158 C 
HETATM   43  C29 UNL     1      -0.407  54.356 -27.980  1.00  0.00     0.094 C 
HETATM   44  O6  UNL     1       0.377  52.195 -28.578  1.00  0.00    -0.295 OA
ENDBRANCH  17  42
TORSDOF 10
ENDMDL
MODEL 3
REMARK minimizedAffinity -8.29083061
REMARK CNNscore 0.421277702
REMARK CNNaffinity 6.15503168
REMARK  10 active torsions:
REMARK  status: ('A' for Active; 'I' for Inactive)
REMARK    1  A    between atoms: O1_2  and  C2_3 
REMARK    2  A    between atoms: C2_3  and  C3_5 
REMARK    3  A    between atoms: C3_5  and  C4_6 
REMARK    4  A    between atoms: C3_5  and  N1_13 
REMARK    5  A    between atoms: C4_6  and  C5_7 
REMARK       I    between atoms: N1_13  and  C11_14 
REMARK    6  A    between atoms: C11_14  and  C12_16 
REMARK    7  A    between atoms: C12_16  and  O4_17 
REMARK    8  A    between atoms: O4_17  and  N2_18 
REMARK    9  A    between atoms: C27_34  and  O5_35 
REMARK   10  A    between atoms: C27_34  and  C28_36 
ROOT
HETATM    1  N2  UNL     1     -10.004  47.005 -18.787  1.00  0.00    -0.271 N 
ATOM      2  H2  UNL     1     -10.341  46.123 -19.174  1.00  0.00     0.194 HD
HETATM    3  C13 UNL     1      -8.848  47.535 -19.071  1.00  0.00     0.032 C 
HETATM    4  C14 UNL     1      -7.931  46.770 -19.953  1.00  0.00     0.030 C 
HETATM    5  C15 UNL     1      -6.743  47.266 -20.345  1.00  0.00    -0.069 C 
HETATM    6  C16 UNL     1      -5.794  46.392 -21.131  1.00  0.00     0.035 C 
HETATM    7  C17 UNL     1      -5.298  47.080 -22.397  1.00  0.00     0.010 C 
HETATM    8  C18 UNL     1      -4.662  48.440 -22.081  1.00  0.00    -0.004 C 
HETATM    9  C19 UNL     1      -5.690  49.349 -21.339  1.00  0.00     0.002 C 
HETATM   10  C20 UNL     1      -5.139  50.782 -21.131  1.00  0.00     0.007 C 
HETATM   11  C21 UNL     1      -4.584  51.416 -22.419  1.00  0.00     0.013 C 
HETATM   12  C22 UNL     1      -3.532  50.524 -23.102  1.00  0.00    -0.002 C 
HETATM   13  C23 UNL     1      -2.271  50.429 -22.203  1.00  0.00     0.019 C 
HETATM   14  C24 UNL     1      -4.205  49.152 -23.361  1.00  0.00     0.002 C 
HETATM   15  C25 UNL     1      -3.221  48.433 -24.274  1.00  0.00     0.009 C 
HETATM   16  C26 UNL     1      -2.621  49.551 -25.148  1.00  0.00     0.047 C 
HETATM   17  C27 UNL     1      -3.128  50.902 -24.563  1.00  0.00     0.125 C 
HETATM   18  C30 UNL     1      -6.263  48.687 -20.027  1.00  0.00    -0.016 C 
HETATM   19  C31 UNL     1      -5.200  48.601 -18.909  1.00  0.00     0.020 C 
HETATM   20  C32 UNL     1      -7.456  49.551 -19.525  1.00  0.00     0.020 C 
HETATM   21  C33 UNL     1      -8.344  48.847 -18.508  1.00  0.00     0.060 C 
ENDROOT
BRANCH   1  22
HETATM   22  O4  UNL     1     -10.727  47.794 -17.885  1.00  0.00    -0.271 OA
BRANCH  22  23
HETATM   23  C12 UNL     1     -11.395  46.951 -16.949  1.00  0.00     0.303 C 
BRANCH  23  24
HETATM   24  C11 UNL     1     -12.904  46.994 -17.171  1.00  0.00     0.244 C 
HETATM   25  N1  UNL     1     -13.286  47.077 -18.495  1.00  0.00    -0.345 N 
HETATM   26  H12 UNL     1     -12.549  47.356 -19.133  1.00  0.00     0.163 HD
HETATM   27  O3  UNL     1     -13.706  46.996 -16.242  1.00  0.00    -0.271 OA
BRANCH  25  28
HETATM   28  C3  UNL     1     -14.672  47.394 -18.868  1.00  0.00     0.188 C 
BRANCH  28  29
HETATM   29  C2  UNL     1     -14.946  48.910 -18.790  1.00  0.00     0.281 C 
HETATM   30  O2  UNL     1     -14.270  49.767 -19.347  1.00  0.00    -0.263 OA
BRANCH  29  31
HETATM   31  O1  UNL     1     -16.006  49.192 -17.972  1.00  0.00    -0.325 OA
HETATM   32  C1  UNL     1     -16.012  50.523 -17.455  1.00  0.00     0.213 C 
ENDBRANCH  29  31
ENDBRANCH  28  29
BRANCH  28  33
HETATM   33  C4  UNL     1     -14.947  46.901 -20.298  1.00  0.00     0.074 C 
BRANCH  33  34
HETATM   34  C5  UNL     1     -16.388  46.510 -20.525  1.00  0.00    -0.056 A 
HETATM   35  C6  UNL     1     -16.913  46.432 -21.821  1.00  0.00     0.007 A 
HETATM   36  C7  UNL     1     -18.251  46.084 -22.020  1.00  0.00     0.001 A 
HETATM   37  C8  UNL     1     -19.074  45.813 -20.929  1.00  0.00     0.000 A 
HETATM   38  C9  UNL     1     -18.562  45.891 -19.636  1.00  0.00     0.001 A 
HETATM   39  C10 UNL     1     -17.226  46.240 -19.435  1.00  0.00     0.007 A 
ENDBRANCH  33  34
ENDBRANCH  28  33
ENDBRANCH  25  28
ENDBRANCH  23  24
ENDBRANCH  22  23
ENDBRANCH   1  22
BRANCH  17  40
HETATM   40  O5  UNL     1      -4.290  51.285 -25.305  1.00  0.00    -0.381 OA
HETATM   41  H34 UNL     1      -4.060  51.287 -26.250  1.00  0.00     0.211 HD
ENDBRANCH  17  40
BRANCH  17  42
HETATM   42  C28 UNL     1      -2.069  52.024 -24.674  1.00  0.00     0.158 C 
HETATM   43  C29 UNL     1      -0.685  51.638 -25.134  1.00  0.00     0.094 C 
HETATM   44  O6  UNL     1      -2.319  53.200 -24.404  1.00  0.00    -0.295 OA
ENDBRANCH  17  42
TORSDOF 10
ENDMDL
MODEL 4
REMARK minimizedAffinity -9.71962643
REMARK CNNscore 0.377475917
REMARK CNNaffinity 7.17091608
REMARK  10 active torsions:
REMARK  status: ('A' for Active; 'I' for Inactive)
REMARK    1  A    between atoms: O1_2  and  C2_3 
REMARK    2  A    between atoms: C2_3  and  C3_5 
REMARK    3  A    between atoms: C3_5  and  C4_6 
REMARK    4  A    between atoms: C3_5  and  N1_13 
REMARK    5  A    between atoms: C4_6  and  C5_7 
REMARK       I    between atoms: N1_13  and  C11_14 
REMARK    6  A    between atoms: C11_14  and  C12_16 
REMARK    7  A    between atoms: C12_16  and  O4_17 
REMARK    8  A    between atoms: O4_17  and  N2_18 
REMARK    9  A    between atoms: C27_34  and  O5_35 
REMARK   10  A    between atoms: C27_34  and  C28_36 
ROOT
HETATM    1  N2  UNL     1      -3.230  50.514 -17.169  1.00  0.00    -0.271 N 
ATOM      2  H2  UNL     1      -3.968  49.818 -17.057  1.00  0.00     0.194 HD
HETATM    3  C13 UNL     1      -2.504  50.644 -18.244  1.00  0.00     0.032 C 
HETATM    4  C14 UNL     1      -2.711  49.671 -19.345  1.00  0.00     0.030 C 
HETATM    5  C15 UNL     1      -2.048  49.764 -20.511  1.00  0.00    -0.069 C 
HETATM    6  C16 UNL     1      -2.198  48.671 -21.544  1.00  0.00     0.035 C 
HETATM    7  C17 UNL     1      -2.545  49.227 -22.919  1.00  0.00     0.010 C 
HETATM    8  C18 UNL     1      -1.522  50.277 -23.372  1.00  0.00    -0.004 C 
HETATM    9  C19 UNL     1      -1.446  51.431 -22.326  1.00  0.00     0.002 C 
HETATM   10  C20 UNL     1      -0.533  52.584 -22.814  1.00  0.00     0.007 C 
HETATM   11  C21 UNL     1      -0.872  53.072 -24.235  1.00  0.00     0.013 C 
HETATM   12  C22 UNL     1      -0.888  51.921 -25.258  1.00  0.00    -0.002 C 
HETATM   13  C23 UNL     1       0.549  51.360 -25.427  1.00  0.00     0.019 C 
HETATM   14  C24 UNL     1      -1.899  50.870 -24.736  1.00  0.00     0.002 C 
HETATM   15  C25 UNL     1      -2.070  49.918 -25.913  1.00  0.00     0.009 C 
HETATM   16  C26 UNL     1      -1.958  50.821 -27.156  1.00  0.00     0.047 C 
HETATM   17  C27 UNL     1      -1.517  52.228 -26.654  1.00  0.00     0.125 C 
HETATM   18  C30 UNL     1      -1.111  50.923 -20.871  1.00  0.00    -0.016 C 
HETATM   19  C31 UNL     1       0.347  50.424 -20.753  1.00  0.00     0.020 C 
HETATM   20  C32 UNL     1      -1.322  52.104 -19.880  1.00  0.00     0.020 C 
HETATM   21  C33 UNL     1      -1.412  51.678 -18.421  1.00  0.00     0.060 C 
ENDROOT
BRANCH   1  22
HETATM   22  O4  UNL     1      -2.872  51.445 -16.187  1.00  0.00    -0.271 OA
BRANCH  22  23
HETATM   23  C12 UNL     1      -3.167  50.910 -14.899  1.00  0.00     0.303 C 
BRANCH  23  24
HETATM   24  C11 UNL     1      -1.923  50.924 -14.016  1.00  0.00     0.244 C 
HETATM   25  N1  UNL     1      -1.451  52.186 -13.711  1.00  0.00    -0.345 N 
HETATM   26  H12 UNL     1      -1.813  52.928 -14.299  1.00  0.00     0.163 HD
HETATM   27  O3  UNL     1      -1.366  49.896 -13.644  1.00  0.00    -0.271 OA
BRANCH  25  28
HETATM   28  C3  UNL     1      -0.127  52.377 -13.102  1.00  0.00     0.188 C 
BRANCH  28  29
HETATM   29  C2  UNL     1      -0.205  52.355 -11.561  1.00  0.00     0.281 C 
HETATM   30  O2  UNL     1      -0.170  51.339 -10.878  1.00  0.00    -0.263 OA
BRANCH  29  31
HETATM   31  O1  UNL     1      -0.377  53.611 -11.046  1.00  0.00    -0.325 OA
HETATM   32  C1  UNL     1      -1.709  53.891 -10.614  1.00  0.00     0.213 C 
ENDBRANCH  29  31
ENDBRANCH  28  29
BRANCH  28  33
HETATM   33  C4  UNL     1       0.823  51.265 -13.578  1.00  0.00     0.074 C 
BRANCH  33  34
HETATM   34  C5  UNL     1       1.792  51.727 -14.641  1.00  0.00    -0.056 A 
HETATM   35  C6  UNL     1       1.327  52.242 -15.858  1.00  0.00     0.007 A 
HETATM   36  C7  UNL     1       2.230  52.652 -16.841  1.00  0.00     0.001 A 
HETATM   37  C8  UNL     1       3.601  52.552 -16.618  1.00  0.00     0.000 A 
HETATM   38  C9  UNL     1       4.073  52.039 -15.412  1.00  0.00     0.001 A 
HETATM   39  C10 UNL     1       3.173  51.627 -14.429  1.00  0.00     0.007 A 
ENDBRANCH  33  34
ENDBRANCH  28  33
ENDBRANCH  25  28
ENDBRANCH  23  24
ENDBRANCH  22  23
ENDBRANCH   1  22
BRANCH  17  40
HETATM   40  O5  UNL     1      -2.699  53.018 -26.491  1.00  0.00    -0.381 OA
HETATM   41  H34 UNL     1      -3.196  52.998 -27.328  1.00  0.00     0.211 HD
ENDBRANCH  17  40
BRANCH  17  42
HETATM   42  C28 UNL     1      -0.572  52.938 -27.651  1.00  0.00     0.158 C 
HETATM   43  C29 UNL     1       0.340  52.075 -28.488  1.00  0.00     0.094 C 
HETATM   44  O6  UNL     1      -0.544  54.162 -27.780  1.00  0.00    -0.295 OA
ENDBRANCH  17  42
TORSDOF 10
ENDMDL
MODEL 5
REMARK minimizedAffinity -9.52133942
REMARK CNNscore 0.30238831
REMARK CNNaffinity 7.25717163
REMARK  10 active torsions:
REMARK  status: ('A' for Active; 'I' for Inactive)
REMARK    1  A    between atoms: O1_2  and  C2_3 
REMARK    2  A    between atoms: C2_3  and  C3_5 
REMARK    3  A    between atoms: C3_5  and  C4_6 
REMARK    4  A    between atoms: C3_5  and  N1_13 
REMARK    5  A    between atoms: C4_6  and  C5_7 
REMARK       I    between atoms: N1_13  and  C11_14 
REMARK    6  A    between atoms: C11_14  and  C12_16 
REMARK    7  A    between atoms: C12_16  and  O4_17 
REMARK    8  A    between atoms: O4_17  and  N2_18 
REMARK    9  A    between atoms: C27_34  and  O5_35 
REMARK   10  A    between atoms: C27_34  and  C28_36 
ROOT
HETATM    1  N2  UNL     1      -3.063  50.399 -17.180  1.00  0.00    -0.271 N 
ATOM      2  H2  UNL     1      -3.793  49.697 -17.058  1.00  0.00     0.194 HD
HETATM    3  C13 UNL     1      -2.365  50.548 -18.270  1.00  0.00     0.032 C 
HETATM    4  C14 UNL     1      -2.591  49.586 -19.377  1.00  0.00     0.030 C 
HETATM    5  C15 UNL     1      -1.957  49.698 -20.558  1.00  0.00    -0.069 C 
HETATM    6  C16 UNL     1      -2.124  48.616 -21.599  1.00  0.00     0.035 C 
HETATM    7  C17 UNL     1      -2.509  49.185 -22.959  1.00  0.00     0.010 C 
HETATM    8  C18 UNL     1      -1.505  50.248 -23.425  1.00  0.00    -0.004 C 
HETATM    9  C19 UNL     1      -1.412  51.390 -22.368  1.00  0.00     0.002 C 
HETATM   10  C20 UNL     1      -0.520  52.556 -22.864  1.00  0.00     0.007 C 
HETATM   11  C21 UNL     1      -0.897  53.057 -24.270  1.00  0.00     0.013 C 
HETATM   12  C22 UNL     1      -0.929  51.919 -25.306  1.00  0.00    -0.002 C 
HETATM   13  C23 UNL     1       0.507  51.370 -25.516  1.00  0.00     0.019 C 
HETATM   14  C24 UNL     1      -1.920  50.853 -24.772  1.00  0.00     0.002 C 
HETATM   15  C25 UNL     1      -2.112  49.914 -25.956  1.00  0.00     0.009 C 
HETATM   16  C26 UNL     1      -2.037  50.832 -27.190  1.00  0.00     0.047 C 
HETATM   17  C27 UNL     1      -1.594  52.236 -26.683  1.00  0.00     0.125 C 
HETATM   18  C30 UNL     1      -1.038  50.868 -20.927  1.00  0.00    -0.016 C 
HETATM   19  C31 UNL     1       0.426  50.379 -20.850  1.00  0.00     0.020 C 
HETATM   20  C32 UNL     1      -1.234  52.036 -19.918  1.00  0.00     0.020 C 
HETATM   21  C33 UNL     1      -1.286  51.593 -18.462  1.00  0.00     0.060 C 
ENDROOT
BRANCH   1  22
HETATM   22  O4  UNL     1      -2.689  51.322 -16.196  1.00  0.00    -0.271 OA
BRANCH  22  23
HETATM   23  C12 UNL     1      -3.264  50.942 -14.948  1.00  0.00     0.303 C 
BRANCH  23  24
HETATM   24  C11 UNL     1      -2.234  50.230 -14.078  1.00  0.00     0.244 C 
HETATM   25  N1  UNL     1      -0.921  50.469 -14.432  1.00  0.00    -0.345 N 
HETATM   26  H12 UNL     1      -0.796  50.865 -15.357  1.00  0.00     0.163 HD
HETATM   27  O3  UNL     1      -2.552  49.474 -13.165  1.00  0.00    -0.271 OA
BRANCH  25  28
HETATM   28  C3  UNL     1       0.176  49.663 -13.877  1.00  0.00     0.188 C 
BRANCH  28  29
HETATM   29  C2  UNL     1       0.729  48.669 -14.920  1.00  0.00     0.281 C 
HETATM   30  O2  UNL     1       0.179  48.396 -15.980  1.00  0.00    -0.263 OA
BRANCH  29  31
HETATM   31  O1  UNL     1       1.887  48.079 -14.492  1.00  0.00    -0.325 OA
HETATM   32  C1  UNL     1       2.002  46.697 -14.830  1.00  0.00     0.213 C 
ENDBRANCH  29  31
ENDBRANCH  28  29
BRANCH  28  33
HETATM   33  C4  UNL     1       1.310  50.589 -13.407  1.00  0.00     0.074 C 
BRANCH  33  34
HETATM   34  C5  UNL     1       1.949  51.364 -14.535  1.00  0.00    -0.056 A 
HETATM   35  C6  UNL     1       3.343  51.427 -14.660  1.00  0.00     0.007 A 
HETATM   36  C7  UNL     1       3.925  52.158 -15.697  1.00  0.00     0.001 A 
HETATM   37  C8  UNL     1       3.123  52.831 -16.616  1.00  0.00     0.000 A 
HETATM   38  C9  UNL     1       1.737  52.777 -16.499  1.00  0.00     0.001 A 
HETATM   39  C10 UNL     1       1.152  52.048 -15.463  1.00  0.00     0.007 A 
ENDBRANCH  33  34
ENDBRANCH  28  33
ENDBRANCH  25  28
ENDBRANCH  23  24
ENDBRANCH  22  23
ENDBRANCH   1  22
BRANCH  17  40
HETATM   40  O5  UNL     1      -2.778  53.015 -26.482  1.00  0.00    -0.381 OA
HETATM   41  H34 UNL     1      -3.295  53.001 -27.307  1.00  0.00     0.211 HD
ENDBRANCH  17  40
BRANCH  17  42
HETATM   42  C28 UNL     1      -0.679  52.965 -27.694  1.00  0.00     0.158 C 
HETATM   43  C29 UNL     1       0.289  52.127 -28.493  1.00  0.00     0.094 C 
HETATM   44  O6  UNL     1      -0.719  54.184 -27.864  1.00  0.00    -0.295 OA
ENDBRANCH  17  42
TORSDOF 10
ENDMDL
MODEL 6
REMARK minimizedAffinity -8.79371166
REMARK CNNscore 0.275530845
REMARK CNNaffinity 6.32957077
REMARK  10 active torsions:
REMARK  status: ('A' for Active; 'I' for Inactive)
REMARK    1  A    between atoms: O1_2  and  C2_3 
REMARK    2  A    between atoms: C2_3  and  C3_5 
REMARK    3  A    between atoms: C3_5  and  C4_6 
REMARK    4  A    between atoms: C3_5  and  N1_13 
REMARK    5  A    between atoms: C4_6  and  C5_7 
REMARK       I    between atoms: N1_13  and  C11_14 
REMARK    6  A    between atoms: C11_14  and  C12_16 
REMARK    7  A    between atoms: C12_16  and  O4_17 
REMARK    8  A    between atoms: O4_17  and  N2_18 
REMARK    9  A    between atoms: C27_34  and  O5_35 
REMARK   10  A    between atoms: C27_34  and  C28_36 
ROOT
HETATM    1  N2  UNL     1      -5.318  48.636 -28.643  1.00  0.00    -0.271 N 
ATOM      2  H2  UNL     1      -4.894  49.454 -29.082  1.00  0.00     0.194 HD
HETATM    3  C13 UNL     1      -6.284  47.939 -29.173  1.00  0.00     0.032 C 
HETATM    4  C14 UNL     1      -6.857  48.411 -30.458  1.00  0.00     0.030 C 
HETATM    5  C15 UNL     1      -7.816  47.724 -31.104  1.00  0.00    -0.069 C 
HETATM    6  C16 UNL     1      -8.455  48.317 -32.338  1.00  0.00     0.035 C 
HETATM    7  C17 UNL     1      -8.454  47.343 -33.508  1.00  0.00     0.010 C 
HETATM    8  C18 UNL     1      -9.119  46.013 -33.128  1.00  0.00    -0.004 C 
HETATM    9  C19 UNL     1      -8.389  45.385 -31.902  1.00  0.00     0.002 C 
HETATM   10  C20 UNL     1      -8.933  43.971 -31.575  1.00  0.00     0.007 C 
HETATM   11  C21 UNL     1      -8.981  43.037 -32.798  1.00  0.00     0.013 C 
HETATM   12  C22 UNL     1      -9.754  43.659 -33.976  1.00  0.00    -0.002 C 
HETATM   13  C23 UNL     1     -11.252  43.796 -33.597  1.00  0.00     0.019 C 
HETATM   14  C24 UNL     1      -9.076  45.015 -34.294  1.00  0.00     0.002 C 
HETATM   15  C25 UNL     1      -9.699  45.429 -35.620  1.00  0.00     0.009 C 
HETATM   16  C26 UNL     1      -9.919  44.103 -36.371  1.00  0.00     0.047 C 
HETATM   17  C27 UNL     1      -9.609  42.956 -35.364  1.00  0.00     0.125 C 
HETATM   18  C30 UNL     1      -8.333  46.351 -30.657  1.00  0.00    -0.016 C 
HETATM   19  C31 UNL     1      -9.723  46.544 -30.009  1.00  0.00     0.020 C 
HETATM   20  C32 UNL     1      -7.366  45.737 -29.604  1.00  0.00     0.020 C 
HETATM   21  C33 UNL     1      -6.913  46.720 -28.533  1.00  0.00     0.060 C 
ENDROOT
BRANCH   1  22
HETATM   22  O4  UNL     1      -4.932  48.123 -27.398  1.00  0.00    -0.271 OA
BRANCH  22  23
HETATM   23  C12 UNL     1      -3.520  48.250 -27.252  1.00  0.00     0.303 C 
BRANCH  23  24
HETATM   24  C11 UNL     1      -3.182  49.281 -26.179  1.00  0.00     0.244 C 
HETATM   25  N1  UNL     1      -3.099  50.580 -26.640  1.00  0.00    -0.345 N 
HETATM   26  H12 UNL     1      -3.015  50.670 -27.647  1.00  0.00     0.163 HD
HETATM   27  O3  UNL     1      -2.962  48.970 -25.013  1.00  0.00    -0.271 OA
BRANCH  25  28
HETATM   28  C3  UNL     1      -2.528  51.647 -25.806  1.00  0.00     0.188 C 
BRANCH  28  29
HETATM   29  C2  UNL     1      -3.476  52.029 -24.650  1.00  0.00     0.281 C 
HETATM   30  O2  UNL     1      -4.697  52.064 -24.736  1.00  0.00    -0.263 OA
BRANCH  29  31
HETATM   31  O1  UNL     1      -2.784  52.384 -23.524  1.00  0.00    -0.325 OA
HETATM   32  C1  UNL     1      -3.216  51.721 -22.336  1.00  0.00     0.213 C 
ENDBRANCH  29  31
ENDBRANCH  28  29
BRANCH  28  33
HETATM   33  C4  UNL     1      -1.182  51.183 -25.226  1.00  0.00     0.074 C 
BRANCH  33  34
HETATM   34  C5  UNL     1      -0.023  51.397 -26.171  1.00  0.00    -0.056 A 
HETATM   35  C6  UNL     1      -0.242  51.588 -27.541  1.00  0.00     0.007 A 
HETATM   36  C7  UNL     1       0.837  51.771 -28.409  1.00  0.00     0.001 A 
HETATM   37  C8  UNL     1       2.140  51.763 -27.918  1.00  0.00     0.000 A 
HETATM   38  C9  UNL     1       2.369  51.571 -26.558  1.00  0.00     0.001 A 
HETATM   39  C10 UNL     1       1.293  51.387 -25.688  1.00  0.00     0.007 A 
ENDBRANCH  33  34
ENDBRANCH  28  33
ENDBRANCH  25  28
ENDBRANCH  23  24
ENDBRANCH  22  23
ENDBRANCH   1  22
BRANCH  17  40
HETATM   40  O5  UNL     1      -8.248  42.560 -35.567  1.00  0.00    -0.381 OA
HETATM   41  H34 UNL     1      -8.132  42.345 -36.509  1.00  0.00     0.211 HD
ENDBRANCH  17  40
BRANCH  17  42
HETATM   42  C28 UNL     1     -10.526  41.729 -35.569  1.00  0.00     0.158 C 
HETATM   43  C29 UNL     1     -12.017  41.961 -35.577  1.00  0.00     0.094 C 
HETATM   44  O6  UNL     1     -10.083  40.590 -35.726  1.00  0.00    -0.295 OA
ENDBRANCH  17  42
TORSDOF 10
ENDMDL
MODEL 7
REMARK minimizedAffinity -9.48336506
REMARK CNNscore 0.262780786
REMARK CNNaffinity 6.25892782
REMARK  10 active torsions:
REMARK  status: ('A' for Active; 'I' for Inactive)
REMARK    1  A    between atoms: O1_2  and  C2_3 
REMARK    2  A    between atoms: C2_3  and  C3_5 
REMARK    3  A    between atoms: C3_5  and  C4_6 
REMARK    4  A    between atoms: C3_5  and  N1_13 
REMARK    5  A    between atoms: C4_6  and  C5_7 
REMARK       I    between atoms: N1_13  and  C11_14 
REMARK    6  A    between atoms: C11_14  and  C12_16 
REMARK    7  A    between atoms: C12_16  and  O4_17 
REMARK    8  A    between atoms: O4_17  and  N2_18 
REMARK    9  A    between atoms: C27_34  and  O5_35 
REMARK   10  A    between atoms: C27_34  and  C28_36 
ROOT
HETATM    1  N2  UNL     1       0.346  49.235 -16.448  1.00  0.00    -0.271 N 
ATOM      2  H2  UNL     1       1.198  49.654 -16.073  1.00  0.00     0.194 HD
HETATM    3  C13 UNL     1      -0.309  49.702 -17.473  1.00  0.00     0.032 C 
HETATM    4  C14 UNL     1       0.170  50.966 -18.087  1.00  0.00     0.030 C 
HETATM    5  C15 UNL     1      -0.409  51.489 -19.182  1.00  0.00    -0.069 C 
HETATM    6  C16 UNL     1       0.034  52.843 -19.685  1.00  0.00     0.035 C 
HETATM    7  C17 UNL     1       0.365  52.822 -21.172  1.00  0.00     0.010 C 
HETATM    8  C18 UNL     1      -0.812  52.285 -21.998  1.00  0.00    -0.004 C 
HETATM    9  C19 UNL     1      -1.196  50.855 -21.510  1.00  0.00     0.002 C 
HETATM   10  C20 UNL     1      -2.282  50.216 -22.411  1.00  0.00     0.007 C 
HETATM   11  C21 UNL     1      -1.943  50.275 -23.912  1.00  0.00     0.013 C 
HETATM   12  C22 UNL     1      -1.620  51.706 -24.380  1.00  0.00    -0.002 C 
HETATM   13  C23 UNL     1      -2.898  52.581 -24.288  1.00  0.00     0.019 C 
HETATM   14  C24 UNL     1      -0.460  52.220 -23.491  1.00  0.00     0.002 C 
HETATM   15  C25 UNL     1      -0.015  53.502 -24.183  1.00  0.00     0.009 C 
HETATM   16  C26 UNL     1      -0.212  53.216 -25.683  1.00  0.00     0.047 C 
HETATM   17  C27 UNL     1      -0.963  51.855 -25.789  1.00  0.00     0.125 C 
HETATM   18  C30 UNL     1      -1.530  50.799 -19.969  1.00  0.00    -0.016 C 
HETATM   19  C31 UNL     1      -2.863  51.509 -19.639  1.00  0.00     0.020 C 
HETATM   20  C32 UNL     1      -1.635  49.306 -19.545  1.00  0.00     0.020 C 
HETATM   21  C33 UNL     1      -1.570  49.084 -18.041  1.00  0.00     0.060 C 
ENDROOT
BRANCH   1  22
HETATM   22  O4  UNL     1      -0.264  48.089 -15.923  1.00  0.00    -0.271 OA
BRANCH  22  23
HETATM   23  C12 UNL     1       0.630  47.454 -15.013  1.00  0.00     0.303 C 
BRANCH  23  24
HETATM   24  C11 UNL     1       0.883  48.344 -13.800  1.00  0.00     0.244 C 
HETATM   25  N1  UNL     1       2.111  48.978 -13.800  1.00  0.00    -0.345 N 
HETATM   26  H12 UNL     1       2.788  48.591 -14.449  1.00  0.00     0.163 HD
HETATM   27  O3  UNL     1       0.076  48.452 -12.882  1.00  0.00    -0.271 OA
BRANCH  25  28
HETATM   28  C3  UNL     1       2.619  49.650 -12.597  1.00  0.00     0.188 C 
BRANCH  28  29
HETATM   29  C2  UNL     1       4.139  49.439 -12.431  1.00  0.00     0.281 C 
HETATM   30  O2  UNL     1       4.944  49.432 -13.355  1.00  0.00    -0.263 OA
BRANCH  29  31
HETATM   31  O1  UNL     1       4.478  49.202 -11.127  1.00  0.00    -0.325 OA
HETATM   32  C1  UNL     1       5.262  50.234 -10.528  1.00  0.00     0.213 C 
ENDBRANCH  29  31
ENDBRANCH  28  29
BRANCH  28  33
HETATM   33  C4  UNL     1       2.323  51.156 -12.684  1.00  0.00     0.074 C 
BRANCH  33  34
HETATM   34  C5  UNL     1       2.517  51.720 -14.072  1.00  0.00    -0.056 A 
HETATM   35  C6  UNL     1       1.421  52.150 -14.831  1.00  0.00     0.007 A 
HETATM   36  C7  UNL     1       1.609  52.655 -16.119  1.00  0.00     0.001 A 
HETATM   37  C8  UNL     1       2.891  52.735 -16.659  1.00  0.00     0.000 A 
HETATM   38  C9  UNL     1       3.987  52.308 -15.914  1.00  0.00     0.001 A 
HETATM   39  C10 UNL     1       3.801  51.801 -14.627  1.00  0.00     0.007 A 
ENDBRANCH  33  34
ENDBRANCH  28  33
ENDBRANCH  25  28
ENDBRANCH  23  24
ENDBRANCH  22  23
ENDBRANCH   1  22
BRANCH  17  40
HETATM   40  O5  UNL     1       0.021  50.833 -25.976  1.00  0.00    -0.381 OA
HETATM   41  H34 UNL     1       0.573  51.078 -26.740  1.00  0.00     0.211 HD
ENDBRANCH  17  40
BRANCH  17  42
HETATM   42  C28 UNL     1      -1.954  51.822 -26.976  1.00  0.00     0.158 C 
HETATM   43  C29 UNL     1      -2.453  50.474 -27.434  1.00  0.00     0.094 C 
HETATM   44  O6  UNL     1      -2.341  52.843 -27.544  1.00  0.00    -0.295 OA
ENDBRANCH  17  42
TORSDOF 10
ENDMDL
MODEL 8
REMARK minimizedAffinity -8.33966541
REMARK CNNscore 0.225180134
REMARK CNNaffinity 6.35411978
REMARK  10 active torsions:
REMARK  status: ('A' for Active; 'I' for Inactive)
REMARK    1  A    between atoms: O1_2  and  C2_3 
REMARK    2  A    between atoms: C2_3  and  C3_5 
REMARK    3  A    between atoms: C3_5  and  C4_6 
REMARK    4  A    between atoms: C3_5  and  N1_13 
REMARK    5  A    between atoms: C4_6  and  C5_7 
REMARK       I    between atoms: N1_13  and  C11_14 
REMARK    6  A    between atoms: C11_14  and  C12_16 
REMARK    7  A    between atoms: C12_16  and  O4_17 
REMARK    8  A    between atoms: O4_17  and  N2_18 
REMARK    9  A    between atoms: C27_34  and  O5_35 
REMARK   10  A    between atoms: C27_34  and  C28_36 
ROOT
HETATM    1  N2  UNL     1       2.982  51.046 -14.241  1.00  0.00    -0.271 N 
ATOM      2  H2  UNL     1       3.759  51.606 -14.592  1.00  0.00     0.194 HD
HETATM    3  C13 UNL     1       1.865  50.859 -14.884  1.00  0.00     0.032 C 
HETATM    4  C14 UNL     1       1.679  51.567 -16.175  1.00  0.00     0.030 C 
HETATM    5  C15 UNL     1       0.583  51.388 -16.934  1.00  0.00    -0.069 C 
HETATM    6  C16 UNL     1       0.386  52.234 -18.171  1.00  0.00     0.035 C 
HETATM    7  C17 UNL     1       0.074  51.389 -19.399  1.00  0.00     0.010 C 
HETATM    8  C18 UNL     1      -1.135  50.476 -19.157  1.00  0.00    -0.004 C 
HETATM    9  C19 UNL     1      -0.871  49.560 -17.923  1.00  0.00     0.002 C 
HETATM   10  C20 UNL     1      -2.005  48.521 -17.731  1.00  0.00     0.007 C 
HETATM   11  C21 UNL     1      -2.338  47.735 -19.012  1.00  0.00     0.013 C 
HETATM   12  C22 UNL     1      -2.647  48.663 -20.201  1.00  0.00    -0.002 C 
HETATM   13  C23 UNL     1      -3.965  49.435 -19.926  1.00  0.00     0.019 C 
HETATM   14  C24 UNL     1      -1.419  49.592 -20.378  1.00  0.00     0.002 C 
HETATM   15  C25 UNL     1      -1.671  50.272 -21.718  1.00  0.00     0.009 C 
HETATM   16  C26 UNL     1      -2.374  49.197 -22.568  1.00  0.00     0.047 C 
HETATM   17  C27 UNL     1      -2.691  48.005 -21.617  1.00  0.00     0.125 C 
HETATM   18  C30 UNL     1      -0.519  50.371 -16.617  1.00  0.00    -0.016 C 
HETATM   19  C31 UNL     1      -1.742  51.137 -16.063  1.00  0.00     0.020 C 
HETATM   20  C32 UNL     1      -0.021  49.367 -15.538  1.00  0.00     0.020 C 
HETATM   21  C33 UNL     1       0.710  50.023 -14.374  1.00  0.00     0.060 C 
ENDROOT
BRANCH   1  22
HETATM   22  O4  UNL     1       2.985  50.384 -13.007  1.00  0.00    -0.271 OA
BRANCH  22  23
HETATM   23  C12 UNL     1       3.501  51.257 -12.004  1.00  0.00     0.303 C 
BRANCH  23  24
HETATM   24  C11 UNL     1       2.504  52.369 -11.697  1.00  0.00     0.244 C 
HETATM   25  N1  UNL     1       3.076  53.545 -11.252  1.00  0.00    -0.345 N 
HETATM   26  H12 UNL     1       4.037  53.458 -10.940  1.00  0.00     0.163 HD
HETATM   27  O3  UNL     1       1.290  52.214 -11.798  1.00  0.00    -0.271 OA
BRANCH  25  28
HETATM   28  C3  UNL     1       2.257  54.614 -10.664  1.00  0.00     0.188 C 
BRANCH  28  29
HETATM   29  C2  UNL     1       1.798  54.253  -9.235  1.00  0.00     0.281 C 
HETATM   30  O2  UNL     1       2.466  53.611  -8.433  1.00  0.00    -0.263 OA
BRANCH  29  31
HETATM   31  O1  UNL     1       0.525  54.688  -8.987  1.00  0.00    -0.325 OA
HETATM   32  C1  UNL     1      -0.225  55.006 -10.160  1.00  0.00     0.213 C 
ENDBRANCH  29  31
ENDBRANCH  28  29
BRANCH  28  33
HETATM   33  C4  UNL     1       3.067  55.920 -10.622  1.00  0.00     0.074 C 
BRANCH  33  34
HETATM   34  C5  UNL     1       4.230  55.866  -9.659  1.00  0.00    -0.056 A 
HETATM   35  C6  UNL     1       5.378  55.124  -9.964  1.00  0.00     0.007 A 
HETATM   36  C7  UNL     1       6.442  55.068  -9.062  1.00  0.00     0.001 A 
HETATM   37  C8  UNL     1       6.369  55.750  -7.849  1.00  0.00     0.000 A 
HETATM   38  C9  UNL     1       5.230  56.488  -7.535  1.00  0.00     0.001 A 
HETATM   39  C10 UNL     1       4.165  56.545  -8.435  1.00  0.00     0.007 A 
ENDBRANCH  33  34
ENDBRANCH  28  33
ENDBRANCH  25  28
ENDBRANCH  23  24
ENDBRANCH  22  23
ENDBRANCH   1  22
BRANCH  17  40
HETATM   40  O5  UNL     1      -1.626  47.057 -21.744  1.00  0.00    -0.381 OA
HETATM   41  H34 UNL     1      -1.525  46.838 -22.687  1.00  0.00     0.211 HD
ENDBRANCH  17  40
BRANCH  17  42
HETATM   42  C28 UNL     1      -4.026  47.311 -21.970  1.00  0.00     0.158 C 
HETATM   43  C29 UNL     1      -4.909  47.972 -22.999  1.00  0.00     0.094 C 
HETATM   44  O6  UNL     1      -4.382  46.254 -21.447  1.00  0.00    -0.295 OA
ENDBRANCH  17  42
TORSDOF 10
ENDMDL
MODEL 9
REMARK minimizedAffinity -8.13115025
REMARK CNNscore 0.214230999
REMARK CNNaffinity 6.35697365
REMARK  10 active torsions:
REMARK  status: ('A' for Active; 'I' for Inactive)
REMARK    1  A    between atoms: O1_2  and  C2_3 
REMARK    2  A    between atoms: C2_3  and  C3_5 
REMARK    3  A    between atoms: C3_5  and  C4_6 
REMARK    4  A    between atoms: C3_5  and  N1_13 
REMARK    5  A    between atoms: C4_6  and  C5_7 
REMARK       I    between atoms: N1_13  and  C11_14 
REMARK    6  A    between atoms: C11_14  and  C12_16 
REMARK    7  A    between atoms: C12_16  and  O4_17 
REMARK    8  A    between atoms: O4_17  and  N2_18 
REMARK    9  A    between atoms: C27_34  and  O5_35 
REMARK   10  A    between atoms: C27_34  and  C28_36 
ROOT
HETATM    1  N2  UNL     1       0.736  49.675 -15.934  1.00  0.00    -0.271 N 
ATOM      2  H2  UNL     1       1.539  50.157 -15.530  1.00  0.00     0.194 HD
HETATM    3  C13 UNL     1       0.105  50.072 -17.003  1.00  0.00     0.032 C 
HETATM    4  C14 UNL     1       0.532  51.349 -17.627  1.00  0.00     0.030 C 
HETATM    5  C15 UNL     1      -0.023  51.807 -18.763  1.00  0.00    -0.069 C 
HETATM    6  C16 UNL     1       0.357  53.174 -19.281  1.00  0.00     0.035 C 
HETATM    7  C17 UNL     1       0.763  53.139 -20.748  1.00  0.00     0.010 C 
HETATM    8  C18 UNL     1      -0.333  52.506 -21.616  1.00  0.00    -0.004 C 
HETATM    9  C19 UNL     1      -0.648  51.066 -21.108  1.00  0.00     0.002 C 
HETATM   10  C20 UNL     1      -1.644  50.335 -22.044  1.00  0.00     0.007 C 
HETATM   11  C21 UNL     1      -1.233  50.380 -23.527  1.00  0.00     0.013 C 
HETATM   12  C22 UNL     1      -0.981  51.817 -24.018  1.00  0.00    -0.002 C 
HETATM   13  C23 UNL     1      -2.316  52.609 -24.013  1.00  0.00     0.019 C 
HETATM   14  C24 UNL     1       0.097  52.428 -23.087  1.00  0.00     0.002 C 
HETATM   15  C25 UNL     1       0.494  53.719 -23.792  1.00  0.00     0.009 C 
HETATM   16  C26 UNL     1       0.392  53.384 -25.291  1.00  0.00     0.047 C 
HETATM   17  C27 UNL     1      -0.263  51.975 -25.397  1.00  0.00     0.125 C 
HETATM   18  C30 UNL     1      -1.056  51.026 -19.585  1.00  0.00    -0.016 C 
HETATM   19  C31 UNL     1      -2.447  51.654 -19.340  1.00  0.00     0.020 C 
HETATM   20  C32 UNL     1      -1.085  49.539 -19.125  1.00  0.00     0.020 C 
HETATM   21  C33 UNL     1      -1.083  49.359 -17.614  1.00  0.00     0.060 C 
ENDROOT
BRANCH   1  22
HETATM   22  O4  UNL     1       0.175  48.504 -15.408  1.00  0.00    -0.271 OA
BRANCH  22  23
HETATM   23  C12 UNL     1       0.963  48.056 -14.308  1.00  0.00     0.303 C 
BRANCH  23  24
HETATM   24  C11 UNL     1       1.578  46.693 -14.608  1.00  0.00     0.244 C 
HETATM   25  N1  UNL     1       0.670  45.653 -14.657  1.00  0.00    -0.345 N 
HETATM   26  H12 UNL     1      -0.233  45.858 -14.245  1.00  0.00     0.163 HD
HETATM   27  O3  UNL     1       2.786  46.532 -14.751  1.00  0.00    -0.271 OA
BRANCH  25  28
HETATM   28  C3  UNL     1       1.118  44.253 -14.669  1.00  0.00     0.188 C 
BRANCH  28  29
HETATM   29  C2  UNL     1       1.578  43.795 -13.268  1.00  0.00     0.281 C 
HETATM   30  O2  UNL     1       2.748  43.684 -12.924  1.00  0.00    -0.263 OA
BRANCH  29  31
HETATM   31  O1  UNL     1       0.516  43.472 -12.468  1.00  0.00    -0.325 OA
HETATM   32  C1  UNL     1       0.356  44.323 -11.333  1.00  0.00     0.213 C 
ENDBRANCH  29  31
ENDBRANCH  28  29
BRANCH  28  33
HETATM   33  C4  UNL     1      -0.030  43.349 -15.147  1.00  0.00     0.074 C 
BRANCH  33  34
HETATM   34  C5  UNL     1       0.445  42.156 -15.942  1.00  0.00    -0.056 A 
HETATM   35  C6  UNL     1       0.189  40.852 -15.500  1.00  0.00     0.007 A 
HETATM   36  C7  UNL     1       0.645  39.756 -16.234  1.00  0.00     0.001 A 
HETATM   37  C8  UNL     1       1.361  39.951 -17.413  1.00  0.00     0.000 A 
HETATM   38  C9  UNL     1       1.625  41.244 -17.859  1.00  0.00     0.001 A 
HETATM   39  C10 UNL     1       1.170  42.341 -17.127  1.00  0.00     0.007 A 
ENDBRANCH  33  34
ENDBRANCH  28  33
ENDBRANCH  25  28
ENDBRANCH  23  24
ENDBRANCH  22  23
ENDBRANCH   1  22
BRANCH  17  40
HETATM   40  O5  UNL     1       0.793  51.015 -25.507  1.00  0.00    -0.381 OA
HETATM   41  H34 UNL     1       1.366  51.278 -26.249  1.00  0.00     0.211 HD
ENDBRANCH  17  40
BRANCH  17  42
HETATM   42  C28 UNL     1      -1.189  51.848 -26.629  1.00  0.00     0.158 C 
HETATM   43  C29 UNL     1      -0.567  52.019 -27.993  1.00  0.00     0.094 C 
HETATM   44  O6  UNL     1      -2.394  51.614 -26.531  1.00  0.00    -0.295 OA
ENDBRANCH  17  42
TORSDOF 10
ENDMDL
