MODEL 1
REMARK minimizedAffinity -8.48063374
REMARK CNNscore 0.929800868
REMARK CNNaffinity 6.73933077
REMARK  8 active torsions:
REMARK  status: ('A' for Active; 'I' for Inactive)
REMARK    1  A    between atoms: C3_3  and  C4_4 
REMARK    2  A    between atoms: C4_4  and  O1_5 
REMARK    3  A    between atoms: C6_9  and  C7_10 
REMARK    4  A    between atoms: C7_10  and  O4_12 
REMARK    5  A    between atoms: C7_10  and  C9_13 
REMARK    6  A    between atoms: C9_13  and  O5_14 
REMARK    7  A    between atoms: C12_17  and  O6_18 
REMARK    8  A    between atoms: C27_34  and  O8_35 
ROOT
HETATM    1  C9  UNL     1       0.106  51.331 -11.619  1.00  0.00     0.101 C 
HETATM    2  C10 UNL     1      -0.534  52.697 -12.096  1.00  0.00     0.045 C 
HETATM    3  C11 UNL     1       0.044  53.836 -11.243  1.00  0.00     0.045 C 
HETATM    4  C12 UNL     1       1.411  53.306 -10.839  1.00  0.00     0.100 C 
HETATM    5  C13 UNL     1       1.072  51.827 -10.431  1.00  0.00     0.024 C 
HETATM    6  C14 UNL     1       0.271  51.711  -9.087  1.00  0.00     0.022 C 
HETATM    7  C15 UNL     1       2.422  51.127 -10.206  1.00  0.00     0.016 C 
HETATM    8  C16 UNL     1       3.284  51.842  -9.141  1.00  0.00     0.010 C 
HETATM    9  C17 UNL     1       3.533  53.352  -9.432  1.00  0.00     0.043 C 
HETATM   10  C18 UNL     1       4.406  54.093  -8.341  1.00  0.00     0.046 C 
HETATM   11  C19 UNL     1       4.037  53.703  -6.896  1.00  0.00     0.029 C 
HETATM   12  C20 UNL     1       5.890  53.683  -8.558  1.00  0.00     0.140 C 
HETATM   13  O7  UNL     1       6.253  52.505  -8.610  1.00  0.00    -0.297 OA
HETATM   14  C21 UNL     1       6.923  54.786  -8.699  1.00  0.00     0.080 C 
HETATM   15  C22 UNL     1       6.707  55.819  -7.606  1.00  0.00     0.012 C 
HETATM   16  C23 UNL     1       5.315  56.447  -7.675  1.00  0.00     0.035 C 
HETATM   17  C24 UNL     1       4.344  55.625  -8.496  1.00  0.00    -0.067 C 
HETATM   18  C25 UNL     1       3.531  56.243  -9.373  1.00  0.00    -0.020 C 
HETATM   19  C26 UNL     1       2.549  55.535 -10.258  1.00  0.00     0.069 C 
HETATM   20  C27 UNL     1       2.201  54.111  -9.757  1.00  0.00     0.098 C 
ENDROOT
BRANCH   1  21
HETATM   21  C7  UNL     1       0.697  50.521 -12.861  1.00  0.00     0.113 C 
HETATM   22  C8  UNL     1       1.948  49.705 -12.430  1.00  0.00     0.052 C 
BRANCH  21  23
HETATM   23  C6  UNL     1       1.059  51.352 -14.144  1.00  0.00     0.173 C 
HETATM   24  O3  UNL     1       0.237  50.826 -15.224  1.00  0.00    -0.309 OA
HETATM   25  C5  UNL     1       0.397  51.268 -16.496  1.00  0.00     0.292 C 
HETATM   26  C3  UNL     1       1.626  52.057 -16.789  1.00  0.00     0.042 C 
HETATM   27  O2  UNL     1      -0.419  50.979 -17.362  1.00  0.00    -0.260 OA
HETATM   28  C2  UNL     1       2.659  52.039 -15.916  1.00  0.00    -0.067 C 
HETATM   29  C1  UNL     1       4.001  52.677 -16.153  1.00  0.00     0.044 C 
HETATM   30  C28 UNL     1       2.520  51.347 -14.581  1.00  0.00     0.070 C 
BRANCH  26  31
HETATM   31  C4  UNL     1       1.641  52.723 -18.136  1.00  0.00     0.209 C 
BRANCH  31  32
HETATM   32  O1  UNL     1       0.438  53.465 -18.319  1.00  0.00    -0.396 OA
HETATM   33  H6  UNL     1       0.346  54.072 -17.568  1.00  0.00     0.209 HD
ENDBRANCH  31  32
ENDBRANCH  26  31
ENDBRANCH  21  23
BRANCH  21  34
HETATM   34  O4  UNL     1      -0.285  49.546 -13.278  1.00  0.00    -0.384 OA
HETATM   35  H11 UNL     1       0.083  49.113 -14.079  1.00  0.00     0.210 HD
ENDBRANCH  21  34
ENDBRANCH   1  21
BRANCH   1  36
HETATM   36  O5  UNL     1      -1.018  50.569 -11.137  1.00  0.00    -0.386 OA
HETATM   37  H12 UNL     1      -0.754  50.009 -10.393  1.00  0.00     0.210 HD
ENDBRANCH   1  36
BRANCH   4  38
HETATM   38  O6  UNL     1       2.242  53.366 -12.017  1.00  0.00    -0.386 OA
HETATM   39  H17 UNL     1       2.028  52.644 -12.644  1.00  0.00     0.210 HD
ENDBRANCH   4  38
BRANCH  20  40
HETATM   40  O8  UNL     1       1.420  54.252  -8.561  1.00  0.00    -0.386 OA
HETATM   41  H38 UNL     1       0.811  55.000  -8.677  1.00  0.00     0.210 HD
ENDBRANCH  20  40
TORSDOF 8
ENDMDL
MODEL 2
REMARK minimizedAffinity -8.88638592
REMARK CNNscore 0.746490538
REMARK CNNaffinity 6.6188798
REMARK  8 active torsions:
REMARK  status: ('A' for Active; 'I' for Inactive)
REMARK    1  A    between atoms: C3_3  and  C4_4 
REMARK    2  A    between atoms: C4_4  and  O1_5 
REMARK    3  A    between atoms: C6_9  and  C7_10 
REMARK    4  A    between atoms: C7_10  and  O4_12 
REMARK    5  A    between atoms: C7_10  and  C9_13 
REMARK    6  A    between atoms: C9_13  and  O5_14 
REMARK    7  A    between atoms: C12_17  and  O6_18 
REMARK    8  A    between atoms: C27_34  and  O8_35 
ROOT
HETATM    1  C9  UNL     1      -7.927  47.697 -29.287  1.00  0.00     0.101 C 
HETATM    2  C10 UNL     1      -8.356  46.574 -28.258  1.00  0.00     0.045 C 
HETATM    3  C11 UNL     1      -9.403  45.670 -28.924  1.00  0.00     0.045 C 
HETATM    4  C12 UNL     1      -9.066  45.781 -30.403  1.00  0.00     0.100 C 
HETATM    5  C13 UNL     1      -8.837  47.328 -30.562  1.00  0.00     0.024 C 
HETATM    6  C14 UNL     1     -10.154  48.174 -30.467  1.00  0.00     0.022 C 
HETATM    7  C15 UNL     1      -8.277  47.532 -31.979  1.00  0.00     0.016 C 
HETATM    8  C16 UNL     1      -9.218  46.967 -33.068  1.00  0.00     0.010 C 
HETATM    9  C17 UNL     1      -9.587  45.466 -32.876  1.00  0.00     0.043 C 
HETATM   10  C18 UNL     1     -10.557  44.884 -33.981  1.00  0.00     0.046 C 
HETATM   11  C19 UNL     1     -11.697  45.849 -34.362  1.00  0.00     0.029 C 
HETATM   12  C20 UNL     1      -9.722  44.636 -35.268  1.00  0.00     0.140 C 
HETATM   13  O7  UNL     1      -9.025  45.513 -35.786  1.00  0.00    -0.297 OA
HETATM   14  C21 UNL     1      -9.782  43.261 -35.907  1.00  0.00     0.080 C 
HETATM   15  C22 UNL     1     -11.231  42.814 -35.999  1.00  0.00     0.012 C 
HETATM   16  C23 UNL     1     -11.900  42.741 -34.627  1.00  0.00     0.035 C 
HETATM   17  C24 UNL     1     -11.148  43.521 -33.569  1.00  0.00    -0.067 C 
HETATM   18  C25 UNL     1     -10.958  42.974 -32.355  1.00  0.00    -0.020 C 
HETATM   19  C26 UNL     1     -10.208  43.636 -31.238  1.00  0.00     0.069 C 
HETATM   20  C27 UNL     1     -10.084  45.170 -31.419  1.00  0.00     0.098 C 
ENDROOT
BRANCH   1  21
HETATM   21  C7  UNL     1      -6.337  47.765 -29.416  1.00  0.00     0.113 C 
HETATM   22  C8  UNL     1      -5.818  46.618 -30.329  1.00  0.00     0.052 C 
BRANCH  21  23
HETATM   23  C6  UNL     1      -5.514  47.752 -28.079  1.00  0.00     0.173 C 
HETATM   24  O3  UNL     1      -6.465  48.004 -27.005  1.00  0.00    -0.309 OA
HETATM   25  C5  UNL     1      -6.041  48.161 -25.726  1.00  0.00     0.292 C 
HETATM   26  C3  UNL     1      -4.582  48.377 -25.519  1.00  0.00     0.042 C 
HETATM   27  O2  UNL     1      -6.843  48.172 -24.802  1.00  0.00    -0.260 OA
HETATM   28  C2  UNL     1      -3.799  48.721 -26.566  1.00  0.00    -0.067 C 
HETATM   29  C1  UNL     1      -2.345  49.098 -26.470  1.00  0.00     0.044 C 
HETATM   30  C28 UNL     1      -4.362  48.743 -27.967  1.00  0.00     0.070 C 
BRANCH  26  31
HETATM   31  C4  UNL     1      -4.131  48.305 -24.087  1.00  0.00     0.209 C 
BRANCH  31  32
HETATM   32  O1  UNL     1      -4.498  49.502 -23.406  1.00  0.00    -0.396 OA
HETATM   33  H6  UNL     1      -5.452  49.632 -23.524  1.00  0.00     0.209 HD
ENDBRANCH  31  32
ENDBRANCH  26  31
ENDBRANCH  21  23
BRANCH  21  34
HETATM   34  O4  UNL     1      -5.988  48.993 -30.091  1.00  0.00    -0.384 OA
HETATM   35  H11 UNL     1      -5.007  49.033 -30.096  1.00  0.00     0.210 HD
ENDBRANCH  21  34
ENDBRANCH   1  21
BRANCH   1  36
HETATM   36  O5  UNL     1      -8.335  48.925 -28.653  1.00  0.00    -0.386 OA
HETATM   37  H12 UNL     1      -8.614  49.572 -29.316  1.00  0.00     0.210 HD
ENDBRANCH   1  36
BRANCH   4  38
HETATM   38  O6  UNL     1      -7.851  45.030 -30.607  1.00  0.00    -0.386 OA
HETATM   39  H17 UNL     1      -7.067  45.519 -30.281  1.00  0.00     0.210 HD
ENDBRANCH   4  38
BRANCH  20  40
HETATM   40  O8  UNL     1     -11.390  45.735 -31.229  1.00  0.00    -0.386 OA
HETATM   41  H38 UNL     1     -11.827  45.263 -30.502  1.00  0.00     0.210 HD
ENDBRANCH  20  40
TORSDOF 8
ENDMDL
MODEL 3
REMARK minimizedAffinity -9.86021996
REMARK CNNscore 0.672993422
REMARK CNNaffinity 6.35304642
REMARK  8 active torsions:
REMARK  status: ('A' for Active; 'I' for Inactive)
REMARK    1  A    between atoms: C3_3  and  C4_4 
REMARK    2  A    between atoms: C4_4  and  O1_5 
REMARK    3  A    between atoms: C6_9  and  C7_10 
REMARK    4  A    between atoms: C7_10  and  O4_12 
REMARK    5  A    between atoms: C7_10  and  C9_13 
REMARK    6  A    between atoms: C9_13  and  O5_14 
REMARK    7  A    between atoms: C12_17  and  O6_18 
REMARK    8  A    between atoms: C27_34  and  O8_35 
ROOT
HETATM    1  C9  UNL     1      -5.593  48.705 -22.246  1.00  0.00     0.101 C 
HETATM    2  C10 UNL     1      -6.207  48.846 -20.795  1.00  0.00     0.045 C 
HETATM    3  C11 UNL     1      -5.093  49.272 -19.828  1.00  0.00     0.045 C 
HETATM    4  C12 UNL     1      -4.125  50.026 -20.727  1.00  0.00     0.100 C 
HETATM    5  C13 UNL     1      -4.051  49.082 -21.980  1.00  0.00     0.024 C 
HETATM    6  C14 UNL     1      -3.274  47.745 -21.719  1.00  0.00     0.022 C 
HETATM    7  C15 UNL     1      -3.263  49.854 -23.050  1.00  0.00     0.016 C 
HETATM    8  C16 UNL     1      -1.860  50.275 -22.555  1.00  0.00     0.010 C 
HETATM    9  C17 UNL     1      -1.872  51.100 -21.234  1.00  0.00     0.043 C 
HETATM   10  C18 UNL     1      -0.439  51.526 -20.716  1.00  0.00     0.046 C 
HETATM   11  C19 UNL     1       0.613  50.406 -20.841  1.00  0.00     0.029 C 
HETATM   12  C20 UNL     1       0.053  52.712 -21.592  1.00  0.00     0.140 C 
HETATM   13  O7  UNL     1       0.086  52.658 -22.824  1.00  0.00    -0.297 OA
HETATM   14  C21 UNL     1       0.516  53.975 -20.890  1.00  0.00     0.080 C 
HETATM   15  C22 UNL     1       1.448  53.604 -19.750  1.00  0.00     0.012 C 
HETATM   16  C23 UNL     1       0.770  52.699 -18.722  1.00  0.00     0.035 C 
HETATM   17  C24 UNL     1      -0.481  52.037 -19.262  1.00  0.00    -0.067 C 
HETATM   18  C25 UNL     1      -1.587  51.991 -18.498  1.00  0.00    -0.020 C 
HETATM   19  C26 UNL     1      -2.889  51.388 -18.932  1.00  0.00     0.069 C 
HETATM   20  C27 UNL     1      -2.735  50.409 -20.123  1.00  0.00     0.098 C 
ENDROOT
BRANCH   1  21
HETATM   21  C7  UNL     1      -6.458  49.526 -23.307  1.00  0.00     0.113 C 
HETATM   22  C8  UNL     1      -7.974  49.400 -22.984  1.00  0.00     0.052 C 
BRANCH  21  23
HETATM   23  C6  UNL     1      -6.239  49.181 -24.823  1.00  0.00     0.173 C 
HETATM   24  O3  UNL     1      -7.211  48.150 -25.158  1.00  0.00    -0.309 OA
HETATM   25  C5  UNL     1      -7.203  47.560 -26.379  1.00  0.00     0.292 C 
HETATM   26  C3  UNL     1      -5.998  47.775 -27.227  1.00  0.00     0.042 C 
HETATM   27  O2  UNL     1      -8.133  46.845 -26.730  1.00  0.00    -0.260 OA
HETATM   28  C2  UNL     1      -4.862  48.251 -26.670  1.00  0.00    -0.067 C 
HETATM   29  C1  UNL     1      -3.542  48.386 -27.380  1.00  0.00     0.044 C 
HETATM   30  C28 UNL     1      -4.849  48.706 -25.230  1.00  0.00     0.070 C 
BRANCH  26  31
HETATM   31  C4  UNL     1      -6.136  47.308 -28.649  1.00  0.00     0.209 C 
BRANCH  31  32
HETATM   32  O1  UNL     1      -6.421  48.419 -29.495  1.00  0.00    -0.396 OA
HETATM   33  H6  UNL     1      -5.730  49.086 -29.353  1.00  0.00     0.209 HD
ENDBRANCH  31  32
ENDBRANCH  26  31
ENDBRANCH  21  23
BRANCH  21  34
HETATM   34  O4  UNL     1      -6.142  50.929 -23.164  1.00  0.00    -0.384 OA
HETATM   35  H11 UNL     1      -6.639  51.395 -23.870  1.00  0.00     0.210 HD
ENDBRANCH  21  34
ENDBRANCH   1  21
BRANCH   1  36
HETATM   36  O5  UNL     1      -5.775  47.311 -22.567  1.00  0.00    -0.386 OA
HETATM   37  H12 UNL     1      -5.044  46.992 -23.115  1.00  0.00     0.210 HD
ENDBRANCH   1  36
BRANCH   4  38
HETATM   38  O6  UNL     1      -4.748  51.290 -21.037  1.00  0.00    -0.386 OA
HETATM   39  H17 UNL     1      -5.457  51.186 -21.706  1.00  0.00     0.210 HD
ENDBRANCH   4  38
BRANCH  20  40
HETATM   40  O8  UNL     1      -2.055  49.242 -19.638  1.00  0.00    -0.386 OA
HETATM   41  H38 UNL     1      -2.389  49.038 -18.748  1.00  0.00     0.210 HD
ENDBRANCH  20  40
TORSDOF 8
ENDMDL
MODEL 4
REMARK minimizedAffinity -8.45440006
REMARK CNNscore 0.60951823
REMARK CNNaffinity 5.86098433
REMARK  8 active torsions:
REMARK  status: ('A' for Active; 'I' for Inactive)
REMARK    1  A    between atoms: C3_3  and  C4_4 
REMARK    2  A    between atoms: C4_4  and  O1_5 
REMARK    3  A    between atoms: C6_9  and  C7_10 
REMARK    4  A    between atoms: C7_10  and  O4_12 
REMARK    5  A    between atoms: C7_10  and  C9_13 
REMARK    6  A    between atoms: C9_13  and  O5_14 
REMARK    7  A    between atoms: C12_17  and  O6_18 
REMARK    8  A    between atoms: C27_34  and  O8_35 
ROOT
HETATM    1  C9  UNL     1     -12.662  46.830 -26.493  1.00  0.00     0.101 C 
HETATM    2  C10 UNL     1     -13.270  47.874 -27.515  1.00  0.00     0.045 C 
HETATM    3  C11 UNL     1     -12.147  48.369 -28.439  1.00  0.00     0.045 C 
HETATM    4  C12 UNL     1     -11.174  47.200 -28.457  1.00  0.00     0.100 C 
HETATM    5  C13 UNL     1     -11.115  46.810 -26.937  1.00  0.00     0.024 C 
HETATM    6  C14 UNL     1     -10.351  47.851 -26.047  1.00  0.00     0.022 C 
HETATM    7  C15 UNL     1     -10.321  45.495 -26.864  1.00  0.00     0.016 C 
HETATM    8  C16 UNL     1      -8.913  45.626 -27.488  1.00  0.00     0.010 C 
HETATM    9  C17 UNL     1      -8.911  46.144 -28.956  1.00  0.00     0.043 C 
HETATM   10  C18 UNL     1      -7.472  46.289 -29.597  1.00  0.00     0.046 C 
HETATM   11  C19 UNL     1      -6.433  46.894 -28.632  1.00  0.00     0.029 C 
HETATM   12  C20 UNL     1      -6.970  44.867 -29.973  1.00  0.00     0.140 C 
HETATM   13  O7  UNL     1      -6.941  43.937 -29.162  1.00  0.00    -0.297 OA
HETATM   14  C21 UNL     1      -6.491  44.629 -31.393  1.00  0.00     0.080 C 
HETATM   15  C22 UNL     1      -5.559  45.756 -31.803  1.00  0.00     0.012 C 
HETATM   16  C23 UNL     1      -6.244  47.121 -31.744  1.00  0.00     0.035 C 
HETATM   17  C24 UNL     1      -7.504  47.106 -30.904  1.00  0.00    -0.067 C 
HETATM   18  C25 UNL     1      -8.607  47.728 -31.356  1.00  0.00    -0.020 C 
HETATM   19  C26 UNL     1      -9.918  47.759 -30.628  1.00  0.00     0.069 C 
HETATM   20  C27 UNL     1      -9.778  47.439 -29.118  1.00  0.00     0.098 C 
ENDROOT
BRANCH   1  21
HETATM   21  C7  UNL     1     -13.522  45.486 -26.482  1.00  0.00     0.113 C 
HETATM   22  C8  UNL     1     -13.150  44.595 -27.702  1.00  0.00     0.052 C 
BRANCH  21  23
HETATM   23  C6  UNL     1     -15.084  45.641 -26.434  1.00  0.00     0.173 C 
HETATM   24  O3  UNL     1     -15.438  45.827 -25.033  1.00  0.00    -0.309 OA
HETATM   25  C5  UNL     1     -16.737  45.883 -24.648  1.00  0.00     0.292 C 
HETATM   26  C3  UNL     1     -17.757  45.442 -25.640  1.00  0.00     0.042 C 
HETATM   27  O2  UNL     1     -17.035  46.237 -23.515  1.00  0.00    -0.260 OA
HETATM   28  C2  UNL     1     -17.375  44.725 -26.722  1.00  0.00    -0.067 C 
HETATM   29  C1  UNL     1     -18.313  44.106 -27.722  1.00  0.00     0.044 C 
HETATM   30  C28 UNL     1     -15.910  44.497 -27.009  1.00  0.00     0.070 C 
BRANCH  26  31
HETATM   31  C4  UNL     1     -19.179  45.747 -25.261  1.00  0.00     0.209 C 
BRANCH  31  32
HETATM   32  O1  UNL     1     -19.322  47.143 -25.014  1.00  0.00    -0.396 OA
HETATM   33  H6  UNL     1     -19.001  47.618 -25.796  1.00  0.00     0.209 HD
ENDBRANCH  31  32
ENDBRANCH  26  31
ENDBRANCH  21  23
BRANCH  21  34
HETATM   34  O4  UNL     1     -13.157  44.721 -25.312  1.00  0.00    -0.384 OA
HETATM   35  H11 UNL     1     -13.747  43.937 -25.303  1.00  0.00     0.210 HD
ENDBRANCH  21  34
ENDBRANCH   1  21
BRANCH   1  36
HETATM   36  O5  UNL     1     -12.860  47.448 -25.205  1.00  0.00    -0.386 OA
HETATM   37  H12 UNL     1     -12.134  47.222 -24.606  1.00  0.00     0.210 HD
ENDBRANCH   1  36
BRANCH   4  38
HETATM   38  O6  UNL     1     -11.784  46.167 -29.259  1.00  0.00    -0.386 OA
HETATM   39  H17 UNL     1     -12.497  45.706 -28.768  1.00  0.00     0.210 HD
ENDBRANCH   4  38
BRANCH  20  40
HETATM   40  O8  UNL     1      -9.109  48.549 -28.501  1.00  0.00    -0.386 OA
HETATM   41  H38 UNL     1      -9.443  49.370 -28.900  1.00  0.00     0.210 HD
ENDBRANCH  20  40
TORSDOF 8
ENDMDL
MODEL 5
REMARK minimizedAffinity -8.23970985
REMARK CNNscore 0.58794117
REMARK CNNaffinity 6.05723381
REMARK  8 active torsions:
REMARK  status: ('A' for Active; 'I' for Inactive)
REMARK    1  A    between atoms: C3_3  and  C4_4 
REMARK    2  A    between atoms: C4_4  and  O1_5 
REMARK    3  A    between atoms: C6_9  and  C7_10 
REMARK    4  A    between atoms: C7_10  and  O4_12 
REMARK    5  A    between atoms: C7_10  and  C9_13 
REMARK    6  A    between atoms: C9_13  and  O5_14 
REMARK    7  A    between atoms: C12_17  and  O6_18 
REMARK    8  A    between atoms: C27_34  and  O8_35 
ROOT
HETATM    1  C9  UNL     1      -9.219  47.972 -28.405  1.00  0.00     0.101 C 
HETATM    2  C10 UNL     1      -8.141  46.841 -28.157  1.00  0.00     0.045 C 
HETATM    3  C11 UNL     1      -8.812  45.674 -27.418  1.00  0.00     0.045 C 
HETATM    4  C12 UNL     1     -10.265  45.778 -27.854  1.00  0.00     0.100 C 
HETATM    5  C13 UNL     1     -10.527  47.322 -27.728  1.00  0.00     0.024 C 
HETATM    6  C14 UNL     1     -10.598  47.831 -26.246  1.00  0.00     0.022 C 
HETATM    7  C15 UNL     1     -11.909  47.573 -28.352  1.00  0.00     0.016 C 
HETATM    8  C16 UNL     1     -13.019  46.737 -27.675  1.00  0.00     0.010 C 
HETATM    9  C17 UNL     1     -12.739  45.205 -27.652  1.00  0.00     0.043 C 
HETATM   10  C18 UNL     1     -13.866  44.344 -26.952  1.00  0.00     0.046 C 
HETATM   11  C19 UNL     1     -14.406  44.984 -25.657  1.00  0.00     0.029 C 
HETATM   12  C20 UNL     1     -15.062  44.231 -27.937  1.00  0.00     0.140 C 
HETATM   13  O7  UNL     1     -15.593  45.218 -28.453  1.00  0.00    -0.297 OA
HETATM   14  C21 UNL     1     -15.595  42.847 -28.260  1.00  0.00     0.080 C 
HETATM   15  C22 UNL     1     -15.762  42.060 -26.972  1.00  0.00     0.012 C 
HETATM   16  C23 UNL     1     -14.443  41.908 -26.214  1.00  0.00     0.035 C 
HETATM   17  C24 UNL     1     -13.394  42.906 -26.662  1.00  0.00    -0.067 C 
HETATM   18  C25 UNL     1     -12.130  42.491 -26.862  1.00  0.00    -0.020 C 
HETATM   19  C26 UNL     1     -11.015  43.377 -27.329  1.00  0.00     0.069 C 
HETATM   20  C27 UNL     1     -11.305  44.883 -27.106  1.00  0.00     0.098 C 
ENDROOT
BRANCH   1  21
HETATM   21  C7  UNL     1      -9.232  48.412 -29.939  1.00  0.00     0.113 C 
HETATM   22  C8  UNL     1     -10.582  48.022 -30.603  1.00  0.00     0.052 C 
BRANCH  21  23
HETATM   23  C6  UNL     1      -8.059  47.884 -30.840  1.00  0.00     0.173 C 
HETATM   24  O3  UNL     1      -6.846  48.536 -30.366  1.00  0.00    -0.309 OA
HETATM   25  C5  UNL     1      -5.669  48.367 -31.017  1.00  0.00     0.292 C 
HETATM   26  C3  UNL     1      -5.728  47.763 -32.378  1.00  0.00     0.042 C 
HETATM   27  O2  UNL     1      -4.620  48.746 -30.513  1.00  0.00    -0.260 OA
HETATM   28  C2  UNL     1      -6.908  47.702 -33.034  1.00  0.00    -0.067 C 
HETATM   29  C1  UNL     1      -7.083  47.244 -34.457  1.00  0.00     0.044 C 
HETATM   30  C28 UNL     1      -8.189  48.104 -32.343  1.00  0.00     0.070 C 
BRANCH  26  31
HETATM   31  C4  UNL     1      -4.395  47.377 -32.954  1.00  0.00     0.209 C 
BRANCH  31  32
HETATM   32  O1  UNL     1      -3.663  48.549 -33.301  1.00  0.00    -0.396 OA
HETATM   33  H6  UNL     1      -3.615  49.115 -32.515  1.00  0.00     0.209 HD
ENDBRANCH  31  32
ENDBRANCH  26  31
ENDBRANCH  21  23
BRANCH  21  34
HETATM   34  O4  UNL     1      -9.166  49.855 -29.999  1.00  0.00    -0.384 OA
HETATM   35  H11 UNL     1      -9.111  50.087 -30.951  1.00  0.00     0.210 HD
ENDBRANCH  21  34
ENDBRANCH   1  21
BRANCH   1  36
HETATM   36  O5  UNL     1      -8.715  49.101 -27.663  1.00  0.00    -0.386 OA
HETATM   37  H12 UNL     1      -9.446  49.622 -27.303  1.00  0.00     0.210 HD
ENDBRANCH   1  36
BRANCH   4  38
HETATM   38  O6  UNL     1     -10.318  45.330 -29.225  1.00  0.00    -0.386 OA
HETATM   39  H17 UNL     1      -9.972  46.012 -29.839  1.00  0.00     0.210 HD
ENDBRANCH   4  38
BRANCH  20  40
HETATM   40  O8  UNL     1     -11.260  45.127 -25.693  1.00  0.00    -0.386 OA
HETATM   41  H38 UNL     1     -10.532  44.606 -25.313  1.00  0.00     0.210 HD
ENDBRANCH  20  40
TORSDOF 8
ENDMDL
MODEL 6
REMARK minimizedAffinity -8.82117271
REMARK CNNscore 0.585450768
REMARK CNNaffinity 5.39692545
REMARK  8 active torsions:
REMARK  status: ('A' for Active; 'I' for Inactive)
REMARK    1  A    between atoms: C3_3  and  C4_4 
REMARK    2  A    between atoms: C4_4  and  O1_5 
REMARK    3  A    between atoms: C6_9  and  C7_10 
REMARK    4  A    between atoms: C7_10  and  O4_12 
REMARK    5  A    between atoms: C7_10  and  C9_13 
REMARK    6  A    between atoms: C9_13  and  O5_14 
REMARK    7  A    between atoms: C12_17  and  O6_18 
REMARK    8  A    between atoms: C27_34  and  O8_35 
ROOT
HETATM    1  C9  UNL     1      -9.804  46.185 -29.178  1.00  0.00     0.101 C 
HETATM    2  C10 UNL     1     -10.608  45.699 -30.451  1.00  0.00     0.045 C 
HETATM    3  C11 UNL     1     -11.937  45.084 -29.988  1.00  0.00     0.045 C 
HETATM    4  C12 UNL     1     -12.217  45.808 -28.680  1.00  0.00     0.100 C 
HETATM    5  C13 UNL     1     -10.807  45.773 -27.988  1.00  0.00     0.024 C 
HETATM    6  C14 UNL     1     -10.386  44.348 -27.485  1.00  0.00     0.022 C 
HETATM    7  C15 UNL     1     -10.920  46.670 -26.745  1.00  0.00     0.016 C 
HETATM    8  C16 UNL     1     -12.048  46.212 -25.792  1.00  0.00     0.010 C 
HETATM    9  C17 UNL     1     -13.446  46.098 -26.468  1.00  0.00     0.043 C 
HETATM   10  C18 UNL     1     -14.603  45.620 -25.502  1.00  0.00     0.046 C 
HETATM   11  C19 UNL     1     -14.179  44.477 -24.559  1.00  0.00     0.029 C 
HETATM   12  C20 UNL     1     -15.004  46.825 -24.604  1.00  0.00     0.140 C 
HETATM   13  O7  UNL     1     -14.181  47.460 -23.940  1.00  0.00    -0.297 OA
HETATM   14  C21 UNL     1     -16.469  47.217 -24.545  1.00  0.00     0.080 C 
HETATM   15  C22 UNL     1     -17.314  45.971 -24.344  1.00  0.00     0.012 C 
HETATM   16  C23 UNL     1     -17.128  44.959 -25.474  1.00  0.00     0.035 C 
HETATM   17  C24 UNL     1     -15.869  45.208 -26.279  1.00  0.00    -0.067 C 
HETATM   18  C25 UNL     1     -15.918  45.139 -27.621  1.00  0.00    -0.020 C 
HETATM   19  C26 UNL     1     -14.748  45.390 -28.523  1.00  0.00     0.069 C 
HETATM   20  C27 UNL     1     -13.386  45.265 -27.795  1.00  0.00     0.098 C 
ENDROOT
BRANCH   1  21
HETATM   21  C7  UNL     1      -9.333  47.700 -29.354  1.00  0.00     0.113 C 
HETATM   22  C8  UNL     1      -9.298  48.086 -30.859  1.00  0.00     0.052 C 
BRANCH  21  23
HETATM   23  C6  UNL     1      -7.959  48.097 -28.703  1.00  0.00     0.173 C 
HETATM   24  O3  UNL     1      -6.922  47.670 -29.632  1.00  0.00    -0.309 OA
HETATM   25  C5  UNL     1      -5.611  47.777 -29.304  1.00  0.00     0.292 C 
HETATM   26  C3  UNL     1      -5.290  48.044 -27.874  1.00  0.00     0.042 C 
HETATM   27  O2  UNL     1      -4.743  47.610 -30.151  1.00  0.00    -0.260 OA
HETATM   28  C2  UNL     1      -6.238  47.858 -26.928  1.00  0.00    -0.067 C 
HETATM   29  C1  UNL     1      -6.009  47.959 -25.444  1.00  0.00     0.044 C 
HETATM   30  C28 UNL     1      -7.658  47.526 -27.323  1.00  0.00     0.070 C 
BRANCH  26  31
HETATM   31  C4  UNL     1      -3.853  48.391 -27.605  1.00  0.00     0.209 C 
BRANCH  31  32
HETATM   32  O1  UNL     1      -3.510  49.589 -28.296  1.00  0.00    -0.396 OA
HETATM   33  H6  UNL     1      -4.147  50.274 -28.040  1.00  0.00     0.209 HD
ENDBRANCH  31  32
ENDBRANCH  26  31
ENDBRANCH  21  23
BRANCH  21  34
HETATM   34  O4  UNL     1     -10.326  48.559 -28.751  1.00  0.00    -0.384 OA
HETATM   35  H11 UNL     1      -9.975  49.473 -28.819  1.00  0.00     0.210 HD
ENDBRANCH  21  34
ENDBRANCH   1  21
BRANCH   1  36
HETATM   36  O5  UNL     1      -8.607  45.383 -29.195  1.00  0.00    -0.386 OA
HETATM   37  H12 UNL     1      -8.316  45.191 -28.293  1.00  0.00     0.210 HD
ENDBRANCH   1  36
BRANCH   4  38
HETATM   38  O6  UNL     1     -12.616  47.150 -29.028  1.00  0.00    -0.386 OA
HETATM   39  H17 UNL     1     -11.846  47.697 -29.291  1.00  0.00     0.210 HD
ENDBRANCH   4  38
BRANCH  20  40
HETATM   40  O8  UNL     1     -13.185  43.878 -27.488  1.00  0.00    -0.386 OA
HETATM   41  H38 UNL     1     -13.502  43.347 -28.237  1.00  0.00     0.210 HD
ENDBRANCH  20  40
TORSDOF 8
ENDMDL
MODEL 7
REMARK minimizedAffinity -8.39976501
REMARK CNNscore 0.527391315
REMARK CNNaffinity 5.93162155
REMARK  8 active torsions:
REMARK  status: ('A' for Active; 'I' for Inactive)
REMARK    1  A    between atoms: C3_3  and  C4_4 
REMARK    2  A    between atoms: C4_4  and  O1_5 
REMARK    3  A    between atoms: C6_9  and  C7_10 
REMARK    4  A    between atoms: C7_10  and  O4_12 
REMARK    5  A    between atoms: C7_10  and  C9_13 
REMARK    6  A    between atoms: C9_13  and  O5_14 
REMARK    7  A    between atoms: C12_17  and  O6_18 
REMARK    8  A    between atoms: C27_34  and  O8_35 
ROOT
HETATM    1  C9  UNL     1      -2.816  49.693 -22.294  1.00  0.00     0.101 C 
HETATM    2  C10 UNL     1      -3.871  49.178 -23.354  1.00  0.00     0.045 C 
HETATM    3  C11 UNL     1      -4.458  47.848 -22.859  1.00  0.00     0.045 C 
HETATM    4  C12 UNL     1      -4.332  47.955 -21.348  1.00  0.00     0.100 C 
HETATM    5  C13 UNL     1      -2.876  48.524 -21.188  1.00  0.00     0.024 C 
HETATM    6  C14 UNL     1      -1.751  47.486 -21.533  1.00  0.00     0.022 C 
HETATM    7  C15 UNL     1      -2.716  48.877 -19.701  1.00  0.00     0.016 C 
HETATM    8  C16 UNL     1      -2.971  47.661 -18.780  1.00  0.00     0.010 C 
HETATM    9  C17 UNL     1      -4.352  46.975 -18.997  1.00  0.00     0.043 C 
HETATM   10  C18 UNL     1      -4.615  45.725 -18.064  1.00  0.00     0.046 C 
HETATM   11  C19 UNL     1      -3.386  44.807 -17.912  1.00  0.00     0.029 C 
HETATM   12  C20 UNL     1      -4.967  46.253 -16.645  1.00  0.00     0.140 C 
HETATM   13  O7  UNL     1      -4.247  47.047 -16.035  1.00  0.00    -0.297 OA
HETATM   14  C21 UNL     1      -6.244  45.756 -15.994  1.00  0.00     0.080 C 
HETATM   15  C22 UNL     1      -6.331  44.247 -16.145  1.00  0.00     0.012 C 
HETATM   16  C23 UNL     1      -6.335  43.815 -17.611  1.00  0.00     0.035 C 
HETATM   17  C24 UNL     1      -5.825  44.897 -18.540  1.00  0.00    -0.067 C 
HETATM   18  C25 UNL     1      -6.480  45.144 -19.689  1.00  0.00    -0.020 C 
HETATM   19  C26 UNL     1      -6.088  46.205 -20.673  1.00  0.00     0.069 C 
HETATM   20  C27 UNL     1      -4.618  46.667 -20.510  1.00  0.00     0.098 C 
ENDROOT
BRANCH   1  21
HETATM   21  C7  UNL     1      -3.116  51.208 -21.890  1.00  0.00     0.113 C 
HETATM   22  C8  UNL     1      -3.914  51.921 -23.017  1.00  0.00     0.052 C 
BRANCH  21  23
HETATM   23  C6  UNL     1      -1.880  52.100 -21.510  1.00  0.00     0.173 C 
HETATM   24  O3  UNL     1      -1.025  52.147 -22.687  1.00  0.00    -0.309 OA
HETATM   25  C5  UNL     1       0.185  52.758 -22.641  1.00  0.00     0.292 C 
HETATM   26  C3  UNL     1       0.726  53.089 -21.293  1.00  0.00     0.042 C 
HETATM   27  O2  UNL     1       0.811  52.974 -23.671  1.00  0.00    -0.260 OA
HETATM   28  C2  UNL     1       0.186  52.514 -20.195  1.00  0.00    -0.067 C 
HETATM   29  C1  UNL     1       0.722  52.656 -18.795  1.00  0.00     0.044 C 
HETATM   30  C28 UNL     1      -1.051  51.657 -20.309  1.00  0.00     0.070 C 
BRANCH  26  31
HETATM   31  C4  UNL     1       1.942  53.972 -21.302  1.00  0.00     0.209 C 
BRANCH  31  32
HETATM   32  O1  UNL     1       1.736  55.066 -22.191  1.00  0.00    -0.396 OA
HETATM   33  H6  UNL     1       0.915  55.512 -21.929  1.00  0.00     0.209 HD
ENDBRANCH  31  32
ENDBRANCH  26  31
ENDBRANCH  21  23
BRANCH  21  34
HETATM   34  O4  UNL     1      -3.982  51.208 -20.734  1.00  0.00    -0.384 OA
HETATM   35  H11 UNL     1      -4.093  52.148 -20.475  1.00  0.00     0.210 HD
ENDBRANCH  21  34
ENDBRANCH   1  21
BRANCH   1  36
HETATM   36  O5  UNL     1      -1.570  49.705 -23.019  1.00  0.00    -0.386 OA
HETATM   37  H12 UNL     1      -0.834  49.487 -22.431  1.00  0.00     0.210 HD
ENDBRANCH   1  36
BRANCH   4  38
HETATM   38  O6  UNL     1      -5.333  48.900 -20.916  1.00  0.00    -0.386 OA
HETATM   39  H17 UNL     1      -5.064  49.822 -21.112  1.00  0.00     0.210 HD
ENDBRANCH   4  38
BRANCH  20  40
HETATM   40  O8  UNL     1      -3.775  45.587 -20.939  1.00  0.00    -0.386 OA
HETATM   41  H38 UNL     1      -4.178  45.173 -21.721  1.00  0.00     0.210 HD
ENDBRANCH  20  40
TORSDOF 8
ENDMDL
MODEL 8
REMARK minimizedAffinity -8.15504646
REMARK CNNscore 0.519939721
REMARK CNNaffinity 5.66672564
REMARK  8 active torsions:
REMARK  status: ('A' for Active; 'I' for Inactive)
REMARK    1  A    between atoms: C3_3  and  C4_4 
REMARK    2  A    between atoms: C4_4  and  O1_5 
REMARK    3  A    between atoms: C6_9  and  C7_10 
REMARK    4  A    between atoms: C7_10  and  O4_12 
REMARK    5  A    between atoms: C7_10  and  C9_13 
REMARK    6  A    between atoms: C9_13  and  O5_14 
REMARK    7  A    between atoms: C12_17  and  O6_18 
REMARK    8  A    between atoms: C27_34  and  O8_35 
ROOT
HETATM    1  C9  UNL     1      -7.263  48.657 -23.998  1.00  0.00     0.101 C 
HETATM    2  C10 UNL     1      -6.217  48.088 -25.040  1.00  0.00     0.045 C 
HETATM    3  C11 UNL     1      -4.801  48.436 -24.555  1.00  0.00     0.045 C 
HETATM    4  C12 UNL     1      -4.964  48.522 -23.045  1.00  0.00     0.100 C 
HETATM    5  C13 UNL     1      -6.294  49.348 -22.914  1.00  0.00     0.024 C 
HETATM    6  C14 UNL     1      -6.141  50.858 -23.309  1.00  0.00     0.022 C 
HETATM    7  C15 UNL     1      -6.673  49.313 -21.425  1.00  0.00     0.016 C 
HETATM    8  C16 UNL     1      -5.550  49.871 -20.521  1.00  0.00     0.010 C 
HETATM    9  C17 UNL     1      -4.171  49.173 -20.714  1.00  0.00     0.043 C 
HETATM   10  C18 UNL     1      -3.015  49.745 -19.799  1.00  0.00     0.046 C 
HETATM   11  C19 UNL     1      -3.021  51.284 -19.698  1.00  0.00     0.029 C 
HETATM   12  C20 UNL     1      -3.226  49.194 -18.361  1.00  0.00     0.140 C 
HETATM   13  O7  UNL     1      -4.294  49.313 -17.755  1.00  0.00    -0.297 OA
HETATM   14  C21 UNL     1      -2.061  48.494 -17.685  1.00  0.00     0.080 C 
HETATM   15  C22 UNL     1      -0.804  49.327 -17.863  1.00  0.00     0.012 C 
HETATM   16  C23 UNL     1      -0.455  49.536 -19.336  1.00  0.00     0.035 C 
HETATM   17  C24 UNL     1      -1.625  49.261 -20.258  1.00  0.00    -0.067 C 
HETATM   18  C25 UNL     1      -1.428  48.551 -21.383  1.00  0.00    -0.020 C 
HETATM   19  C26 UNL     1      -2.510  48.194 -22.358  1.00  0.00     0.069 C 
HETATM   20  C27 UNL     1      -3.763  49.096 -22.225  1.00  0.00     0.098 C 
ENDROOT
BRANCH   1  21
HETATM   21  C7  UNL     1      -8.294  47.521 -23.558  1.00  0.00     0.113 C 
HETATM   22  C8  UNL     1      -7.591  46.134 -23.524  1.00  0.00     0.052 C 
BRANCH  21  23
HETATM   23  C6  UNL     1      -9.614  47.393 -24.399  1.00  0.00     0.173 C 
HETATM   24  O3  UNL     1     -10.656  46.972 -23.474  1.00  0.00    -0.309 OA
HETATM   25  C5  UNL     1     -11.899  46.669 -23.921  1.00  0.00     0.292 C 
HETATM   26  C3  UNL     1     -12.063  46.480 -25.390  1.00  0.00     0.042 C 
HETATM   27  O2  UNL     1     -12.823  46.512 -23.133  1.00  0.00    -0.260 OA
HETATM   28  C2  UNL     1     -10.973  46.300 -26.169  1.00  0.00    -0.067 C 
HETATM   29  C1  UNL     1     -11.005  45.966 -27.636  1.00  0.00     0.044 C 
HETATM   30  C28 UNL     1      -9.586  46.437 -25.586  1.00  0.00     0.070 C 
BRANCH  26  31
HETATM   31  C4  UNL     1     -13.488  46.385 -25.858  1.00  0.00     0.209 C 
BRANCH  31  32
HETATM   32  O1  UNL     1     -14.241  47.474 -25.331  1.00  0.00    -0.396 OA
HETATM   33  H6  UNL     1     -13.788  48.296 -25.576  1.00  0.00     0.209 HD
ENDBRANCH  31  32
ENDBRANCH  26  31
ENDBRANCH  21  23
BRANCH  21  34
HETATM   34  O4  UNL     1      -8.708  47.784 -22.198  1.00  0.00    -0.384 OA
HETATM   35  H11 UNL     1      -9.386  47.108 -21.983  1.00  0.00     0.210 HD
ENDBRANCH  21  34
ENDBRANCH   1  21
BRANCH   1  36
HETATM   36  O5  UNL     1      -8.021  49.620 -24.757  1.00  0.00    -0.386 OA
HETATM   37  H12 UNL     1      -8.291  50.359 -24.192  1.00  0.00     0.210 HD
ENDBRANCH   1  36
BRANCH   4  38
HETATM   38  O6  UNL     1      -5.118  47.169 -22.568  1.00  0.00    -0.386 OA
HETATM   39  H17 UNL     1      -6.016  46.823 -22.754  1.00  0.00     0.210 HD
ENDBRANCH   4  38
BRANCH  20  40
HETATM   40  O8  UNL     1      -3.407  50.403 -22.698  1.00  0.00    -0.386 OA
HETATM   41  H38 UNL     1      -2.833  50.304 -23.476  1.00  0.00     0.210 HD
ENDBRANCH  20  40
TORSDOF 8
ENDMDL
MODEL 9
REMARK minimizedAffinity -9.59492683
REMARK CNNscore 0.510950327
REMARK CNNaffinity 6.23241425
REMARK  8 active torsions:
REMARK  status: ('A' for Active; 'I' for Inactive)
REMARK    1  A    between atoms: C3_3  and  C4_4 
REMARK    2  A    between atoms: C4_4  and  O1_5 
REMARK    3  A    between atoms: C6_9  and  C7_10 
REMARK    4  A    between atoms: C7_10  and  O4_12 
REMARK    5  A    between atoms: C7_10  and  C9_13 
REMARK    6  A    between atoms: C9_13  and  O5_14 
REMARK    7  A    between atoms: C12_17  and  O6_18 
REMARK    8  A    between atoms: C27_34  and  O8_35 
ROOT
HETATM    1  C9  UNL     1      -4.540  50.082 -21.413  1.00  0.00     0.101 C 
HETATM    2  C10 UNL     1      -5.300  49.137 -22.429  1.00  0.00     0.045 C 
HETATM    3  C11 UNL     1      -4.852  49.487 -23.856  1.00  0.00     0.045 C 
HETATM    4  C12 UNL     1      -3.449  50.035 -23.653  1.00  0.00     0.100 C 
HETATM    5  C13 UNL     1      -3.650  50.977 -22.412  1.00  0.00     0.024 C 
HETATM    6  C14 UNL     1      -4.462  52.280 -22.733  1.00  0.00     0.022 C 
HETATM    7  C15 UNL     1      -2.243  51.424 -21.983  1.00  0.00     0.016 C 
HETATM    8  C16 UNL     1      -1.476  52.125 -23.127  1.00  0.00     0.010 C 
HETATM    9  C17 UNL     1      -1.369  51.282 -24.432  1.00  0.00     0.043 C 
HETATM   10  C18 UNL     1      -0.593  51.997 -25.611  1.00  0.00     0.046 C 
HETATM   11  C19 UNL     1      -0.950  53.489 -25.760  1.00  0.00     0.029 C 
HETATM   12  C20 UNL     1       0.928  51.922 -25.297  1.00  0.00     0.140 C 
HETATM   13  O7  UNL     1       1.404  52.311 -24.227  1.00  0.00    -0.297 OA
HETATM   14  C21 UNL     1       1.851  51.357 -26.360  1.00  0.00     0.080 C 
HETATM   15  C22 UNL     1       1.514  51.983 -27.702  1.00  0.00     0.012 C 
HETATM   16  C23 UNL     1       0.069  51.709 -28.119  1.00  0.00     0.035 C 
HETATM   17  C24 UNL     1      -0.801  51.276 -26.957  1.00  0.00    -0.067 C 
HETATM   18  C25 UNL     1      -1.653  50.247 -27.117  1.00  0.00    -0.020 C 
HETATM   19  C26 UNL     1      -2.544  49.712 -26.036  1.00  0.00     0.069 C 
HETATM   20  C27 UNL     1      -2.762  50.720 -24.879  1.00  0.00     0.098 C 
ENDROOT
BRANCH   1  21
HETATM   21  C7  UNL     1      -3.848  49.226 -20.257  1.00  0.00     0.113 C 
HETATM   22  C8  UNL     1      -2.319  49.108 -20.510  1.00  0.00     0.052 C 
BRANCH  21  23
HETATM   23  C6  UNL     1      -4.425  47.789 -19.994  1.00  0.00     0.173 C 
HETATM   24  O3  UNL     1      -3.507  47.136 -19.072  1.00  0.00    -0.309 OA
HETATM   25  C5  UNL     1      -3.674  45.833 -18.734  1.00  0.00     0.292 C 
HETATM   26  C3  UNL     1      -4.617  45.033 -19.563  1.00  0.00     0.042 C 
HETATM   27  O2  UNL     1      -3.031  45.343 -17.814  1.00  0.00    -0.260 OA
HETATM   28  C2  UNL     1      -5.015  45.503 -20.767  1.00  0.00    -0.067 C 
HETATM   29  C1  UNL     1      -5.853  44.739 -21.758  1.00  0.00     0.044 C 
HETATM   30  C28 UNL     1      -4.630  46.894 -21.211  1.00  0.00     0.070 C 
BRANCH  26  31
HETATM   31  C4  UNL     1      -4.950  43.677 -19.009  1.00  0.00     0.209 C 
BRANCH  31  32
HETATM   32  O1  UNL     1      -3.840  42.800 -19.183  1.00  0.00    -0.396 OA
HETATM   33  H6  UNL     1      -3.063  43.221 -18.784  1.00  0.00     0.209 HD
ENDBRANCH  31  32
ENDBRANCH  26  31
ENDBRANCH  21  23
BRANCH  21  34
HETATM   34  O4  UNL     1      -3.986  49.947 -19.012  1.00  0.00    -0.384 OA
HETATM   35  H11 UNL     1      -3.610  49.366 -18.316  1.00  0.00     0.210 HD
ENDBRANCH  21  34
ENDBRANCH   1  21
BRANCH   1  36
HETATM   36  O5  UNL     1      -5.594  50.837 -20.783  1.00  0.00    -0.386 OA
HETATM   37  H12 UNL     1      -5.291  51.731 -20.574  1.00  0.00     0.210 HD
ENDBRANCH   1  36
BRANCH   4  38
HETATM   38  O6  UNL     1      -2.604  48.907 -23.345  1.00  0.00    -0.386 OA
HETATM   39  H17 UNL     1      -2.735  48.602 -22.423  1.00  0.00     0.210 HD
ENDBRANCH   4  38
BRANCH  20  40
HETATM   40  O8  UNL     1      -3.575  51.788 -25.384  1.00  0.00    -0.386 OA
HETATM   41  H38 UNL     1      -4.252  51.410 -25.970  1.00  0.00     0.210 HD
ENDBRANCH  20  40
TORSDOF 8
ENDMDL
