MODEL 1
REMARK minimizedAffinity -9.04085064
REMARK  4 active torsions:
REMARK  status: ('A' for Active; 'I' for Inactive)
REMARK    1  A    between atoms: C4_4  and  C5_5 
REMARK    2  A    between atoms: C5_5  and  C6_6 
REMARK    3  A    between atoms: C6_6  and  C7_7 
REMARK    4  A    between atoms: C7_7  and  C9_9 
ROOT
HETATM    1  C9  UNL     1      -0.252  51.319 -21.168  1.00  0.00    -0.002 C 
HETATM    2  C10 UNL     1      -0.658  52.107 -19.888  1.00  0.00     0.007 C 
HETATM    3  C11 UNL     1      -2.053  51.608 -19.464  1.00  0.00     0.015 C 
HETATM    4  C12 UNL     1      -2.293  50.338 -20.306  1.00  0.00    -0.013 C 
HETATM    5  C13 UNL     1      -1.590  49.175 -19.540  1.00  0.00     0.021 C 
HETATM    6  C14 UNL     1      -3.727  49.886 -20.536  1.00  0.00    -0.070 C 
HETATM    7  C15 UNL     1      -4.755  50.226 -19.739  1.00  0.00    -0.022 C 
HETATM    8  C16 UNL     1      -6.131  49.673 -19.954  1.00  0.00     0.034 C 
HETATM    9  C17 UNL     1      -6.004  48.197 -20.361  1.00  0.00     0.013 C 
HETATM   10  C18 UNL     1      -7.328  47.376 -20.279  1.00  0.00     0.018 C 
HETATM   11  C19 UNL     1      -7.604  46.967 -18.816  1.00  0.00     0.023 C 
HETATM   12  C20 UNL     1      -8.563  48.142 -20.787  1.00  0.00     0.023 C 
HETATM   13  C21 UNL     1      -7.169  46.069 -21.068  1.00  0.00     0.135 C 
HETATM   14  O1  UNL     1      -8.141  45.429 -21.475  1.00  0.00    -0.297 OA
HETATM   15  C22 UNL     1      -5.769  45.515 -21.244  1.00  0.00     0.080 C 
HETATM   16  C23 UNL     1      -4.723  46.540 -21.697  1.00  0.00     0.017 C 
HETATM   17  C24 UNL     1      -5.197  48.018 -21.699  1.00  0.00    -0.031 C 
HETATM   18  C25 UNL     1      -6.057  48.245 -22.972  1.00  0.00     0.016 C 
HETATM   19  C26 UNL     1      -3.998  49.069 -21.804  1.00  0.00     0.024 C 
HETATM   20  C27 UNL     1      -2.718  48.531 -22.490  1.00  0.00     0.010 C 
HETATM   21  C28 UNL     1      -1.534  49.520 -22.595  1.00  0.00     0.011 C 
HETATM   22  C29 UNL     1      -1.622  50.749 -21.667  1.00  0.00    -0.029 C 
HETATM   23  C30 UNL     1      -2.392  51.883 -22.416  1.00  0.00     0.016 C 
ENDROOT
BRANCH   1  24
HETATM   24  C7  UNL     1       0.624  52.167 -22.131  1.00  0.00    -0.014 C 
HETATM   25  C8  UNL     1       1.056  53.506 -21.525  1.00  0.00     0.010 C 
BRANCH  24  26
HETATM   26  C6  UNL     1      -0.026  52.373 -23.528  1.00  0.00     0.008 C 
BRANCH  26  27
HETATM   27  C5  UNL     1       0.756  53.162 -24.590  1.00  0.00     0.028 C 
BRANCH  27  28
HETATM   28  C4  UNL     1       0.446  52.795 -26.012  1.00  0.00    -0.025 C 
HETATM   29  C2  UNL     1       1.181  52.021 -26.833  1.00  0.00    -0.091 C 
HETATM   30  C1  UNL     1       0.717  51.732 -28.237  1.00  0.00     0.042 C 
HETATM   31  C3  UNL     1       2.498  51.394 -26.473  1.00  0.00     0.042 C 
ENDBRANCH  27  28
ENDBRANCH  26  27
ENDBRANCH  24  26
ENDBRANCH   1  24
TORSDOF 4
ENDMDL
MODEL 2
REMARK minimizedAffinity -9.00543118
REMARK  4 active torsions:
REMARK  status: ('A' for Active; 'I' for Inactive)
REMARK    1  A    between atoms: C4_4  and  C5_5 
REMARK    2  A    between atoms: C5_5  and  C6_6 
REMARK    3  A    between atoms: C6_6  and  C7_7 
REMARK    4  A    between atoms: C7_7  and  C9_9 
ROOT
HETATM    1  C9  UNL     1      -1.129  49.054 -18.234  1.00  0.00    -0.002 C 
HETATM    2  C10 UNL     1      -2.313  48.061 -18.425  1.00  0.00     0.007 C 
HETATM    3  C11 UNL     1      -2.815  48.218 -19.873  1.00  0.00     0.015 C 
HETATM    4  C12 UNL     1      -1.731  49.057 -20.580  1.00  0.00    -0.013 C 
HETATM    5  C13 UNL     1      -0.625  48.048 -21.022  1.00  0.00     0.021 C 
HETATM    6  C14 UNL     1      -2.119  49.831 -21.832  1.00  0.00    -0.070 C 
HETATM    7  C15 UNL     1      -3.173  49.517 -22.606  1.00  0.00    -0.022 C 
HETATM    8  C16 UNL     1      -3.453  50.252 -23.882  1.00  0.00     0.034 C 
HETATM    9  C17 UNL     1      -2.117  50.541 -24.582  1.00  0.00     0.013 C 
HETATM   10  C18 UNL     1      -2.237  50.976 -26.075  1.00  0.00     0.018 C 
HETATM   11  C19 UNL     1      -2.456  49.736 -26.968  1.00  0.00     0.023 C 
HETATM   12  C20 UNL     1      -3.397  51.952 -26.343  1.00  0.00     0.023 C 
HETATM   13  C21 UNL     1      -0.913  51.606 -26.531  1.00  0.00     0.135 C 
HETATM   14  O1  UNL     1      -0.850  52.353 -27.511  1.00  0.00    -0.297 OA
HETATM   15  C22 UNL     1       0.353  51.196 -25.806  1.00  0.00     0.080 C 
HETATM   16  C23 UNL     1       0.254  51.217 -24.277  1.00  0.00     0.017 C 
HETATM   17  C24 UNL     1      -1.171  51.441 -23.704  1.00  0.00    -0.031 C 
HETATM   18  C25 UNL     1      -1.497  52.956 -23.805  1.00  0.00     0.016 C 
HETATM   19  C26 UNL     1      -1.296  51.082 -22.152  1.00  0.00     0.024 C 
HETATM   20  C27 UNL     1       0.024  51.188 -21.351  1.00  0.00     0.010 C 
HETATM   21  C28 UNL     1      -0.060  50.834 -19.848  1.00  0.00     0.011 C 
HETATM   22  C29 UNL     1      -1.319  50.046 -19.431  1.00  0.00    -0.029 C 
HETATM   23  C30 UNL     1      -2.444  51.065 -19.061  1.00  0.00     0.016 C 
ENDROOT
BRANCH   1  24
HETATM   24  C7  UNL     1      -1.049  49.607 -16.784  1.00  0.00    -0.014 C 
HETATM   25  C8  UNL     1      -2.109  50.673 -16.490  1.00  0.00     0.010 C 
BRANCH  24  26
HETATM   26  C6  UNL     1       0.369  50.112 -16.398  1.00  0.00     0.008 C 
BRANCH  26  27
HETATM   27  C5  UNL     1       0.596  51.626 -16.265  1.00  0.00     0.028 C 
BRANCH  27  28
HETATM   28  C4  UNL     1       1.992  52.089 -16.564  1.00  0.00    -0.025 C 
HETATM   29  C2  UNL     1       3.045  52.101 -15.724  1.00  0.00    -0.091 C 
HETATM   30  C1  UNL     1       4.394  52.583 -16.189  1.00  0.00     0.042 C 
HETATM   31  C3  UNL     1       3.001  51.670 -14.285  1.00  0.00     0.042 C 
ENDBRANCH  27  28
ENDBRANCH  26  27
ENDBRANCH  24  26
ENDBRANCH   1  24
TORSDOF 4
ENDMDL
MODEL 3
REMARK minimizedAffinity -8.79468155
REMARK  4 active torsions:
REMARK  status: ('A' for Active; 'I' for Inactive)
REMARK    1  A    between atoms: C4_4  and  C5_5 
REMARK    2  A    between atoms: C5_5  and  C6_6 
REMARK    3  A    between atoms: C6_6  and  C7_7 
REMARK    4  A    between atoms: C7_7  and  C9_9 
ROOT
HETATM    1  C9  UNL     1      -3.016  47.729 -18.983  1.00  0.00    -0.002 C 
HETATM    2  C10 UNL     1      -3.174  46.449 -19.856  1.00  0.00     0.007 C 
HETATM    3  C11 UNL     1      -2.938  46.860 -21.321  1.00  0.00     0.015 C 
HETATM    4  C12 UNL     1      -2.346  48.282 -21.244  1.00  0.00    -0.013 C 
HETATM    5  C13 UNL     1      -0.816  48.100 -20.998  1.00  0.00     0.021 C 
HETATM    6  C14 UNL     1      -2.472  49.184 -22.464  1.00  0.00    -0.070 C 
HETATM    7  C15 UNL     1      -2.657  48.726 -23.714  1.00  0.00    -0.022 C 
HETATM    8  C16 UNL     1      -2.676  49.651 -24.893  1.00  0.00     0.034 C 
HETATM    9  C17 UNL     1      -1.604  50.731 -24.682  1.00  0.00     0.013 C 
HETATM   10  C18 UNL     1      -1.243  51.558 -25.955  1.00  0.00     0.018 C 
HETATM   11  C19 UNL     1      -0.279  50.750 -26.850  1.00  0.00     0.023 C 
HETATM   12  C20 UNL     1      -2.464  51.937 -26.812  1.00  0.00     0.023 C 
HETATM   13  C21 UNL     1      -0.485  52.827 -25.542  1.00  0.00     0.135 C 
HETATM   14  O1  UNL     1      -0.412  53.812 -26.279  1.00  0.00    -0.297 OA
HETATM   15  C22 UNL     1       0.278  52.801 -24.232  1.00  0.00     0.080 C 
HETATM   16  C23 UNL     1      -0.508  52.240 -23.041  1.00  0.00     0.017 C 
HETATM   17  C24 UNL     1      -1.872  51.588 -23.391  1.00  0.00    -0.031 C 
HETATM   18  C25 UNL     1      -2.906  52.726 -23.611  1.00  0.00     0.016 C 
HETATM   19  C26 UNL     1      -2.470  50.694 -22.209  1.00  0.00     0.024 C 
HETATM   20  C27 UNL     1      -1.998  51.091 -20.789  1.00  0.00     0.010 C 
HETATM   21  C28 UNL     1      -2.548  50.237 -19.623  1.00  0.00     0.011 C 
HETATM   22  C29 UNL     1      -3.154  48.880 -20.036  1.00  0.00    -0.029 C 
HETATM   23  C30 UNL     1      -4.671  49.088 -20.351  1.00  0.00     0.016 C 
ENDROOT
BRANCH   1  24
HETATM   24  C7  UNL     1      -3.943  47.713 -17.736  1.00  0.00    -0.014 C 
HETATM   25  C8  UNL     1      -5.337  48.282 -18.020  1.00  0.00     0.010 C 
BRANCH  24  26
HETATM   26  C6  UNL     1      -3.308  48.394 -16.492  1.00  0.00     0.008 C 
BRANCH  26  27
HETATM   27  C5  UNL     1      -1.797  48.239 -16.264  1.00  0.00     0.028 C 
BRANCH  27  28
HETATM   28  C4  UNL     1      -0.970  49.433 -16.644  1.00  0.00    -0.025 C 
HETATM   29  C2  UNL     1       0.214  49.805 -16.120  1.00  0.00    -0.091 C 
HETATM   30  C1  UNL     1       0.929  51.029 -16.630  1.00  0.00     0.042 C 
HETATM   31  C3  UNL     1       0.923  49.090 -15.006  1.00  0.00     0.042 C 
ENDBRANCH  27  28
ENDBRANCH  26  27
ENDBRANCH  24  26
ENDBRANCH   1  24
TORSDOF 4
ENDMDL
MODEL 4
REMARK minimizedAffinity -8.75376034
REMARK  4 active torsions:
REMARK  status: ('A' for Active; 'I' for Inactive)
REMARK    1  A    between atoms: C4_4  and  C5_5 
REMARK    2  A    between atoms: C5_5  and  C6_6 
REMARK    3  A    between atoms: C6_6  and  C7_7 
REMARK    4  A    between atoms: C7_7  and  C9_9 
ROOT
HETATM    1  C9  UNL     1      -0.662  52.619 -21.074  1.00  0.00    -0.002 C 
HETATM    2  C10 UNL     1      -0.192  52.159 -22.485  1.00  0.00     0.007 C 
HETATM    3  C11 UNL     1      -1.065  50.956 -22.891  1.00  0.00     0.015 C 
HETATM    4  C12 UNL     1      -2.216  50.937 -21.864  1.00  0.00    -0.013 C 
HETATM    5  C13 UNL     1      -3.280  51.948 -22.391  1.00  0.00     0.021 C 
HETATM    6  C14 UNL     1      -2.956  49.628 -21.634  1.00  0.00    -0.070 C 
HETATM    7  C15 UNL     1      -2.991  48.623 -22.527  1.00  0.00    -0.022 C 
HETATM    8  C16 UNL     1      -3.817  47.395 -22.293  1.00  0.00     0.034 C 
HETATM    9  C17 UNL     1      -5.144  47.815 -21.642  1.00  0.00     0.013 C 
HETATM   10  C18 UNL     1      -6.258  46.724 -21.654  1.00  0.00     0.018 C 
HETATM   11  C19 UNL     1      -6.933  46.676 -23.042  1.00  0.00     0.023 C 
HETATM   12  C20 UNL     1      -5.739  45.308 -21.342  1.00  0.00     0.023 C 
HETATM   13  C21 UNL     1      -7.358  47.105 -20.653  1.00  0.00     0.135 C 
HETATM   14  O1  UNL     1      -8.141  46.271 -20.196  1.00  0.00    -0.297 OA
HETATM   15  C22 UNL     1      -7.531  48.573 -20.319  1.00  0.00     0.080 C 
HETATM   16  C23 UNL     1      -6.232  49.316 -19.989  1.00  0.00     0.017 C 
HETATM   17  C24 UNL     1      -4.924  48.523 -20.255  1.00  0.00    -0.031 C 
HETATM   18  C25 UNL     1      -4.721  47.525 -19.081  1.00  0.00     0.016 C 
HETATM   19  C26 UNL     1      -3.616  49.439 -20.265  1.00  0.00     0.024 C 
HETATM   20  C27 UNL     1      -3.727  50.742 -19.436  1.00  0.00     0.010 C 
HETATM   21  C28 UNL     1      -2.481  51.658 -19.436  1.00  0.00     0.011 C 
HETATM   22  C29 UNL     1      -1.460  51.376 -20.557  1.00  0.00    -0.029 C 
HETATM   23  C30 UNL     1      -0.442  50.307 -20.045  1.00  0.00     0.016 C 
ENDROOT
BRANCH   1  24
HETATM   24  C7  UNL     1       0.502  53.194 -20.221  1.00  0.00    -0.014 C 
HETATM   25  C8  UNL     1       1.855  53.134 -20.938  1.00  0.00     0.010 C 
BRANCH  24  26
HETATM   26  C6  UNL     1       0.596  52.559 -18.805  1.00  0.00     0.008 C 
BRANCH  26  27
HETATM   27  C5  UNL     1       1.828  52.871 -17.943  1.00  0.00     0.028 C 
BRANCH  27  28
HETATM   28  C4  UNL     1       1.803  52.284 -16.561  1.00  0.00    -0.025 C 
HETATM   29  C2  UNL     1       2.853  52.079 -15.743  1.00  0.00    -0.091 C 
HETATM   30  C1  UNL     1       2.655  51.494 -14.370  1.00  0.00     0.042 C 
HETATM   31  C3  UNL     1       4.284  52.380 -16.090  1.00  0.00     0.042 C 
ENDBRANCH  27  28
ENDBRANCH  26  27
ENDBRANCH  24  26
ENDBRANCH   1  24
TORSDOF 4
ENDMDL
MODEL 5
REMARK minimizedAffinity -8.74520111
REMARK  4 active torsions:
REMARK  status: ('A' for Active; 'I' for Inactive)
REMARK    1  A    between atoms: C4_4  and  C5_5 
REMARK    2  A    between atoms: C5_5  and  C6_6 
REMARK    3  A    between atoms: C6_6  and  C7_7 
REMARK    4  A    between atoms: C7_7  and  C9_9 
ROOT
HETATM    1  C9  UNL     1      -0.726  50.313 -21.868  1.00  0.00    -0.002 C 
HETATM    2  C10 UNL     1      -0.500  49.718 -20.447  1.00  0.00     0.007 C 
HETATM    3  C11 UNL     1      -1.806  49.015 -20.030  1.00  0.00     0.015 C 
HETATM    4  C12 UNL     1      -2.647  48.943 -21.321  1.00  0.00    -0.013 C 
HETATM    5  C13 UNL     1      -2.154  47.677 -22.087  1.00  0.00     0.021 C 
HETATM    6  C14 UNL     1      -4.156  48.796 -21.192  1.00  0.00    -0.070 C 
HETATM    7  C15 UNL     1      -4.767  48.300 -20.101  1.00  0.00    -0.022 C 
HETATM    8  C16 UNL     1      -6.250  48.084 -20.064  1.00  0.00     0.034 C 
HETATM    9  C17 UNL     1      -6.701  47.557 -21.434  1.00  0.00     0.013 C 
HETATM   10  C18 UNL     1      -8.137  46.947 -21.465  1.00  0.00     0.018 C 
HETATM   11  C19 UNL     1      -8.109  45.510 -20.901  1.00  0.00     0.023 C 
HETATM   12  C20 UNL     1      -9.165  47.747 -20.646  1.00  0.00     0.023 C 
HETATM   13  C21 UNL     1      -8.611  46.829 -22.920  1.00  0.00     0.135 C 
HETATM   14  O1  UNL     1      -9.805  46.738 -23.211  1.00  0.00    -0.297 OA
HETATM   15  C22 UNL     1      -7.555  46.715 -24.001  1.00  0.00     0.080 C 
HETATM   16  C23 UNL     1      -6.413  47.732 -23.895  1.00  0.00     0.017 C 
HETATM   17  C24 UNL     1      -6.390  48.575 -22.592  1.00  0.00    -0.031 C 
HETATM   18  C25 UNL     1      -7.455  49.697 -22.728  1.00  0.00     0.016 C 
HETATM   19  C26 UNL     1      -5.004  49.332 -22.350  1.00  0.00     0.024 C 
HETATM   20  C27 UNL     1      -4.193  49.635 -23.634  1.00  0.00     0.010 C 
HETATM   21  C28 UNL     1      -2.840  50.355 -23.432  1.00  0.00     0.011 C 
HETATM   22  C29 UNL     1      -2.287  50.317 -21.992  1.00  0.00    -0.029 C 
HETATM   23  C30 UNL     1      -2.846  51.551 -21.212  1.00  0.00     0.016 C 
ENDROOT
BRANCH   1  24
HETATM   24  C7  UNL     1       0.066  51.631 -22.090  1.00  0.00    -0.014 C 
HETATM   25  C8  UNL     1       0.060  52.547 -20.862  1.00  0.00     0.010 C 
BRANCH  24  26
HETATM   26  C6  UNL     1      -0.377  52.405 -23.363  1.00  0.00     0.008 C 
BRANCH  26  27
HETATM   27  C5  UNL     1       0.698  52.820 -24.379  1.00  0.00     0.028 C 
BRANCH  27  28
HETATM   28  C4  UNL     1       0.349  52.561 -25.816  1.00  0.00    -0.025 C 
HETATM   29  C2  UNL     1       1.103  51.932 -26.738  1.00  0.00    -0.091 C 
HETATM   30  C1  UNL     1       0.595  51.736 -28.142  1.00  0.00     0.042 C 
HETATM   31  C3  UNL     1       2.483  51.390 -26.495  1.00  0.00     0.042 C 
ENDBRANCH  27  28
ENDBRANCH  26  27
ENDBRANCH  24  26
ENDBRANCH   1  24
TORSDOF 4
ENDMDL
MODEL 6
REMARK minimizedAffinity -8.59447098
REMARK  4 active torsions:
REMARK  status: ('A' for Active; 'I' for Inactive)
REMARK    1  A    between atoms: C4_4  and  C5_5 
REMARK    2  A    between atoms: C5_5  and  C6_6 
REMARK    3  A    between atoms: C6_6  and  C7_7 
REMARK    4  A    between atoms: C7_7  and  C9_9 
ROOT
HETATM    1  C9  UNL     1      -3.652  48.066 -19.148  1.00  0.00    -0.002 C 
HETATM    2  C10 UNL     1      -3.833  46.791 -20.024  1.00  0.00     0.007 C 
HETATM    3  C11 UNL     1      -3.386  47.150 -21.455  1.00  0.00     0.015 C 
HETATM    4  C12 UNL     1      -2.668  48.508 -21.317  1.00  0.00    -0.013 C 
HETATM    5  C13 UNL     1      -1.204  48.181 -20.890  1.00  0.00     0.021 C 
HETATM    6  C14 UNL     1      -2.559  49.395 -22.549  1.00  0.00    -0.070 C 
HETATM    7  C15 UNL     1      -2.641  48.935 -23.809  1.00  0.00    -0.022 C 
HETATM    8  C16 UNL     1      -2.428  49.836 -24.988  1.00  0.00     0.034 C 
HETATM    9  C17 UNL     1      -1.286  50.809 -24.658  1.00  0.00     0.013 C 
HETATM   10  C18 UNL     1      -0.697  51.572 -25.884  1.00  0.00     0.018 C 
HETATM   11  C19 UNL     1       0.280  50.657 -26.654  1.00  0.00     0.023 C 
HETATM   12  C20 UNL     1      -1.765  52.054 -26.883  1.00  0.00     0.023 C 
HETATM   13  C21 UNL     1       0.130  52.769 -25.392  1.00  0.00     0.135 C 
HETATM   14  O1  UNL     1       0.387  53.728 -26.123  1.00  0.00    -0.297 OA
HETATM   15  C22 UNL     1       0.727  52.692 -24.002  1.00  0.00     0.080 C 
HETATM   16  C23 UNL     1      -0.245  52.232 -22.909  1.00  0.00     0.017 C 
HETATM   17  C24 UNL     1      -1.617  51.711 -23.413  1.00  0.00    -0.031 C 
HETATM   18  C25 UNL     1      -2.499  52.941 -23.763  1.00  0.00     0.016 C 
HETATM   19  C26 UNL     1      -2.436  50.902 -22.305  1.00  0.00     0.024 C 
HETATM   20  C27 UNL     1      -2.097  51.277 -20.842  1.00  0.00     0.010 C 
HETATM   21  C28 UNL     1      -2.863  50.503 -19.745  1.00  0.00     0.011 C 
HETATM   22  C29 UNL     1      -3.549  49.204 -20.217  1.00  0.00    -0.029 C 
HETATM   23  C30 UNL     1      -4.990  49.555 -20.712  1.00  0.00     0.016 C 
ENDROOT
BRANCH   1  24
HETATM   24  C7  UNL     1      -4.716  48.164 -18.020  1.00  0.00    -0.014 C 
HETATM   25  C8  UNL     1      -4.747  46.927 -17.117  1.00  0.00     0.010 C 
BRANCH  24  26
HETATM   26  C6  UNL     1      -6.138  48.501 -18.548  1.00  0.00     0.008 C 
BRANCH  26  27
HETATM   27  C5  UNL     1      -7.335  47.729 -17.973  1.00  0.00     0.028 C 
BRANCH  27  28
HETATM   28  C4  UNL     1      -8.607  47.847 -18.761  1.00  0.00    -0.025 C 
HETATM   29  C2  UNL     1      -9.862  47.920 -18.277  1.00  0.00    -0.091 C 
HETATM   30  C1  UNL     1     -11.038  48.056 -19.209  1.00  0.00     0.042 C 
HETATM   31  C3  UNL     1     -10.227  47.862 -16.821  1.00  0.00     0.042 C 
ENDBRANCH  27  28
ENDBRANCH  26  27
ENDBRANCH  24  26
ENDBRANCH   1  24
TORSDOF 4
ENDMDL
MODEL 7
REMARK minimizedAffinity -8.52540112
REMARK  4 active torsions:
REMARK  status: ('A' for Active; 'I' for Inactive)
REMARK    1  A    between atoms: C4_4  and  C5_5 
REMARK    2  A    between atoms: C5_5  and  C6_6 
REMARK    3  A    between atoms: C6_6  and  C7_7 
REMARK    4  A    between atoms: C7_7  and  C9_9 
ROOT
HETATM    1  C9  UNL     1      -2.048  51.717 -24.633  1.00  0.00    -0.002 C 
HETATM    2  C10 UNL     1      -3.288  52.351 -25.328  1.00  0.00     0.007 C 
HETATM    3  C11 UNL     1      -4.542  51.699 -24.715  1.00  0.00     0.015 C 
HETATM    4  C12 UNL     1      -4.029  50.941 -23.474  1.00  0.00    -0.013 C 
HETATM    5  C13 UNL     1      -3.955  51.994 -22.326  1.00  0.00     0.021 C 
HETATM    6  C14 UNL     1      -4.863  49.788 -22.936  1.00  0.00    -0.070 C 
HETATM    7  C15 UNL     1      -6.181  49.649 -23.167  1.00  0.00    -0.022 C 
HETATM    8  C16 UNL     1      -6.976  48.549 -22.531  1.00  0.00     0.034 C 
HETATM    9  C17 UNL     1      -6.482  48.360 -21.089  1.00  0.00     0.013 C 
HETATM   10  C18 UNL     1      -7.422  47.514 -20.176  1.00  0.00     0.018 C 
HETATM   11  C19 UNL     1      -8.596  48.386 -19.679  1.00  0.00     0.023 C 
HETATM   12  C20 UNL     1      -8.023  46.284 -20.880  1.00  0.00     0.023 C 
HETATM   13  C21 UNL     1      -6.655  47.071 -18.923  1.00  0.00     0.135 C 
HETATM   14  O1  UNL     1      -7.021  46.113 -18.239  1.00  0.00    -0.297 OA
HETATM   15  C22 UNL     1      -5.481  47.919 -18.475  1.00  0.00     0.080 C 
HETATM   16  C23 UNL     1      -4.501  48.302 -19.590  1.00  0.00     0.017 C 
HETATM   17  C24 UNL     1      -4.963  47.955 -21.031  1.00  0.00    -0.031 C 
HETATM   18  C25 UNL     1      -4.723  46.438 -21.260  1.00  0.00     0.016 C 
HETATM   19  C26 UNL     1      -4.116  48.695 -22.165  1.00  0.00     0.024 C 
HETATM   20  C27 UNL     1      -2.678  49.091 -21.750  1.00  0.00     0.010 C 
HETATM   21  C28 UNL     1      -1.836  49.822 -22.821  1.00  0.00     0.011 C 
HETATM   22  C29 UNL     1      -2.642  50.416 -23.995  1.00  0.00    -0.029 C 
HETATM   23  C30 UNL     1      -2.773  49.328 -25.109  1.00  0.00     0.016 C 
ENDROOT
BRANCH   1  24
HETATM   24  C7  UNL     1      -0.824  51.616 -25.584  1.00  0.00    -0.014 C 
HETATM   25  C8  UNL     1      -0.734  50.266 -26.304  1.00  0.00     0.010 C 
BRANCH  24  26
HETATM   26  C6  UNL     1       0.522  51.965 -24.889  1.00  0.00     0.008 C 
BRANCH  26  27
HETATM   27  C5  UNL     1       0.504  52.951 -23.712  1.00  0.00     0.028 C 
BRANCH  27  28
HETATM   28  C4  UNL     1       0.254  52.332 -22.367  1.00  0.00    -0.025 C 
HETATM   29  C2  UNL     1       0.555  52.851 -21.161  1.00  0.00    -0.091 C 
HETATM   30  C1  UNL     1       0.217  52.105 -19.897  1.00  0.00     0.042 C 
HETATM   31  C3  UNL     1       1.246  54.167 -20.941  1.00  0.00     0.042 C 
ENDBRANCH  27  28
ENDBRANCH  26  27
ENDBRANCH  24  26
ENDBRANCH   1  24
TORSDOF 4
ENDMDL
MODEL 8
REMARK minimizedAffinity -8.50029469
REMARK  4 active torsions:
REMARK  status: ('A' for Active; 'I' for Inactive)
REMARK    1  A    between atoms: C4_4  and  C5_5 
REMARK    2  A    between atoms: C5_5  and  C6_6 
REMARK    3  A    between atoms: C6_6  and  C7_7 
REMARK    4  A    between atoms: C7_7  and  C9_9 
ROOT
HETATM    1  C9  UNL     1      -1.955  52.459 -23.855  1.00  0.00    -0.002 C 
HETATM    2  C10 UNL     1      -2.259  52.319 -25.375  1.00  0.00     0.007 C 
HETATM    3  C11 UNL     1      -3.378  51.271 -25.526  1.00  0.00     0.015 C 
HETATM    4  C12 UNL     1      -3.916  51.057 -24.096  1.00  0.00    -0.013 C 
HETATM    5  C13 UNL     1      -4.950  52.199 -23.849  1.00  0.00     0.021 C 
HETATM    6  C14 UNL     1      -4.642  49.756 -23.785  1.00  0.00    -0.070 C 
HETATM    7  C15 UNL     1      -5.225  48.986 -24.720  1.00  0.00    -0.022 C 
HETATM    8  C16 UNL     1      -6.012  47.765 -24.349  1.00  0.00     0.034 C 
HETATM    9  C17 UNL     1      -6.816  48.071 -23.076  1.00  0.00     0.013 C 
HETATM   10  C18 UNL     1      -7.950  47.050 -22.752  1.00  0.00     0.018 C 
HETATM   11  C19 UNL     1      -9.188  47.346 -23.626  1.00  0.00     0.023 C 
HETATM   12  C20 UNL     1      -7.550  45.584 -22.996  1.00  0.00     0.023 C 
HETATM   13  C21 UNL     1      -8.399  47.230 -21.295  1.00  0.00     0.135 C 
HETATM   14  O1  UNL     1      -8.992  46.341 -20.681  1.00  0.00    -0.297 OA
HETATM   15  C22 UNL     1      -8.191  48.587 -20.654  1.00  0.00     0.080 C 
HETATM   16  C23 UNL     1      -6.796  49.189 -20.858  1.00  0.00     0.017 C 
HETATM   17  C24 UNL     1      -5.885  48.433 -21.861  1.00  0.00    -0.031 C 
HETATM   18  C25 UNL     1      -5.305  47.187 -21.138  1.00  0.00     0.016 C 
HETATM   19  C26 UNL     1      -4.615  49.282 -22.329  1.00  0.00     0.024 C 
HETATM   20  C27 UNL     1      -4.147  50.363 -21.325  1.00  0.00     0.010 C 
HETATM   21  C28 UNL     1      -2.928  51.211 -21.753  1.00  0.00     0.011 C 
HETATM   22  C29 UNL     1      -2.590  51.158 -23.258  1.00  0.00    -0.029 C 
HETATM   23  C30 UNL     1      -1.611  49.966 -23.506  1.00  0.00     0.016 C 
ENDROOT
BRANCH   1  24
HETATM   24  C7  UNL     1      -0.461  52.782 -23.577  1.00  0.00    -0.014 C 
HETATM   25  C8  UNL     1       0.491  52.109 -24.571  1.00  0.00     0.010 C 
BRANCH  24  26
HETATM   26  C6  UNL     1      -0.032  52.487 -22.112  1.00  0.00     0.008 C 
BRANCH  26  27
HETATM   27  C5  UNL     1       0.762  53.560 -21.352  1.00  0.00     0.028 C 
BRANCH  27  28
HETATM   28  C4  UNL     1       1.231  53.156 -19.985  1.00  0.00    -0.025 C 
HETATM   29  C2  UNL     1       0.488  52.637 -18.988  1.00  0.00    -0.091 C 
HETATM   30  C1  UNL     1       1.119  52.264 -17.672  1.00  0.00     0.042 C 
HETATM   31  C3  UNL     1      -0.993  52.393 -19.058  1.00  0.00     0.042 C 
ENDBRANCH  27  28
ENDBRANCH  26  27
ENDBRANCH  24  26
ENDBRANCH   1  24
TORSDOF 4
ENDMDL
MODEL 9
REMARK minimizedAffinity -8.49973679
REMARK  4 active torsions:
REMARK  status: ('A' for Active; 'I' for Inactive)
REMARK    1  A    between atoms: C4_4  and  C5_5 
REMARK    2  A    between atoms: C5_5  and  C6_6 
REMARK    3  A    between atoms: C6_6  and  C7_7 
REMARK    4  A    between atoms: C7_7  and  C9_9 
ROOT
HETATM    1  C9  UNL     1      -2.037  51.858 -22.454  1.00  0.00    -0.002 C 
HETATM    2  C10 UNL     1      -2.211  52.236 -23.955  1.00  0.00     0.007 C 
HETATM    3  C11 UNL     1      -3.365  51.381 -24.513  1.00  0.00     0.015 C 
HETATM    4  C12 UNL     1      -4.037  50.762 -23.271  1.00  0.00    -0.013 C 
HETATM    5  C13 UNL     1      -5.030  51.839 -22.736  1.00  0.00     0.021 C 
HETATM    6  C14 UNL     1      -4.853  49.490 -23.450  1.00  0.00    -0.070 C 
HETATM    7  C15 UNL     1      -5.389  49.106 -24.623  1.00  0.00    -0.022 C 
HETATM    8  C16 UNL     1      -6.267  47.896 -24.724  1.00  0.00     0.034 C 
HETATM    9  C17 UNL     1      -7.164  47.838 -23.477  1.00  0.00     0.013 C 
HETATM   10  C18 UNL     1      -8.373  46.857 -23.581  1.00  0.00     0.018 C 
HETATM   11  C19 UNL     1      -9.512  47.511 -24.393  1.00  0.00     0.023 C 
HETATM   12  C20 UNL     1      -8.027  45.520 -24.262  1.00  0.00     0.023 C 
HETATM   13  C21 UNL     1      -8.939  46.594 -22.179  1.00  0.00     0.135 C 
HETATM   14  O1  UNL     1      -9.628  45.603 -21.930  1.00  0.00    -0.297 OA
HETATM   15  C22 UNL     1      -8.721  47.654 -21.118  1.00  0.00     0.080 C 
HETATM   16  C23 UNL     1      -7.285  48.181 -21.020  1.00  0.00     0.017 C 
HETATM   17  C24 UNL     1      -6.327  47.719 -22.151  1.00  0.00    -0.031 C 
HETATM   18  C25 UNL     1      -5.878  46.266 -21.835  1.00  0.00     0.016 C 
HETATM   19  C26 UNL     1      -4.979  48.573 -22.230  1.00  0.00     0.024 C 
HETATM   20  C27 UNL     1      -4.549  49.236 -20.899  1.00  0.00     0.010 C 
HETATM   21  C28 UNL     1      -3.255  50.080 -20.945  1.00  0.00     0.011 C 
HETATM   22  C29 UNL     1      -2.788  50.487 -22.358  1.00  0.00    -0.029 C 
HETATM   23  C30 UNL     1      -1.852  49.366 -22.915  1.00  0.00     0.016 C 
ENDROOT
BRANCH   1  24
HETATM   24  C7  UNL     1      -0.559  51.959 -21.986  1.00  0.00    -0.014 C 
HETATM   25  C8  UNL     1      -0.423  52.211 -20.481  1.00  0.00     0.010 C 
BRANCH  24  26
HETATM   26  C6  UNL     1       0.272  52.991 -22.800  1.00  0.00     0.008 C 
BRANCH  26  27
HETATM   27  C5  UNL     1       0.063  53.063 -24.320  1.00  0.00     0.028 C 
BRANCH  27  28
HETATM   28  C4  UNL     1       1.247  52.648 -25.145  1.00  0.00    -0.025 C 
HETATM   29  C2  UNL     1       1.295  51.668 -26.068  1.00  0.00    -0.091 C 
HETATM   30  C1  UNL     1       2.565  51.389 -26.828  1.00  0.00     0.042 C 
HETATM   31  C3  UNL     1       0.147  50.766 -26.423  1.00  0.00     0.042 C 
ENDBRANCH  27  28
ENDBRANCH  26  27
ENDBRANCH  24  26
ENDBRANCH   1  24
TORSDOF 4
ENDMDL
