MODEL 1
REMARK minimizedAffinity -9.87481499
REMARK CNNscore 0.538199961
REMARK CNNaffinity 8.03876495
REMARK  13 active torsions:
REMARK  status: ('A' for Active; 'I' for Inactive)
REMARK    1  A    between atoms: C5_6  and  C6_7 
REMARK    2  A    between atoms: C5_6  and  C27_31 
REMARK    3  A    between atoms: C18_19  and  O2_20 
REMARK    4  A    between atoms: C23_25  and  O3_26 
REMARK    5  A    between atoms: C28_33  and  C29_34 
REMARK    6  A    between atoms: C29_34  and  O6_36 
REMARK    7  A    between atoms: C29_34  and  C31_37 
REMARK    8  A    between atoms: C31_37  and  C33_39 
REMARK    9  A    between atoms: C31_37  and  C34_41 
REMARK   10  A    between atoms: C33_39  and  O7_40 
REMARK   11  A    between atoms: C34_41  and  C35_42 
REMARK   12  A    between atoms: C35_42  and  C36_43 
REMARK   13  A    between atoms: C39_47  and  N2_48 
ROOT
HETATM    1  C1  UNL     1       3.733  52.208 -15.580  1.00  0.00     0.010 C 
HETATM    2  C2  UNL     1       2.897  51.817 -14.359  1.00  0.00    -0.014 C 
HETATM    3  C3  UNL     1       3.486  50.586 -13.656  1.00  0.00     0.030 C 
HETATM    4  C4  UNL     1       2.474  49.453 -13.539  1.00  0.00     0.169 C 
HETATM    5  O1  UNL     1       1.268  49.909 -12.934  1.00  0.00    -0.377 OA
HETATM    6  C5  UNL     1       0.553  50.952 -13.657  1.00  0.00     0.094 C 
HETATM    7  C41 UNL     1       1.446  51.568 -14.766  1.00  0.00     0.045 C 
ENDROOT
BRANCH   6   8
HETATM    8  C6  UNL     1       0.009  51.885 -12.517  1.00  0.00     0.035 C 
HETATM    9  C7  UNL     1      -1.250  51.343 -11.725  1.00  0.00     0.016 C 
HETATM   10  C8  UNL     1      -1.083  51.862 -10.289  1.00  0.00     0.026 C 
HETATM   11  C9  UNL     1      -2.294  52.196  -9.439  1.00  0.00     0.013 C 
HETATM   12  C18 UNL     1      -0.222  53.101 -10.498  1.00  0.00     0.094 C 
HETATM   13  C10 UNL     1      -1.806  52.770  -8.085  1.00  0.00     0.043 C 
HETATM   14  C11 UNL     1      -0.564  53.653  -8.150  1.00  0.00    -0.006 C 
HETATM   15  C12 UNL     1       0.192  53.804  -9.256  1.00  0.00    -0.030 C 
HETATM   16  C26 UNL     1      -0.259  54.472  -6.942  1.00  0.00     0.161 C 
HETATM   17  C13 UNL     1       1.333  54.788  -9.408  1.00  0.00     0.027 C 
HETATM   18  C14 UNL     1       2.349  54.449 -10.553  1.00  0.00     0.011 C 
HETATM   19  C19 UNL     1       2.024  55.100  -8.033  1.00  0.00    -0.026 C 
HETATM   20  C15 UNL     1       1.762  53.759 -11.806  1.00  0.00     0.014 C 
HETATM   21  C16 UNL     1       0.905  52.546 -11.403  1.00  0.00    -0.002 C 
HETATM   22  C17 UNL     1       1.803  51.518 -10.670  1.00  0.00     0.019 C 
HETATM   23  C20 UNL     1       2.877  53.901  -7.536  1.00  0.00     0.016 C 
HETATM   24  C21 UNL     1       2.965  56.330  -8.219  1.00  0.00     0.013 C 
HETATM   25  C25 UNL     1       0.962  55.387  -6.925  1.00  0.00     0.071 C 
HETATM   26  C22 UNL     1       3.074  57.182  -6.961  1.00  0.00     0.032 C 
HETATM   27  C23 UNL     1       1.715  57.761  -6.552  1.00  0.00     0.119 C 
HETATM   28  C24 UNL     1       0.536  56.859  -6.929  1.00  0.00     0.045 C 
HETATM   29  O4  UNL     1      -1.022  54.416  -5.978  1.00  0.00    -0.292 OA
BRANCH  27  30
HETATM   30  O3  UNL     1       1.715  57.936  -5.138  1.00  0.00    -0.396 OA
HETATM   31  H34 UNL     1       2.396  58.595  -4.916  1.00  0.00     0.210 HD
ENDBRANCH  27  30
BRANCH  12  32
HETATM   32  O2  UNL     1      -0.976  54.091 -11.228  1.00  0.00    -0.384 OA
HETATM   33  H25 UNL     1      -1.642  54.463 -10.628  1.00  0.00     0.211 HD
ENDBRANCH  12  32
ENDBRANCH   6   8
BRANCH   6  34
HETATM   34  C27 UNL     1      -0.650  50.322 -14.368  1.00  0.00     0.189 A 
HETATM   35  O5  UNL     1      -1.465  51.235 -15.122  1.00  0.00    -0.369 OA
HETATM   36  C28 UNL     1      -0.747  50.251 -15.881  1.00  0.00     0.189 A 
BRANCH  36  37
HETATM   37  C29 UNL     1      -1.614  49.277 -16.666  1.00  0.00     0.092 C 
HETATM   38  C30 UNL     1      -2.965  49.026 -15.972  1.00  0.00     0.049 C 
BRANCH  37  39
HETATM   39  O6  UNL     1      -0.936  48.013 -16.582  1.00  0.00    -0.387 OA
HETATM   40  H43 UNL     1      -0.433  47.883 -17.413  1.00  0.00     0.210 HD
ENDBRANCH  37  39
BRANCH  37  41
HETATM   41  C31 UNL     1      -1.782  49.713 -18.205  1.00  0.00     0.011 C 
HETATM   42  C32 UNL     1      -2.845  50.827 -18.356  1.00  0.00     0.020 C 
BRANCH  41  43
HETATM   43  C33 UNL     1      -2.265  48.496 -19.044  1.00  0.00     0.176 C 
BRANCH  43  44
HETATM   44  O7  UNL     1      -1.144  47.785 -19.572  1.00  0.00    -0.400 OA
HETATM   45  H49 UNL     1      -1.457  46.882 -19.776  1.00  0.00     0.209 HD
ENDBRANCH  43  44
ENDBRANCH  41  43
BRANCH  41  46
HETATM   46  C34 UNL     1      -0.413  50.233 -18.768  1.00  0.00     0.019 C 
BRANCH  46  47
HETATM   47  C35 UNL     1      -0.193  51.754 -18.756  1.00  0.00     0.039 C 
BRANCH  47  48
HETATM   48  C36 UNL     1       0.112  52.248 -20.155  1.00  0.00    -0.054 A 
HETATM   49  C37 UNL     1      -0.310  51.522 -21.271  1.00  0.00     0.024 A 
HETATM   50  C38 UNL     1       0.029  51.968 -22.540  1.00  0.00     0.090 A 
HETATM   51  N1  UNL     1       0.753  53.085 -22.674  1.00  0.00    -0.357 N 
HETATM   52  C39 UNL     1       1.182  53.810 -21.639  1.00  0.00     0.077 A 
HETATM   53  H56 UNL     1       1.022  53.423 -23.593  1.00  0.00     0.166 HD
HETATM   54  C40 UNL     1       0.873  53.406 -20.349  1.00  0.00     0.049 A 
BRANCH  52  55
HETATM   55  N2  UNL     1       1.940  54.936 -21.929  1.00  0.00    -0.289 NA
HETATM   56  H57 UNL     1       1.519  55.769 -21.508  1.00  0.00     0.125 HD
HETATM   57  H58 UNL     1       2.863  54.871 -21.495  1.00  0.00     0.125 HD
ENDBRANCH  52  55
ENDBRANCH  47  48
ENDBRANCH  46  47
ENDBRANCH  41  46
ENDBRANCH  37  41
ENDBRANCH  36  37
ENDBRANCH   6  34
TORSDOF 13
ENDMDL
MODEL 2
REMARK minimizedAffinity -8.92747879
REMARK CNNscore 0.340654552
REMARK CNNaffinity 7.34126806
REMARK  13 active torsions:
REMARK  status: ('A' for Active; 'I' for Inactive)
REMARK    1  A    between atoms: C5_6  and  C6_7 
REMARK    2  A    between atoms: C5_6  and  C27_31 
REMARK    3  A    between atoms: C18_19  and  O2_20 
REMARK    4  A    between atoms: C23_25  and  O3_26 
REMARK    5  A    between atoms: C28_33  and  C29_34 
REMARK    6  A    between atoms: C29_34  and  O6_36 
REMARK    7  A    between atoms: C29_34  and  C31_37 
REMARK    8  A    between atoms: C31_37  and  C33_39 
REMARK    9  A    between atoms: C31_37  and  C34_41 
REMARK   10  A    between atoms: C33_39  and  O7_40 
REMARK   11  A    between atoms: C34_41  and  C35_42 
REMARK   12  A    between atoms: C35_42  and  C36_43 
REMARK   13  A    between atoms: C39_47  and  N2_48 
ROOT
HETATM    1  C1  UNL     1       3.565  48.354  -9.565  1.00  0.00     0.010 C 
HETATM    2  C2  UNL     1       3.198  49.840  -9.565  1.00  0.00    -0.014 C 
HETATM    3  C3  UNL     1       1.737  50.049  -9.144  1.00  0.00     0.030 C 
HETATM    4  C4  UNL     1       0.942  50.817 -10.194  1.00  0.00     0.169 C 
HETATM    5  O1  UNL     1       1.597  52.034 -10.537  1.00  0.00    -0.377 OA
HETATM    6  C5  UNL     1       2.922  51.895 -11.125  1.00  0.00     0.094 C 
HETATM    7  C41 UNL     1       3.461  50.453 -10.939  1.00  0.00     0.045 C 
ENDROOT
BRANCH   6   8
HETATM    8  C6  UNL     1       3.728  53.092 -10.504  1.00  0.00     0.035 C 
HETATM    9  C7  UNL     1       3.055  54.519 -10.638  1.00  0.00     0.016 C 
HETATM   10  C8  UNL     1       3.465  55.282  -9.369  1.00  0.00     0.026 C 
HETATM   11  C9  UNL     1       3.662  56.785  -9.397  1.00  0.00     0.013 C 
HETATM   12  C18 UNL     1       4.762  54.583  -8.983  1.00  0.00     0.094 C 
HETATM   13  C10 UNL     1       4.150  57.248  -8.002  1.00  0.00     0.043 C 
HETATM   14  C11 UNL     1       5.104  56.297  -7.285  1.00  0.00    -0.006 C 
HETATM   15  C12 UNL     1       5.385  55.051  -7.718  1.00  0.00    -0.030 C 
HETATM   16  C26 UNL     1       5.838  56.843  -6.109  1.00  0.00     0.161 C 
HETATM   17  C13 UNL     1       6.440  54.138  -7.128  1.00  0.00     0.027 C 
HETATM   18  C14 UNL     1       6.251  52.616  -7.452  1.00  0.00     0.011 C 
HETATM   19  C19 UNL     1       6.678  54.426  -5.603  1.00  0.00    -0.026 C 
HETATM   20  C15 UNL     1       5.633  52.282  -8.830  1.00  0.00     0.014 C 
HETATM   21  C16 UNL     1       4.346  53.094  -9.056  1.00  0.00    -0.002 C 
HETATM   22  C17 UNL     1       3.313  52.713  -7.966  1.00  0.00     0.019 C 
HETATM   23  C20 UNL     1       5.492  53.927  -4.734  1.00  0.00     0.016 C 
HETATM   24  C21 UNL     1       7.969  53.676  -5.152  1.00  0.00     0.013 C 
HETATM   25  C25 UNL     1       6.815  55.959  -5.338  1.00  0.00     0.071 C 
HETATM   26  C22 UNL     1       8.721  54.413  -4.051  1.00  0.00     0.032 C 
HETATM   27  C23 UNL     1       9.189  55.796  -4.514  1.00  0.00     0.119 C 
HETATM   28  C24 UNL     1       8.256  56.435  -5.548  1.00  0.00     0.045 C 
HETATM   29  O4  UNL     1       5.663  58.019  -5.792  1.00  0.00    -0.292 OA
BRANCH  27  30
HETATM   30  O3  UNL     1       9.249  56.649  -3.374  1.00  0.00    -0.396 OA
HETATM   31  H34 UNL     1       9.925  56.296  -2.769  1.00  0.00     0.210 HD
ENDBRANCH  27  30
BRANCH  12  32
HETATM   32  O2  UNL     1       5.766  54.847  -9.988  1.00  0.00    -0.384 OA
HETATM   33  H25 UNL     1       6.050  55.770  -9.891  1.00  0.00     0.211 HD
ENDBRANCH  12  32
ENDBRANCH   6   8
BRANCH   6  34
HETATM   34  C27 UNL     1       2.817  52.128 -12.636  1.00  0.00     0.189 A 
HETATM   35  O5  UNL     1       3.397  51.101 -13.458  1.00  0.00    -0.369 OA
HETATM   36  C28 UNL     1       1.971  51.242 -13.533  1.00  0.00     0.189 A 
BRANCH  36  37
HETATM   37  C29 UNL     1       1.428  51.630 -14.900  1.00  0.00     0.092 C 
HETATM   38  C30 UNL     1       2.556  51.986 -15.885  1.00  0.00     0.049 C 
BRANCH  37  39
HETATM   39  O6  UNL     1       0.736  52.873 -14.695  1.00  0.00    -0.387 OA
HETATM   40  H43 UNL     1      -0.221  52.679 -14.621  1.00  0.00     0.210 HD
ENDBRANCH  37  39
BRANCH  37  41
HETATM   41  C31 UNL     1       0.417  50.527 -15.491  1.00  0.00     0.011 C 
HETATM   42  C32 UNL     1      -1.052  50.882 -15.160  1.00  0.00     0.020 C 
BRANCH  41  43
HETATM   43  C33 UNL     1       0.715  49.145 -14.845  1.00  0.00     0.176 C 
BRANCH  43  44
HETATM   44  O7  UNL     1       0.677  48.118 -15.837  1.00  0.00    -0.400 OA
HETATM   45  H49 UNL     1       1.192  47.367 -15.482  1.00  0.00     0.209 HD
ENDBRANCH  43  44
ENDBRANCH  41  43
BRANCH  41  46
HETATM   46  C34 UNL     1       0.580  50.429 -17.048  1.00  0.00     0.019 C 
BRANCH  46  47
HETATM   47  C35 UNL     1      -0.652  50.778 -17.896  1.00  0.00     0.039 C 
BRANCH  47  48
HETATM   48  C36 UNL     1      -0.248  51.639 -19.075  1.00  0.00    -0.054 A 
HETATM   49  C37 UNL     1       0.478  52.816 -18.878  1.00  0.00     0.024 A 
HETATM   50  C38 UNL     1       0.789  53.614 -19.969  1.00  0.00     0.090 A 
HETATM   51  N1  UNL     1       0.390  53.243 -21.191  1.00  0.00    -0.357 N 
HETATM   52  C39 UNL     1      -0.309  52.132 -21.430  1.00  0.00     0.077 A 
HETATM   53  H56 UNL     1       0.596  53.819 -22.002  1.00  0.00     0.166 HD
HETATM   54  C40 UNL     1      -0.647  51.300 -20.373  1.00  0.00     0.049 A 
BRANCH  52  55
HETATM   55  N2  UNL     1      -0.670  51.884 -22.747  1.00  0.00    -0.289 NA
HETATM   56  H57 UNL     1      -0.333  50.964 -23.043  1.00  0.00     0.125 HD
HETATM   57  H58 UNL     1      -1.687  51.823 -22.836  1.00  0.00     0.125 HD
ENDBRANCH  52  55
ENDBRANCH  47  48
ENDBRANCH  46  47
ENDBRANCH  41  46
ENDBRANCH  37  41
ENDBRANCH  36  37
ENDBRANCH   6  34
TORSDOF 13
ENDMDL
MODEL 3
REMARK minimizedAffinity -9.23012257
REMARK CNNscore 0.333039075
REMARK CNNaffinity 7.46595335
REMARK  13 active torsions:
REMARK  status: ('A' for Active; 'I' for Inactive)
REMARK    1  A    between atoms: C5_6  and  C6_7 
REMARK    2  A    between atoms: C5_6  and  C27_31 
REMARK    3  A    between atoms: C18_19  and  O2_20 
REMARK    4  A    between atoms: C23_25  and  O3_26 
REMARK    5  A    between atoms: C28_33  and  C29_34 
REMARK    6  A    between atoms: C29_34  and  O6_36 
REMARK    7  A    between atoms: C29_34  and  C31_37 
REMARK    8  A    between atoms: C31_37  and  C33_39 
REMARK    9  A    between atoms: C31_37  and  C34_41 
REMARK   10  A    between atoms: C33_39  and  O7_40 
REMARK   11  A    between atoms: C34_41  and  C35_42 
REMARK   12  A    between atoms: C35_42  and  C36_43 
REMARK   13  A    between atoms: C39_47  and  N2_48 
ROOT
HETATM    1  C1  UNL     1      -2.972  49.334  -9.997  1.00  0.00     0.010 C 
HETATM    2  C2  UNL     1      -2.611  50.731 -10.509  1.00  0.00    -0.014 C 
HETATM    3  C3  UNL     1      -3.830  51.426 -11.130  1.00  0.00     0.030 C 
HETATM    4  C4  UNL     1      -3.575  51.858 -12.569  1.00  0.00     0.169 C 
HETATM    5  O1  UNL     1      -2.388  52.639 -12.661  1.00  0.00    -0.377 OA
HETATM    6  C5  UNL     1      -1.157  51.969 -12.266  1.00  0.00     0.094 C 
HETATM    7  C41 UNL     1      -1.463  50.647 -11.514  1.00  0.00     0.045 C 
ENDROOT
BRANCH   6   8
HETATM    8  C6  UNL     1      -0.346  53.092 -11.526  1.00  0.00     0.035 C 
HETATM    9  C7  UNL     1      -1.196  54.064 -10.608  1.00  0.00     0.016 C 
HETATM   10  C8  UNL     1      -0.270  54.433  -9.439  1.00  0.00     0.026 C 
HETATM   11  C9  UNL     1      -0.370  55.790  -8.770  1.00  0.00     0.013 C 
HETATM   12  C18 UNL     1       1.110  54.243 -10.055  1.00  0.00     0.094 C 
HETATM   13  C10 UNL     1       0.740  55.895  -7.693  1.00  0.00     0.043 C 
HETATM   14  C11 UNL     1       2.070  55.235  -8.048  1.00  0.00    -0.006 C 
HETATM   15  C12 UNL     1       2.253  54.452  -9.130  1.00  0.00    -0.030 C 
HETATM   16  C26 UNL     1       3.241  55.587  -7.195  1.00  0.00     0.161 C 
HETATM   17  C13 UNL     1       3.587  53.911  -9.601  1.00  0.00     0.027 C 
HETATM   18  C14 UNL     1       3.496  52.664 -10.547  1.00  0.00     0.011 C 
HETATM   19  C19 UNL     1       4.595  53.720  -8.413  1.00  0.00    -0.026 C 
HETATM   20  C15 UNL     1       2.272  52.609 -11.490  1.00  0.00     0.014 C 
HETATM   21  C16 UNL     1       0.972  52.843 -10.701  1.00  0.00    -0.002 C 
HETATM   22  C17 UNL     1       0.814  51.717  -9.647  1.00  0.00     0.019 C 
HETATM   23  C20 UNL     1       4.207  52.509  -7.522  1.00  0.00     0.016 C 
HETATM   24  C21 UNL     1       6.015  53.462  -9.004  1.00  0.00     0.013 C 
HETATM   25  C25 UNL     1       4.609  54.975  -7.484  1.00  0.00     0.071 C 
HETATM   26  C22 UNL     1       7.128  54.008  -8.117  1.00  0.00     0.032 C 
HETATM   27  C23 UNL     1       7.022  55.527  -7.948  1.00  0.00     0.119 C 
HETATM   28  C24 UNL     1       5.580  56.042  -8.001  1.00  0.00     0.045 C 
HETATM   29  O4  UNL     1       3.089  56.395  -6.280  1.00  0.00    -0.292 OA
BRANCH  27  30
HETATM   30  O3  UNL     1       7.578  55.872  -6.683  1.00  0.00    -0.396 OA
HETATM   31  H34 UNL     1       8.523  55.642  -6.695  1.00  0.00     0.210 HD
ENDBRANCH  27  30
BRANCH  12  32
HETATM   32  O2  UNL     1       1.311  55.228 -11.092  1.00  0.00    -0.384 OA
HETATM   33  H25 UNL     1       1.447  56.089 -10.664  1.00  0.00     0.211 HD
ENDBRANCH  12  32
ENDBRANCH   6   8
BRANCH   6  34
HETATM   34  C27 UNL     1      -0.381  51.580 -13.529  1.00  0.00     0.189 A 
HETATM   35  O5  UNL     1       0.268  50.297 -13.482  1.00  0.00    -0.369 OA
HETATM   36  C28 UNL     1      -0.811  50.428 -14.419  1.00  0.00     0.189 A 
BRANCH  36  37
HETATM   37  C29 UNL     1      -0.428  50.248 -15.881  1.00  0.00     0.092 C 
HETATM   38  C30 UNL     1       0.404  48.971 -16.101  1.00  0.00     0.049 C 
BRANCH  37  39
HETATM   39  O6  UNL     1       0.488  51.317 -16.167  1.00  0.00    -0.387 OA
HETATM   40  H43 UNL     1      -0.010  52.029 -16.620  1.00  0.00     0.210 HD
ENDBRANCH  37  39
BRANCH  37  41
HETATM   41  C31 UNL     1      -1.700  50.332 -16.860  1.00  0.00     0.011 C 
HETATM   42  C32 UNL     1      -2.960  50.810 -16.099  1.00  0.00     0.020 C 
BRANCH  41  43
HETATM   43  C33 UNL     1      -2.014  48.920 -17.433  1.00  0.00     0.176 C 
BRANCH  43  44
HETATM   44  O7  UNL     1      -2.926  48.232 -16.575  1.00  0.00    -0.400 OA
HETATM   45  H49 UNL     1      -3.352  47.540 -17.118  1.00  0.00     0.209 HD
ENDBRANCH  43  44
ENDBRANCH  41  43
BRANCH  41  46
HETATM   46  C34 UNL     1      -1.406  51.326 -18.037  1.00  0.00     0.019 C 
BRANCH  46  47
HETATM   47  C35 UNL     1      -0.921  50.710 -19.359  1.00  0.00     0.039 C 
BRANCH  47  48
HETATM   48  C36 UNL     1      -0.167  51.744 -20.170  1.00  0.00    -0.054 A 
HETATM   49  C37 UNL     1       0.411  52.852 -19.546  1.00  0.00     0.024 A 
HETATM   50  C38 UNL     1       1.049  53.811 -20.318  1.00  0.00     0.090 A 
HETATM   51  N1  UNL     1       1.103  53.658 -21.646  1.00  0.00    -0.357 N 
HETATM   52  C39 UNL     1       0.563  52.621 -22.289  1.00  0.00     0.077 A 
HETATM   53  H56 UNL     1       1.555  54.355 -22.232  1.00  0.00     0.166 HD
HETATM   54  C40 UNL     1      -0.089  51.635 -21.563  1.00  0.00     0.049 A 
BRANCH  52  55
HETATM   55  N2  UNL     1       0.680  52.605 -23.671  1.00  0.00    -0.289 NA
HETATM   56  H57 UNL     1       1.127  51.738 -23.983  1.00  0.00     0.125 HD
HETATM   57  H58 UNL     1      -0.243  52.587 -24.111  1.00  0.00     0.125 HD
ENDBRANCH  52  55
ENDBRANCH  47  48
ENDBRANCH  46  47
ENDBRANCH  41  46
ENDBRANCH  37  41
ENDBRANCH  36  37
ENDBRANCH   6  34
TORSDOF 13
ENDMDL
MODEL 4
REMARK minimizedAffinity -10.367507
REMARK CNNscore 0.32085079
REMARK CNNaffinity 7.51108313
REMARK  13 active torsions:
REMARK  status: ('A' for Active; 'I' for Inactive)
REMARK    1  A    between atoms: C5_6  and  C6_7 
REMARK    2  A    between atoms: C5_6  and  C27_31 
REMARK    3  A    between atoms: C18_19  and  O2_20 
REMARK    4  A    between atoms: C23_25  and  O3_26 
REMARK    5  A    between atoms: C28_33  and  C29_34 
REMARK    6  A    between atoms: C29_34  and  O6_36 
REMARK    7  A    between atoms: C29_34  and  C31_37 
REMARK    8  A    between atoms: C31_37  and  C33_39 
REMARK    9  A    between atoms: C31_37  and  C34_41 
REMARK   10  A    between atoms: C33_39  and  O7_40 
REMARK   11  A    between atoms: C34_41  and  C35_42 
REMARK   12  A    between atoms: C35_42  and  C36_43 
REMARK   13  A    between atoms: C39_47  and  N2_48 
ROOT
HETATM    1  C1  UNL     1      -8.469  48.845 -18.121  1.00  0.00     0.010 C 
HETATM    2  C2  UNL     1      -7.762  48.263 -19.348  1.00  0.00    -0.014 C 
HETATM    3  C3  UNL     1      -7.608  46.740 -19.227  1.00  0.00     0.030 C 
HETATM    4  C4  UNL     1      -6.154  46.299 -19.349  1.00  0.00     0.169 C 
HETATM    5  O1  UNL     1      -5.563  46.822 -20.534  1.00  0.00    -0.377 OA
HETATM    6  C5  UNL     1      -5.503  48.274 -20.623  1.00  0.00     0.094 C 
HETATM    7  C41 UNL     1      -6.404  48.932 -19.547  1.00  0.00     0.045 C 
ENDROOT
BRANCH   6   8
HETATM    8  C6  UNL     1      -5.799  48.563 -22.139  1.00  0.00     0.035 C 
HETATM    9  C7  UNL     1      -4.528  48.767 -23.062  1.00  0.00     0.016 C 
HETATM   10  C8  UNL     1      -4.925  48.199 -24.433  1.00  0.00     0.026 C 
HETATM   11  C9  UNL     1      -4.361  48.790 -25.710  1.00  0.00     0.013 C 
HETATM   12  C18 UNL     1      -6.442  48.339 -24.406  1.00  0.00     0.094 C 
HETATM   13  C10 UNL     1      -5.008  48.067 -26.919  1.00  0.00     0.043 C 
HETATM   14  C11 UNL     1      -6.477  47.687 -26.754  1.00  0.00    -0.006 C 
HETATM   15  C12 UNL     1      -7.151  47.791 -25.591  1.00  0.00    -0.030 C 
HETATM   16  C26 UNL     1      -7.209  47.292 -27.990  1.00  0.00     0.161 C 
HETATM   17  C13 UNL     1      -8.641  47.576 -25.423  1.00  0.00     0.027 C 
HETATM   18  C14 UNL     1      -9.102  47.266 -23.958  1.00  0.00     0.011 C 
HETATM   19  C19 UNL     1      -9.211  46.567 -26.483  1.00  0.00    -0.026 C 
HETATM   20  C15 UNL     1      -8.295  47.948 -22.828  1.00  0.00     0.014 C 
HETATM   21  C16 UNL     1      -6.787  47.721 -23.030  1.00  0.00    -0.002 C 
HETATM   22  C17 UNL     1      -6.495  46.200 -22.972  1.00  0.00     0.019 C 
HETATM   23  C20 UNL     1      -8.777  45.108 -26.176  1.00  0.00     0.016 C 
HETATM   24  C21 UNL     1     -10.769  46.636 -26.445  1.00  0.00     0.013 C 
HETATM   25  C25 UNL     1      -8.683  46.901 -27.914  1.00  0.00     0.071 C 
HETATM   26  C22 UNL     1     -11.401  46.368 -27.806  1.00  0.00     0.032 C 
HETATM   27  C23 UNL     1     -10.968  47.409 -28.844  1.00  0.00     0.119 C 
HETATM   28  C24 UNL     1      -9.558  47.956 -28.599  1.00  0.00     0.045 C 
HETATM   29  O4  UNL     1      -6.615  47.313 -29.067  1.00  0.00    -0.292 OA
BRANCH  27  30
HETATM   30  O3  UNL     1     -10.995  46.792 -30.128  1.00  0.00    -0.396 OA
HETATM   31  H34 UNL     1     -11.916  46.544 -30.324  1.00  0.00     0.210 HD
ENDBRANCH  27  30
BRANCH  12  32
HETATM   32  O2  UNL     1      -6.794  49.739 -24.402  1.00  0.00    -0.384 OA
HETATM   33  H25 UNL     1      -6.619  50.094 -25.289  1.00  0.00     0.211 HD
ENDBRANCH  12  32
ENDBRANCH   6   8
BRANCH   6  34
HETATM   34  C27 UNL     1      -4.069  48.727 -20.326  1.00  0.00     0.189 A 
HETATM   35  O5  UNL     1      -3.949  50.020 -19.708  1.00  0.00    -0.369 OA
HETATM   36  C28 UNL     1      -3.553  48.896 -18.909  1.00  0.00     0.189 A 
BRANCH  36  37
HETATM   37  C29 UNL     1      -2.089  48.878 -18.493  1.00  0.00     0.092 C 
HETATM   38  C30 UNL     1      -1.156  48.631 -19.692  1.00  0.00     0.049 C 
BRANCH  37  39
HETATM   39  O6  UNL     1      -1.940  47.701 -17.683  1.00  0.00    -0.387 OA
HETATM   40  H43 UNL     1      -1.969  47.974 -16.742  1.00  0.00     0.210 HD
ENDBRANCH  37  39
BRANCH  37  41
HETATM   41  C31 UNL     1      -1.678  50.185 -17.650  1.00  0.00     0.011 C 
HETATM   42  C32 UNL     1      -0.311  49.990 -16.951  1.00  0.00     0.020 C 
BRANCH  41  43
HETATM   43  C33 UNL     1      -2.733  50.443 -16.537  1.00  0.00     0.176 C 
BRANCH  43  44
HETATM   44  O7  UNL     1      -2.102  50.983 -15.374  1.00  0.00    -0.400 OA
HETATM   45  H49 UNL     1      -2.799  51.440 -14.865  1.00  0.00     0.209 HD
ENDBRANCH  43  44
ENDBRANCH  41  43
BRANCH  41  46
HETATM   46  C34 UNL     1      -1.594  51.431 -18.598  1.00  0.00     0.019 C 
BRANCH  46  47
HETATM   47  C35 UNL     1      -0.250  52.175 -18.647  1.00  0.00     0.039 C 
BRANCH  47  48
HETATM   48  C36 UNL     1       0.086  52.552 -20.075  1.00  0.00    -0.054 A 
HETATM   49  C37 UNL     1      -0.380  51.779 -21.141  1.00  0.00     0.024 A 
HETATM   50  C38 UNL     1      -0.013  52.116 -22.435  1.00  0.00     0.090 A 
HETATM   51  N1  UNL     1       0.780  53.174 -22.641  1.00  0.00    -0.357 N 
HETATM   52  C39 UNL     1       1.254  53.939 -21.657  1.00  0.00     0.077 A 
HETATM   53  H56 UNL     1       1.071  53.431 -23.580  1.00  0.00     0.166 HD
HETATM   54  C40 UNL     1       0.919  53.645 -20.344  1.00  0.00     0.049 A 
BRANCH  52  55
HETATM   55  N2  UNL     1       2.081  54.993 -22.019  1.00  0.00    -0.289 NA
HETATM   56  H57 UNL     1       1.713  55.878 -21.657  1.00  0.00     0.125 HD
HETATM   57  H58 UNL     1       2.998  54.900 -21.576  1.00  0.00     0.125 HD
ENDBRANCH  52  55
ENDBRANCH  47  48
ENDBRANCH  46  47
ENDBRANCH  41  46
ENDBRANCH  37  41
ENDBRANCH  36  37
ENDBRANCH   6  34
TORSDOF 13
ENDMDL
MODEL 5
REMARK minimizedAffinity -8.74227142
REMARK CNNscore 0.278432369
REMARK CNNaffinity 6.23362923
REMARK  13 active torsions:
REMARK  status: ('A' for Active; 'I' for Inactive)
REMARK    1  A    between atoms: C5_6  and  C6_7 
REMARK    2  A    between atoms: C5_6  and  C27_31 
REMARK    3  A    between atoms: C18_19  and  O2_20 
REMARK    4  A    between atoms: C23_25  and  O3_26 
REMARK    5  A    between atoms: C28_33  and  C29_34 
REMARK    6  A    between atoms: C29_34  and  O6_36 
REMARK    7  A    between atoms: C29_34  and  C31_37 
REMARK    8  A    between atoms: C31_37  and  C33_39 
REMARK    9  A    between atoms: C31_37  and  C34_41 
REMARK   10  A    between atoms: C33_39  and  O7_40 
REMARK   11  A    between atoms: C34_41  and  C35_42 
REMARK   12  A    between atoms: C35_42  and  C36_43 
REMARK   13  A    between atoms: C39_47  and  N2_48 
ROOT
HETATM    1  C1  UNL     1      -8.509  46.324 -22.308  1.00  0.00     0.010 C 
HETATM    2  C2  UNL     1      -9.343  45.963 -23.540  1.00  0.00    -0.014 C 
HETATM    3  C3  UNL     1      -8.881  44.633 -24.151  1.00  0.00     0.030 C 
HETATM    4  C4  UNL     1      -8.495  44.778 -25.618  1.00  0.00     0.169 C 
HETATM    5  O1  UNL     1      -9.544  45.392 -26.360  1.00  0.00    -0.377 OA
HETATM    6  C5  UNL     1      -9.902  46.743 -25.951  1.00  0.00     0.094 C 
HETATM    7  C41 UNL     1      -9.279  47.086 -24.573  1.00  0.00     0.045 C 
ENDROOT
BRANCH   6   8
HETATM    8  C6  UNL     1     -11.465  46.772 -26.104  1.00  0.00     0.035 C 
HETATM    9  C7  UNL     1     -12.020  46.468 -27.556  1.00  0.00     0.016 C 
HETATM   10  C8  UNL     1     -13.355  45.740 -27.336  1.00  0.00     0.026 C 
HETATM   11  C9  UNL     1     -14.496  45.898 -28.323  1.00  0.00     0.013 C 
HETATM   12  C18 UNL     1     -13.768  46.243 -25.959  1.00  0.00     0.094 C 
HETATM   13  C10 UNL     1     -15.724  45.118 -27.790  1.00  0.00     0.043 C 
HETATM   14  C11 UNL     1     -15.921  45.146 -26.277  1.00  0.00    -0.006 C 
HETATM   15  C12 UNL     1     -15.015  45.648 -25.413  1.00  0.00    -0.030 C 
HETATM   16  C26 UNL     1     -17.244  44.690 -25.764  1.00  0.00     0.161 C 
HETATM   17  C13 UNL     1     -15.237  45.838 -23.927  1.00  0.00     0.027 C 
HETATM   18  C14 UNL     1     -13.928  45.960 -23.074  1.00  0.00     0.011 C 
HETATM   19  C19 UNL     1     -16.263  44.799 -23.350  1.00  0.00    -0.026 C 
HETATM   20  C15 UNL     1     -12.725  46.647 -23.762  1.00  0.00     0.014 C 
HETATM   21  C16 UNL     1     -12.469  46.027 -25.147  1.00  0.00    -0.002 C 
HETATM   22  C17 UNL     1     -12.123  44.527 -24.969  1.00  0.00     0.019 C 
HETATM   23  C20 UNL     1     -15.649  43.375 -23.266  1.00  0.00     0.016 C 
HETATM   24  C21 UNL     1     -16.667  45.247 -21.911  1.00  0.00     0.013 C 
HETATM   25  C25 UNL     1     -17.524  44.690 -24.263  1.00  0.00     0.071 C 
HETATM   26  C22 UNL     1     -18.098  44.863 -21.557  1.00  0.00     0.032 C 
HETATM   27  C23 UNL     1     -19.110  45.529 -22.495  1.00  0.00     0.119 C 
HETATM   28  C24 UNL     1     -18.564  45.759 -23.908  1.00  0.00     0.045 C 
HETATM   29  O4  UNL     1     -18.107  44.343 -26.569  1.00  0.00    -0.292 OA
BRANCH  27  30
HETATM   30  O3  UNL     1     -20.253  44.684 -22.586  1.00  0.00    -0.396 OA
HETATM   31  H34 UNL     1     -20.660  44.630 -21.704  1.00  0.00     0.210 HD
ENDBRANCH  27  30
BRANCH  12  32
HETATM   32  O2  UNL     1     -14.056  47.656 -26.032  1.00  0.00    -0.384 OA
HETATM   33  H25 UNL     1     -14.900  47.766 -26.499  1.00  0.00     0.211 HD
ENDBRANCH  12  32
ENDBRANCH   6   8
BRANCH   6  34
HETATM   34  C27 UNL     1      -9.308  47.736 -26.956  1.00  0.00     0.189 A 
HETATM   35  O5  UNL     1      -7.881  47.895 -26.893  1.00  0.00    -0.369 OA
HETATM   36  C28 UNL     1      -8.400  47.293 -28.088  1.00  0.00     0.189 A 
BRANCH  36  37
HETATM   37  C29 UNL     1      -8.143  48.071 -29.371  1.00  0.00     0.092 C 
HETATM   38  C30 UNL     1      -6.638  48.224 -29.655  1.00  0.00     0.049 C 
BRANCH  37  39
HETATM   39  O6  UNL     1      -8.588  49.409 -29.099  1.00  0.00    -0.387 OA
HETATM   40  H43 UNL     1      -9.483  49.515 -29.482  1.00  0.00     0.210 HD
ENDBRANCH  37  39
BRANCH  37  41
HETATM   41  C31 UNL     1      -8.948  47.464 -30.624  1.00  0.00     0.011 C 
HETATM   42  C32 UNL     1     -10.459  47.785 -30.524  1.00  0.00     0.020 C 
BRANCH  41  43
HETATM   43  C33 UNL     1      -8.805  45.916 -30.639  1.00  0.00     0.176 C 
BRANCH  43  44
HETATM   44  O7  UNL     1      -9.531  45.343 -29.549  1.00  0.00    -0.400 OA
HETATM   45  H49 UNL     1      -9.704  44.412 -29.789  1.00  0.00     0.209 HD
ENDBRANCH  43  44
ENDBRANCH  41  43
BRANCH  41  46
HETATM   46  C34 UNL     1      -8.387  48.060 -31.962  1.00  0.00     0.019 C 
BRANCH  46  47
HETATM   47  C35 UNL     1      -7.948  47.053 -33.037  1.00  0.00     0.039 C 
BRANCH  47  48
HETATM   48  C36 UNL     1      -6.436  46.978 -33.093  1.00  0.00    -0.054 A 
HETATM   49  C37 UNL     1      -5.752  45.942 -32.451  1.00  0.00     0.024 A 
HETATM   50  C38 UNL     1      -4.366  45.926 -32.473  1.00  0.00     0.090 A 
HETATM   51  N1  UNL     1      -3.706  46.902 -33.109  1.00  0.00    -0.357 N 
HETATM   52  C39 UNL     1      -4.313  47.913 -33.732  1.00  0.00     0.077 A 
HETATM   53  H56 UNL     1      -2.691  46.916 -33.127  1.00  0.00     0.166 HD
HETATM   54  C40 UNL     1      -5.698  47.977 -33.738  1.00  0.00     0.049 A 
BRANCH  52  55
HETATM   55  N2  UNL     1      -3.499  48.863 -34.333  1.00  0.00    -0.289 NA
HETATM   56  H57 UNL     1      -3.734  48.959 -35.325  1.00  0.00     0.125 HD
HETATM   57  H58 UNL     1      -3.675  49.790 -33.939  1.00  0.00     0.125 HD
ENDBRANCH  52  55
ENDBRANCH  47  48
ENDBRANCH  46  47
ENDBRANCH  41  46
ENDBRANCH  37  41
ENDBRANCH  36  37
ENDBRANCH   6  34
TORSDOF 13
ENDMDL
MODEL 6
REMARK minimizedAffinity -9.63263988
REMARK CNNscore 0.233653784
REMARK CNNaffinity 7.11461973
REMARK  13 active torsions:
REMARK  status: ('A' for Active; 'I' for Inactive)
REMARK    1  A    between atoms: C5_6  and  C6_7 
REMARK    2  A    between atoms: C5_6  and  C27_31 
REMARK    3  A    between atoms: C18_19  and  O2_20 
REMARK    4  A    between atoms: C23_25  and  O3_26 
REMARK    5  A    between atoms: C28_33  and  C29_34 
REMARK    6  A    between atoms: C29_34  and  O6_36 
REMARK    7  A    between atoms: C29_34  and  C31_37 
REMARK    8  A    between atoms: C31_37  and  C33_39 
REMARK    9  A    between atoms: C31_37  and  C34_41 
REMARK   10  A    between atoms: C33_39  and  O7_40 
REMARK   11  A    between atoms: C34_41  and  C35_42 
REMARK   12  A    between atoms: C35_42  and  C36_43 
REMARK   13  A    between atoms: C39_47  and  N2_48 
ROOT
HETATM    1  C1  UNL     1      -2.561  48.538 -26.515  1.00  0.00     0.010 C 
HETATM    2  C2  UNL     1      -3.736  49.054 -25.681  1.00  0.00    -0.014 C 
HETATM    3  C3  UNL     1      -3.771  50.588 -25.663  1.00  0.00     0.030 C 
HETATM    4  C4  UNL     1      -3.739  51.147 -24.246  1.00  0.00     0.169 C 
HETATM    5  O1  UNL     1      -4.761  50.562 -23.446  1.00  0.00    -0.377 OA
HETATM    6  C5  UNL     1      -4.674  49.120 -23.262  1.00  0.00     0.094 C 
HETATM    7  C41 UNL     1      -3.665  48.496 -24.261  1.00  0.00     0.045 C 
ENDROOT
BRANCH   6   8
HETATM    8  C6  UNL     1      -6.172  48.651 -23.306  1.00  0.00     0.035 C 
HETATM    9  C7  UNL     1      -6.546  47.648 -24.473  1.00  0.00     0.016 C 
HETATM   10  C8  UNL     1      -7.631  46.731 -23.889  1.00  0.00     0.026 C 
HETATM   11  C9  UNL     1      -8.720  46.156 -24.775  1.00  0.00     0.013 C 
HETATM   12  C18 UNL     1      -8.238  47.609 -22.803  1.00  0.00     0.094 C 
HETATM   13  C10 UNL     1      -9.704  45.349 -23.891  1.00  0.00     0.043 C 
HETATM   14  C11 UNL     1      -9.976  45.927 -22.505  1.00  0.00    -0.006 C 
HETATM   15  C12 UNL     1      -9.293  46.963 -21.979  1.00  0.00    -0.030 C 
HETATM   16  C26 UNL     1     -11.141  45.369 -21.763  1.00  0.00     0.161 C 
HETATM   17  C13 UNL     1      -9.633  47.666 -20.681  1.00  0.00     0.027 C 
HETATM   18  C14 UNL     1      -8.455  48.478 -20.041  1.00  0.00     0.011 C 
HETATM   19  C19 UNL     1     -10.352  46.706 -19.667  1.00  0.00    -0.026 C 
HETATM   20  C15 UNL     1      -7.462  49.134 -21.027  1.00  0.00     0.014 C 
HETATM   21  C16 UNL     1      -6.972  48.107 -22.064  1.00  0.00    -0.002 C 
HETATM   22  C17 UNL     1      -6.228  46.966 -21.327  1.00  0.00     0.019 C 
HETATM   23  C20 UNL     1      -9.367  45.668 -19.065  1.00  0.00     0.016 C 
HETATM   24  C21 UNL     1     -10.937  47.563 -18.503  1.00  0.00     0.013 C 
HETATM   25  C25 UNL     1     -11.485  45.894 -20.372  1.00  0.00     0.071 C 
HETATM   26  C22 UNL     1     -12.219  46.973 -17.926  1.00  0.00     0.032 C 
HETATM   27  C23 UNL     1     -13.329  46.897 -18.979  1.00  0.00     0.119 C 
HETATM   28  C24 UNL     1     -12.800  46.682 -20.401  1.00  0.00     0.045 C 
HETATM   29  O4  UNL     1     -11.830  44.503 -22.301  1.00  0.00    -0.292 OA
BRANCH  27  30
HETATM   30  O3  UNL     1     -14.182  45.806 -18.646  1.00  0.00    -0.396 OA
HETATM   31  H34 UNL     1     -14.601  46.001 -17.789  1.00  0.00     0.210 HD
ENDBRANCH  27  30
BRANCH  12  32
HETATM   32  O2  UNL     1      -8.907  48.733 -23.413  1.00  0.00    -0.384 OA
HETATM   33  H25 UNL     1      -9.724  48.408 -23.825  1.00  0.00     0.211 HD
ENDBRANCH  12  32
ENDBRANCH   6   8
BRANCH   6  34
HETATM   34  C27 UNL     1      -4.129  48.835 -21.858  1.00  0.00     0.189 A 
HETATM   35  O5  UNL     1      -3.155  47.780 -21.780  1.00  0.00    -0.369 OA
HETATM   36  C28 UNL     1      -2.683  49.102 -21.484  1.00  0.00     0.189 A 
BRANCH  36  37
HETATM   37  C29 UNL     1      -2.158  49.303 -20.069  1.00  0.00     0.092 C 
HETATM   38  C30 UNL     1      -1.027  48.315 -19.733  1.00  0.00     0.049 C 
BRANCH  37  39
HETATM   39  O6  UNL     1      -3.237  48.909 -19.205  1.00  0.00    -0.387 OA
HETATM   40  H43 UNL     1      -3.698  49.720 -18.906  1.00  0.00     0.210 HD
ENDBRANCH  37  39
BRANCH  37  41
HETATM   41  C31 UNL     1      -1.750  50.831 -19.781  1.00  0.00     0.011 C 
HETATM   42  C32 UNL     1      -0.562  50.914 -18.791  1.00  0.00     0.020 C 
BRANCH  41  43
HETATM   43  C33 UNL     1      -2.947  51.579 -19.129  1.00  0.00     0.176 C 
BRANCH  43  44
HETATM   44  O7  UNL     1      -2.917  51.416 -17.710  1.00  0.00    -0.400 OA
HETATM   45  H49 UNL     1      -3.440  52.151 -17.333  1.00  0.00     0.209 HD
ENDBRANCH  43  44
ENDBRANCH  41  43
BRANCH  41  46
HETATM   46  C34 UNL     1      -1.349  51.542 -21.121  1.00  0.00     0.019 C 
BRANCH  46  47
HETATM   47  C35 UNL     1       0.105  51.369 -21.587  1.00  0.00     0.039 C 
BRANCH  47  48
HETATM   48  C36 UNL     1       0.562  52.602 -22.338  1.00  0.00    -0.054 A 
HETATM   49  C37 UNL     1       1.305  53.593 -21.690  1.00  0.00     0.024 A 
HETATM   50  C38 UNL     1       1.664  54.737 -22.386  1.00  0.00     0.090 A 
HETATM   51  N1  UNL     1       1.295  54.874 -23.665  1.00  0.00    -0.357 N 
HETATM   52  C39 UNL     1       0.583  53.959 -24.325  1.00  0.00     0.077 A 
HETATM   53  H56 UNL     1       1.538  55.709 -24.190  1.00  0.00     0.166 HD
HETATM   54  C40 UNL     1       0.196  52.797 -23.675  1.00  0.00     0.049 A 
BRANCH  52  55
HETATM   55  N2  UNL     1       0.256  54.244 -25.644  1.00  0.00    -0.289 NA
HETATM   56  H57 UNL     1       0.584  53.498 -26.263  1.00  0.00     0.125 HD
HETATM   57  H58 UNL     1      -0.758  54.253 -25.770  1.00  0.00     0.125 HD
ENDBRANCH  52  55
ENDBRANCH  47  48
ENDBRANCH  46  47
ENDBRANCH  41  46
ENDBRANCH  37  41
ENDBRANCH  36  37
ENDBRANCH   6  34
TORSDOF 13
ENDMDL
MODEL 7
REMARK minimizedAffinity -8.8699398
REMARK CNNscore 0.213381439
REMARK CNNaffinity 6.6779747
REMARK  13 active torsions:
REMARK  status: ('A' for Active; 'I' for Inactive)
REMARK    1  A    between atoms: C5_6  and  C6_7 
REMARK    2  A    between atoms: C5_6  and  C27_31 
REMARK    3  A    between atoms: C18_19  and  O2_20 
REMARK    4  A    between atoms: C23_25  and  O3_26 
REMARK    5  A    between atoms: C28_33  and  C29_34 
REMARK    6  A    between atoms: C29_34  and  O6_36 
REMARK    7  A    between atoms: C29_34  and  C31_37 
REMARK    8  A    between atoms: C31_37  and  C33_39 
REMARK    9  A    between atoms: C31_37  and  C34_41 
REMARK   10  A    between atoms: C33_39  and  O7_40 
REMARK   11  A    between atoms: C34_41  and  C35_42 
REMARK   12  A    between atoms: C35_42  and  C36_43 
REMARK   13  A    between atoms: C39_47  and  N2_48 
ROOT
HETATM    1  C1  UNL     1       1.480  51.888 -21.719  1.00  0.00     0.010 C 
HETATM    2  C2  UNL     1       0.082  52.030 -21.111  1.00  0.00    -0.014 C 
HETATM    3  C3  UNL     1      -0.014  53.285 -20.232  1.00  0.00     0.030 C 
HETATM    4  C4  UNL     1      -0.454  52.957 -18.810  1.00  0.00     0.169 C 
HETATM    5  O1  UNL     1      -1.654  52.192 -18.814  1.00  0.00    -0.377 OA
HETATM    6  C5  UNL     1      -1.575  50.894 -19.470  1.00  0.00     0.094 C 
HETATM    7  C41 UNL     1      -0.279  50.779 -20.313  1.00  0.00     0.045 C 
ENDROOT
BRANCH   6   8
HETATM    8  C6  UNL     1      -2.964  50.761 -20.192  1.00  0.00     0.035 C 
HETATM    9  C7  UNL     1      -3.062  51.429 -21.624  1.00  0.00     0.016 C 
HETATM   10  C8  UNL     1      -4.023  50.537 -22.425  1.00  0.00     0.026 C 
HETATM   11  C9  UNL     1      -4.919  51.127 -23.496  1.00  0.00     0.013 C 
HETATM   12  C18 UNL     1      -4.859  49.902 -21.322  1.00  0.00     0.094 C 
HETATM   13  C10 UNL     1      -5.824  50.003 -24.060  1.00  0.00     0.043 C 
HETATM   14  C11 UNL     1      -6.307  48.971 -23.046  1.00  0.00    -0.006 C 
HETATM   15  C12 UNL     1      -5.856  48.899 -21.778  1.00  0.00    -0.030 C 
HETATM   16  C26 UNL     1      -7.420  48.078 -23.476  1.00  0.00     0.161 C 
HETATM   17  C13 UNL     1      -6.420  47.997 -20.699  1.00  0.00     0.027 C 
HETATM   18  C14 UNL     1      -5.455  47.726 -19.494  1.00  0.00     0.011 C 
HETATM   19  C19 UNL     1      -7.051  46.691 -21.299  1.00  0.00    -0.026 C 
HETATM   20  C15 UNL     1      -4.506  48.883 -19.104  1.00  0.00     0.014 C 
HETATM   21  C16 UNL     1      -3.764  49.413 -20.343  1.00  0.00    -0.002 C 
HETATM   22  C17 UNL     1      -2.903  48.271 -20.940  1.00  0.00     0.019 C 
HETATM   23  C20 UNL     1      -5.960  45.711 -21.810  1.00  0.00     0.016 C 
HETATM   24  C21 UNL     1      -7.870  45.976 -20.180  1.00  0.00     0.013 C 
HETATM   25  C25 UNL     1      -7.966  47.020 -22.521  1.00  0.00     0.071 C 
HETATM   26  C22 UNL     1      -9.078  45.224 -20.726  1.00  0.00     0.032 C 
HETATM   27  C23 UNL     1     -10.065  46.169 -21.419  1.00  0.00     0.119 C 
HETATM   28  C24 UNL     1      -9.387  47.378 -22.073  1.00  0.00     0.045 C 
HETATM   29  O4  UNL     1      -7.905  48.229 -24.597  1.00  0.00    -0.292 OA
BRANCH  27  30
HETATM   30  O3  UNL     1     -10.747  45.433 -22.431  1.00  0.00    -0.396 OA
HETATM   31  H34 UNL     1     -11.264  44.732 -21.997  1.00  0.00     0.210 HD
ENDBRANCH  27  30
BRANCH  12  32
HETATM   32  O2  UNL     1      -5.654  50.920 -20.677  1.00  0.00    -0.384 OA
HETATM   33  H25 UNL     1      -6.366  51.175 -21.286  1.00  0.00     0.211 HD
ENDBRANCH  12  32
ENDBRANCH   6   8
BRANCH   6  34
HETATM   34  C27 UNL     1      -1.494  49.804 -18.396  1.00  0.00     0.189 A 
HETATM   35  O5  UNL     1      -0.268  49.771 -17.644  1.00  0.00    -0.369 OA
HETATM   36  C28 UNL     1      -1.450  50.131 -16.914  1.00  0.00     0.189 A 
BRANCH  36  37
HETATM   37  C29 UNL     1      -1.831  49.181 -15.788  1.00  0.00     0.092 C 
HETATM   38  C30 UNL     1      -2.044  47.744 -16.297  1.00  0.00     0.049 C 
BRANCH  37  39
HETATM   39  O6  UNL     1      -3.139  49.600 -15.364  1.00  0.00    -0.387 OA
HETATM   40  H43 UNL     1      -3.035  50.151 -14.560  1.00  0.00     0.210 HD
ENDBRANCH  37  39
BRANCH  37  41
HETATM   41  C31 UNL     1      -0.802  49.253 -14.554  1.00  0.00     0.011 C 
HETATM   42  C32 UNL     1       0.086  50.518 -14.642  1.00  0.00     0.020 C 
BRANCH  41  43
HETATM   43  C33 UNL     1       0.145  48.020 -14.590  1.00  0.00     0.176 C 
BRANCH  43  44
HETATM   44  O7  UNL     1       1.008  48.094 -15.727  1.00  0.00    -0.400 OA
HETATM   45  H49 UNL     1       1.780  47.529 -15.529  1.00  0.00     0.209 HD
ENDBRANCH  43  44
ENDBRANCH  41  43
BRANCH  41  46
HETATM   46  C34 UNL     1      -1.590  49.275 -13.198  1.00  0.00     0.019 C 
BRANCH  46  47
HETATM   47  C35 UNL     1      -1.081  50.242 -12.118  1.00  0.00     0.039 C 
BRANCH  47  48
HETATM   48  C36 UNL     1      -2.129  51.298 -11.829  1.00  0.00    -0.054 A 
HETATM   49  C37 UNL     1      -2.604  51.490 -10.530  1.00  0.00     0.024 A 
HETATM   50  C38 UNL     1      -3.601  52.426 -10.302  1.00  0.00     0.090 A 
HETATM   51  N1  UNL     1      -4.091  53.130 -11.329  1.00  0.00    -0.357 N 
HETATM   52  C39 UNL     1      -3.675  52.980 -12.587  1.00  0.00     0.077 A 
HETATM   53  H56 UNL     1      -4.831  53.812 -11.186  1.00  0.00     0.166 HD
HETATM   54  C40 UNL     1      -2.680  52.055 -12.869  1.00  0.00     0.049 A 
BRANCH  52  55
HETATM   55  N2  UNL     1      -4.288  53.766 -13.553  1.00  0.00    -0.289 NA
HETATM   56  H57 UNL     1      -3.589  54.309 -14.068  1.00  0.00     0.125 HD
HETATM   57  H58 UNL     1      -4.731  53.181 -14.265  1.00  0.00     0.125 HD
ENDBRANCH  52  55
ENDBRANCH  47  48
ENDBRANCH  46  47
ENDBRANCH  41  46
ENDBRANCH  37  41
ENDBRANCH  36  37
ENDBRANCH   6  34
TORSDOF 13
ENDMDL
MODEL 8
REMARK minimizedAffinity -9.11547756
REMARK CNNscore 0.212803006
REMARK CNNaffinity 6.5284667
REMARK  13 active torsions:
REMARK  status: ('A' for Active; 'I' for Inactive)
REMARK    1  A    between atoms: C5_6  and  C6_7 
REMARK    2  A    between atoms: C5_6  and  C27_31 
REMARK    3  A    between atoms: C18_19  and  O2_20 
REMARK    4  A    between atoms: C23_25  and  O3_26 
REMARK    5  A    between atoms: C28_33  and  C29_34 
REMARK    6  A    between atoms: C29_34  and  O6_36 
REMARK    7  A    between atoms: C29_34  and  C31_37 
REMARK    8  A    between atoms: C31_37  and  C33_39 
REMARK    9  A    between atoms: C31_37  and  C34_41 
REMARK   10  A    between atoms: C33_39  and  O7_40 
REMARK   11  A    between atoms: C34_41  and  C35_42 
REMARK   12  A    between atoms: C35_42  and  C36_43 
REMARK   13  A    between atoms: C39_47  and  N2_48 
ROOT
HETATM    1  C1  UNL     1      -8.942  43.919 -23.681  1.00  0.00     0.010 C 
HETATM    2  C2  UNL     1      -8.245  44.945 -22.783  1.00  0.00    -0.014 C 
HETATM    3  C3  UNL     1      -7.399  44.253 -21.705  1.00  0.00     0.030 C 
HETATM    4  C4  UNL     1      -7.794  44.688 -20.299  1.00  0.00     0.169 C 
HETATM    5  O1  UNL     1      -7.782  46.108 -20.185  1.00  0.00    -0.377 OA
HETATM    6  C5  UNL     1      -8.709  46.820 -21.051  1.00  0.00     0.094 C 
HETATM    7  C41 UNL     1      -9.272  45.882 -22.150  1.00  0.00     0.045 C 
ENDROOT
BRANCH   6   8
HETATM    8  C6  UNL     1      -7.903  48.096 -21.485  1.00  0.00     0.035 C 
HETATM    9  C7  UNL     1      -7.352  48.997 -20.305  1.00  0.00     0.016 C 
HETATM   10  C8  UNL     1      -6.025  49.575 -20.819  1.00  0.00     0.026 C 
HETATM   11  C9  UNL     1      -5.553  50.947 -20.378  1.00  0.00     0.013 C 
HETATM   12  C18 UNL     1      -6.229  49.543 -22.328  1.00  0.00     0.094 C 
HETATM   13  C10 UNL     1      -4.238  51.284 -21.125  1.00  0.00     0.043 C 
HETATM   14  C11 UNL     1      -4.154  50.799 -22.569  1.00  0.00    -0.006 C 
HETATM   15  C12 UNL     1      -5.060  49.977 -23.137  1.00  0.00    -0.030 C 
HETATM   16  C26 UNL     1      -3.064  51.373 -23.407  1.00  0.00     0.161 C 
HETATM   17  C13 UNL     1      -5.101  49.602 -24.604  1.00  0.00     0.027 C 
HETATM   18  C14 UNL     1      -5.900  48.293 -24.928  1.00  0.00     0.011 C 
HETATM   19  C19 UNL     1      -3.674  49.640 -25.258  1.00  0.00    -0.026 C 
HETATM   20  C15 UNL     1      -7.122  47.997 -24.029  1.00  0.00     0.014 C 
HETATM   21  C16 UNL     1      -6.736  48.097 -22.542  1.00  0.00    -0.002 C 
HETATM   22  C17 UNL     1      -5.650  47.035 -22.233  1.00  0.00     0.019 C 
HETATM   23  C20 UNL     1      -2.795  48.450 -24.785  1.00  0.00     0.016 C 
HETATM   24  C21 UNL     1      -3.836  49.548 -26.806  1.00  0.00     0.013 C 
HETATM   25  C25 UNL     1      -2.912  50.945 -24.864  1.00  0.00     0.071 C 
HETATM   26  C22 UNL     1      -2.748  50.307 -27.557  1.00  0.00     0.032 C 
HETATM   27  C23 UNL     1      -2.775  51.804 -27.228  1.00  0.00     0.119 C 
HETATM   28  C24 UNL     1      -3.263  52.102 -25.806  1.00  0.00     0.045 C 
HETATM   29  O4  UNL     1      -2.312  52.212 -22.912  1.00  0.00    -0.292 OA
BRANCH  27  30
HETATM   30  O3  UNL     1      -1.451  52.311 -27.366  1.00  0.00    -0.396 OA
HETATM   31  H34 UNL     1      -1.187  52.219 -28.298  1.00  0.00     0.210 HD
ENDBRANCH  27  30
BRANCH  12  32
HETATM   32  O2  UNL     1      -7.272  50.473 -22.691  1.00  0.00    -0.384 OA
HETATM   33  H25 UNL     1      -6.917  51.372 -22.600  1.00  0.00     0.211 HD
ENDBRANCH  12  32
ENDBRANCH   6   8
BRANCH   6  34
HETATM   34  C27 UNL     1      -9.910  47.280 -20.216  1.00  0.00     0.189 A 
HETATM   35  O5  UNL     1     -11.162  47.338 -20.920  1.00  0.00    -0.369 OA
HETATM   36  C28 UNL     1     -11.063  46.352 -19.881  1.00  0.00     0.189 A 
BRANCH  36  37
HETATM   37  C29 UNL     1     -12.033  46.530 -18.722  1.00  0.00     0.092 C 
HETATM   38  C30 UNL     1     -11.392  47.297 -17.552  1.00  0.00     0.049 C 
BRANCH  37  39
HETATM   39  O6  UNL     1     -12.248  45.209 -18.201  1.00  0.00    -0.387 OA
HETATM   40  H43 UNL     1     -13.095  44.874 -18.562  1.00  0.00     0.210 HD
ENDBRANCH  37  39
BRANCH  37  41
HETATM   41  C31 UNL     1     -13.431  47.174 -19.190  1.00  0.00     0.011 C 
HETATM   42  C32 UNL     1     -13.256  48.659 -19.587  1.00  0.00     0.020 C 
BRANCH  41  43
HETATM   43  C33 UNL     1     -14.448  47.127 -18.014  1.00  0.00     0.176 C 
BRANCH  43  44
HETATM   44  O7  UNL     1     -14.716  48.448 -17.541  1.00  0.00    -0.400 OA
HETATM   45  H49 UNL     1     -15.575  48.409 -17.076  1.00  0.00     0.209 HD
ENDBRANCH  43  44
ENDBRANCH  41  43
BRANCH  41  46
HETATM   46  C34 UNL     1     -14.004  46.381 -20.416  1.00  0.00     0.019 C 
BRANCH  46  47
HETATM   47  C35 UNL     1     -14.773  47.195 -21.468  1.00  0.00     0.039 C 
BRANCH  47  48
HETATM   48  C36 UNL     1     -16.167  46.629 -21.648  1.00  0.00    -0.054 A 
HETATM   49  C37 UNL     1     -16.571  46.121 -22.885  1.00  0.00     0.024 A 
HETATM   50  C38 UNL     1     -17.869  45.658 -23.038  1.00  0.00     0.090 A 
HETATM   51  N1  UNL     1     -18.712  45.705 -22.000  1.00  0.00    -0.357 N 
HETATM   52  C39 UNL     1     -18.375  46.185 -20.802  1.00  0.00     0.077 A 
HETATM   53  H56 UNL     1     -19.671  45.383 -22.094  1.00  0.00     0.166 HD
HETATM   54  C40 UNL     1     -17.089  46.663 -20.597  1.00  0.00     0.049 A 
BRANCH  52  55
HETATM   55  N2  UNL     1     -19.360  46.189 -19.823  1.00  0.00    -0.289 NA
HETATM   56  H57 UNL     1     -19.041  45.681 -18.993  1.00  0.00     0.125 HD
HETATM   57  H58 UNL     1     -19.532  47.140 -19.489  1.00  0.00     0.125 HD
ENDBRANCH  52  55
ENDBRANCH  47  48
ENDBRANCH  46  47
ENDBRANCH  41  46
ENDBRANCH  37  41
ENDBRANCH  36  37
ENDBRANCH   6  34
TORSDOF 13
ENDMDL
MODEL 9
REMARK minimizedAffinity -9.84697819
REMARK CNNscore 0.207477838
REMARK CNNaffinity 6.46607351
REMARK  13 active torsions:
REMARK  status: ('A' for Active; 'I' for Inactive)
REMARK    1  A    between atoms: C5_6  and  C6_7 
REMARK    2  A    between atoms: C5_6  and  C27_31 
REMARK    3  A    between atoms: C18_19  and  O2_20 
REMARK    4  A    between atoms: C23_25  and  O3_26 
REMARK    5  A    between atoms: C28_33  and  C29_34 
REMARK    6  A    between atoms: C29_34  and  O6_36 
REMARK    7  A    between atoms: C29_34  and  C31_37 
REMARK    8  A    between atoms: C31_37  and  C33_39 
REMARK    9  A    between atoms: C31_37  and  C34_41 
REMARK   10  A    between atoms: C33_39  and  O7_40 
REMARK   11  A    between atoms: C34_41  and  C35_42 
REMARK   12  A    between atoms: C35_42  and  C36_43 
REMARK   13  A    between atoms: C39_47  and  N2_48 
ROOT
HETATM    1  C1  UNL     1      -7.040  44.256 -29.181  1.00  0.00     0.010 C 
HETATM    2  C2  UNL     1      -7.917  45.497 -28.991  1.00  0.00    -0.014 C 
HETATM    3  C3  UNL     1      -7.440  46.652 -29.881  1.00  0.00     0.030 C 
HETATM    4  C4  UNL     1      -7.126  47.907 -29.074  1.00  0.00     0.169 C 
HETATM    5  O1  UNL     1      -8.227  48.266 -28.245  1.00  0.00    -0.377 OA
HETATM    6  C5  UNL     1      -8.609  47.283 -27.241  1.00  0.00     0.094 C 
HETATM    7  C41 UNL     1      -7.936  45.914 -27.522  1.00  0.00     0.045 C 
ENDROOT
BRANCH   6   8
HETATM    8  C6  UNL     1     -10.178  47.366 -27.223  1.00  0.00     0.035 C 
HETATM    9  C7  UNL     1     -10.898  47.103 -28.608  1.00  0.00     0.016 C 
HETATM   10  C8  UNL     1     -12.225  46.415 -28.253  1.00  0.00     0.026 C 
HETATM   11  C9  UNL     1     -13.461  46.626 -29.106  1.00  0.00     0.013 C 
HETATM   12  C18 UNL     1     -12.468  46.911 -26.833  1.00  0.00     0.094 C 
HETATM   13  C10 UNL     1     -14.650  45.878 -28.451  1.00  0.00     0.043 C 
HETATM   14  C11 UNL     1     -14.679  45.889 -26.926  1.00  0.00    -0.006 C 
HETATM   15  C12 UNL     1     -13.668  46.348 -26.160  1.00  0.00    -0.030 C 
HETATM   16  C26 UNL     1     -15.953  45.469 -26.276  1.00  0.00     0.161 C 
HETATM   17  C13 UNL     1     -13.720  46.523 -24.657  1.00  0.00     0.027 C 
HETATM   18  C14 UNL     1     -12.322  46.589 -23.951  1.00  0.00     0.011 C 
HETATM   19  C19 UNL     1     -14.712  45.509 -23.983  1.00  0.00    -0.026 C 
HETATM   20  C15 UNL     1     -11.179  47.246 -24.758  1.00  0.00     0.014 C 
HETATM   21  C16 UNL     1     -11.096  46.640 -26.170  1.00  0.00    -0.002 C 
HETATM   22  C17 UNL     1     -10.785  45.126 -26.049  1.00  0.00     0.019 C 
HETATM   23  C20 UNL     1     -14.141  44.065 -23.984  1.00  0.00     0.016 C 
HETATM   24  C21 UNL     1     -14.941  45.947 -22.504  1.00  0.00     0.013 C 
HETATM   25  C25 UNL     1     -16.068  45.456 -24.755  1.00  0.00     0.071 C 
HETATM   26  C22 UNL     1     -16.338  45.605 -22.000  1.00  0.00     0.032 C 
HETATM   27  C23 UNL     1     -17.422  46.318 -22.814  1.00  0.00     0.119 C 
HETATM   28  C24 UNL     1     -17.026  46.553 -24.275  1.00  0.00     0.045 C 
HETATM   29  O4  UNL     1     -16.910  45.164 -26.986  1.00  0.00    -0.292 OA
BRANCH  27  30
HETATM   30  O3  UNL     1     -18.597  45.512 -22.789  1.00  0.00    -0.396 OA
HETATM   31  H34 UNL     1     -18.907  45.458 -21.868  1.00  0.00     0.210 HD
ENDBRANCH  27  30
BRANCH  12  32
HETATM   32  O2  UNL     1     -12.714  48.333 -26.857  1.00  0.00    -0.384 OA
HETATM   33  H25 UNL     1     -13.599  48.478 -27.227  1.00  0.00     0.211 HD
ENDBRANCH  12  32
ENDBRANCH   6   8
BRANCH   6  34
HETATM   34  C27 UNL     1      -8.094  47.748 -25.875  1.00  0.00     0.189 A 
HETATM   35  O5  UNL     1      -7.427  46.742 -25.094  1.00  0.00    -0.369 OA
HETATM   36  C28 UNL     1      -6.613  47.830 -25.556  1.00  0.00     0.189 A 
BRANCH  36  37
HETATM   37  C29 UNL     1      -5.990  48.685 -24.461  1.00  0.00     0.092 C 
HETATM   38  C30 UNL     1      -6.236  48.091 -23.062  1.00  0.00     0.049 C 
BRANCH  37  39
HETATM   39  O6  UNL     1      -6.742  49.909 -24.461  1.00  0.00    -0.387 OA
HETATM   40  H43 UNL     1      -6.231  50.579 -24.961  1.00  0.00     0.210 HD
ENDBRANCH  37  39
BRANCH  37  41
HETATM   41  C31 UNL     1      -4.435  48.992 -24.737  1.00  0.00     0.011 C 
HETATM   42  C32 UNL     1      -3.960  48.326 -26.051  1.00  0.00     0.020 C 
BRANCH  41  43
HETATM   43  C33 UNL     1      -3.573  48.404 -23.583  1.00  0.00     0.176 C 
BRANCH  43  44
HETATM   44  O7  UNL     1      -3.056  49.458 -22.768  1.00  0.00    -0.400 OA
HETATM   45  H49 UNL     1      -2.836  49.060 -21.904  1.00  0.00     0.209 HD
ENDBRANCH  43  44
ENDBRANCH  41  43
BRANCH  41  46
HETATM   46  C34 UNL     1      -4.203  50.540 -24.835  1.00  0.00     0.019 C 
BRANCH  46  47
HETATM   47  C35 UNL     1      -3.352  51.038 -26.013  1.00  0.00     0.039 C 
BRANCH  47  48
HETATM   48  C36 UNL     1      -1.979  51.454 -25.525  1.00  0.00    -0.054 A 
HETATM   49  C37 UNL     1      -1.844  52.298 -24.420  1.00  0.00     0.024 A 
HETATM   50  C38 UNL     1      -0.579  52.707 -24.028  1.00  0.00     0.090 A 
HETATM   51  N1  UNL     1       0.492  52.285 -24.712  1.00  0.00    -0.357 N 
HETATM   52  C39 UNL     1       0.414  51.483 -25.775  1.00  0.00     0.077 A 
HETATM   53  H56 UNL     1       1.427  52.582 -24.448  1.00  0.00     0.166 HD
HETATM   54  C40 UNL     1      -0.828  51.048 -26.210  1.00  0.00     0.049 A 
BRANCH  52  55
HETATM   55  N2  UNL     1       1.607  51.143 -26.397  1.00  0.00    -0.289 NA
HETATM   56  H57 UNL     1       1.709  50.125 -26.443  1.00  0.00     0.125 HD
HETATM   57  H58 UNL     1       1.603  51.443 -27.374  1.00  0.00     0.125 HD
ENDBRANCH  52  55
ENDBRANCH  47  48
ENDBRANCH  46  47
ENDBRANCH  41  46
ENDBRANCH  37  41
ENDBRANCH  36  37
ENDBRANCH   6  34
TORSDOF 13
ENDMDL
