MODEL 1
REMARK minimizedAffinity -8.05221748
REMARK CNNscore 0.322205156
REMARK CNNaffinity 6.74634695
REMARK  19 active torsions:
REMARK  status: ('A' for Active; 'I' for Inactive)
REMARK    1  A    between atoms: O1_2  and  C2_3 
REMARK    2  A    between atoms: C2_3  and  C3_4 
REMARK    3  A    between atoms: C2_3  and  C28_36 
REMARK    4  A    between atoms: C3_4  and  C4_5 
REMARK    5  A    between atoms: C4_5  and  C6_7 
REMARK    6  A    between atoms: C6_7  and  O2_8 
REMARK    7  A    between atoms: C6_7  and  C7_9 
REMARK    8  A    between atoms: C8_10  and  C9_11 
REMARK    9  A    between atoms: C10_12  and  C11_13 
REMARK   10  A    between atoms: C11_13  and  N1_14 
REMARK       I    between atoms: N1_14  and  C12_15 
REMARK   11  A    between atoms: C12_15  and  C13_17 
REMARK   12  A    between atoms: C13_17  and  C16_20 
REMARK   13  A    between atoms: C16_20  and  O4_21 
REMARK   14  A    between atoms: C16_20  and  C17_22 
REMARK   15  A    between atoms: C19_24  and  C20_25 
REMARK   16  A    between atoms: C21_26  and  C22_27 
REMARK   17  A    between atoms: C23_28  and  C24_29 
REMARK   18  A    between atoms: C26_31  and  N2_33 
REMARK   19  A    between atoms: C28_36  and  O7_37 
ROOT
HETATM    1  C9  UNL     1      -8.797   6.298  13.109  1.00  0.00    -0.003 C 
HETATM    2  C10 UNL     1      -8.197   5.144  13.449  1.00  0.00    -0.007 C 
ENDROOT
BRANCH   1   3
HETATM    3  C8  UNL     1      -9.924   6.829  13.842  1.00  0.00    -0.002 C 
HETATM    4  C7  UNL     1     -11.111   7.101  13.273  1.00  0.00     0.005 C 
BRANCH   4   5
HETATM    5  C6  UNL     1     -12.337   7.619  13.987  1.00  0.00     0.144 C 
BRANCH   5   6
HETATM    6  C4  UNL     1     -13.591   6.765  13.686  1.00  0.00     0.016 C 
HETATM    7  C5  UNL     1     -13.606   5.403  14.384  1.00  0.00     0.013 C 
BRANCH   6   8
HETATM    8  C3  UNL     1     -14.924   7.542  13.840  1.00  0.00     0.042 C 
BRANCH   8   9
HETATM    9  C2  UNL     1     -15.164   8.901  13.126  1.00  0.00     0.159 C 
BRANCH   9  10
HETATM   10  O1  UNL     1     -15.445   9.937  14.060  1.00  0.00    -0.388 OA
HETATM   11  C1  UNL     1     -14.499  10.018  15.124  1.00  0.00     0.202 C 
ENDBRANCH   9  10
BRANCH   9  12
HETATM   12  C28 UNL     1     -16.295   8.795  12.049  1.00  0.00     0.133 C 
HETATM   13  C29 UNL     1     -16.653  10.099  11.257  1.00  0.00     0.114 C 
HETATM   14  C30 UNL     1     -17.016  11.363  12.027  1.00  0.00     0.023 C 
HETATM   15  C31 UNL     1     -17.917   9.677  10.532  1.00  0.00     0.227 C 
HETATM   16  O8  UNL     1     -18.330  10.140   9.483  1.00  0.00    -0.273 OA
HETATM   17  N3  UNL     1     -18.522   8.692  11.297  1.00  0.00    -0.332 N 
HETATM   18  C32 UNL     1     -19.645   7.935  10.790  1.00  0.00     0.154 C 
HETATM   19  C33 UNL     1     -17.680   8.259  12.479  1.00  0.00     0.183 A 
HETATM   20  C34 UNL     1     -17.781   6.751  12.848  1.00  0.00     0.294 A 
HETATM   21  C35 UNL     1     -18.470   8.413  13.832  1.00  0.00     0.169 A 
HETATM   22  O9  UNL     1     -17.497   5.687  12.342  1.00  0.00    -0.262 OA
HETATM   23  O10 UNL     1     -18.416   6.967  14.026  1.00  0.00    -0.311 OA
HETATM   24  C36 UNL     1     -18.035   9.116  15.100  1.00  0.00     0.043 C 
BRANCH  12  25
HETATM   25  O7  UNL     1     -15.733   7.894  11.039  1.00  0.00    -0.383 OA
HETATM   26  H42 UNL     1     -16.441   7.574  10.450  1.00  0.00     0.210 HD
ENDBRANCH  12  25
ENDBRANCH   9  12
ENDBRANCH   8   9
ENDBRANCH   6   8
ENDBRANCH   5   6
BRANCH   5  27
HETATM   27  O2  UNL     1     -12.092   7.696  15.385  1.00  0.00    -0.391 OA
HETATM   28  H12 UNL     1     -11.381   8.352  15.504  1.00  0.00     0.210 HD
ENDBRANCH   5  27
ENDBRANCH   4   5
ENDBRANCH   1   3
BRANCH   2  29
HETATM   29  C11 UNL     1      -7.045   4.465  12.773  1.00  0.00     0.149 C 
BRANCH  29  30
HETATM   30  N1  UNL     1      -5.811   5.192  12.956  1.00  0.00    -0.357 N 
HETATM   31  C12 UNL     1      -4.612   4.509  12.993  1.00  0.00     0.228 C 
HETATM   32  O3  UNL     1      -4.546   3.311  12.718  1.00  0.00    -0.273 OA
HETATM   33  H19 UNL     1      -5.877   6.078  13.434  1.00  0.00     0.162 HD
BRANCH  31  34
HETATM   34  C13 UNL     1      -3.355   5.350  13.278  1.00  0.00     0.063 C 
HETATM   35  C14 UNL     1      -2.704   4.983  14.626  1.00  0.00     0.028 C 
HETATM   36  C15 UNL     1      -3.832   6.818  13.340  1.00  0.00     0.028 C 
BRANCH  34  37
HETATM   37  C16 UNL     1      -2.294   5.212  12.128  1.00  0.00     0.164 C 
BRANCH  37  38
HETATM   38  O4  UNL     1      -2.753   4.379  11.061  1.00  0.00    -0.390 OA
HETATM   39  H27 UNL     1      -3.061   3.542  11.464  1.00  0.00     0.210 HD
ENDBRANCH  37  38
BRANCH  37  40
HETATM   40  C17 UNL     1      -0.880   4.780  12.513  1.00  0.00    -0.054 C 
HETATM   41  C18 UNL     1      -0.422   3.428  12.019  1.00  0.00     0.046 C 
HETATM   42  C19 UNL     1       0.001   5.519  13.226  1.00  0.00     0.005 C 
BRANCH  42  43
HETATM   43  C20 UNL     1      -0.190   6.841  13.788  1.00  0.00     0.000 C 
HETATM   44  C21 UNL     1       0.099   8.020  13.210  1.00  0.00     0.000 C 
BRANCH  44  45
HETATM   45  C22 UNL     1       0.662   8.246  11.894  1.00  0.00     0.001 C 
HETATM   46  C23 UNL     1       0.123   7.732  10.774  1.00  0.00     0.009 C 
BRANCH  46  47
HETATM   47  C24 UNL     1       0.635   7.906   9.406  1.00  0.00    -0.034 C 
HETATM   48  C25 UNL     1      -0.320   8.559   8.423  1.00  0.00     0.050 C 
HETATM   49  C26 UNL     1       1.876   7.474   9.074  1.00  0.00     0.082 C 
HETATM   50  C27 UNL     1       2.957   6.829   9.876  1.00  0.00     0.075 C 
BRANCH  49  51
HETATM   51  N2  UNL     1       2.313   7.691   7.710  1.00  0.00    -0.120 N 
HETATM   52  O5  UNL     1       2.928   8.739   7.476  1.00  0.00    -0.532 OA
HETATM   53  O6  UNL     1       2.053   6.798   6.895  1.00  0.00    -0.532 OA
ENDBRANCH  49  51
ENDBRANCH  46  47
ENDBRANCH  44  45
ENDBRANCH  42  43
ENDBRANCH  37  40
ENDBRANCH  34  37
ENDBRANCH  31  34
ENDBRANCH  29  30
ENDBRANCH   2  29
TORSDOF 19
ENDMDL
MODEL 2
REMARK minimizedAffinity -7.89515305
REMARK CNNscore 0.283972055
REMARK CNNaffinity 6.52775049
REMARK  19 active torsions:
REMARK  status: ('A' for Active; 'I' for Inactive)
REMARK    1  A    between atoms: O1_2  and  C2_3 
REMARK    2  A    between atoms: C2_3  and  C3_4 
REMARK    3  A    between atoms: C2_3  and  C28_36 
REMARK    4  A    between atoms: C3_4  and  C4_5 
REMARK    5  A    between atoms: C4_5  and  C6_7 
REMARK    6  A    between atoms: C6_7  and  O2_8 
REMARK    7  A    between atoms: C6_7  and  C7_9 
REMARK    8  A    between atoms: C8_10  and  C9_11 
REMARK    9  A    between atoms: C10_12  and  C11_13 
REMARK   10  A    between atoms: C11_13  and  N1_14 
REMARK       I    between atoms: N1_14  and  C12_15 
REMARK   11  A    between atoms: C12_15  and  C13_17 
REMARK   12  A    between atoms: C13_17  and  C16_20 
REMARK   13  A    between atoms: C16_20  and  O4_21 
REMARK   14  A    between atoms: C16_20  and  C17_22 
REMARK   15  A    between atoms: C19_24  and  C20_25 
REMARK   16  A    between atoms: C21_26  and  C22_27 
REMARK   17  A    between atoms: C23_28  and  C24_29 
REMARK   18  A    between atoms: C26_31  and  N2_33 
REMARK   19  A    between atoms: C28_36  and  O7_37 
ROOT
HETATM    1  C9  UNL     1       6.628   7.621  12.648  1.00  0.00    -0.003 C 
HETATM    2  C10 UNL     1       6.997   6.612  11.840  1.00  0.00    -0.007 C 
ENDROOT
BRANCH   1   3
HETATM    3  C8  UNL     1       7.562   8.290  13.525  1.00  0.00    -0.002 C 
HETATM    4  C7  UNL     1       7.827   7.873  14.775  1.00  0.00     0.005 C 
BRANCH   4   5
HETATM    5  C6  UNL     1       8.817   8.502  15.726  1.00  0.00     0.144 C 
BRANCH   5   6
HETATM    6  C4  UNL     1       8.565  10.017  15.913  1.00  0.00     0.016 C 
HETATM    7  C5  UNL     1       7.884  10.384  17.234  1.00  0.00     0.013 C 
BRANCH   6   8
HETATM    8  C3  UNL     1       9.804  10.896  15.602  1.00  0.00     0.042 C 
BRANCH   8   9
HETATM    9  C2  UNL     1      10.739  11.415  16.729  1.00  0.00     0.159 C 
BRANCH   9  10
HETATM   10  O1  UNL     1      10.201  11.144  18.018  1.00  0.00    -0.388 OA
HETATM   11  C1  UNL     1      11.136  10.542  18.911  1.00  0.00     0.202 C 
ENDBRANCH   9  10
BRANCH   9  12
HETATM   12  C28 UNL     1      11.053  12.939  16.562  1.00  0.00     0.133 C 
HETATM   13  C29 UNL     1      11.003  13.525  15.109  1.00  0.00     0.114 C 
HETATM   14  C30 UNL     1      11.835  12.870  14.012  1.00  0.00     0.023 C 
HETATM   15  C31 UNL     1      11.599  14.904  15.316  1.00  0.00     0.227 C 
HETATM   16  O8  UNL     1      11.383  15.888  14.631  1.00  0.00    -0.273 OA
HETATM   17  N3  UNL     1      12.452  14.825  16.407  1.00  0.00    -0.332 N 
HETATM   18  C32 UNL     1      13.029  16.015  16.992  1.00  0.00     0.154 C 
HETATM   19  C33 UNL     1      12.392  13.485  17.109  1.00  0.00     0.183 A 
HETATM   20  C34 UNL     1      12.565  13.538  18.655  1.00  0.00     0.294 A 
HETATM   21  C35 UNL     1      13.818  12.821  17.196  1.00  0.00     0.169 A 
HETATM   22  O9  UNL     1      11.963  13.987  19.606  1.00  0.00    -0.262 OA
HETATM   23  O10 UNL     1      13.769  12.915  18.653  1.00  0.00    -0.311 OA
HETATM   24  C36 UNL     1      14.230  11.423  16.787  1.00  0.00     0.043 C 
BRANCH  12  25
HETATM   25  O7  UNL     1       9.951  13.602  17.263  1.00  0.00    -0.383 OA
HETATM   26  H42 UNL     1      10.176  14.537  17.424  1.00  0.00     0.210 HD
ENDBRANCH  12  25
ENDBRANCH   9  12
ENDBRANCH   8   9
ENDBRANCH   6   8
ENDBRANCH   5   6
BRANCH   5  27
HETATM   27  O2  UNL     1       8.795   7.822  16.975  1.00  0.00    -0.391 OA
HETATM   28  H12 UNL     1       9.092   6.911  16.797  1.00  0.00     0.210 HD
ENDBRANCH   5  27
ENDBRANCH   4   5
ENDBRANCH   1   3
BRANCH   2  29
HETATM   29  C11 UNL     1       6.140   5.815  10.903  1.00  0.00     0.149 C 
BRANCH  29  30
HETATM   30  N1  UNL     1       5.016   6.582  10.420  1.00  0.00    -0.357 N 
HETATM   31  C12 UNL     1       3.947   5.936   9.833  1.00  0.00     0.228 C 
HETATM   32  O3  UNL     1       3.850   4.708   9.849  1.00  0.00    -0.273 OA
HETATM   33  H19 UNL     1       5.202   7.539  10.163  1.00  0.00     0.162 HD
BRANCH  31  34
HETATM   34  C13 UNL     1       2.831   6.833   9.269  1.00  0.00     0.063 C 
HETATM   35  C14 UNL     1       2.451   6.448   7.826  1.00  0.00     0.028 C 
HETATM   36  C15 UNL     1       3.403   8.268   9.265  1.00  0.00     0.028 C 
BRANCH  34  37
HETATM   37  C16 UNL     1       1.550   6.802  10.176  1.00  0.00     0.164 C 
BRANCH  37  38
HETATM   38  O4  UNL     1       0.884   5.538  10.136  1.00  0.00    -0.390 OA
HETATM   39  H27 UNL     1       0.748   5.317   9.192  1.00  0.00     0.210 HD
ENDBRANCH  37  38
BRANCH  37  40
HETATM   40  C17 UNL     1       0.514   7.908   9.981  1.00  0.00    -0.054 C 
HETATM   41  C18 UNL     1       0.314   8.414   8.571  1.00  0.00     0.046 C 
HETATM   42  C19 UNL     1      -0.257   8.443  10.955  1.00  0.00     0.005 C 
BRANCH  42  43
HETATM   43  C20 UNL     1      -0.268   8.118  12.367  1.00  0.00     0.000 C 
HETATM   44  C21 UNL     1      -1.090   7.260  12.997  1.00  0.00     0.000 C 
BRANCH  44  45
HETATM   45  C22 UNL     1      -2.150   6.461  12.416  1.00  0.00     0.001 C 
HETATM   46  C23 UNL     1      -2.687   5.399  13.043  1.00  0.00     0.009 C 
BRANCH  46  47
HETATM   47  C24 UNL     1      -3.756   4.533  12.521  1.00  0.00    -0.034 C 
HETATM   48  C25 UNL     1      -5.116   4.697  13.177  1.00  0.00     0.050 C 
HETATM   49  C26 UNL     1      -3.500   3.639  11.536  1.00  0.00     0.082 C 
HETATM   50  C27 UNL     1      -2.260   3.332  10.763  1.00  0.00     0.075 C 
BRANCH  49  51
HETATM   51  N2  UNL     1      -4.606   2.830  11.068  1.00  0.00    -0.120 N 
HETATM   52  O5  UNL     1      -5.294   3.293  10.149  1.00  0.00    -0.532 OA
HETATM   53  O6  UNL     1      -4.760   1.730  11.612  1.00  0.00    -0.532 OA
ENDBRANCH  49  51
ENDBRANCH  46  47
ENDBRANCH  44  45
ENDBRANCH  42  43
ENDBRANCH  37  40
ENDBRANCH  34  37
ENDBRANCH  31  34
ENDBRANCH  29  30
ENDBRANCH   2  29
TORSDOF 19
ENDMDL
MODEL 3
REMARK minimizedAffinity -8.03660774
REMARK CNNscore 0.262676865
REMARK CNNaffinity 6.81915045
REMARK  19 active torsions:
REMARK  status: ('A' for Active; 'I' for Inactive)
REMARK    1  A    between atoms: O1_2  and  C2_3 
REMARK    2  A    between atoms: C2_3  and  C3_4 
REMARK    3  A    between atoms: C2_3  and  C28_36 
REMARK    4  A    between atoms: C3_4  and  C4_5 
REMARK    5  A    between atoms: C4_5  and  C6_7 
REMARK    6  A    between atoms: C6_7  and  O2_8 
REMARK    7  A    between atoms: C6_7  and  C7_9 
REMARK    8  A    between atoms: C8_10  and  C9_11 
REMARK    9  A    between atoms: C10_12  and  C11_13 
REMARK   10  A    between atoms: C11_13  and  N1_14 
REMARK       I    between atoms: N1_14  and  C12_15 
REMARK   11  A    between atoms: C12_15  and  C13_17 
REMARK   12  A    between atoms: C13_17  and  C16_20 
REMARK   13  A    between atoms: C16_20  and  O4_21 
REMARK   14  A    between atoms: C16_20  and  C17_22 
REMARK   15  A    between atoms: C19_24  and  C20_25 
REMARK   16  A    between atoms: C21_26  and  C22_27 
REMARK   17  A    between atoms: C23_28  and  C24_29 
REMARK   18  A    between atoms: C26_31  and  N2_33 
REMARK   19  A    between atoms: C28_36  and  O7_37 
ROOT
HETATM    1  C9  UNL     1       5.897   7.600  12.991  1.00  0.00    -0.003 C 
HETATM    2  C10 UNL     1       6.359   8.309  11.947  1.00  0.00    -0.007 C 
ENDROOT
BRANCH   1   3
HETATM    3  C8  UNL     1       6.585   7.559  14.262  1.00  0.00    -0.002 C 
HETATM    4  C7  UNL     1       7.804   8.091  14.458  1.00  0.00     0.005 C 
BRANCH   4   5
HETATM    5  C6  UNL     1       8.559   8.115  15.765  1.00  0.00     0.144 C 
BRANCH   5   6
HETATM    6  C4  UNL     1       9.413   9.395  15.922  1.00  0.00     0.016 C 
HETATM    7  C5  UNL     1       9.030  10.528  14.966  1.00  0.00     0.013 C 
BRANCH   6   8
HETATM    8  C3  UNL     1       9.567   9.865  17.391  1.00  0.00     0.042 C 
BRANCH   8   9
HETATM    9  C2  UNL     1       9.660  11.371  17.761  1.00  0.00     0.159 C 
BRANCH   9  10
HETATM   10  O1  UNL     1      10.992  11.744  18.093  1.00  0.00    -0.388 OA
HETATM   11  C1  UNL     1      11.689  10.755  18.847  1.00  0.00     0.202 C 
ENDBRANCH   9  10
BRANCH   9  12
HETATM   12  C28 UNL     1       8.670  11.744  18.914  1.00  0.00     0.133 C 
HETATM   13  C29 UNL     1       7.193  11.234  18.783  1.00  0.00     0.114 C 
HETATM   14  C30 UNL     1       6.402  11.557  17.520  1.00  0.00     0.023 C 
HETATM   15  C31 UNL     1       6.509  11.990  19.907  1.00  0.00     0.227 C 
HETATM   16  O8  UNL     1       5.506  11.635  20.501  1.00  0.00    -0.273 OA
HETATM   17  N3  UNL     1       7.220  13.163  20.107  1.00  0.00    -0.332 N 
HETATM   18  C32 UNL     1       6.948  14.018  21.242  1.00  0.00     0.154 C 
HETATM   19  C33 UNL     1       8.489  13.234  19.285  1.00  0.00     0.183 A 
HETATM   20  C34 UNL     1       9.687  13.950  19.975  1.00  0.00     0.294 A 
HETATM   21  C35 UNL     1       8.520  14.530  18.390  1.00  0.00     0.169 A 
HETATM   22  O9  UNL     1      10.401  13.770  20.937  1.00  0.00    -0.262 OA
HETATM   23  O10 UNL     1       9.682  15.011  19.132  1.00  0.00    -0.311 OA
HETATM   24  C36 UNL     1       8.781  14.639  16.903  1.00  0.00     0.043 C 
BRANCH  12  25
HETATM   25  O7  UNL     1       9.202  11.030  20.077  1.00  0.00    -0.383 OA
HETATM   26  H42 UNL     1       8.803  11.381  20.894  1.00  0.00     0.210 HD
ENDBRANCH  12  25
ENDBRANCH   9  12
ENDBRANCH   8   9
ENDBRANCH   6   8
ENDBRANCH   5   6
BRANCH   5  27
HETATM   27  O2  UNL     1       7.657   7.965  16.854  1.00  0.00    -0.391 OA
HETATM   28  H12 UNL     1       7.257   7.082  16.760  1.00  0.00     0.210 HD
ENDBRANCH   5  27
ENDBRANCH   4   5
ENDBRANCH   1   3
BRANCH   2  29
HETATM   29  C11 UNL     1       5.771   8.425  10.573  1.00  0.00     0.149 C 
BRANCH  29  30
HETATM   30  N1  UNL     1       4.836   7.359  10.299  1.00  0.00    -0.357 N 
HETATM   31  C12 UNL     1       3.782   7.578   9.436  1.00  0.00     0.228 C 
HETATM   32  O3  UNL     1       3.701   8.610   8.768  1.00  0.00    -0.273 OA
HETATM   33  H19 UNL     1       4.738   6.652  11.010  1.00  0.00     0.162 HD
BRANCH  31  34
HETATM   34  C13 UNL     1       2.784   6.418   9.265  1.00  0.00     0.063 C 
HETATM   35  C14 UNL     1       3.460   5.043   9.436  1.00  0.00     0.028 C 
HETATM   36  C15 UNL     1       2.246   6.532   7.822  1.00  0.00     0.028 C 
BRANCH  34  37
HETATM   37  C16 UNL     1       1.580   6.540  10.265  1.00  0.00     0.164 C 
BRANCH  37  38
HETATM   38  O4  UNL     1       0.766   5.365  10.284  1.00  0.00    -0.390 OA
HETATM   39  H27 UNL     1       0.535   5.163   9.355  1.00  0.00     0.210 HD
ENDBRANCH  37  38
BRANCH  37  40
HETATM   40  C17 UNL     1       0.672   7.762  10.139  1.00  0.00    -0.054 C 
HETATM   41  C18 UNL     1       0.372   8.247   8.739  1.00  0.00     0.046 C 
HETATM   42  C19 UNL     1       0.092   8.421  11.168  1.00  0.00     0.005 C 
BRANCH  42  43
HETATM   43  C20 UNL     1       0.206   8.142  12.585  1.00  0.00     0.000 C 
HETATM   44  C21 UNL     1      -0.715   7.565  13.378  1.00  0.00     0.000 C 
BRANCH  44  45
HETATM   45  C22 UNL     1      -2.030   7.086  13.003  1.00  0.00     0.001 C 
HETATM   46  C23 UNL     1      -2.552   5.943  13.483  1.00  0.00     0.009 C 
BRANCH  46  47
HETATM   47  C24 UNL     1      -3.871   5.384  13.148  1.00  0.00    -0.034 C 
HETATM   48  C25 UNL     1      -3.891   4.383  12.007  1.00  0.00     0.050 C 
HETATM   49  C26 UNL     1      -4.979   5.782  13.818  1.00  0.00     0.082 C 
HETATM   50  C27 UNL     1      -5.173   6.729  14.955  1.00  0.00     0.075 C 
BRANCH  49  51
HETATM   51  N2  UNL     1      -6.239   5.179  13.436  1.00  0.00    -0.120 N 
HETATM   52  O5  UNL     1      -7.062   5.906  12.865  1.00  0.00    -0.532 OA
HETATM   53  O6  UNL     1      -6.381   3.977  13.693  1.00  0.00    -0.532 OA
ENDBRANCH  49  51
ENDBRANCH  46  47
ENDBRANCH  44  45
ENDBRANCH  42  43
ENDBRANCH  37  40
ENDBRANCH  34  37
ENDBRANCH  31  34
ENDBRANCH  29  30
ENDBRANCH   2  29
TORSDOF 19
ENDMDL
MODEL 4
REMARK minimizedAffinity -7.63472843
REMARK CNNscore 0.262086868
REMARK CNNaffinity 6.87092829
REMARK  19 active torsions:
REMARK  status: ('A' for Active; 'I' for Inactive)
REMARK    1  A    between atoms: O1_2  and  C2_3 
REMARK    2  A    between atoms: C2_3  and  C3_4 
REMARK    3  A    between atoms: C2_3  and  C28_36 
REMARK    4  A    between atoms: C3_4  and  C4_5 
REMARK    5  A    between atoms: C4_5  and  C6_7 
REMARK    6  A    between atoms: C6_7  and  O2_8 
REMARK    7  A    between atoms: C6_7  and  C7_9 
REMARK    8  A    between atoms: C8_10  and  C9_11 
REMARK    9  A    between atoms: C10_12  and  C11_13 
REMARK   10  A    between atoms: C11_13  and  N1_14 
REMARK       I    between atoms: N1_14  and  C12_15 
REMARK   11  A    between atoms: C12_15  and  C13_17 
REMARK   12  A    between atoms: C13_17  and  C16_20 
REMARK   13  A    between atoms: C16_20  and  O4_21 
REMARK   14  A    between atoms: C16_20  and  C17_22 
REMARK   15  A    between atoms: C19_24  and  C20_25 
REMARK   16  A    between atoms: C21_26  and  C22_27 
REMARK   17  A    between atoms: C23_28  and  C24_29 
REMARK   18  A    between atoms: C26_31  and  N2_33 
REMARK   19  A    between atoms: C28_36  and  O7_37 
ROOT
HETATM    1  C9  UNL     1       5.607   8.064  13.098  1.00  0.00    -0.003 C 
HETATM    2  C10 UNL     1       5.995   8.866  12.091  1.00  0.00    -0.007 C 
ENDROOT
BRANCH   1   3
HETATM    3  C8  UNL     1       6.192   8.141  14.418  1.00  0.00    -0.002 C 
HETATM    4  C7  UNL     1       7.485   7.872  14.667  1.00  0.00     0.005 C 
BRANCH   4   5
HETATM    5  C6  UNL     1       8.166   7.970  16.012  1.00  0.00     0.144 C 
BRANCH   5   6
HETATM    6  C4  UNL     1       9.534   8.686  15.922  1.00  0.00     0.016 C 
HETATM    7  C5  UNL     1      10.020   8.937  14.492  1.00  0.00     0.013 C 
BRANCH   6   8
HETATM    8  C3  UNL     1       9.641   9.938  16.830  1.00  0.00     0.042 C 
BRANCH   8   9
HETATM    9  C2  UNL     1       9.553  11.376  16.250  1.00  0.00     0.159 C 
BRANCH   9  10
HETATM   10  O1  UNL     1      10.160  11.458  14.965  1.00  0.00    -0.388 OA
HETATM   11  C1  UNL     1      11.373  12.207  14.955  1.00  0.00     0.202 C 
ENDBRANCH   9  10
BRANCH   9  12
HETATM   12  C28 UNL     1      10.169  12.431  17.228  1.00  0.00     0.133 C 
HETATM   13  C29 UNL     1      11.363  11.961  18.128  1.00  0.00     0.114 C 
HETATM   14  C30 UNL     1      11.196  10.724  19.002  1.00  0.00     0.023 C 
HETATM   15  C31 UNL     1      11.502  13.130  19.085  1.00  0.00     0.227 C 
HETATM   16  O8  UNL     1      12.520  13.463  19.667  1.00  0.00    -0.273 OA
HETATM   17  N3  UNL     1      10.255  13.726  19.192  1.00  0.00    -0.332 N 
HETATM   18  C32 UNL     1      10.086  14.991  19.873  1.00  0.00     0.154 C 
HETATM   19  C33 UNL     1       9.236  13.142  18.236  1.00  0.00     0.183 A 
HETATM   20  C34 UNL     1       8.206  14.159  17.663  1.00  0.00     0.294 A 
HETATM   21  C35 UNL     1       7.962  12.625  19.003  1.00  0.00     0.169 A 
HETATM   22  O9  UNL     1       8.219  15.135  16.946  1.00  0.00    -0.262 OA
HETATM   23  O10 UNL     1       7.146  13.625  18.320  1.00  0.00    -0.311 OA
HETATM   24  C36 UNL     1       7.294  11.270  18.910  1.00  0.00     0.043 C 
BRANCH  12  25
HETATM   25  O7  UNL     1      10.754  13.436  16.337  1.00  0.00    -0.383 OA
HETATM   26  H42 UNL     1      10.950  14.249  16.838  1.00  0.00     0.210 HD
ENDBRANCH  12  25
ENDBRANCH   9  12
ENDBRANCH   8   9
ENDBRANCH   6   8
ENDBRANCH   5   6
BRANCH   5  27
HETATM   27  O2  UNL     1       7.311   8.614  16.947  1.00  0.00    -0.391 OA
HETATM   28  H12 UNL     1       6.532   8.038  17.051  1.00  0.00     0.210 HD
ENDBRANCH   5  27
ENDBRANCH   4   5
ENDBRANCH   1   3
BRANCH   2  29
HETATM   29  C11 UNL     1       5.500   8.883  10.677  1.00  0.00     0.149 C 
BRANCH  29  30
HETATM   30  N1  UNL     1       4.651   7.750  10.392  1.00  0.00    -0.357 N 
HETATM   31  C12 UNL     1       3.734   7.823   9.364  1.00  0.00     0.228 C 
HETATM   32  O3  UNL     1       3.723   8.770   8.577  1.00  0.00    -0.273 OA
HETATM   33  H19 UNL     1       4.469   7.120  11.158  1.00  0.00     0.162 HD
BRANCH  31  34
HETATM   34  C13 UNL     1       2.811   6.604   9.183  1.00  0.00     0.063 C 
HETATM   35  C14 UNL     1       3.559   5.273   9.397  1.00  0.00     0.028 C 
HETATM   36  C15 UNL     1       2.312   6.664   7.722  1.00  0.00     0.028 C 
BRANCH  34  37
HETATM   37  C16 UNL     1       1.571   6.670  10.144  1.00  0.00     0.164 C 
BRANCH  37  38
HETATM   38  O4  UNL     1       0.809   5.462  10.134  1.00  0.00    -0.390 OA
HETATM   39  H27 UNL     1       0.616   5.253   9.197  1.00  0.00     0.210 HD
ENDBRANCH  37  38
BRANCH  37  40
HETATM   40  C17 UNL     1       0.617   7.853   9.992  1.00  0.00    -0.054 C 
HETATM   41  C18 UNL     1       0.485   8.449   8.609  1.00  0.00     0.046 C 
HETATM   42  C19 UNL     1      -0.140   8.385  10.979  1.00  0.00     0.005 C 
BRANCH  42  43
HETATM   43  C20 UNL     1      -0.207   7.982  12.369  1.00  0.00     0.000 C 
HETATM   44  C21 UNL     1      -0.973   7.013  12.900  1.00  0.00     0.000 C 
BRANCH  44  45
HETATM   45  C22 UNL     1      -1.905   6.144  12.209  1.00  0.00     0.001 C 
HETATM   46  C23 UNL     1      -1.855   4.803  12.305  1.00  0.00     0.009 C 
BRANCH  46  47
HETATM   47  C24 UNL     1      -2.755   3.852  11.633  1.00  0.00    -0.034 C 
HETATM   48  C25 UNL     1      -2.154   3.092  10.464  1.00  0.00     0.050 C 
HETATM   49  C26 UNL     1      -4.039   3.712  12.041  1.00  0.00     0.082 C 
HETATM   50  C27 UNL     1      -4.809   4.343  13.152  1.00  0.00     0.075 C 
BRANCH  49  51
HETATM   51  N2  UNL     1      -4.859   2.749  11.335  1.00  0.00    -0.120 N 
HETATM   52  O5  UNL     1      -4.798   1.572  11.714  1.00  0.00    -0.532 OA
HETATM   53  O6  UNL     1      -5.571   3.186  10.424  1.00  0.00    -0.532 OA
ENDBRANCH  49  51
ENDBRANCH  46  47
ENDBRANCH  44  45
ENDBRANCH  42  43
ENDBRANCH  37  40
ENDBRANCH  34  37
ENDBRANCH  31  34
ENDBRANCH  29  30
ENDBRANCH   2  29
TORSDOF 19
ENDMDL
MODEL 5
REMARK minimizedAffinity -8.06947422
REMARK CNNscore 0.259066284
REMARK CNNaffinity 6.61532259
REMARK  19 active torsions:
REMARK  status: ('A' for Active; 'I' for Inactive)
REMARK    1  A    between atoms: O1_2  and  C2_3 
REMARK    2  A    between atoms: C2_3  and  C3_4 
REMARK    3  A    between atoms: C2_3  and  C28_36 
REMARK    4  A    between atoms: C3_4  and  C4_5 
REMARK    5  A    between atoms: C4_5  and  C6_7 
REMARK    6  A    between atoms: C6_7  and  O2_8 
REMARK    7  A    between atoms: C6_7  and  C7_9 
REMARK    8  A    between atoms: C8_10  and  C9_11 
REMARK    9  A    between atoms: C10_12  and  C11_13 
REMARK   10  A    between atoms: C11_13  and  N1_14 
REMARK       I    between atoms: N1_14  and  C12_15 
REMARK   11  A    between atoms: C12_15  and  C13_17 
REMARK   12  A    between atoms: C13_17  and  C16_20 
REMARK   13  A    between atoms: C16_20  and  O4_21 
REMARK   14  A    between atoms: C16_20  and  C17_22 
REMARK   15  A    between atoms: C19_24  and  C20_25 
REMARK   16  A    between atoms: C21_26  and  C22_27 
REMARK   17  A    between atoms: C23_28  and  C24_29 
REMARK   18  A    between atoms: C26_31  and  N2_33 
REMARK   19  A    between atoms: C28_36  and  O7_37 
ROOT
HETATM    1  C9  UNL     1     -12.893   6.666  14.347  1.00  0.00    -0.003 C 
HETATM    2  C10 UNL     1     -11.651   6.250  14.043  1.00  0.00    -0.007 C 
ENDROOT
BRANCH   1   3
HETATM    3  C8  UNL     1     -14.018   5.761  14.408  1.00  0.00    -0.002 C 
HETATM    4  C7  UNL     1     -15.267   6.113  14.056  1.00  0.00     0.005 C 
BRANCH   4   5
HETATM    5  C6  UNL     1     -16.476   5.208  14.060  1.00  0.00     0.144 C 
BRANCH   5   6
HETATM    6  C4  UNL     1     -16.621   4.435  15.392  1.00  0.00     0.016 C 
HETATM    7  C5  UNL     1     -16.744   5.330  16.629  1.00  0.00     0.013 C 
BRANCH   6   8
HETATM    8  C3  UNL     1     -17.688   3.311  15.346  1.00  0.00     0.042 C 
BRANCH   8   9
HETATM    9  C2  UNL     1     -17.462   2.004  14.538  1.00  0.00     0.159 C 
BRANCH   9  10
HETATM   10  O1  UNL     1     -18.396   1.884  13.471  1.00  0.00    -0.388 OA
HETATM   11  C1  UNL     1     -19.379   2.917  13.456  1.00  0.00     0.202 C 
ENDBRANCH   9  10
BRANCH   9  12
HETATM   12  C28 UNL     1     -17.501   0.741  15.462  1.00  0.00     0.133 C 
HETATM   13  C29 UNL     1     -16.447   0.668  16.619  1.00  0.00     0.114 C 
HETATM   14  C30 UNL     1     -14.966   0.820  16.290  1.00  0.00     0.023 C 
HETATM   15  C31 UNL     1     -16.622  -0.759  17.101  1.00  0.00     0.227 C 
HETATM   16  O8  UNL     1     -16.379  -1.172  18.222  1.00  0.00    -0.273 OA
HETATM   17  N3  UNL     1     -17.080  -1.505  16.025  1.00  0.00    -0.332 N 
HETATM   18  C32 UNL     1     -17.538  -2.866  16.198  1.00  0.00     0.154 C 
HETATM   19  C33 UNL     1     -17.397  -0.658  14.811  1.00  0.00     0.183 A 
HETATM   20  C34 UNL     1     -18.608  -1.143  13.962  1.00  0.00     0.294 A 
HETATM   21  C35 UNL     1     -16.600  -1.149  13.545  1.00  0.00     0.169 A 
HETATM   22  O9  UNL     1     -19.805  -1.269  14.104  1.00  0.00    -0.262 OA
HETATM   23  O10 UNL     1     -17.858  -1.497  12.890  1.00  0.00    -0.311 OA
HETATM   24  C36 UNL     1     -15.740  -0.336  12.602  1.00  0.00     0.043 C 
BRANCH  12  25
HETATM   25  O7  UNL     1     -18.792   0.848  16.147  1.00  0.00    -0.383 OA
HETATM   26  H42 UNL     1     -19.019  -0.004  16.561  1.00  0.00     0.210 HD
ENDBRANCH  12  25
ENDBRANCH   9  12
ENDBRANCH   8   9
ENDBRANCH   6   8
ENDBRANCH   5   6
BRANCH   5  27
HETATM   27  O2  UNL     1     -17.649   5.958  13.773  1.00  0.00    -0.391 OA
HETATM   28  H12 UNL     1     -17.541   6.303  12.868  1.00  0.00     0.210 HD
ENDBRANCH   5  27
ENDBRANCH   4   5
ENDBRANCH   1   3
BRANCH   2  29
HETATM   29  C11 UNL     1     -10.404   7.071  13.920  1.00  0.00     0.149 C 
BRANCH  29  30
HETATM   30  N1  UNL     1      -9.224   6.310  14.259  1.00  0.00    -0.357 N 
HETATM   31  C12 UNL     1      -8.505   5.681  13.264  1.00  0.00     0.228 C 
HETATM   32  O3  UNL     1      -8.747   5.877  12.072  1.00  0.00    -0.273 OA
HETATM   33  H19 UNL     1      -9.185   5.935  15.195  1.00  0.00     0.162 HD
BRANCH  31  34
HETATM   34  C13 UNL     1      -7.312   4.821  13.721  1.00  0.00     0.063 C 
HETATM   35  C14 UNL     1      -7.636   3.315  13.687  1.00  0.00     0.028 C 
HETATM   36  C15 UNL     1      -7.027   5.235  15.182  1.00  0.00     0.028 C 
BRANCH  34  37
HETATM   37  C16 UNL     1      -6.032   5.103  12.858  1.00  0.00     0.164 C 
BRANCH  37  38
HETATM   38  O4  UNL     1      -5.261   3.923  12.624  1.00  0.00    -0.390 OA
HETATM   39  H27 UNL     1      -5.107   3.505  13.495  1.00  0.00     0.210 HD
ENDBRANCH  37  38
BRANCH  37  40
HETATM   40  C17 UNL     1      -5.094   6.217  13.319  1.00  0.00    -0.054 C 
HETATM   41  C18 UNL     1      -5.717   7.570  13.576  1.00  0.00     0.046 C 
HETATM   42  C19 UNL     1      -3.767   6.084  13.547  1.00  0.00     0.005 C 
BRANCH  42  43
HETATM   43  C20 UNL     1      -2.948   4.899  13.395  1.00  0.00     0.000 C 
HETATM   44  C21 UNL     1      -1.744   4.812  12.803  1.00  0.00     0.000 C 
BRANCH  44  45
HETATM   45  C22 UNL     1      -0.982   5.880  12.185  1.00  0.00     0.001 C 
HETATM   46  C23 UNL     1      -0.105   5.664  11.189  1.00  0.00     0.009 C 
BRANCH  46  47
HETATM   47  C24 UNL     1       0.711   6.687  10.516  1.00  0.00    -0.034 C 
HETATM   48  C25 UNL     1       0.029   8.022  10.279  1.00  0.00     0.050 C 
HETATM   49  C26 UNL     1       1.977   6.409  10.121  1.00  0.00     0.082 C 
HETATM   50  C27 UNL     1       2.823   5.188  10.264  1.00  0.00     0.075 C 
BRANCH  49  51
HETATM   51  N2  UNL     1       2.719   7.471   9.474  1.00  0.00    -0.120 N 
HETATM   52  O5  UNL     1       2.646   7.539   8.240  1.00  0.00    -0.532 OA
HETATM   53  O6  UNL     1       3.349   8.239  10.211  1.00  0.00    -0.532 OA
ENDBRANCH  49  51
ENDBRANCH  46  47
ENDBRANCH  44  45
ENDBRANCH  42  43
ENDBRANCH  37  40
ENDBRANCH  34  37
ENDBRANCH  31  34
ENDBRANCH  29  30
ENDBRANCH   2  29
TORSDOF 19
ENDMDL
MODEL 6
REMARK minimizedAffinity -8.28478432
REMARK CNNscore 0.252768815
REMARK CNNaffinity 6.8944602
REMARK  19 active torsions:
REMARK  status: ('A' for Active; 'I' for Inactive)
REMARK    1  A    between atoms: O1_2  and  C2_3 
REMARK    2  A    between atoms: C2_3  and  C3_4 
REMARK    3  A    between atoms: C2_3  and  C28_36 
REMARK    4  A    between atoms: C3_4  and  C4_5 
REMARK    5  A    between atoms: C4_5  and  C6_7 
REMARK    6  A    between atoms: C6_7  and  O2_8 
REMARK    7  A    between atoms: C6_7  and  C7_9 
REMARK    8  A    between atoms: C8_10  and  C9_11 
REMARK    9  A    between atoms: C10_12  and  C11_13 
REMARK   10  A    between atoms: C11_13  and  N1_14 
REMARK       I    between atoms: N1_14  and  C12_15 
REMARK   11  A    between atoms: C12_15  and  C13_17 
REMARK   12  A    between atoms: C13_17  and  C16_20 
REMARK   13  A    between atoms: C16_20  and  O4_21 
REMARK   14  A    between atoms: C16_20  and  C17_22 
REMARK   15  A    between atoms: C19_24  and  C20_25 
REMARK   16  A    between atoms: C21_26  and  C22_27 
REMARK   17  A    between atoms: C23_28  and  C24_29 
REMARK   18  A    between atoms: C26_31  and  N2_33 
REMARK   19  A    between atoms: C28_36  and  O7_37 
ROOT
HETATM    1  C9  UNL     1      -8.015   6.184  13.980  1.00  0.00    -0.003 C 
HETATM    2  C10 UNL     1      -7.876   6.032  15.309  1.00  0.00    -0.007 C 
ENDROOT
BRANCH   1   3
HETATM    3  C8  UNL     1      -9.309   6.291  13.346  1.00  0.00    -0.002 C 
HETATM    4  C7  UNL     1     -10.315   7.030  13.843  1.00  0.00     0.005 C 
BRANCH   4   5
HETATM    5  C6  UNL     1     -11.675   7.214  13.213  1.00  0.00     0.144 C 
BRANCH   5   6
HETATM    6  C4  UNL     1     -12.823   6.909  14.203  1.00  0.00     0.016 C 
HETATM    7  C5  UNL     1     -13.065   8.005  15.244  1.00  0.00     0.013 C 
BRANCH   6   8
HETATM    8  C3  UNL     1     -14.126   6.426  13.515  1.00  0.00     0.042 C 
BRANCH   8   9
HETATM    9  C2  UNL     1     -15.528   6.822  14.053  1.00  0.00     0.159 C 
BRANCH   9  10
HETATM   10  O1  UNL     1     -16.173   5.721  14.684  1.00  0.00    -0.388 OA
HETATM   11  C1  UNL     1     -15.353   4.558  14.778  1.00  0.00     0.202 C 
ENDBRANCH   9  10
BRANCH   9  12
HETATM   12  C28 UNL     1     -16.429   7.428  12.926  1.00  0.00     0.133 C 
HETATM   13  C29 UNL     1     -15.794   8.541  12.023  1.00  0.00     0.114 C 
HETATM   14  C30 UNL     1     -15.173   9.769  12.679  1.00  0.00     0.023 C 
HETATM   15  C31 UNL     1     -17.005   9.043  11.261  1.00  0.00     0.227 C 
HETATM   16  O8  UNL     1     -16.993   9.566  10.160  1.00  0.00    -0.273 OA
HETATM   17  N3  UNL     1     -18.116   8.822  12.060  1.00  0.00    -0.332 N 
HETATM   18  C32 UNL     1     -19.456   9.006  11.547  1.00  0.00     0.154 C 
HETATM   19  C33 UNL     1     -17.796   8.038  13.315  1.00  0.00     0.183 A 
HETATM   20  C34 UNL     1     -18.908   7.056  13.785  1.00  0.00     0.294 A 
HETATM   21  C35 UNL     1     -18.247   8.816  14.608  1.00  0.00     0.169 A 
HETATM   22  O9  UNL     1     -19.444   6.050  13.375  1.00  0.00    -0.262 OA
HETATM   23  O10 UNL     1     -19.206   7.756  14.908  1.00  0.00    -0.311 OA
HETATM   24  C36 UNL     1     -17.434   9.135  15.844  1.00  0.00     0.043 C 
BRANCH  12  25
HETATM   25  O7  UNL     1     -16.656   6.302  12.016  1.00  0.00    -0.383 OA
HETATM   26  H42 UNL     1     -17.394   6.507  11.413  1.00  0.00     0.210 HD
ENDBRANCH  12  25
ENDBRANCH   9  12
ENDBRANCH   8   9
ENDBRANCH   6   8
ENDBRANCH   5   6
BRANCH   5  27
HETATM   27  O2  UNL     1     -11.793   8.527  12.680  1.00  0.00    -0.391 OA
HETATM   28  H12 UNL     1     -11.127   8.599  11.973  1.00  0.00     0.210 HD
ENDBRANCH   5  27
ENDBRANCH   4   5
ENDBRANCH   1   3
BRANCH   2  29
HETATM   29  C11 UNL     1      -6.610   5.884  16.097  1.00  0.00     0.149 C 
BRANCH  29  30
HETATM   30  N1  UNL     1      -5.611   6.846  15.693  1.00  0.00    -0.357 N 
HETATM   31  C12 UNL     1      -4.626   6.477  14.800  1.00  0.00     0.228 C 
HETATM   32  O3  UNL     1      -4.662   5.395  14.213  1.00  0.00    -0.273 OA
HETATM   33  H19 UNL     1      -5.420   7.595  16.341  1.00  0.00     0.162 HD
BRANCH  31  34
HETATM   34  C13 UNL     1      -3.552   7.536  14.490  1.00  0.00     0.063 C 
HETATM   35  C14 UNL     1      -4.091   8.971  14.649  1.00  0.00     0.028 C 
HETATM   36  C15 UNL     1      -3.154   7.315  13.014  1.00  0.00     0.028 C 
BRANCH  34  37
HETATM   37  C16 UNL     1      -2.280   7.349  15.390  1.00  0.00     0.164 C 
BRANCH  37  38
HETATM   38  O4  UNL     1      -2.548   7.593  16.772  1.00  0.00    -0.390 OA
HETATM   39  H27 UNL     1      -2.990   8.465  16.828  1.00  0.00     0.210 HD
ENDBRANCH  37  38
BRANCH  37  40
HETATM   40  C17 UNL     1      -1.013   8.108  14.996  1.00  0.00    -0.054 C 
HETATM   41  C18 UNL     1      -0.963   9.577  15.344  1.00  0.00     0.046 C 
HETATM   42  C19 UNL     1       0.073   7.567  14.397  1.00  0.00     0.005 C 
BRANCH  42  43
HETATM   43  C20 UNL     1       0.275   6.193  13.985  1.00  0.00     0.000 C 
HETATM   44  C21 UNL     1       0.753   5.760  12.805  1.00  0.00     0.000 C 
BRANCH  44  45
HETATM   45  C22 UNL     1       1.180   6.560  11.675  1.00  0.00     0.001 C 
HETATM   46  C23 UNL     1       0.529   6.561  10.497  1.00  0.00     0.009 C 
BRANCH  46  47
HETATM   47  C24 UNL     1       0.900   7.335   9.303  1.00  0.00    -0.034 C 
HETATM   48  C25 UNL     1      -0.019   8.495   8.957  1.00  0.00     0.050 C 
HETATM   49  C26 UNL     1       1.983   6.990   8.566  1.00  0.00     0.082 C 
HETATM   50  C27 UNL     1       3.003   5.914   8.734  1.00  0.00     0.075 C 
BRANCH  49  51
HETATM   51  N2  UNL     1       2.289   7.807   7.409  1.00  0.00    -0.120 N 
HETATM   52  O5  UNL     1       1.846   7.426   6.318  1.00  0.00    -0.532 OA
HETATM   53  O6  UNL     1       2.949   8.832   7.612  1.00  0.00    -0.532 OA
ENDBRANCH  49  51
ENDBRANCH  46  47
ENDBRANCH  44  45
ENDBRANCH  42  43
ENDBRANCH  37  40
ENDBRANCH  34  37
ENDBRANCH  31  34
ENDBRANCH  29  30
ENDBRANCH   2  29
TORSDOF 19
ENDMDL
MODEL 7
REMARK minimizedAffinity -8.66109276
REMARK CNNscore 0.25253424
REMARK CNNaffinity 7.06687546
REMARK  19 active torsions:
REMARK  status: ('A' for Active; 'I' for Inactive)
REMARK    1  A    between atoms: O1_2  and  C2_3 
REMARK    2  A    between atoms: C2_3  and  C3_4 
REMARK    3  A    between atoms: C2_3  and  C28_36 
REMARK    4  A    between atoms: C3_4  and  C4_5 
REMARK    5  A    between atoms: C4_5  and  C6_7 
REMARK    6  A    between atoms: C6_7  and  O2_8 
REMARK    7  A    between atoms: C6_7  and  C7_9 
REMARK    8  A    between atoms: C8_10  and  C9_11 
REMARK    9  A    between atoms: C10_12  and  C11_13 
REMARK   10  A    between atoms: C11_13  and  N1_14 
REMARK       I    between atoms: N1_14  and  C12_15 
REMARK   11  A    between atoms: C12_15  and  C13_17 
REMARK   12  A    between atoms: C13_17  and  C16_20 
REMARK   13  A    between atoms: C16_20  and  O4_21 
REMARK   14  A    between atoms: C16_20  and  C17_22 
REMARK   15  A    between atoms: C19_24  and  C20_25 
REMARK   16  A    between atoms: C21_26  and  C22_27 
REMARK   17  A    between atoms: C23_28  and  C24_29 
REMARK   18  A    between atoms: C26_31  and  N2_33 
REMARK   19  A    between atoms: C28_36  and  O7_37 
ROOT
HETATM    1  C9  UNL     1      -5.706   3.226  12.144  1.00  0.00    -0.003 C 
HETATM    2  C10 UNL     1      -6.315   3.796  13.199  1.00  0.00    -0.007 C 
ENDROOT
BRANCH   1   3
HETATM    3  C8  UNL     1      -4.267   3.191  12.008  1.00  0.00    -0.002 C 
HETATM    4  C7  UNL     1      -3.605   3.824  11.025  1.00  0.00     0.005 C 
BRANCH   4   5
HETATM    5  C6  UNL     1      -2.105   3.859  10.848  1.00  0.00     0.144 C 
BRANCH   5   6
HETATM    6  C4  UNL     1      -1.468   5.102  11.513  1.00  0.00     0.016 C 
HETATM    7  C5  UNL     1      -1.625   5.150  13.036  1.00  0.00     0.013 C 
BRANCH   6   8
HETATM    8  C3  UNL     1      -0.018   5.385  11.042  1.00  0.00     0.042 C 
BRANCH   8   9
HETATM    9  C2  UNL     1       0.644   6.778  11.231  1.00  0.00     0.159 C 
BRANCH   9  10
HETATM   10  O1  UNL     1       0.460   7.600  10.084  1.00  0.00    -0.388 OA
HETATM   11  C1  UNL     1      -0.507   8.631  10.272  1.00  0.00     0.202 C 
ENDBRANCH   9  10
BRANCH   9  12
HETATM   12  C28 UNL     1       2.161   6.651  11.592  1.00  0.00     0.133 C 
HETATM   13  C29 UNL     1       2.767   7.747  12.536  1.00  0.00     0.114 C 
HETATM   14  C30 UNL     1       2.613   9.217  12.165  1.00  0.00     0.023 C 
HETATM   15  C31 UNL     1       4.250   7.445  12.439  1.00  0.00     0.227 C 
HETATM   16  O8  UNL     1       5.089   7.698  13.286  1.00  0.00    -0.273 OA
HETATM   17  N3  UNL     1       4.473   6.860  11.202  1.00  0.00    -0.332 N 
HETATM   18  C32 UNL     1       5.751   6.271  10.872  1.00  0.00     0.154 C 
HETATM   19  C33 UNL     1       3.193   6.575  10.444  1.00  0.00     0.183 A 
HETATM   20  C34 UNL     1       3.209   5.280   9.581  1.00  0.00     0.294 A 
HETATM   21  C35 UNL     1       3.206   7.254   9.023  1.00  0.00     0.169 A 
HETATM   22  O9  UNL     1       3.287   4.085   9.765  1.00  0.00    -0.262 OA
HETATM   23  O10 UNL     1       3.169   5.936   8.395  1.00  0.00    -0.311 OA
HETATM   24  C36 UNL     1       2.156   8.148   8.399  1.00  0.00     0.043 C 
BRANCH  12  25
HETATM   25  O7  UNL     1       2.233   5.413  12.373  1.00  0.00    -0.383 OA
HETATM   26  H42 UNL     1       3.159   5.119  12.443  1.00  0.00     0.210 HD
ENDBRANCH  12  25
ENDBRANCH   9  12
ENDBRANCH   8   9
ENDBRANCH   6   8
ENDBRANCH   5   6
BRANCH   5  27
HETATM   27  O2  UNL     1      -1.526   2.659  11.344  1.00  0.00    -0.391 OA
HETATM   28  H12 UNL     1      -1.873   1.936  10.790  1.00  0.00     0.210 HD
ENDBRANCH   5  27
ENDBRANCH   4   5
ENDBRANCH   1   3
BRANCH   2  29
HETATM   29  C11 UNL     1      -7.784   3.928  13.460  1.00  0.00     0.149 C 
BRANCH  29  30
HETATM   30  N1  UNL     1      -8.071   4.994  14.390  1.00  0.00    -0.357 N 
HETATM   31  C12 UNL     1      -7.776   6.298  14.049  1.00  0.00     0.228 C 
HETATM   32  O3  UNL     1      -7.418   6.601  12.910  1.00  0.00    -0.273 OA
HETATM   33  H19 UNL     1      -8.098   4.745  15.367  1.00  0.00     0.162 HD
BRANCH  31  34
HETATM   34  C13 UNL     1      -8.034   7.363  15.131  1.00  0.00     0.063 C 
HETATM   35  C14 UNL     1      -6.730   8.033  15.608  1.00  0.00     0.028 C 
HETATM   36  C15 UNL     1      -8.672   6.613  16.320  1.00  0.00     0.028 C 
BRANCH  34  37
HETATM   37  C16 UNL     1      -9.037   8.463  14.631  1.00  0.00     0.164 C 
BRANCH  37  38
HETATM   38  O4  UNL     1      -8.659   9.777  15.049  1.00  0.00    -0.390 OA
HETATM   39  H27 UNL     1      -8.512   9.737  16.016  1.00  0.00     0.210 HD
ENDBRANCH  37  38
BRANCH  37  40
HETATM   40  C17 UNL     1     -10.521   8.262  14.931  1.00  0.00    -0.054 C 
HETATM   41  C18 UNL     1     -11.181   7.048  14.319  1.00  0.00     0.046 C 
HETATM   42  C19 UNL     1     -11.279   9.057  15.721  1.00  0.00     0.005 C 
BRANCH  42  43
HETATM   43  C20 UNL     1     -10.879  10.255  16.429  1.00  0.00     0.000 C 
HETATM   44  C21 UNL     1     -10.885  10.455  17.758  1.00  0.00     0.000 C 
BRANCH  44  45
HETATM   45  C22 UNL     1     -11.289   9.522  18.792  1.00  0.00     0.001 C 
HETATM   46  C23 UNL     1     -11.876   9.915  19.937  1.00  0.00     0.009 C 
BRANCH  46  47
HETATM   47  C24 UNL     1     -12.306   9.036  21.035  1.00  0.00    -0.034 C 
HETATM   48  C25 UNL     1     -13.307   7.956  20.662  1.00  0.00     0.050 C 
HETATM   49  C26 UNL     1     -11.841   9.227  22.293  1.00  0.00     0.082 C 
HETATM   50  C27 UNL     1     -10.865  10.203  22.861  1.00  0.00     0.075 C 
BRANCH  49  51
HETATM   51  N2  UNL     1     -12.304   8.314  23.319  1.00  0.00    -0.120 N 
HETATM   52  O5  UNL     1     -13.398   8.563  23.842  1.00  0.00    -0.532 OA
HETATM   53  O6  UNL     1     -11.576   7.347  23.572  1.00  0.00    -0.532 OA
ENDBRANCH  49  51
ENDBRANCH  46  47
ENDBRANCH  44  45
ENDBRANCH  42  43
ENDBRANCH  37  40
ENDBRANCH  34  37
ENDBRANCH  31  34
ENDBRANCH  29  30
ENDBRANCH   2  29
TORSDOF 19
ENDMDL
MODEL 8
REMARK minimizedAffinity -7.62885571
REMARK CNNscore 0.247104973
REMARK CNNaffinity 6.30632019
REMARK  19 active torsions:
REMARK  status: ('A' for Active; 'I' for Inactive)
REMARK    1  A    between atoms: O1_2  and  C2_3 
REMARK    2  A    between atoms: C2_3  and  C3_4 
REMARK    3  A    between atoms: C2_3  and  C28_36 
REMARK    4  A    between atoms: C3_4  and  C4_5 
REMARK    5  A    between atoms: C4_5  and  C6_7 
REMARK    6  A    between atoms: C6_7  and  O2_8 
REMARK    7  A    between atoms: C6_7  and  C7_9 
REMARK    8  A    between atoms: C8_10  and  C9_11 
REMARK    9  A    between atoms: C10_12  and  C11_13 
REMARK   10  A    between atoms: C11_13  and  N1_14 
REMARK       I    between atoms: N1_14  and  C12_15 
REMARK   11  A    between atoms: C12_15  and  C13_17 
REMARK   12  A    between atoms: C13_17  and  C16_20 
REMARK   13  A    between atoms: C16_20  and  O4_21 
REMARK   14  A    between atoms: C16_20  and  C17_22 
REMARK   15  A    between atoms: C19_24  and  C20_25 
REMARK   16  A    between atoms: C21_26  and  C22_27 
REMARK   17  A    between atoms: C23_28  and  C24_29 
REMARK   18  A    between atoms: C26_31  and  N2_33 
REMARK   19  A    between atoms: C28_36  and  O7_37 
ROOT
HETATM    1  C9  UNL     1       5.445   9.290  13.768  1.00  0.00    -0.003 C 
HETATM    2  C10 UNL     1       4.956   8.108  13.355  1.00  0.00    -0.007 C 
ENDROOT
BRANCH   1   3
HETATM    3  C8  UNL     1       4.726  10.146  14.685  1.00  0.00    -0.002 C 
HETATM    4  C7  UNL     1       3.750  10.985  14.297  1.00  0.00     0.005 C 
BRANCH   4   5
HETATM    5  C6  UNL     1       2.937  11.876  15.206  1.00  0.00     0.144 C 
BRANCH   5   6
HETATM    6  C4  UNL     1       3.721  12.288  16.474  1.00  0.00     0.016 C 
HETATM    7  C5  UNL     1       4.496  13.601  16.336  1.00  0.00     0.013 C 
BRANCH   6   8
HETATM    8  C3  UNL     1       2.883  12.210  17.776  1.00  0.00     0.042 C 
BRANCH   8   9
HETATM    9  C2  UNL     1       2.890  10.945  18.678  1.00  0.00     0.159 C 
BRANCH   9  10
HETATM   10  O1  UNL     1       1.569  10.489  18.945  1.00  0.00    -0.388 OA
HETATM   11  C1  UNL     1       0.746  10.418  17.783  1.00  0.00     0.202 C 
ENDBRANCH   9  10
BRANCH   9  12
HETATM   12  C28 UNL     1       3.678  11.190  20.008  1.00  0.00     0.133 C 
HETATM   13  C29 UNL     1       3.559  10.094  21.123  1.00  0.00     0.114 C 
HETATM   14  C30 UNL     1       2.178   9.666  21.603  1.00  0.00     0.023 C 
HETATM   15  C31 UNL     1       4.214  10.787  22.302  1.00  0.00     0.227 C 
HETATM   16  O8  UNL     1       4.763  10.238  23.241  1.00  0.00    -0.273 OA
HETATM   17  N3  UNL     1       4.045  12.152  22.124  1.00  0.00    -0.332 N 
HETATM   18  C32 UNL     1       4.725  13.107  22.971  1.00  0.00     0.154 C 
HETATM   19  C33 UNL     1       3.429  12.503  20.786  1.00  0.00     0.183 A 
HETATM   20  C34 UNL     1       3.945  13.824  20.145  1.00  0.00     0.294 A 
HETATM   21  C35 UNL     1       2.122  13.363  20.966  1.00  0.00     0.169 A 
HETATM   22  O9  UNL     1       4.988  14.253  19.702  1.00  0.00    -0.262 OA
HETATM   23  O10 UNL     1       2.770  14.484  20.289  1.00  0.00    -0.311 OA
HETATM   24  C36 UNL     1       0.752  13.127  20.368  1.00  0.00     0.043 C 
BRANCH  12  25
HETATM   25  O7  UNL     1       5.083  11.145  19.596  1.00  0.00    -0.383 OA
HETATM   26  H42 UNL     1       5.646  11.520  20.298  1.00  0.00     0.210 HD
ENDBRANCH  12  25
ENDBRANCH   9  12
ENDBRANCH   8   9
ENDBRANCH   6   8
ENDBRANCH   5   6
BRANCH   5  27
HETATM   27  O2  UNL     1       2.482  13.018  14.492  1.00  0.00    -0.391 OA
HETATM   28  H12 UNL     1       1.890  12.688  13.792  1.00  0.00     0.210 HD
ENDBRANCH   5  27
ENDBRANCH   4   5
ENDBRANCH   1   3
BRANCH   2  29
HETATM   29  C11 UNL     1       5.573   7.135  12.397  1.00  0.00     0.149 C 
BRANCH  29  30
HETATM   30  N1  UNL     1       4.574   6.439  11.621  1.00  0.00    -0.357 N 
HETATM   31  C12 UNL     1       4.094   7.005  10.457  1.00  0.00     0.228 C 
HETATM   32  O3  UNL     1       4.605   8.016   9.975  1.00  0.00    -0.273 OA
HETATM   33  H19 UNL     1       3.985   5.792  12.122  1.00  0.00     0.162 HD
BRANCH  31  34
HETATM   34  C13 UNL     1       2.970   6.238   9.737  1.00  0.00     0.063 C 
HETATM   35  C14 UNL     1       3.330   4.756   9.513  1.00  0.00     0.028 C 
HETATM   36  C15 UNL     1       2.804   6.923   8.362  1.00  0.00     0.028 C 
BRANCH  34  37
HETATM   37  C16 UNL     1       1.611   6.336  10.517  1.00  0.00     0.164 C 
BRANCH  37  38
HETATM   38  O4  UNL     1       0.805   5.167  10.357  1.00  0.00    -0.390 OA
HETATM   39  H27 UNL     1       0.736   4.997   9.395  1.00  0.00     0.210 HD
ENDBRANCH  37  38
BRANCH  37  40
HETATM   40  C17 UNL     1       0.741   7.568  10.278  1.00  0.00    -0.054 C 
HETATM   41  C18 UNL     1       0.636   8.062   8.854  1.00  0.00     0.046 C 
HETATM   42  C19 UNL     1       0.035   8.228  11.224  1.00  0.00     0.005 C 
BRANCH  42  43
HETATM   43  C20 UNL     1      -0.045   7.942  12.642  1.00  0.00     0.000 C 
HETATM   44  C21 UNL     1      -0.969   7.196  13.271  1.00  0.00     0.000 C 
BRANCH  44  45
HETATM   45  C22 UNL     1      -2.097   6.502  12.682  1.00  0.00     0.001 C 
HETATM   46  C23 UNL     1      -2.458   5.259  13.048  1.00  0.00     0.009 C 
BRANCH  46  47
HETATM   47  C24 UNL     1      -3.579   4.484  12.496  1.00  0.00    -0.034 C 
HETATM   48  C25 UNL     1      -4.922   4.692  13.174  1.00  0.00     0.050 C 
HETATM   49  C26 UNL     1      -3.384   3.627  11.465  1.00  0.00     0.082 C 
HETATM   50  C27 UNL     1      -2.171   3.288  10.664  1.00  0.00     0.075 C 
BRANCH  49  51
HETATM   51  N2  UNL     1      -4.539   2.907  10.970  1.00  0.00    -0.120 N 
HETATM   52  O5  UNL     1      -5.173   3.429  10.042  1.00  0.00    -0.532 OA
HETATM   53  O6  UNL     1      -4.786   1.818  11.501  1.00  0.00    -0.532 OA
ENDBRANCH  49  51
ENDBRANCH  46  47
ENDBRANCH  44  45
ENDBRANCH  42  43
ENDBRANCH  37  40
ENDBRANCH  34  37
ENDBRANCH  31  34
ENDBRANCH  29  30
ENDBRANCH   2  29
TORSDOF 19
ENDMDL
MODEL 9
REMARK minimizedAffinity -8.04548454
REMARK CNNscore 0.205367416
REMARK CNNaffinity 6.49571371
REMARK  19 active torsions:
REMARK  status: ('A' for Active; 'I' for Inactive)
REMARK    1  A    between atoms: O1_2  and  C2_3 
REMARK    2  A    between atoms: C2_3  and  C3_4 
REMARK    3  A    between atoms: C2_3  and  C28_36 
REMARK    4  A    between atoms: C3_4  and  C4_5 
REMARK    5  A    between atoms: C4_5  and  C6_7 
REMARK    6  A    between atoms: C6_7  and  O2_8 
REMARK    7  A    between atoms: C6_7  and  C7_9 
REMARK    8  A    between atoms: C8_10  and  C9_11 
REMARK    9  A    between atoms: C10_12  and  C11_13 
REMARK   10  A    between atoms: C11_13  and  N1_14 
REMARK       I    between atoms: N1_14  and  C12_15 
REMARK   11  A    between atoms: C12_15  and  C13_17 
REMARK   12  A    between atoms: C13_17  and  C16_20 
REMARK   13  A    between atoms: C16_20  and  O4_21 
REMARK   14  A    between atoms: C16_20  and  C17_22 
REMARK   15  A    between atoms: C19_24  and  C20_25 
REMARK   16  A    between atoms: C21_26  and  C22_27 
REMARK   17  A    between atoms: C23_28  and  C24_29 
REMARK   18  A    between atoms: C26_31  and  N2_33 
REMARK   19  A    between atoms: C28_36  and  O7_37 
ROOT
HETATM    1  C9  UNL     1      -7.026   4.818  13.928  1.00  0.00    -0.003 C 
HETATM    2  C10 UNL     1      -7.193   5.675  14.951  1.00  0.00    -0.007 C 
ENDROOT
BRANCH   1   3
HETATM    3  C8  UNL     1      -5.750   4.633  13.275  1.00  0.00    -0.002 C 
HETATM    4  C7  UNL     1      -4.750   5.529  13.344  1.00  0.00     0.005 C 
BRANCH   4   5
HETATM    5  C6  UNL     1      -3.384   5.381  12.718  1.00  0.00     0.144 C 
BRANCH   5   6
HETATM    6  C4  UNL     1      -2.286   6.100  13.537  1.00  0.00     0.016 C 
HETATM    7  C5  UNL     1      -1.859   5.357  14.806  1.00  0.00     0.013 C 
BRANCH   6   8
HETATM    8  C3  UNL     1      -1.086   6.581  12.682  1.00  0.00     0.042 C 
BRANCH   8   9
HETATM    9  C2  UNL     1      -0.084   7.646  13.206  1.00  0.00     0.159 C 
BRANCH   9  10
HETATM   10  O1  UNL     1      -0.363   8.933  12.666  1.00  0.00    -0.388 OA
HETATM   11  C1  UNL     1      -1.752   9.258  12.657  1.00  0.00     0.202 C 
ENDBRANCH   9  10
BRANCH   9  12
HETATM   12  C28 UNL     1       1.398   7.231  12.927  1.00  0.00     0.133 C 
HETATM   13  C29 UNL     1       2.518   8.245  13.347  1.00  0.00     0.114 C 
HETATM   14  C30 UNL     1       2.451   9.681  12.840  1.00  0.00     0.023 C 
HETATM   15  C31 UNL     1       3.744   7.631  12.699  1.00  0.00     0.227 C 
HETATM   16  O8  UNL     1       4.896   7.766  13.074  1.00  0.00    -0.273 OA
HETATM   17  N3  UNL     1       3.312   6.916  11.593  1.00  0.00    -0.332 N 
HETATM   18  C32 UNL     1       4.209   6.046  10.866  1.00  0.00     0.154 C 
HETATM   19  C33 UNL     1       1.803   6.849  11.484  1.00  0.00     0.183 A 
HETATM   20  C34 UNL     1       1.238   5.515  10.913  1.00  0.00     0.294 A 
HETATM   21  C35 UNL     1       1.303   7.396  10.095  1.00  0.00     0.169 A 
HETATM   22  O9  UNL     1       1.200   4.349  11.239  1.00  0.00    -0.262 OA
HETATM   23  O10 UNL     1       0.790   6.070   9.760  1.00  0.00    -0.311 OA
HETATM   24  C36 UNL     1       0.241   8.439   9.822  1.00  0.00     0.043 C 
BRANCH  12  25
HETATM   25  O7  UNL     1       1.607   6.072  13.798  1.00  0.00    -0.383 OA
HETATM   26  H42 UNL     1       2.413   5.594  13.527  1.00  0.00     0.210 HD
ENDBRANCH  12  25
ENDBRANCH   9  12
ENDBRANCH   8   9
ENDBRANCH   6   8
ENDBRANCH   5   6
BRANCH   5  27
HETATM   27  O2  UNL     1      -3.073   4.005  12.543  1.00  0.00    -0.391 OA
HETATM   28  H12 UNL     1      -3.727   3.653  11.913  1.00  0.00     0.210 HD
ENDBRANCH   5  27
ENDBRANCH   4   5
ENDBRANCH   1   3
BRANCH   2  29
HETATM   29  C11 UNL     1      -8.451   5.986  15.702  1.00  0.00     0.149 C 
BRANCH  29  30
HETATM   30  N1  UNL     1      -9.516   6.399  14.818  1.00  0.00    -0.357 N 
HETATM   31  C12 UNL     1     -10.199   7.572  15.069  1.00  0.00     0.228 C 
HETATM   32  O3  UNL     1      -9.825   8.361  15.938  1.00  0.00    -0.273 OA
HETATM   33  H19 UNL     1      -9.984   5.668  14.305  1.00  0.00     0.162 HD
BRANCH  31  34
HETATM   34  C13 UNL     1     -11.374   7.894  14.128  1.00  0.00     0.063 C 
HETATM   35  C14 UNL     1     -11.063   7.524  12.665  1.00  0.00     0.028 C 
HETATM   36  C15 UNL     1     -11.584   9.421  14.221  1.00  0.00     0.028 C 
BRANCH  34  37
HETATM   37  C16 UNL     1     -12.693   7.174  14.583  1.00  0.00     0.164 C 
BRANCH  37  38
HETATM   38  O4  UNL     1     -12.633   5.758  14.398  1.00  0.00    -0.390 OA
HETATM   39  H27 UNL     1     -12.357   5.603  13.471  1.00  0.00     0.210 HD
ENDBRANCH  37  38
BRANCH  37  40
HETATM   40  C17 UNL     1     -14.015   7.687  14.016  1.00  0.00    -0.054 C 
HETATM   41  C18 UNL     1     -13.958   8.381  12.675  1.00  0.00     0.046 C 
HETATM   42  C19 UNL     1     -15.229   7.543  14.597  1.00  0.00     0.005 C 
BRANCH  42  43
HETATM   43  C20 UNL     1     -15.546   6.905  15.858  1.00  0.00     0.000 C 
HETATM   44  C21 UNL     1     -15.807   5.603  16.068  1.00  0.00     0.000 C 
BRANCH  44  45
HETATM   45  C22 UNL     1     -15.829   4.535  15.088  1.00  0.00     0.001 C 
HETATM   46  C23 UNL     1     -16.786   3.590  15.064  1.00  0.00     0.009 C 
BRANCH  46  47
HETATM   47  C24 UNL     1     -16.876   2.472  14.112  1.00  0.00    -0.034 C 
HETATM   48  C25 UNL     1     -17.826   2.675  12.945  1.00  0.00     0.050 C 
HETATM   49  C26 UNL     1     -16.163   1.337  14.312  1.00  0.00     0.082 C 
HETATM   50  C27 UNL     1     -15.184   0.945  15.368  1.00  0.00     0.075 C 
BRANCH  49  51
HETATM   51  N2  UNL     1     -16.298   0.285  13.325  1.00  0.00    -0.120 N 
HETATM   52  O5  UNL     1     -15.526   0.319  12.357  1.00  0.00    -0.532 OA
HETATM   53  O6  UNL     1     -17.159  -0.575  13.542  1.00  0.00    -0.532 OA
ENDBRANCH  49  51
ENDBRANCH  46  47
ENDBRANCH  44  45
ENDBRANCH  42  43
ENDBRANCH  37  40
ENDBRANCH  34  37
ENDBRANCH  31  34
ENDBRANCH  29  30
ENDBRANCH   2  29
TORSDOF 19
ENDMDL
