MODEL 1
REMARK minimizedAffinity -9.38892078
REMARK  9 active torsions:
REMARK  status: ('A' for Active; 'I' for Inactive)
REMARK    1  A    between atoms: C2_2  and  C30_33 
REMARK    2  A    between atoms: C3_3  and  C4_4 
REMARK    3  A    between atoms: C4_4  and  C5_5 
REMARK    4  A    between atoms: C5_5  and  C6_6 
REMARK    5  A    between atoms: C6_6  and  C8_8 
REMARK    6  A    between atoms: C10_10  and  O1_11 
REMARK    7  A    between atoms: C23_24  and  O2_25 
REMARK    8  A    between atoms: C29_31  and  O3_32 
REMARK    9  A    between atoms: C30_33  and  O4_34 
ROOT
HETATM    1  C8  UNL     1      -2.765   8.318  15.213  1.00  0.00     0.001 C 
HETATM    2  C9  UNL     1      -1.770   8.175  16.396  1.00  0.00     0.038 C 
HETATM    3  C10 UNL     1      -0.368   7.992  15.770  1.00  0.00     0.132 C 
HETATM    4  C11 UNL     1      -0.524   8.468  14.303  1.00  0.00     0.016 C 
HETATM    5  C12 UNL     1      -0.469  10.032  14.271  1.00  0.00     0.023 C 
HETATM    6  C13 UNL     1       0.486   7.999  13.257  1.00  0.00    -0.037 C 
HETATM    7  C14 UNL     1       0.102   7.924  11.954  1.00  0.00    -0.065 C 
HETATM    8  C15 UNL     1      -1.344   8.212  11.522  1.00  0.00     0.036 C 
HETATM    9  C16 UNL     1      -2.401   8.423  12.629  1.00  0.00     0.015 C 
HETATM   10  C17 UNL     1      -1.935   7.855  13.974  1.00  0.00    -0.026 C 
HETATM   11  C18 UNL     1      -1.941   6.303  13.855  1.00  0.00     0.016 C 
HETATM   12  C19 UNL     1       1.090   7.479  10.837  1.00  0.00    -0.016 C 
HETATM   13  C20 UNL     1       0.786   5.985  10.601  1.00  0.00     0.020 C 
HETATM   14  C21 UNL     1       0.871   8.319   9.559  1.00  0.00     0.016 C 
HETATM   15  C22 UNL     1       1.872   8.128   8.420  1.00  0.00     0.033 C 
HETATM   16  C23 UNL     1       3.162   7.381   8.751  1.00  0.00     0.126 C 
HETATM   17  C24 UNL     1       3.689   7.513  10.212  1.00  0.00    -0.017 C 
HETATM   18  C25 UNL     1       4.609   8.769  10.247  1.00  0.00     0.018 C 
HETATM   19  C26 UNL     1       4.597   6.301  10.536  1.00  0.00     0.018 C 
HETATM   20  C27 UNL     1       2.557   7.753  11.294  1.00  0.00     0.011 C 
HETATM   21  C28 UNL     1       2.818   7.091  12.661  1.00  0.00     0.043 C 
HETATM   22  C29 UNL     1       1.876   7.644  13.739  1.00  0.00     0.148 C 
ENDROOT
BRANCH   1  23
HETATM   23  C6  UNL     1      -4.196   7.738  15.407  1.00  0.00    -0.013 C 
HETATM   24  C7  UNL     1      -4.093   6.217  15.629  1.00  0.00     0.010 C 
BRANCH  23  25
HETATM   25  C5  UNL     1      -5.191   8.009  14.256  1.00  0.00     0.008 C 
BRANCH  25  26
HETATM   26  C4  UNL     1      -5.301   6.833  13.277  1.00  0.00     0.028 C 
BRANCH  26  27
HETATM   27  C3  UNL     1      -6.395   5.884  13.680  1.00  0.00    -0.022 C 
HETATM   28  C2  UNL     1      -6.447   4.550  13.476  1.00  0.00    -0.064 C 
HETATM   29  C1  UNL     1      -5.399   3.779  12.715  1.00  0.00     0.045 C 
BRANCH  28  30
HETATM   30  C30 UNL     1      -7.595   3.683  13.957  1.00  0.00     0.197 C 
BRANCH  30  31
HETATM   31  O4  UNL     1      -8.687   3.678  13.048  1.00  0.00    -0.397 OA
HETATM   32  H50 UNL     1      -8.964   4.603  12.953  1.00  0.00     0.209 HD
ENDBRANCH  30  31
ENDBRANCH  28  30
ENDBRANCH  26  27
ENDBRANCH  25  26
ENDBRANCH  23  25
ENDBRANCH   1  23
BRANCH   3  33
HETATM   33  O1  UNL     1       0.622   8.724  16.482  1.00  0.00    -0.394 OA
HETATM   34  H17 UNL     1       0.550   8.465  17.424  1.00  0.00     0.210 HD
ENDBRANCH   3  33
BRANCH  22  35
HETATM   35  O3  UNL     1       2.486   8.810  14.276  1.00  0.00    -0.391 OA
HETATM   36  H47 UNL     1       2.059   8.985  15.136  1.00  0.00     0.210 HD
ENDBRANCH  22  35
BRANCH  16  37
HETATM   37  O2  UNL     1       2.982   6.004   8.400  1.00  0.00    -0.395 OA
HETATM   38  H36 UNL     1       2.800   5.959   7.445  1.00  0.00     0.210 HD
ENDBRANCH  16  37
TORSDOF 9
ENDMDL
MODEL 2
REMARK minimizedAffinity -8.99256039
REMARK  9 active torsions:
REMARK  status: ('A' for Active; 'I' for Inactive)
REMARK    1  A    between atoms: C2_2  and  C30_33 
REMARK    2  A    between atoms: C3_3  and  C4_4 
REMARK    3  A    between atoms: C4_4  and  C5_5 
REMARK    4  A    between atoms: C5_5  and  C6_6 
REMARK    5  A    between atoms: C6_6  and  C8_8 
REMARK    6  A    between atoms: C10_10  and  O1_11 
REMARK    7  A    between atoms: C23_24  and  O2_25 
REMARK    8  A    between atoms: C29_31  and  O3_32 
REMARK    9  A    between atoms: C30_33  and  O4_34 
ROOT
HETATM    1  C8  UNL     1      -2.454   5.890  13.452  1.00  0.00     0.001 C 
HETATM    2  C9  UNL     1      -2.507   5.166  12.080  1.00  0.00     0.038 C 
HETATM    3  C10 UNL     1      -1.101   5.315  11.451  1.00  0.00     0.132 C 
HETATM    4  C11 UNL     1      -0.180   5.717  12.632  1.00  0.00     0.016 C 
HETATM    5  C12 UNL     1       0.186   4.430  13.446  1.00  0.00     0.023 C 
HETATM    6  C13 UNL     1       1.149   6.408  12.335  1.00  0.00    -0.037 C 
HETATM    7  C14 UNL     1       1.689   7.232  13.274  1.00  0.00    -0.065 C 
HETATM    8  C15 UNL     1       0.953   7.553  14.584  1.00  0.00     0.036 C 
HETATM    9  C16 UNL     1      -0.501   7.053  14.738  1.00  0.00     0.015 C 
HETATM   10  C17 UNL     1      -1.132   6.718  13.383  1.00  0.00    -0.026 C 
HETATM   11  C18 UNL     1      -1.362   8.061  12.629  1.00  0.00     0.016 C 
HETATM   12  C19 UNL     1       3.053   7.947  13.045  1.00  0.00    -0.016 C 
HETATM   13  C20 UNL     1       2.689   9.371  12.576  1.00  0.00     0.020 C 
HETATM   14  C21 UNL     1       3.877   7.965  14.351  1.00  0.00     0.016 C 
HETATM   15  C22 UNL     1       5.313   8.478  14.261  1.00  0.00     0.033 C 
HETATM   16  C23 UNL     1       5.909   8.624  12.863  1.00  0.00     0.126 C 
HETATM   17  C24 UNL     1       5.385   7.639  11.776  1.00  0.00    -0.017 C 
HETATM   18  C25 UNL     1       6.288   6.372  11.842  1.00  0.00     0.018 C 
HETATM   19  C26 UNL     1       5.612   8.260  10.376  1.00  0.00     0.018 C 
HETATM   20  C27 UNL     1       3.898   7.145  12.006  1.00  0.00     0.011 C 
HETATM   21  C28 UNL     1       3.082   6.925  10.718  1.00  0.00     0.043 C 
HETATM   22  C29 UNL     1       1.799   6.130  10.997  1.00  0.00     0.148 C 
ENDROOT
BRANCH   1  23
HETATM   23  C6  UNL     1      -3.750   6.600  13.938  1.00  0.00    -0.013 C 
HETATM   24  C7  UNL     1      -4.032   6.184  15.394  1.00  0.00     0.010 C 
BRANCH  23  25
HETATM   25  C5  UNL     1      -5.015   6.342  13.089  1.00  0.00     0.008 C 
BRANCH  25  26
HETATM   26  C4  UNL     1      -5.801   5.110  13.556  1.00  0.00     0.028 C 
BRANCH  26  27
HETATM   27  C3  UNL     1      -5.577   3.937  12.643  1.00  0.00    -0.022 C 
HETATM   28  C2  UNL     1      -6.452   2.958  12.327  1.00  0.00    -0.064 C 
HETATM   29  C1  UNL     1      -7.832   2.845  12.922  1.00  0.00     0.045 C 
BRANCH  28  30
HETATM   30  C30 UNL     1      -6.124   1.834  11.363  1.00  0.00     0.197 C 
BRANCH  30  31
HETATM   31  O4  UNL     1      -4.724   1.647  11.206  1.00  0.00    -0.397 OA
HETATM   32  H50 UNL     1      -4.372   2.494  10.889  1.00  0.00     0.209 HD
ENDBRANCH  30  31
ENDBRANCH  28  30
ENDBRANCH  26  27
ENDBRANCH  25  26
ENDBRANCH  23  25
ENDBRANCH   1  23
BRANCH   3  33
HETATM   33  O1  UNL     1      -0.684   4.114  10.812  1.00  0.00    -0.394 OA
HETATM   34  H17 UNL     1      -1.395   3.858  10.188  1.00  0.00     0.210 HD
ENDBRANCH   3  33
BRANCH  22  35
HETATM   35  O3  UNL     1       2.132   4.751  10.927  1.00  0.00    -0.391 OA
HETATM   36  H47 UNL     1       1.296   4.262  10.804  1.00  0.00     0.210 HD
ENDBRANCH  22  35
BRANCH  16  37
HETATM   37  O2  UNL     1       5.734   9.983  12.443  1.00  0.00    -0.395 OA
HETATM   38  H36 UNL     1       6.205  10.555  13.075  1.00  0.00     0.210 HD
ENDBRANCH  16  37
TORSDOF 9
ENDMDL
MODEL 3
REMARK minimizedAffinity -8.93661213
REMARK  9 active torsions:
REMARK  status: ('A' for Active; 'I' for Inactive)
REMARK    1  A    between atoms: C2_2  and  C30_33 
REMARK    2  A    between atoms: C3_3  and  C4_4 
REMARK    3  A    between atoms: C4_4  and  C5_5 
REMARK    4  A    between atoms: C5_5  and  C6_6 
REMARK    5  A    between atoms: C6_6  and  C8_8 
REMARK    6  A    between atoms: C10_10  and  O1_11 
REMARK    7  A    between atoms: C23_24  and  O2_25 
REMARK    8  A    between atoms: C29_31  and  O3_32 
REMARK    9  A    between atoms: C30_33  and  O4_34 
ROOT
HETATM    1  C8  UNL     1       0.617   8.605  13.438  1.00  0.00     0.001 C 
HETATM    2  C9  UNL     1       0.571   9.858  14.352  1.00  0.00     0.038 C 
HETATM    3  C10 UNL     1      -0.859   9.920  14.938  1.00  0.00     0.132 C 
HETATM    4  C11 UNL     1      -1.443   8.502  14.711  1.00  0.00     0.016 C 
HETATM    5  C12 UNL     1      -0.895   7.547  15.824  1.00  0.00     0.023 C 
HETATM    6  C13 UNL     1      -2.958   8.312  14.714  1.00  0.00    -0.037 C 
HETATM    7  C14 UNL     1      -3.497   7.282  14.007  1.00  0.00    -0.065 C 
HETATM    8  C15 UNL     1      -2.628   6.362  13.136  1.00  0.00     0.036 C 
HETATM    9  C16 UNL     1      -1.142   6.740  12.942  1.00  0.00     0.015 C 
HETATM   10  C17 UNL     1      -0.885   8.214  13.269  1.00  0.00    -0.026 C 
HETATM   11  C18 UNL     1      -1.553   9.065  12.149  1.00  0.00     0.016 C 
HETATM   12  C19 UNL     1      -5.031   7.018  13.990  1.00  0.00    -0.016 C 
HETATM   13  C20 UNL     1      -5.536   7.660  12.681  1.00  0.00     0.020 C 
HETATM   14  C21 UNL     1      -5.316   5.500  14.034  1.00  0.00     0.016 C 
HETATM   15  C22 UNL     1      -6.773   5.070  14.195  1.00  0.00     0.033 C 
HETATM   16  C23 UNL     1      -7.770   6.148  14.614  1.00  0.00     0.126 C 
HETATM   17  C24 UNL     1      -7.216   7.302  15.503  1.00  0.00    -0.017 C 
HETATM   18  C25 UNL     1      -7.355   6.839  16.983  1.00  0.00     0.018 C 
HETATM   19  C26 UNL     1      -8.128   8.544  15.350  1.00  0.00     0.018 C 
HETATM   20  C27 UNL     1      -5.682   7.623  15.274  1.00  0.00     0.011 C 
HETATM   21  C28 UNL     1      -5.304   9.110  15.408  1.00  0.00     0.043 C 
HETATM   22  C29 UNL     1      -3.784   9.294  15.518  1.00  0.00     0.148 C 
ENDROOT
BRANCH   1  23
HETATM   23  C6  UNL     1       1.513   8.677  12.169  1.00  0.00    -0.013 C 
HETATM   24  C7  UNL     1       0.692   8.216  10.950  1.00  0.00     0.010 C 
BRANCH  23  25
HETATM   25  C5  UNL     1       2.825   7.861  12.226  1.00  0.00     0.008 C 
BRANCH  25  26
HETATM   26  C4  UNL     1       3.495   7.719  10.853  1.00  0.00     0.028 C 
BRANCH  26  27
HETATM   27  C3  UNL     1       3.754   6.278  10.515  1.00  0.00    -0.022 C 
HETATM   28  C2  UNL     1       3.417   5.622   9.384  1.00  0.00    -0.064 C 
HETATM   29  C1  UNL     1       2.629   6.243   8.260  1.00  0.00     0.045 C 
BRANCH  28  30
HETATM   30  C30 UNL     1       3.760   4.165   9.139  1.00  0.00     0.197 C 
BRANCH  30  31
HETATM   31  O4  UNL     1       3.047   3.288  10.001  1.00  0.00    -0.397 OA
HETATM   32  H50 UNL     1       3.276   3.554  10.906  1.00  0.00     0.209 HD
ENDBRANCH  30  31
ENDBRANCH  28  30
ENDBRANCH  26  27
ENDBRANCH  25  26
ENDBRANCH  23  25
ENDBRANCH   1  23
BRANCH   3  33
HETATM   33  O1  UNL     1      -0.846  10.295  16.311  1.00  0.00    -0.394 OA
HETATM   34  H17 UNL     1      -0.332  11.127  16.377  1.00  0.00     0.210 HD
ENDBRANCH   3  33
BRANCH  22  35
HETATM   35  O3  UNL     1      -3.441   9.164  16.891  1.00  0.00    -0.391 OA
HETATM   36  H47 UNL     1      -2.559   9.567  17.003  1.00  0.00     0.210 HD
ENDBRANCH  22  35
BRANCH  16  37
HETATM   37  O2  UNL     1      -8.387   6.670  13.432  1.00  0.00    -0.395 OA
HETATM   38  H36 UNL     1      -8.847   5.938  12.985  1.00  0.00     0.210 HD
ENDBRANCH  16  37
TORSDOF 9
ENDMDL
MODEL 4
REMARK minimizedAffinity -8.82342243
REMARK  9 active torsions:
REMARK  status: ('A' for Active; 'I' for Inactive)
REMARK    1  A    between atoms: C2_2  and  C30_33 
REMARK    2  A    between atoms: C3_3  and  C4_4 
REMARK    3  A    between atoms: C4_4  and  C5_5 
REMARK    4  A    between atoms: C5_5  and  C6_6 
REMARK    5  A    between atoms: C6_6  and  C8_8 
REMARK    6  A    between atoms: C10_10  and  O1_11 
REMARK    7  A    between atoms: C23_24  and  O2_25 
REMARK    8  A    between atoms: C29_31  and  O3_32 
REMARK    9  A    between atoms: C30_33  and  O4_34 
ROOT
HETATM    1  C8  UNL     1      -1.544   5.155  12.782  1.00  0.00     0.001 C 
HETATM    2  C9  UNL     1      -0.764   5.900  11.666  1.00  0.00     0.038 C 
HETATM    3  C10 UNL     1      -0.694   7.384  12.097  1.00  0.00     0.132 C 
HETATM    4  C11 UNL     1      -1.030   7.373  13.611  1.00  0.00     0.016 C 
HETATM    5  C12 UNL     1       0.251   6.953  14.408  1.00  0.00     0.023 C 
HETATM    6  C13 UNL     1      -1.523   8.658  14.272  1.00  0.00    -0.037 C 
HETATM    7  C14 UNL     1      -2.315   8.572  15.375  1.00  0.00    -0.065 C 
HETATM    8  C15 UNL     1      -2.797   7.217  15.917  1.00  0.00     0.036 C 
HETATM    9  C16 UNL     1      -2.502   5.955  15.075  1.00  0.00     0.015 C 
HETATM   10  C17 UNL     1      -2.185   6.306  13.618  1.00  0.00    -0.026 C 
HETATM   11  C18 UNL     1      -3.506   6.798  12.957  1.00  0.00     0.016 C 
HETATM   12  C19 UNL     1      -2.831   9.843  16.111  1.00  0.00    -0.016 C 
HETATM   13  C20 UNL     1      -4.265  10.060  15.585  1.00  0.00     0.020 C 
HETATM   14  C21 UNL     1      -2.806   9.626  17.641  1.00  0.00     0.016 C 
HETATM   15  C22 UNL     1      -3.120  10.835  18.520  1.00  0.00     0.033 C 
HETATM   16  C23 UNL     1      -3.114  12.203  17.843  1.00  0.00     0.126 C 
HETATM   17  C24 UNL     1      -2.153  12.376  16.629  1.00  0.00    -0.017 C 
HETATM   18  C25 UNL     1      -0.782  12.844  17.201  1.00  0.00     0.018 C 
HETATM   19  C26 UNL     1      -2.666  13.531  15.734  1.00  0.00     0.018 C 
HETATM   20  C27 UNL     1      -1.872  11.041  15.824  1.00  0.00     0.011 C 
HETATM   21  C28 UNL     1      -1.696  11.225  14.304  1.00  0.00     0.043 C 
HETATM   22  C29 UNL     1      -1.094   9.972  13.655  1.00  0.00     0.148 C 
ENDROOT
BRANCH   1  23
HETATM   23  C6  UNL     1      -2.443   3.960  12.352  1.00  0.00    -0.013 C 
HETATM   24  C7  UNL     1      -1.632   3.031  11.429  1.00  0.00     0.010 C 
BRANCH  23  25
HETATM   25  C5  UNL     1      -3.766   4.336  11.648  1.00  0.00     0.008 C 
BRANCH  25  26
HETATM   26  C4  UNL     1      -4.970   3.558  12.194  1.00  0.00     0.028 C 
BRANCH  26  27
HETATM   27  C3  UNL     1      -5.695   4.340  13.253  1.00  0.00    -0.022 C 
HETATM   28  C2  UNL     1      -6.983   4.211  13.638  1.00  0.00    -0.064 C 
HETATM   29  C1  UNL     1      -7.959   3.265  12.990  1.00  0.00     0.045 C 
BRANCH  28  30
HETATM   30  C30 UNL     1      -7.602   5.041  14.747  1.00  0.00     0.197 C 
BRANCH  30  31
HETATM   31  O4  UNL     1      -7.929   4.260  15.889  1.00  0.00    -0.397 OA
HETATM   32  H50 UNL     1      -8.542   3.574  15.581  1.00  0.00     0.209 HD
ENDBRANCH  30  31
ENDBRANCH  28  30
ENDBRANCH  26  27
ENDBRANCH  25  26
ENDBRANCH  23  25
ENDBRANCH   1  23
BRANCH   3  33
HETATM   33  O1  UNL     1       0.583   7.949  11.822  1.00  0.00    -0.394 OA
HETATM   34  H17 UNL     1       0.774   7.780  10.875  1.00  0.00     0.210 HD
ENDBRANCH   3  33
BRANCH  22  35
HETATM   35  O3  UNL     1       0.319  10.083  13.752  1.00  0.00    -0.391 OA
HETATM   36  H47 UNL     1       0.699   9.466  13.097  1.00  0.00     0.210 HD
ENDBRANCH  22  35
BRANCH  16  37
HETATM   37  O2  UNL     1      -4.461  12.524  17.473  1.00  0.00    -0.395 OA
HETATM   38  H36 UNL     1      -4.997  12.549  18.285  1.00  0.00     0.210 HD
ENDBRANCH  16  37
TORSDOF 9
ENDMDL
MODEL 5
REMARK minimizedAffinity -8.7799139
REMARK  9 active torsions:
REMARK  status: ('A' for Active; 'I' for Inactive)
REMARK    1  A    between atoms: C2_2  and  C30_33 
REMARK    2  A    between atoms: C3_3  and  C4_4 
REMARK    3  A    between atoms: C4_4  and  C5_5 
REMARK    4  A    between atoms: C5_5  and  C6_6 
REMARK    5  A    between atoms: C6_6  and  C8_8 
REMARK    6  A    between atoms: C10_10  and  O1_11 
REMARK    7  A    between atoms: C23_24  and  O2_25 
REMARK    8  A    between atoms: C29_31  and  O3_32 
REMARK    9  A    between atoms: C30_33  and  O4_34 
ROOT
HETATM    1  C8  UNL     1      -2.216   5.195  12.615  1.00  0.00     0.001 C 
HETATM    2  C9  UNL     1      -2.117   5.402  14.150  1.00  0.00     0.038 C 
HETATM    3  C10 UNL     1      -0.778   6.132  14.408  1.00  0.00     0.132 C 
HETATM    4  C11 UNL     1      -0.369   6.707  13.028  1.00  0.00     0.016 C 
HETATM    5  C12 UNL     1      -1.178   8.022  12.770  1.00  0.00     0.023 C 
HETATM    6  C13 UNL     1       1.094   7.069  12.778  1.00  0.00    -0.037 C 
HETATM    7  C14 UNL     1       1.574   7.039  11.505  1.00  0.00    -0.065 C 
HETATM    8  C15 UNL     1       0.706   6.566  10.328  1.00  0.00     0.036 C 
HETATM    9  C16 UNL     1      -0.677   5.957  10.648  1.00  0.00     0.015 C 
HETATM   10  C17 UNL     1      -0.772   5.499  12.107  1.00  0.00    -0.026 C 
HETATM   11  C18 UNL     1       0.142   4.248  12.265  1.00  0.00     0.016 C 
HETATM   12  C19 UNL     1       3.047   7.420  11.179  1.00  0.00    -0.016 C 
HETATM   13  C20 UNL     1       3.798   6.077  11.071  1.00  0.00     0.020 C 
HETATM   14  C21 UNL     1       3.116   8.225   9.861  1.00  0.00     0.016 C 
HETATM   15  C22 UNL     1       4.469   8.824   9.482  1.00  0.00     0.033 C 
HETATM   16  C23 UNL     1       5.541   8.855  10.568  1.00  0.00     0.126 C 
HETATM   17  C24 UNL     1       5.040   8.981  12.038  1.00  0.00    -0.017 C 
HETATM   18  C25 UNL     1       4.925  10.502  12.348  1.00  0.00     0.018 C 
HETATM   19  C26 UNL     1       6.124   8.424  12.994  1.00  0.00     0.018 C 
HETATM   20  C27 UNL     1       3.605   8.360  12.294  1.00  0.00     0.011 C 
HETATM   21  C28 UNL     1       3.418   7.707  13.677  1.00  0.00     0.043 C 
HETATM   22  C29 UNL     1       1.936   7.447  13.978  1.00  0.00     0.148 C 
ENDROOT
BRANCH   1  23
HETATM   23  C6  UNL     1      -2.925   3.905  12.110  1.00  0.00    -0.013 C 
HETATM   24  C7  UNL     1      -2.535   3.663  10.640  1.00  0.00     0.010 C 
BRANCH  23  25
HETATM   25  C5  UNL     1      -4.466   3.896  12.228  1.00  0.00     0.008 C 
BRANCH  25  26
HETATM   26  C4  UNL     1      -4.975   4.727  13.413  1.00  0.00     0.028 C 
BRANCH  26  27
HETATM   27  C3  UNL     1      -6.289   5.385  13.098  1.00  0.00    -0.022 C 
HETATM   28  C2  UNL     1      -7.516   4.821  13.100  1.00  0.00    -0.064 C 
HETATM   29  C1  UNL     1      -7.763   3.358  13.363  1.00  0.00     0.045 C 
BRANCH  28  30
HETATM   30  C30 UNL     1      -8.783   5.595  12.794  1.00  0.00     0.197 C 
BRANCH  30  31
HETATM   31  O4  UNL     1      -9.466   6.003  13.972  1.00  0.00    -0.397 OA
HETATM   32  H50 UNL     1      -9.662   5.191  14.466  1.00  0.00     0.209 HD
ENDBRANCH  30  31
ENDBRANCH  28  30
ENDBRANCH  26  27
ENDBRANCH  25  26
ENDBRANCH  23  25
ENDBRANCH   1  23
BRANCH   3  33
HETATM   33  O1  UNL     1      -0.916   7.139  15.404  1.00  0.00    -0.394 OA
HETATM   34  H17 UNL     1      -1.316   6.713  16.191  1.00  0.00     0.210 HD
ENDBRANCH   3  33
BRANCH  22  35
HETATM   35  O3  UNL     1       1.406   8.633  14.553  1.00  0.00    -0.391 OA
HETATM   36  H47 UNL     1       0.580   8.384  15.009  1.00  0.00     0.210 HD
ENDBRANCH  22  35
BRANCH  16  37
HETATM   37  O2  UNL     1       6.369   7.696  10.412  1.00  0.00    -0.395 OA
HETATM   38  H36 UNL     1       6.778   7.737   9.530  1.00  0.00     0.210 HD
ENDBRANCH  16  37
TORSDOF 9
ENDMDL
MODEL 6
REMARK minimizedAffinity -8.77423954
REMARK  9 active torsions:
REMARK  status: ('A' for Active; 'I' for Inactive)
REMARK    1  A    between atoms: C2_2  and  C30_33 
REMARK    2  A    between atoms: C3_3  and  C4_4 
REMARK    3  A    between atoms: C4_4  and  C5_5 
REMARK    4  A    between atoms: C5_5  and  C6_6 
REMARK    5  A    between atoms: C6_6  and  C8_8 
REMARK    6  A    between atoms: C10_10  and  O1_11 
REMARK    7  A    between atoms: C23_24  and  O2_25 
REMARK    8  A    between atoms: C29_31  and  O3_32 
REMARK    9  A    between atoms: C30_33  and  O4_34 
ROOT
HETATM    1  C8  UNL     1      -1.333   5.648  12.942  1.00  0.00     0.001 C 
HETATM    2  C9  UNL     1      -0.607   6.458  11.836  1.00  0.00     0.038 C 
HETATM    3  C10 UNL     1      -0.635   7.938  12.286  1.00  0.00     0.132 C 
HETATM    4  C11 UNL     1      -0.966   7.885  13.799  1.00  0.00     0.016 C 
HETATM    5  C12 UNL     1       0.341   7.540  14.590  1.00  0.00     0.023 C 
HETATM    6  C13 UNL     1      -1.543   9.126  14.478  1.00  0.00    -0.037 C 
HETATM    7  C14 UNL     1      -2.325   8.973  15.580  1.00  0.00    -0.065 C 
HETATM    8  C15 UNL     1      -2.715   7.582  16.105  1.00  0.00     0.036 C 
HETATM    9  C16 UNL     1      -2.338   6.353  15.247  1.00  0.00     0.015 C 
HETATM   10  C17 UNL     1      -2.048   6.744  13.794  1.00  0.00    -0.026 C 
HETATM   11  C18 UNL     1      -3.400   7.155  13.140  1.00  0.00     0.016 C 
HETATM   12  C19 UNL     1      -2.923  10.197  16.333  1.00  0.00    -0.016 C 
HETATM   13  C20 UNL     1      -4.369  10.326  15.812  1.00  0.00     0.020 C 
HETATM   14  C21 UNL     1      -2.881   9.963  17.860  1.00  0.00     0.016 C 
HETATM   15  C22 UNL     1      -3.272  11.137  18.755  1.00  0.00     0.033 C 
HETATM   16  C23 UNL     1      -3.359  12.511  18.096  1.00  0.00     0.126 C 
HETATM   17  C24 UNL     1      -2.413  12.762  16.883  1.00  0.00    -0.017 C 
HETATM   18  C25 UNL     1      -1.076  13.313  17.461  1.00  0.00     0.018 C 
HETATM   19  C26 UNL     1      -3.004  13.892  16.004  1.00  0.00     0.018 C 
HETATM   20  C27 UNL     1      -2.046  11.459  16.061  1.00  0.00     0.011 C 
HETATM   21  C28 UNL     1      -1.886  11.674  14.544  1.00  0.00     0.043 C 
HETATM   22  C29 UNL     1      -1.202  10.473  13.877  1.00  0.00     0.148 C 
ENDROOT
BRANCH   1  23
HETATM   23  C6  UNL     1      -2.152   4.402  12.497  1.00  0.00    -0.013 C 
HETATM   24  C7  UNL     1      -1.872   4.125  11.009  1.00  0.00     0.010 C 
BRANCH  23  25
HETATM   25  C5  UNL     1      -3.680   4.491  12.711  1.00  0.00     0.008 C 
BRANCH  25  26
HETATM   26  C4  UNL     1      -4.477   3.868  11.559  1.00  0.00     0.028 C 
BRANCH  26  27
HETATM   27  C3  UNL     1      -5.739   3.219  12.052  1.00  0.00    -0.022 C 
HETATM   28  C2  UNL     1      -6.825   3.822  12.583  1.00  0.00    -0.064 C 
HETATM   29  C1  UNL     1      -6.917   5.304  12.840  1.00  0.00     0.045 C 
BRANCH  28  30
HETATM   30  C30 UNL     1      -8.062   3.062  13.021  1.00  0.00     0.197 C 
BRANCH  30  31
HETATM   31  O4  UNL     1      -8.033   1.700  12.617  1.00  0.00    -0.397 OA
HETATM   32  H50 UNL     1      -7.950   1.707  11.650  1.00  0.00     0.209 HD
ENDBRANCH  30  31
ENDBRANCH  28  30
ENDBRANCH  26  27
ENDBRANCH  25  26
ENDBRANCH  23  25
ENDBRANCH   1  23
BRANCH   3  33
HETATM   33  O1  UNL     1       0.601   8.589  12.016  1.00  0.00    -0.394 OA
HETATM   34  H17 UNL     1       0.802   8.446  11.068  1.00  0.00     0.210 HD
ENDBRANCH   3  33
BRANCH  22  35
HETATM   35  O3  UNL     1       0.200  10.676  13.974  1.00  0.00    -0.391 OA
HETATM   36  H47 UNL     1       0.619  10.095  13.311  1.00  0.00     0.210 HD
ENDBRANCH  22  35
BRANCH  16  37
HETATM   37  O2  UNL     1      -4.724  12.746  17.731  1.00  0.00    -0.395 OA
HETATM   38  H36 UNL     1      -5.259  12.725  18.544  1.00  0.00     0.210 HD
ENDBRANCH  16  37
TORSDOF 9
ENDMDL
MODEL 7
REMARK minimizedAffinity -8.76683617
REMARK  9 active torsions:
REMARK  status: ('A' for Active; 'I' for Inactive)
REMARK    1  A    between atoms: C2_2  and  C30_33 
REMARK    2  A    between atoms: C3_3  and  C4_4 
REMARK    3  A    between atoms: C4_4  and  C5_5 
REMARK    4  A    between atoms: C5_5  and  C6_6 
REMARK    5  A    between atoms: C6_6  and  C8_8 
REMARK    6  A    between atoms: C10_10  and  O1_11 
REMARK    7  A    between atoms: C23_24  and  O2_25 
REMARK    8  A    between atoms: C29_31  and  O3_32 
REMARK    9  A    between atoms: C30_33  and  O4_34 
ROOT
HETATM    1  C8  UNL     1      -2.870   5.092  13.348  1.00  0.00     0.001 C 
HETATM    2  C9  UNL     1      -2.863   4.374  11.973  1.00  0.00     0.038 C 
HETATM    3  C10 UNL     1      -1.490   4.677  11.327  1.00  0.00     0.132 C 
HETATM    4  C11 UNL     1      -0.602   5.170  12.499  1.00  0.00     0.016 C 
HETATM    5  C12 UNL     1      -0.089   3.926  13.300  1.00  0.00     0.023 C 
HETATM    6  C13 UNL     1       0.641   6.002  12.190  1.00  0.00    -0.037 C 
HETATM    7  C14 UNL     1       1.101   6.874  13.127  1.00  0.00    -0.065 C 
HETATM    8  C15 UNL     1       0.352   7.107  14.449  1.00  0.00     0.036 C 
HETATM    9  C16 UNL     1      -1.037   6.452  14.617  1.00  0.00     0.015 C 
HETATM   10  C17 UNL     1      -1.647   6.059  13.268  1.00  0.00    -0.026 C 
HETATM   11  C18 UNL     1      -2.030   7.372  12.526  1.00  0.00     0.016 C 
HETATM   12  C19 UNL     1       2.377   7.733  12.886  1.00  0.00    -0.016 C 
HETATM   13  C20 UNL     1       1.855   9.112  12.431  1.00  0.00     0.020 C 
HETATM   14  C21 UNL     1       3.212   7.833  14.182  1.00  0.00     0.016 C 
HETATM   15  C22 UNL     1       4.583   8.499  14.078  1.00  0.00     0.033 C 
HETATM   16  C23 UNL     1       5.141   8.716  12.673  1.00  0.00     0.126 C 
HETATM   17  C24 UNL     1       4.712   7.685  11.586  1.00  0.00    -0.017 C 
HETATM   18  C25 UNL     1       5.747   6.522  11.633  1.00  0.00     0.018 C 
HETATM   19  C26 UNL     1       4.852   8.334  10.187  1.00  0.00     0.018 C 
HETATM   20  C27 UNL     1       3.289   7.032  11.831  1.00  0.00     0.011 C 
HETATM   21  C28 UNL     1       2.485   6.732  10.552  1.00  0.00     0.043 C 
HETATM   22  C29 UNL     1       1.299   5.802  10.842  1.00  0.00     0.148 C 
ENDROOT
BRANCH   1  23
HETATM   23  C6  UNL     1      -4.229   5.656  13.855  1.00  0.00    -0.013 C 
HETATM   24  C7  UNL     1      -5.374   4.827  13.242  1.00  0.00     0.010 C 
BRANCH  23  25
HETATM   25  C5  UNL     1      -4.484   7.152  13.567  1.00  0.00     0.008 C 
BRANCH  25  26
HETATM   26  C4  UNL     1      -5.086   7.894  14.768  1.00  0.00     0.028 C 
BRANCH  26  27
HETATM   27  C3  UNL     1      -6.575   8.036  14.636  1.00  0.00    -0.022 C 
HETATM   28  C2  UNL     1      -7.532   7.341  15.287  1.00  0.00    -0.064 C 
HETATM   29  C1  UNL     1      -7.242   6.213  16.243  1.00  0.00     0.045 C 
BRANCH  28  30
HETATM   30  C30 UNL     1      -9.015   7.594  15.095  1.00  0.00     0.197 C 
BRANCH  30  31
HETATM   31  O4  UNL     1      -9.820   6.673  15.820  1.00  0.00    -0.397 OA
HETATM   32  H50 UNL     1      -9.571   5.790  15.504  1.00  0.00     0.209 HD
ENDBRANCH  30  31
ENDBRANCH  28  30
ENDBRANCH  26  27
ENDBRANCH  25  26
ENDBRANCH  23  25
ENDBRANCH   1  23
BRANCH   3  33
HETATM   33  O1  UNL     1      -0.955   3.531  10.676  1.00  0.00    -0.394 OA
HETATM   34  H17 UNL     1      -1.642   3.203  10.058  1.00  0.00     0.210 HD
ENDBRANCH   3  33
BRANCH  22  35
HETATM   35  O3  UNL     1       1.778   4.467  10.760  1.00  0.00    -0.391 OA
HETATM   36  H47 UNL     1       0.998   3.891  10.644  1.00  0.00     0.210 HD
ENDBRANCH  22  35
BRANCH  16  37
HETATM   37  O2  UNL     1       4.815  10.049  12.264  1.00  0.00    -0.395 OA
HETATM   38  H36 UNL     1       5.230  10.665  12.893  1.00  0.00     0.210 HD
ENDBRANCH  16  37
TORSDOF 9
ENDMDL
MODEL 8
REMARK minimizedAffinity -8.58313084
REMARK  9 active torsions:
REMARK  status: ('A' for Active; 'I' for Inactive)
REMARK    1  A    between atoms: C2_2  and  C30_33 
REMARK    2  A    between atoms: C3_3  and  C4_4 
REMARK    3  A    between atoms: C4_4  and  C5_5 
REMARK    4  A    between atoms: C5_5  and  C6_6 
REMARK    5  A    between atoms: C6_6  and  C8_8 
REMARK    6  A    between atoms: C10_10  and  O1_11 
REMARK    7  A    between atoms: C23_24  and  O2_25 
REMARK    8  A    between atoms: C29_31  and  O3_32 
REMARK    9  A    between atoms: C30_33  and  O4_34 
ROOT
HETATM    1  C8  UNL     1      -2.681   5.384  13.515  1.00  0.00     0.001 C 
HETATM    2  C9  UNL     1      -2.749   4.690  12.128  1.00  0.00     0.038 C 
HETATM    3  C10 UNL     1      -1.387   4.949  11.442  1.00  0.00     0.132 C 
HETATM    4  C11 UNL     1      -0.441   5.385  12.590  1.00  0.00     0.016 C 
HETATM    5  C12 UNL     1       0.047   4.108  13.353  1.00  0.00     0.023 C 
HETATM    6  C13 UNL     1       0.824   6.172  12.253  1.00  0.00    -0.037 C 
HETATM    7  C14 UNL     1       1.350   7.008  13.187  1.00  0.00    -0.065 C 
HETATM    8  C15 UNL     1       0.656   7.248  14.537  1.00  0.00     0.036 C 
HETATM    9  C16 UNL     1      -0.753   6.647  14.743  1.00  0.00     0.015 C 
HETATM   10  C17 UNL     1      -1.422   6.302  13.408  1.00  0.00    -0.026 C 
HETATM   11  C18 UNL     1      -1.776   7.642  12.701  1.00  0.00     0.016 C 
HETATM   12  C19 UNL     1       2.651   7.819  12.917  1.00  0.00    -0.016 C 
HETATM   13  C20 UNL     1       2.172   9.226  12.502  1.00  0.00     0.020 C 
HETATM   14  C21 UNL     1       3.532   7.862  14.186  1.00  0.00     0.016 C 
HETATM   15  C22 UNL     1       4.925   8.474  14.045  1.00  0.00     0.033 C 
HETATM   16  C23 UNL     1       5.445   8.693  12.626  1.00  0.00     0.126 C 
HETATM   17  C24 UNL     1       4.938   7.699  11.538  1.00  0.00    -0.017 C 
HETATM   18  C25 UNL     1       5.925   6.496  11.530  1.00  0.00     0.018 C 
HETATM   19  C26 UNL     1       5.058   8.367  10.146  1.00  0.00     0.018 C 
HETATM   20  C27 UNL     1       3.499   7.100  11.821  1.00  0.00     0.011 C 
HETATM   21  C28 UNL     1       2.641   6.855  10.565  1.00  0.00     0.043 C 
HETATM   22  C29 UNL     1       1.428   5.969  10.880  1.00  0.00     0.148 C 
ENDROOT
BRANCH   1  23
HETATM   23  C6  UNL     1      -3.998   5.993  14.077  1.00  0.00    -0.013 C 
HETATM   24  C7  UNL     1      -3.881   6.112  15.607  1.00  0.00     0.010 C 
BRANCH  23  25
HETATM   25  C5  UNL     1      -5.293   5.225  13.731  1.00  0.00     0.008 C 
BRANCH  25  26
HETATM   26  C4  UNL     1      -6.344   6.110  13.049  1.00  0.00     0.028 C 
BRANCH  26  27
HETATM   27  C3  UNL     1      -7.401   6.555  14.019  1.00  0.00    -0.022 C 
HETATM   28  C2  UNL     1      -8.741   6.527  13.850  1.00  0.00    -0.064 C 
HETATM   29  C1  UNL     1      -9.414   6.088  12.576  1.00  0.00     0.045 C 
BRANCH  28  30
HETATM   30  C30 UNL     1      -9.719   6.976  14.919  1.00  0.00     0.197 C 
BRANCH  30  31
HETATM   31  O4  UNL     1      -9.460   6.372  16.179  1.00  0.00    -0.397 OA
HETATM   32  H50 UNL     1      -9.514   5.414  16.035  1.00  0.00     0.209 HD
ENDBRANCH  30  31
ENDBRANCH  28  30
ENDBRANCH  26  27
ENDBRANCH  25  26
ENDBRANCH  23  25
ENDBRANCH   1  23
BRANCH   3  33
HETATM   33  O1  UNL     1      -0.921   3.794  10.754  1.00  0.00    -0.394 OA
HETATM   34  H17 UNL     1      -1.641   3.505  10.155  1.00  0.00     0.210 HD
ENDBRANCH   3  33
BRANCH  22  35
HETATM   35  O3  UNL     1       1.849   4.618  10.760  1.00  0.00    -0.391 OA
HETATM   36  H47 UNL     1       1.042   4.076  10.661  1.00  0.00     0.210 HD
ENDBRANCH  22  35
BRANCH  16  37
HETATM   37  O2  UNL     1       5.160  10.045  12.250  1.00  0.00    -0.395 OA
HETATM   38  H36 UNL     1       5.621  10.633  12.875  1.00  0.00     0.210 HD
ENDBRANCH  16  37
TORSDOF 9
ENDMDL
MODEL 9
REMARK minimizedAffinity -8.49088478
REMARK  9 active torsions:
REMARK  status: ('A' for Active; 'I' for Inactive)
REMARK    1  A    between atoms: C2_2  and  C30_33 
REMARK    2  A    between atoms: C3_3  and  C4_4 
REMARK    3  A    between atoms: C4_4  and  C5_5 
REMARK    4  A    between atoms: C5_5  and  C6_6 
REMARK    5  A    between atoms: C6_6  and  C8_8 
REMARK    6  A    between atoms: C10_10  and  O1_11 
REMARK    7  A    between atoms: C23_24  and  O2_25 
REMARK    8  A    between atoms: C29_31  and  O3_32 
REMARK    9  A    between atoms: C30_33  and  O4_34 
ROOT
HETATM    1  C8  UNL     1       0.994   6.747  12.721  1.00  0.00     0.001 C 
HETATM    2  C9  UNL     1       1.143   5.332  12.101  1.00  0.00     0.038 C 
HETATM    3  C10 UNL     1      -0.270   4.703  12.100  1.00  0.00     0.132 C 
HETATM    4  C11 UNL     1      -1.236   5.899  12.297  1.00  0.00     0.016 C 
HETATM    5  C12 UNL     1      -1.425   6.627  10.924  1.00  0.00     0.023 C 
HETATM    6  C13 UNL     1      -2.647   5.638  12.822  1.00  0.00    -0.037 C 
HETATM    7  C14 UNL     1      -3.292   6.622  13.503  1.00  0.00    -0.065 C 
HETATM    8  C15 UNL     1      -2.604   7.956  13.835  1.00  0.00     0.036 C 
HETATM    9  C16 UNL     1      -1.096   8.089  13.526  1.00  0.00     0.015 C 
HETATM   10  C17 UNL     1      -0.427   6.720  13.367  1.00  0.00    -0.026 C 
HETATM   11  C18 UNL     1      -0.380   6.055  14.774  1.00  0.00     0.016 C 
HETATM   12  C19 UNL     1      -4.739   6.429  14.041  1.00  0.00    -0.016 C 
HETATM   13  C20 UNL     1      -4.571   6.055  15.529  1.00  0.00     0.020 C 
HETATM   14  C21 UNL     1      -5.558   7.728  13.864  1.00  0.00     0.016 C 
HETATM   15  C22 UNL     1      -7.050   7.660  14.185  1.00  0.00     0.033 C 
HETATM   16  C23 UNL     1      -7.661   6.269  14.339  1.00  0.00     0.126 C 
HETATM   17  C24 UNL     1      -7.010   5.125  13.505  1.00  0.00    -0.017 C 
HETATM   18  C25 UNL     1      -7.734   5.103  12.127  1.00  0.00     0.018 C 
HETATM   19  C26 UNL     1      -7.320   3.766  14.179  1.00  0.00     0.018 C 
HETATM   20  C27 UNL     1      -5.470   5.335  13.201  1.00  0.00     0.011 C 
HETATM   21  C28 UNL     1      -4.633   4.041  13.176  1.00  0.00     0.043 C 
HETATM   22  C29 UNL     1      -3.254   4.279  12.545  1.00  0.00     0.148 C 
ENDROOT
BRANCH   1  23
HETATM   23  C6  UNL     1       2.184   7.287  13.566  1.00  0.00    -0.013 C 
HETATM   24  C7  UNL     1       1.728   7.440  15.029  1.00  0.00     0.010 C 
BRANCH  23  25
HETATM   25  C5  UNL     1       2.793   8.624  13.089  1.00  0.00     0.008 C 
BRANCH  25  26
HETATM   26  C4  UNL     1       3.472   8.511  11.718  1.00  0.00     0.028 C 
BRANCH  26  27
HETATM   27  C3  UNL     1       4.362   7.302  11.644  1.00  0.00    -0.022 C 
HETATM   28  C2  UNL     1       5.665   7.256  11.294  1.00  0.00    -0.064 C 
HETATM   29  C1  UNL     1       6.450   8.458  10.835  1.00  0.00     0.045 C 
BRANCH  28  30
HETATM   30  C30 UNL     1       6.476   5.975  11.285  1.00  0.00     0.197 C 
BRANCH  30  31
HETATM   31  O4  UNL     1       5.913   4.984  10.435  1.00  0.00    -0.397 OA
HETATM   32  H50 UNL     1       5.013   4.827  10.762  1.00  0.00     0.209 HD
ENDBRANCH  30  31
ENDBRANCH  28  30
ENDBRANCH  26  27
ENDBRANCH  25  26
ENDBRANCH  23  25
ENDBRANCH   1  23
BRANCH   3  33
HETATM   33  O1  UNL     1      -0.523   3.986  10.897  1.00  0.00    -0.394 OA
HETATM   34  H17 UNL     1       0.216   3.352  10.780  1.00  0.00     0.210 HD
ENDBRANCH   3  33
BRANCH  22  35
HETATM   35  O3  UNL     1      -3.399   4.119  11.141  1.00  0.00    -0.391 OA
HETATM   36  H47 UNL     1      -2.504   3.972  10.777  1.00  0.00     0.210 HD
ENDBRANCH  22  35
BRANCH  16  37
HETATM   37  O2  UNL     1      -7.671   5.938  15.733  1.00  0.00    -0.395 OA
HETATM   38  H36 UNL     1      -8.214   6.601  16.194  1.00  0.00     0.210 HD
ENDBRANCH  16  37
TORSDOF 9
ENDMDL
