MODEL 1
REMARK minimizedAffinity -9.70855522
REMARK  8 active torsions:
REMARK  status: ('A' for Active; 'I' for Inactive)
REMARK    1  A    between atoms: C2_2  and  C3_3 
REMARK    2  A    between atoms: C2_2  and  C9_12 
REMARK    3  A    between atoms: C3_3  and  C4_4 
REMARK    4  A    between atoms: C4_4  and  C5_5 
REMARK    5  A    between atoms: C6_6  and  C7_7 
REMARK    6  A    between atoms: C6_6  and  C8_9 
REMARK    7  A    between atoms: C7_7  and  O1_8 
REMARK    8  A    between atoms: C8_9  and  O3_11 
ROOT
HETATM    1  C9  UNL     1      -5.800  48.158 -22.337  1.00  0.00    -0.002 C 
HETATM    2  C10 UNL     1      -5.702  49.034 -21.055  1.00  0.00     0.006 C 
HETATM    3  C11 UNL     1      -4.748  50.209 -21.378  1.00  0.00     0.011 C 
HETATM    4  C12 UNL     1      -4.545  50.149 -22.901  1.00  0.00    -0.032 C 
HETATM    5  C13 UNL     1      -5.770  50.892 -23.545  1.00  0.00     0.016 C 
HETATM    6  C14 UNL     1      -3.224  50.757 -23.448  1.00  0.00     0.004 C 
HETATM    7  C15 UNL     1      -3.039  52.244 -23.096  1.00  0.00     0.007 C 
HETATM    8  C16 UNL     1      -1.875  52.943 -23.813  1.00  0.00     0.007 C 
HETATM    9  C17 UNL     1      -1.046  52.054 -24.759  1.00  0.00     0.010 C 
HETATM   10  C18 UNL     1       0.076  52.820 -25.558  1.00  0.00     0.018 C 
HETATM   11  C19 UNL     1       1.430  52.086 -25.429  1.00  0.00     0.023 C 
HETATM   12  C20 UNL     1       0.326  54.260 -25.060  1.00  0.00     0.023 C 
HETATM   13  C21 UNL     1      -0.266  52.875 -27.055  1.00  0.00     0.135 C 
HETATM   14  O4  UNL     1      -0.155  53.912 -27.715  1.00  0.00    -0.297 OA
HETATM   15  C22 UNL     1      -0.652  51.591 -27.755  1.00  0.00     0.080 C 
HETATM   16  C23 UNL     1      -1.188  50.537 -26.798  1.00  0.00     0.018 C 
HETATM   17  C24 UNL     1      -1.950  51.195 -25.670  1.00  0.00    -0.026 A 
HETATM   18  C25 UNL     1      -3.389  51.566 -25.971  1.00  0.00     0.021 A 
HETATM   19  C26 UNL     1      -3.104  50.465 -24.962  1.00  0.00    -0.027 A 
HETATM   20  C27 UNL     1      -3.402  49.015 -25.381  1.00  0.00     0.011 C 
HETATM   21  C28 UNL     1      -4.585  48.347 -24.656  1.00  0.00     0.011 C 
HETATM   22  C29 UNL     1      -4.535  48.591 -23.141  1.00  0.00    -0.032 C 
HETATM   23  C30 UNL     1      -3.284  47.854 -22.575  1.00  0.00     0.016 C 
ENDROOT
BRANCH   1  24
HETATM   24  C2  UNL     1      -6.062  46.638 -22.132  1.00  0.00    -0.014 C 
HETATM   25  C1  UNL     1      -5.965  46.127 -20.690  1.00  0.00     0.010 C 
BRANCH  24  26
HETATM   26  C3  UNL     1      -7.423  46.194 -22.740  1.00  0.00     0.008 C 
BRANCH  26  27
HETATM   27  C4  UNL     1      -7.570  46.401 -24.252  1.00  0.00     0.028 C 
BRANCH  27  28
HETATM   28  C5  UNL     1      -8.577  47.452 -24.642  1.00  0.00    -0.011 C 
HETATM   29  C6  UNL     1      -8.924  47.865 -25.883  1.00  0.00     0.035 C 
BRANCH  29  30
HETATM   30  C7  UNL     1      -8.352  47.393 -27.194  1.00  0.00     0.209 C 
BRANCH  30  31
HETATM   31  O1  UNL     1      -7.838  48.474 -27.972  1.00  0.00    -0.396 OA
HETATM   32  H12 UNL     1      -8.519  49.172 -27.967  1.00  0.00     0.209 HD
ENDBRANCH  30  31
ENDBRANCH  29  30
BRANCH  29  33
HETATM   33  C8  UNL     1     -10.002  48.877 -26.041  1.00  0.00     0.173 C 
HETATM   34  O2  UNL     1     -11.189  48.640 -26.203  1.00  0.00    -0.646 OA
BRANCH  33  35
HETATM   35  O3  UNL     1      -9.553  50.148 -26.037  1.00  0.00    -0.773 OA
HETATM   36  H13 UNL     1     -10.367  50.682 -26.149  1.00  0.00     0.167 HD
ENDBRANCH  33  35
ENDBRANCH  29  33
ENDBRANCH  27  28
ENDBRANCH  26  27
ENDBRANCH  24  26
ENDBRANCH   1  24
TORSDOF 8
ENDMDL
MODEL 2
REMARK minimizedAffinity -9.50386238
REMARK  8 active torsions:
REMARK  status: ('A' for Active; 'I' for Inactive)
REMARK    1  A    between atoms: C2_2  and  C3_3 
REMARK    2  A    between atoms: C2_2  and  C9_12 
REMARK    3  A    between atoms: C3_3  and  C4_4 
REMARK    4  A    between atoms: C4_4  and  C5_5 
REMARK    5  A    between atoms: C6_6  and  C7_7 
REMARK    6  A    between atoms: C6_6  and  C8_9 
REMARK    7  A    between atoms: C7_7  and  O1_8 
REMARK    8  A    between atoms: C8_9  and  O3_11 
ROOT
HETATM    1  C9  UNL     1      -0.075  51.965 -23.194  1.00  0.00    -0.002 C 
HETATM    2  C10 UNL     1       0.046  52.761 -21.863  1.00  0.00     0.006 C 
HETATM    3  C11 UNL     1      -0.964  52.141 -20.869  1.00  0.00     0.011 C 
HETATM    4  C12 UNL     1      -1.435  50.840 -21.540  1.00  0.00    -0.032 C 
HETATM    5  C13 UNL     1      -0.354  49.750 -21.208  1.00  0.00     0.016 C 
HETATM    6  C14 UNL     1      -2.840  50.318 -21.129  1.00  0.00     0.004 C 
HETATM    7  C15 UNL     1      -2.978  50.043 -19.621  1.00  0.00     0.007 C 
HETATM    8  C16 UNL     1      -4.260  49.305 -19.209  1.00  0.00     0.007 C 
HETATM    9  C17 UNL     1      -5.234  48.970 -20.355  1.00  0.00     0.010 C 
HETATM   10  C18 UNL     1      -6.489  48.125 -19.917  1.00  0.00     0.018 C 
HETATM   11  C19 UNL     1      -7.789  48.773 -20.445  1.00  0.00     0.023 C 
HETATM   12  C20 UNL     1      -6.664  48.010 -18.387  1.00  0.00     0.023 C 
HETATM   13  C21 UNL     1      -6.421  46.708 -20.507  1.00  0.00     0.135 C 
HETATM   14  O4  UNL     1      -6.660  45.703 -19.830  1.00  0.00    -0.297 OA
HETATM   15  C22 UNL     1      -6.150  46.554 -21.987  1.00  0.00     0.080 C 
HETATM   16  C23 UNL     1      -5.438  47.759 -22.583  1.00  0.00     0.018 C 
HETATM   17  C24 UNL     1      -4.496  48.364 -21.568  1.00  0.00    -0.026 A 
HETATM   18  C25 UNL     1      -3.138  47.700 -21.446  1.00  0.00     0.021 A 
HETATM   19  C26 UNL     1      -3.225  49.109 -22.012  1.00  0.00    -0.027 A 
HETATM   20  C27 UNL     1      -2.989  49.290 -23.521  1.00  0.00     0.011 C 
HETATM   21  C28 UNL     1      -1.687  50.018 -23.904  1.00  0.00     0.011 C 
HETATM   22  C29 UNL     1      -1.468  51.278 -23.053  1.00  0.00    -0.032 C 
HETATM   23  C30 UNL     1      -2.589  52.300 -23.409  1.00  0.00     0.016 C 
ENDROOT
BRANCH   1  24
HETATM   24  C2  UNL     1       0.238  52.739 -24.508  1.00  0.00    -0.014 C 
HETATM   25  C1  UNL     1       0.807  54.152 -24.336  1.00  0.00     0.010 C 
BRANCH  24  26
HETATM   26  C3  UNL     1       1.167  51.927 -25.456  1.00  0.00     0.008 C 
BRANCH  26  27
HETATM   27  C4  UNL     1       0.745  51.903 -26.931  1.00  0.00     0.028 C 
BRANCH  27  28
HETATM   28  C5  UNL     1      -0.433  51.010 -27.226  1.00  0.00    -0.011 C 
HETATM   29  C6  UNL     1      -1.741  51.345 -27.306  1.00  0.00     0.035 C 
BRANCH  29  30
HETATM   30  C7  UNL     1      -2.351  52.704 -27.080  1.00  0.00     0.209 C 
BRANCH  30  31
HETATM   31  O1  UNL     1      -1.992  53.627 -28.107  1.00  0.00    -0.396 OA
HETATM   32  H12 UNL     1      -1.028  53.547 -28.233  1.00  0.00     0.209 HD
ENDBRANCH  30  31
ENDBRANCH  29  30
BRANCH  29  33
HETATM   33  C8  UNL     1      -2.739  50.306 -27.682  1.00  0.00     0.173 C 
HETATM   34  O2  UNL     1      -2.929  49.252 -27.096  1.00  0.00    -0.646 OA
BRANCH  33  35
HETATM   35  O3  UNL     1      -3.427  50.601 -28.802  1.00  0.00    -0.773 OA
HETATM   36  H13 UNL     1      -4.029  49.836 -28.912  1.00  0.00     0.167 HD
ENDBRANCH  33  35
ENDBRANCH  29  33
ENDBRANCH  27  28
ENDBRANCH  26  27
ENDBRANCH  24  26
ENDBRANCH   1  24
TORSDOF 8
ENDMDL
MODEL 3
REMARK minimizedAffinity -9.29207897
REMARK  8 active torsions:
REMARK  status: ('A' for Active; 'I' for Inactive)
REMARK    1  A    between atoms: C2_2  and  C3_3 
REMARK    2  A    between atoms: C2_2  and  C9_12 
REMARK    3  A    between atoms: C3_3  and  C4_4 
REMARK    4  A    between atoms: C4_4  and  C5_5 
REMARK    5  A    between atoms: C6_6  and  C7_7 
REMARK    6  A    between atoms: C6_6  and  C8_9 
REMARK    7  A    between atoms: C7_7  and  O1_8 
REMARK    8  A    between atoms: C8_9  and  O3_11 
ROOT
HETATM    1  C9  UNL     1      -3.531  49.591 -23.711  1.00  0.00    -0.002 C 
HETATM    2  C10 UNL     1      -4.825  48.825 -23.308  1.00  0.00     0.006 C 
HETATM    3  C11 UNL     1      -4.859  48.771 -21.762  1.00  0.00     0.011 C 
HETATM    4  C12 UNL     1      -3.753  49.738 -21.306  1.00  0.00    -0.032 C 
HETATM    5  C13 UNL     1      -4.383  51.177 -21.326  1.00  0.00     0.016 C 
HETATM    6  C14 UNL     1      -3.128  49.466 -19.910  1.00  0.00     0.004 C 
HETATM    7  C15 UNL     1      -4.151  49.486 -18.762  1.00  0.00     0.007 C 
HETATM    8  C16 UNL     1      -3.547  49.461 -17.350  1.00  0.00     0.007 C 
HETATM    9  C17 UNL     1      -2.009  49.392 -17.285  1.00  0.00     0.010 C 
HETATM   10  C18 UNL     1      -1.414  49.470 -15.828  1.00  0.00     0.018 C 
HETATM   11  C19 UNL     1      -0.399  48.328 -15.596  1.00  0.00     0.023 C 
HETATM   12  C20 UNL     1      -2.472  49.331 -14.712  1.00  0.00     0.023 C 
HETATM   13  C21 UNL     1      -0.659  50.793 -15.622  1.00  0.00     0.135 C 
HETATM   14  O4  UNL     1      -0.806  51.480 -14.606  1.00  0.00    -0.297 OA
HETATM   15  C22 UNL     1       0.368  51.207 -16.652  1.00  0.00     0.080 C 
HETATM   16  C23 UNL     1       0.127  50.568 -18.011  1.00  0.00     0.018 C 
HETATM   17  C24 UNL     1      -1.354  50.399 -18.255  1.00  0.00    -0.026 A 
HETATM   18  C25 UNL     1      -2.084  51.625 -18.771  1.00  0.00     0.021 A 
HETATM   19  C26 UNL     1      -1.929  50.416 -19.682  1.00  0.00    -0.027 A 
HETATM   20  C27 UNL     1      -0.939  50.526 -20.854  1.00  0.00     0.011 C 
HETATM   21  C28 UNL     1      -1.576  50.566 -22.256  1.00  0.00     0.011 C 
HETATM   22  C29 UNL     1      -2.664  49.494 -22.419  1.00  0.00    -0.032 C 
HETATM   23  C30 UNL     1      -1.976  48.097 -22.358  1.00  0.00     0.016 C 
ENDROOT
BRANCH   1  24
HETATM   24  C2  UNL     1      -2.880  49.203 -25.070  1.00  0.00    -0.014 C 
HETATM   25  C1  UNL     1      -3.719  48.307 -25.987  1.00  0.00     0.010 C 
BRANCH  24  26
HETATM   26  C3  UNL     1      -2.410  50.453 -25.869  1.00  0.00     0.008 C 
BRANCH  26  27
HETATM   27  C4  UNL     1      -0.892  50.611 -26.014  1.00  0.00     0.028 C 
BRANCH  27  28
HETATM   28  C5  UNL     1      -0.361  51.952 -25.574  1.00  0.00    -0.011 C 
HETATM   29  C6  UNL     1      -0.217  53.080 -26.308  1.00  0.00     0.035 C 
BRANCH  29  30
HETATM   30  C7  UNL     1      -0.523  53.262 -27.771  1.00  0.00     0.209 C 
BRANCH  30  31
HETATM   31  O1  UNL     1      -1.849  53.742 -27.984  1.00  0.00    -0.396 OA
HETATM   32  H12 UNL     1      -2.438  53.194 -27.434  1.00  0.00     0.209 HD
ENDBRANCH  30  31
ENDBRANCH  29  30
BRANCH  29  33
HETATM   33  C8  UNL     1       0.267  54.323 -25.648  1.00  0.00     0.173 C 
HETATM   34  O2  UNL     1       0.136  55.459 -26.076  1.00  0.00    -0.646 OA
BRANCH  33  35
HETATM   35  O3  UNL     1       0.939  54.096 -24.502  1.00  0.00    -0.773 OA
HETATM   36  H13 UNL     1       1.188  54.994 -24.198  1.00  0.00     0.167 HD
ENDBRANCH  33  35
ENDBRANCH  29  33
ENDBRANCH  27  28
ENDBRANCH  26  27
ENDBRANCH  24  26
ENDBRANCH   1  24
TORSDOF 8
ENDMDL
MODEL 4
REMARK minimizedAffinity -9.27924919
REMARK  8 active torsions:
REMARK  status: ('A' for Active; 'I' for Inactive)
REMARK    1  A    between atoms: C2_2  and  C3_3 
REMARK    2  A    between atoms: C2_2  and  C9_12 
REMARK    3  A    between atoms: C3_3  and  C4_4 
REMARK    4  A    between atoms: C4_4  and  C5_5 
REMARK    5  A    between atoms: C6_6  and  C7_7 
REMARK    6  A    between atoms: C6_6  and  C8_9 
REMARK    7  A    between atoms: C7_7  and  O1_8 
REMARK    8  A    between atoms: C8_9  and  O3_11 
ROOT
HETATM    1  C9  UNL     1       0.002  52.459 -23.008  1.00  0.00    -0.002 C 
HETATM    2  C10 UNL     1       0.572  51.818 -24.306  1.00  0.00     0.006 C 
HETATM    3  C11 UNL     1      -0.561  50.970 -24.929  1.00  0.00     0.011 C 
HETATM    4  C12 UNL     1      -1.827  51.361 -24.149  1.00  0.00    -0.032 C 
HETATM    5  C13 UNL     1      -2.371  52.677 -24.811  1.00  0.00     0.016 C 
HETATM    6  C14 UNL     1      -2.962  50.302 -24.094  1.00  0.00     0.004 C 
HETATM    7  C15 UNL     1      -3.482  49.883 -25.480  1.00  0.00     0.007 C 
HETATM    8  C16 UNL     1      -4.756  49.026 -25.466  1.00  0.00     0.007 C 
HETATM    9  C17 UNL     1      -5.314  48.685 -24.071  1.00  0.00     0.010 C 
HETATM   10  C18 UNL     1      -6.676  47.892 -24.090  1.00  0.00     0.018 C 
HETATM   11  C19 UNL     1      -6.592  46.651 -23.174  1.00  0.00     0.023 C 
HETATM   12  C20 UNL     1      -7.073  47.363 -25.486  1.00  0.00     0.023 C 
HETATM   13  C21 UNL     1      -7.821  48.768 -23.558  1.00  0.00     0.135 C 
HETATM   14  O4  UNL     1      -8.914  48.836 -24.127  1.00  0.00    -0.297 OA
HETATM   15  C22 UNL     1      -7.628  49.488 -22.241  1.00  0.00     0.080 C 
HETATM   16  C23 UNL     1      -6.161  49.703 -21.898  1.00  0.00     0.018 C 
HETATM   17  C24 UNL     1      -5.358  49.930 -23.158  1.00  0.00    -0.026 A 
HETATM   18  C25 UNL     1      -5.373  51.343 -23.708  1.00  0.00     0.021 A 
HETATM   19  C26 UNL     1      -4.078  50.784 -23.138  1.00  0.00    -0.027 A 
HETATM   20  C27 UNL     1      -3.599  51.328 -21.782  1.00  0.00     0.011 C 
HETATM   21  C28 UNL     1      -2.329  52.198 -21.830  1.00  0.00     0.011 C 
HETATM   22  C29 UNL     1      -1.236  51.562 -22.701  1.00  0.00    -0.032 C 
HETATM   23  C30 UNL     1      -0.766  50.250 -22.004  1.00  0.00     0.016 C 
ENDROOT
BRANCH   1  24
HETATM   24  C2  UNL     1       1.015  52.741 -21.860  1.00  0.00    -0.014 C 
HETATM   25  C1  UNL     1       1.558  54.171 -21.778  1.00  0.00     0.010 C 
BRANCH  24  26
HETATM   26  C3  UNL     1       0.450  52.329 -20.470  1.00  0.00     0.008 C 
BRANCH  26  27
HETATM   27  C4  UNL     1       1.035  53.083 -19.269  1.00  0.00     0.028 C 
BRANCH  27  28
HETATM   28  C5  UNL     1       0.672  52.495 -17.929  1.00  0.00    -0.011 C 
HETATM   29  C6  UNL     1       1.469  52.304 -16.852  1.00  0.00     0.035 C 
BRANCH  29  30
HETATM   30  C7  UNL     1       2.941  52.604 -16.742  1.00  0.00     0.209 C 
BRANCH  30  31
HETATM   31  O1  UNL     1       3.310  52.992 -15.420  1.00  0.00    -0.396 OA
HETATM   32  H12 UNL     1       2.660  53.659 -15.132  1.00  0.00     0.209 HD
ENDBRANCH  30  31
ENDBRANCH  29  30
BRANCH  29  33
HETATM   33  C8  UNL     1       0.881  51.767 -15.596  1.00  0.00     0.173 C 
HETATM   34  O2  UNL     1       0.525  52.427 -14.632  1.00  0.00    -0.646 OA
BRANCH  33  35
HETATM   35  O3  UNL     1       0.804  50.422 -15.570  1.00  0.00    -0.773 OA
HETATM   36  H13 UNL     1       0.405  50.229 -14.696  1.00  0.00     0.167 HD
ENDBRANCH  33  35
ENDBRANCH  29  33
ENDBRANCH  27  28
ENDBRANCH  26  27
ENDBRANCH  24  26
ENDBRANCH   1  24
TORSDOF 8
ENDMDL
MODEL 5
REMARK minimizedAffinity -9.24948978
REMARK  8 active torsions:
REMARK  status: ('A' for Active; 'I' for Inactive)
REMARK    1  A    between atoms: C2_2  and  C3_3 
REMARK    2  A    between atoms: C2_2  and  C9_12 
REMARK    3  A    between atoms: C3_3  and  C4_4 
REMARK    4  A    between atoms: C4_4  and  C5_5 
REMARK    5  A    between atoms: C6_6  and  C7_7 
REMARK    6  A    between atoms: C6_6  and  C8_9 
REMARK    7  A    between atoms: C7_7  and  O1_8 
REMARK    8  A    between atoms: C8_9  and  O3_11 
ROOT
HETATM    1  C9  UNL     1      -0.645  52.238 -21.618  1.00  0.00    -0.002 C 
HETATM    2  C10 UNL     1      -0.223  51.907 -23.078  1.00  0.00     0.006 C 
HETATM    3  C11 UNL     1      -1.314  50.983 -23.669  1.00  0.00     0.011 C 
HETATM    4  C12 UNL     1      -2.468  51.031 -22.653  1.00  0.00    -0.032 C 
HETATM    5  C13 UNL     1      -3.302  52.320 -22.984  1.00  0.00     0.016 C 
HETATM    6  C14 UNL     1      -3.413  49.797 -22.621  1.00  0.00     0.004 C 
HETATM    7  C15 UNL     1      -4.100  49.512 -23.967  1.00  0.00     0.007 C 
HETATM    8  C16 UNL     1      -5.217  48.459 -23.918  1.00  0.00     0.007 C 
HETATM    9  C17 UNL     1      -5.470  47.820 -22.539  1.00  0.00     0.010 C 
HETATM   10  C18 UNL     1      -6.686  46.820 -22.497  1.00  0.00     0.018 C 
HETATM   11  C19 UNL     1      -6.268  45.486 -21.839  1.00  0.00     0.023 C 
HETATM   12  C20 UNL     1      -7.240  46.449 -23.891  1.00  0.00     0.023 C 
HETATM   13  C21 UNL     1      -7.835  47.397 -21.656  1.00  0.00     0.135 C 
HETATM   14  O4  UNL     1      -9.009  47.363 -22.037  1.00  0.00    -0.297 OA
HETATM   15  C22 UNL     1      -7.521  47.930 -20.275  1.00  0.00     0.080 C 
HETATM   16  C23 UNL     1      -6.064  48.337 -20.120  1.00  0.00     0.018 C 
HETATM   17  C24 UNL     1      -5.532  48.886 -21.423  1.00  0.00    -0.026 A 
HETATM   18  C25 UNL     1      -5.844  50.343 -21.705  1.00  0.00     0.021 A 
HETATM   19  C26 UNL     1      -4.404  49.932 -21.441  1.00  0.00    -0.027 A 
HETATM   20  C27 UNL     1      -3.780  50.338 -20.095  1.00  0.00     0.011 C 
HETATM   21  C28 UNL     1      -2.675  51.408 -20.175  1.00  0.00     0.011 C 
HETATM   22  C29 UNL     1      -1.670  51.107 -21.296  1.00  0.00    -0.032 C 
HETATM   23  C30 UNL     1      -0.903  49.804 -20.919  1.00  0.00     0.016 C 
ENDROOT
BRANCH   1  24
HETATM   24  C2  UNL     1       0.500  52.510 -20.599  1.00  0.00    -0.014 C 
HETATM   25  C1  UNL     1       1.636  53.414 -21.090  1.00  0.00     0.010 C 
BRANCH  24  26
HETATM   26  C3  UNL     1      -0.040  53.056 -19.247  1.00  0.00     0.008 C 
BRANCH  26  27
HETATM   27  C4  UNL     1       0.184  52.148 -18.031  1.00  0.00     0.028 C 
BRANCH  27  28
HETATM   28  C5  UNL     1       1.539  52.295 -17.386  1.00  0.00    -0.011 C 
HETATM   29  C6  UNL     1       1.876  52.107 -16.089  1.00  0.00     0.035 C 
BRANCH  29  30
HETATM   30  C7  UNL     1       0.960  51.737 -14.953  1.00  0.00     0.209 C 
BRANCH  30  31
HETATM   31  O1  UNL     1       0.659  52.857 -14.123  1.00  0.00    -0.396 OA
HETATM   32  H12 UNL     1       1.505  53.303 -13.933  1.00  0.00     0.209 HD
ENDBRANCH  30  31
ENDBRANCH  29  30
BRANCH  29  33
HETATM   33  C8  UNL     1       3.300  52.241 -15.679  1.00  0.00     0.173 C 
HETATM   34  O2  UNL     1       3.934  51.434 -15.017  1.00  0.00    -0.646 OA
BRANCH  33  35
HETATM   35  O3  UNL     1       3.866  53.400 -16.071  1.00  0.00    -0.773 OA
HETATM   36  H13 UNL     1       4.783  53.336 -15.730  1.00  0.00     0.167 HD
ENDBRANCH  33  35
ENDBRANCH  29  33
ENDBRANCH  27  28
ENDBRANCH  26  27
ENDBRANCH  24  26
ENDBRANCH   1  24
TORSDOF 8
ENDMDL
MODEL 6
REMARK minimizedAffinity -9.20189857
REMARK  8 active torsions:
REMARK  status: ('A' for Active; 'I' for Inactive)
REMARK    1  A    between atoms: C2_2  and  C3_3 
REMARK    2  A    between atoms: C2_2  and  C9_12 
REMARK    3  A    between atoms: C3_3  and  C4_4 
REMARK    4  A    between atoms: C4_4  and  C5_5 
REMARK    5  A    between atoms: C6_6  and  C7_7 
REMARK    6  A    between atoms: C6_6  and  C8_9 
REMARK    7  A    between atoms: C7_7  and  O1_8 
REMARK    8  A    between atoms: C8_9  and  O3_11 
ROOT
HETATM    1  C9  UNL     1      -1.988  51.548 -23.124  1.00  0.00    -0.002 C 
HETATM    2  C10 UNL     1      -1.643  50.583 -24.294  1.00  0.00     0.006 C 
HETATM    3  C11 UNL     1      -2.754  49.507 -24.339  1.00  0.00     0.011 C 
HETATM    4  C12 UNL     1      -3.851  50.029 -23.395  1.00  0.00    -0.032 C 
HETATM    5  C13 UNL     1      -4.716  51.039 -24.231  1.00  0.00     0.016 C 
HETATM    6  C14 UNL     1      -4.779  48.961 -22.754  1.00  0.00     0.004 C 
HETATM    7  C15 UNL     1      -5.536  48.104 -23.783  1.00  0.00     0.007 C 
HETATM    8  C16 UNL     1      -6.636  47.206 -23.200  1.00  0.00     0.007 C 
HETATM    9  C17 UNL     1      -6.806  47.269 -21.670  1.00  0.00     0.010 C 
HETATM   10  C18 UNL     1      -8.006  46.415 -21.111  1.00  0.00     0.018 C 
HETATM   11  C19 UNL     1      -7.537  45.521 -19.941  1.00  0.00     0.023 C 
HETATM   12  C20 UNL     1      -8.632  45.459 -22.150  1.00  0.00     0.023 C 
HETATM   13  C21 UNL     1      -9.113  47.330 -20.564  1.00  0.00     0.135 C 
HETATM   14  O4  UNL     1     -10.306  47.144 -20.823  1.00  0.00    -0.297 OA
HETATM   15  C22 UNL     1      -8.730  48.428 -19.597  1.00  0.00     0.080 C 
HETATM   16  C23 UNL     1      -7.271  48.839 -19.722  1.00  0.00     0.018 C 
HETATM   17  C24 UNL     1      -6.818  48.726 -21.159  1.00  0.00    -0.026 A 
HETATM   18  C25 UNL     1      -7.162  49.900 -22.057  1.00  0.00     0.021 A 
HETATM   19  C26 UNL     1      -5.705  49.632 -21.713  1.00  0.00    -0.027 A 
HETATM   20  C27 UNL     1      -5.011  50.597 -20.736  1.00  0.00     0.011 C 
HETATM   21  C28 UNL     1      -3.925  51.497 -21.354  1.00  0.00     0.011 C 
HETATM   22  C29 UNL     1      -2.980  50.703 -22.268  1.00  0.00    -0.032 C 
HETATM   23  C30 UNL     1      -2.179  49.703 -21.381  1.00  0.00     0.016 C 
ENDROOT
BRANCH   1  24
HETATM   24  C2  UNL     1      -0.791  52.236 -22.405  1.00  0.00    -0.014 C 
HETATM   25  C1  UNL     1      -0.433  51.689 -21.019  1.00  0.00     0.010 C 
BRANCH  24  26
HETATM   26  C3  UNL     1       0.488  52.257 -23.291  1.00  0.00     0.008 C 
BRANCH  26  27
HETATM   27  C4  UNL     1       0.650  53.491 -24.187  1.00  0.00     0.028 C 
BRANCH  27  28
HETATM   28  C5  UNL     1       0.315  53.256 -25.637  1.00  0.00    -0.011 C 
HETATM   29  C6  UNL     1       0.948  52.457 -26.527  1.00  0.00     0.035 C 
BRANCH  29  30
HETATM   30  C7  UNL     1       2.181  51.625 -26.290  1.00  0.00     0.209 C 
BRANCH  30  31
HETATM   31  O1  UNL     1       3.211  51.916 -27.234  1.00  0.00    -0.396 OA
HETATM   32  H12 UNL     1       2.792  51.917 -28.115  1.00  0.00     0.209 HD
ENDBRANCH  30  31
ENDBRANCH  29  30
BRANCH  29  33
HETATM   33  C8  UNL     1       0.400  52.320 -27.904  1.00  0.00     0.173 C 
HETATM   34  O2  UNL     1       0.668  51.430 -28.695  1.00  0.00    -0.646 OA
BRANCH  33  35
HETATM   35  O3  UNL     1      -0.425  53.325 -28.257  1.00  0.00    -0.773 OA
HETATM   36  H13 UNL     1      -0.695  53.093 -29.170  1.00  0.00     0.167 HD
ENDBRANCH  33  35
ENDBRANCH  29  33
ENDBRANCH  27  28
ENDBRANCH  26  27
ENDBRANCH  24  26
ENDBRANCH   1  24
TORSDOF 8
ENDMDL
MODEL 7
REMARK minimizedAffinity -9.16226196
REMARK  8 active torsions:
REMARK  status: ('A' for Active; 'I' for Inactive)
REMARK    1  A    between atoms: C2_2  and  C3_3 
REMARK    2  A    between atoms: C2_2  and  C9_12 
REMARK    3  A    between atoms: C3_3  and  C4_4 
REMARK    4  A    between atoms: C4_4  and  C5_5 
REMARK    5  A    between atoms: C6_6  and  C7_7 
REMARK    6  A    between atoms: C6_6  and  C8_9 
REMARK    7  A    between atoms: C7_7  and  O1_8 
REMARK    8  A    between atoms: C8_9  and  O3_11 
ROOT
HETATM    1  C9  UNL     1      -0.525  52.304 -24.570  1.00  0.00    -0.002 C 
HETATM    2  C10 UNL     1      -0.217  51.404 -25.800  1.00  0.00     0.006 C 
HETATM    3  C11 UNL     1      -1.368  50.376 -25.911  1.00  0.00     0.011 C 
HETATM    4  C12 UNL     1      -2.444  50.877 -24.934  1.00  0.00    -0.032 C 
HETATM    5  C13 UNL     1      -3.271  51.969 -25.702  1.00  0.00     0.016 C 
HETATM    6  C14 UNL     1      -3.411  49.805 -24.360  1.00  0.00     0.004 C 
HETATM    7  C15 UNL     1      -4.200  49.044 -25.441  1.00  0.00     0.007 C 
HETATM    8  C16 UNL     1      -5.333  48.152 -24.914  1.00  0.00     0.007 C 
HETATM    9  C17 UNL     1      -5.501  48.124 -23.382  1.00  0.00     0.010 C 
HETATM   10  C18 UNL     1      -6.733  47.281 -22.877  1.00  0.00     0.018 C 
HETATM   11  C19 UNL     1      -6.297  46.298 -21.767  1.00  0.00     0.023 C 
HETATM   12  C20 UNL     1      -7.393  46.418 -23.974  1.00  0.00     0.023 C 
HETATM   13  C21 UNL     1      -7.804  48.200 -22.270  1.00  0.00     0.135 C 
HETATM   14  O4  UNL     1      -9.003  48.075 -22.538  1.00  0.00    -0.297 OA
HETATM   15  C22 UNL     1      -7.381  49.219 -21.235  1.00  0.00     0.080 C 
HETATM   16  C23 UNL     1      -5.907  49.583 -21.338  1.00  0.00     0.018 C 
HETATM   17  C24 UNL     1      -5.459  49.545 -22.780  1.00  0.00    -0.026 A 
HETATM   18  C25 UNL     1      -5.758  50.785 -23.600  1.00  0.00     0.021 A 
HETATM   19  C26 UNL     1      -4.312  50.442 -23.276  1.00  0.00    -0.027 A 
HETATM   20  C27 UNL     1      -3.583  51.316 -22.241  1.00  0.00     0.011 C 
HETATM   21  C28 UNL     1      -2.464  52.212 -22.803  1.00  0.00     0.011 C 
HETATM   22  C29 UNL     1      -1.549  51.444 -23.768  1.00  0.00    -0.032 C 
HETATM   23  C30 UNL     1      -0.786  50.360 -22.948  1.00  0.00     0.016 C 
ENDROOT
BRANCH   1  24
HETATM   24  C2  UNL     1       0.696  52.900 -23.811  1.00  0.00    -0.014 C 
HETATM   25  C1  UNL     1       0.872  54.419 -23.907  1.00  0.00     0.010 C 
BRANCH  24  26
HETATM   26  C3  UNL     1       0.715  52.478 -22.314  1.00  0.00     0.008 C 
BRANCH  26  27
HETATM   27  C4  UNL     1       0.661  53.629 -21.302  1.00  0.00     0.028 C 
BRANCH  27  28
HETATM   28  C5  UNL     1       0.909  53.214 -19.874  1.00  0.00    -0.011 C 
HETATM   29  C6  UNL     1       0.148  52.420 -19.086  1.00  0.00     0.035 C 
BRANCH  29  30
HETATM   30  C7  UNL     1      -1.168  51.777 -19.437  1.00  0.00     0.209 C 
BRANCH  30  31
HETATM   31  O1  UNL     1      -2.162  52.017 -18.443  1.00  0.00    -0.396 OA
HETATM   32  H12 UNL     1      -1.749  51.827 -17.581  1.00  0.00     0.209 HD
ENDBRANCH  30  31
ENDBRANCH  29  30
BRANCH  29  33
HETATM   33  C8  UNL     1       0.622  52.083 -17.716  1.00  0.00     0.173 C 
HETATM   34  O2  UNL     1       0.325  51.082 -17.082  1.00  0.00    -0.646 OA
BRANCH  33  35
HETATM   35  O3  UNL     1       1.411  53.030 -17.171  1.00  0.00    -0.773 OA
HETATM   36  H13 UNL     1       1.632  52.666 -16.289  1.00  0.00     0.167 HD
ENDBRANCH  33  35
ENDBRANCH  29  33
ENDBRANCH  27  28
ENDBRANCH  26  27
ENDBRANCH  24  26
ENDBRANCH   1  24
TORSDOF 8
ENDMDL
MODEL 8
REMARK minimizedAffinity -9.15592003
REMARK  8 active torsions:
REMARK  status: ('A' for Active; 'I' for Inactive)
REMARK    1  A    between atoms: C2_2  and  C3_3 
REMARK    2  A    between atoms: C2_2  and  C9_12 
REMARK    3  A    between atoms: C3_3  and  C4_4 
REMARK    4  A    between atoms: C4_4  and  C5_5 
REMARK    5  A    between atoms: C6_6  and  C7_7 
REMARK    6  A    between atoms: C6_6  and  C8_9 
REMARK    7  A    between atoms: C7_7  and  O1_8 
REMARK    8  A    between atoms: C8_9  and  O3_11 
ROOT
HETATM    1  C9  UNL     1      -4.096  47.620 -20.627  1.00  0.00    -0.002 C 
HETATM    2  C10 UNL     1      -3.411  48.282 -19.398  1.00  0.00     0.006 C 
HETATM    3  C11 UNL     1      -2.560  49.459 -19.930  1.00  0.00     0.011 C 
HETATM    4  C12 UNL     1      -2.991  49.630 -21.397  1.00  0.00    -0.032 C 
HETATM    5  C13 UNL     1      -4.295  50.505 -21.380  1.00  0.00     0.016 C 
HETATM    6  C14 UNL     1      -1.949  50.271 -22.354  1.00  0.00     0.004 C 
HETATM    7  C15 UNL     1      -1.499  51.677 -21.922  1.00  0.00     0.007 C 
HETATM    8  C16 UNL     1      -0.660  52.439 -22.958  1.00  0.00     0.007 C 
HETATM    9  C17 UNL     1      -0.366  51.680 -24.267  1.00  0.00     0.010 C 
HETATM   10  C18 UNL     1       0.408  52.522 -25.350  1.00  0.00     0.018 C 
HETATM   11  C19 UNL     1       1.625  51.732 -25.883  1.00  0.00     0.023 C 
HETATM   12  C20 UNL     1       0.972  53.859 -24.818  1.00  0.00     0.023 C 
HETATM   13  C21 UNL     1      -0.498  52.821 -26.554  1.00  0.00     0.135 C 
HETATM   14  O4  UNL     1      -0.564  53.944 -27.063  1.00  0.00    -0.297 OA
HETATM   15  C22 UNL     1      -1.252  51.675 -27.193  1.00  0.00     0.080 C 
HETATM   16  C23 UNL     1      -1.456  50.505 -26.243  1.00  0.00     0.018 C 
HETATM   17  C24 UNL     1      -1.637  51.005 -24.828  1.00  0.00    -0.026 A 
HETATM   18  C25 UNL     1      -3.034  51.467 -24.461  1.00  0.00     0.021 A 
HETATM   19  C26 UNL     1      -2.473  50.213 -23.808  1.00  0.00    -0.027 A 
HETATM   20  C27 UNL     1      -3.050  48.857 -24.250  1.00  0.00     0.011 C 
HETATM   21  C28 UNL     1      -3.900  48.125 -23.196  1.00  0.00     0.011 C 
HETATM   22  C29 UNL     1      -3.225  48.129 -21.816  1.00  0.00    -0.032 C 
HETATM   23  C30 UNL     1      -1.927  47.271 -21.913  1.00  0.00     0.016 C 
ENDROOT
BRANCH   1  24
HETATM   24  C2  UNL     1      -4.397  46.096 -20.529  1.00  0.00    -0.014 C 
HETATM   25  C1  UNL     1      -4.660  45.552 -19.121  1.00  0.00     0.010 C 
BRANCH  24  26
HETATM   26  C3  UNL     1      -5.562  45.669 -21.467  1.00  0.00     0.008 C 
BRANCH  26  27
HETATM   27  C4  UNL     1      -6.815  46.551 -21.406  1.00  0.00     0.028 C 
BRANCH  27  28
HETATM   28  C5  UNL     1      -7.277  47.069 -22.745  1.00  0.00    -0.011 C 
HETATM   29  C6  UNL     1      -7.585  48.340 -23.093  1.00  0.00     0.035 C 
BRANCH  29  30
HETATM   30  C7  UNL     1      -7.577  49.557 -22.205  1.00  0.00     0.209 C 
BRANCH  30  31
HETATM   31  O1  UNL     1      -7.437  50.763 -22.954  1.00  0.00    -0.396 OA
HETATM   32  H12 UNL     1      -6.705  50.620 -23.582  1.00  0.00     0.209 HD
ENDBRANCH  30  31
ENDBRANCH  29  30
BRANCH  29  33
HETATM   33  C8  UNL     1      -7.957  48.641 -24.502  1.00  0.00     0.173 C 
HETATM   34  O2  UNL     1      -9.039  49.059 -24.883  1.00  0.00    -0.646 OA
BRANCH  33  35
HETATM   35  O3  UNL     1      -6.980  48.362 -25.387  1.00  0.00    -0.773 OA
HETATM   36  H13 UNL     1      -7.373  48.609 -26.250  1.00  0.00     0.167 HD
ENDBRANCH  33  35
ENDBRANCH  29  33
ENDBRANCH  27  28
ENDBRANCH  26  27
ENDBRANCH  24  26
ENDBRANCH   1  24
TORSDOF 8
ENDMDL
MODEL 9
REMARK minimizedAffinity -9.06285191
REMARK  8 active torsions:
REMARK  status: ('A' for Active; 'I' for Inactive)
REMARK    1  A    between atoms: C2_2  and  C3_3 
REMARK    2  A    between atoms: C2_2  and  C9_12 
REMARK    3  A    between atoms: C3_3  and  C4_4 
REMARK    4  A    between atoms: C4_4  and  C5_5 
REMARK    5  A    between atoms: C6_6  and  C7_7 
REMARK    6  A    between atoms: C6_6  and  C8_9 
REMARK    7  A    between atoms: C7_7  and  O1_8 
REMARK    8  A    between atoms: C8_9  and  O3_11 
ROOT
HETATM    1  C9  UNL     1      -3.384  49.651 -18.777  1.00  0.00    -0.002 C 
HETATM    2  C10 UNL     1      -3.070  51.152 -18.513  1.00  0.00     0.006 C 
HETATM    3  C11 UNL     1      -2.896  51.830 -19.893  1.00  0.00     0.011 C 
HETATM    4  C12 UNL     1      -3.388  50.788 -20.912  1.00  0.00    -0.032 C 
HETATM    5  C13 UNL     1      -4.951  50.931 -20.977  1.00  0.00     0.016 C 
HETATM    6  C14 UNL     1      -2.800  50.892 -22.347  1.00  0.00     0.004 C 
HETATM    7  C15 UNL     1      -3.065  52.247 -23.026  1.00  0.00     0.007 C 
HETATM    8  C16 UNL     1      -2.714  52.307 -24.519  1.00  0.00     0.007 C 
HETATM    9  C17 UNL     1      -2.124  51.015 -25.117  1.00  0.00     0.010 C 
HETATM   10  C18 UNL     1      -1.869  51.073 -26.671  1.00  0.00     0.018 C 
HETATM   11  C19 UNL     1      -0.435  50.601 -27.002  1.00  0.00     0.023 C 
HETATM   12  C20 UNL     1      -1.999  52.489 -27.274  1.00  0.00     0.023 C 
HETATM   13  C21 UNL     1      -2.834  50.136 -27.414  1.00  0.00     0.135 C 
HETATM   14  O4  UNL     1      -3.439  50.490 -28.430  1.00  0.00    -0.297 OA
HETATM   15  C22 UNL     1      -2.964  48.707 -26.936  1.00  0.00     0.080 C 
HETATM   16  C23 UNL     1      -2.565  48.535 -25.479  1.00  0.00     0.018 C 
HETATM   17  C24 UNL     1      -2.930  49.770 -24.688  1.00  0.00    -0.026 A 
HETATM   18  C25 UNL     1      -4.370  49.855 -24.219  1.00  0.00     0.021 A 
HETATM   19  C26 UNL     1      -3.265  49.681 -23.189  1.00  0.00    -0.027 A 
HETATM   20  C27 UNL     1      -3.135  48.310 -22.504  1.00  0.00     0.011 C 
HETATM   21  C28 UNL     1      -3.510  48.278 -21.011  1.00  0.00     0.011 C 
HETATM   22  C29 UNL     1      -2.888  49.453 -20.242  1.00  0.00    -0.032 C 
HETATM   23  C30 UNL     1      -1.340  49.265 -20.245  1.00  0.00     0.016 C 
ENDROOT
BRANCH   1  24
HETATM   24  C2  UNL     1      -2.919  48.634 -17.694  1.00  0.00    -0.014 C 
HETATM   25  C1  UNL     1      -2.250  47.357 -18.213  1.00  0.00     0.010 C 
BRANCH  24  26
HETATM   26  C3  UNL     1      -1.997  49.297 -16.630  1.00  0.00     0.008 C 
BRANCH  26  27
HETATM   27  C4  UNL     1      -0.493  49.079 -16.832  1.00  0.00     0.028 C 
BRANCH  27  28
HETATM   28  C5  UNL     1       0.270  50.321 -17.217  1.00  0.00    -0.011 C 
HETATM   29  C6  UNL     1       0.747  51.297 -16.411  1.00  0.00     0.035 C 
BRANCH  29  30
HETATM   30  C7  UNL     1       0.599  51.400 -14.916  1.00  0.00     0.209 C 
BRANCH  30  31
HETATM   31  O1  UNL     1       0.740  52.743 -14.456  1.00  0.00    -0.396 OA
HETATM   32  H12 UNL     1       1.536  53.105 -14.886  1.00  0.00     0.209 HD
ENDBRANCH  30  31
ENDBRANCH  29  30
BRANCH  29  33
HETATM   33  C8  UNL     1       1.539  52.409 -17.002  1.00  0.00     0.173 C 
HETATM   34  O2  UNL     1       2.629  52.798 -16.613  1.00  0.00    -0.646 OA
BRANCH  33  35
HETATM   35  O3  UNL     1       0.919  53.025 -18.028  1.00  0.00    -0.773 OA
HETATM   36  H13 UNL     1       1.556  53.718 -18.300  1.00  0.00     0.167 HD
ENDBRANCH  33  35
ENDBRANCH  29  33
ENDBRANCH  27  28
ENDBRANCH  26  27
ENDBRANCH  24  26
ENDBRANCH   1  24
TORSDOF 8
ENDMDL
