MODEL 1
REMARK minimizedAffinity -8.8289566
REMARK  12 active torsions:
REMARK  status: ('A' for Active; 'I' for Inactive)
REMARK    1  A    between atoms: C2_2  and  C17_19 
REMARK    2  A    between atoms: C3_3  and  C4_4 
REMARK    3  A    between atoms: C4_4  and  C5_5 
REMARK    4  A    between atoms: C5_5  and  C6_6 
REMARK    5  A    between atoms: C12_12  and  O1_13 
REMARK    6  A    between atoms: C17_19  and  C18_20 
REMARK    7  A    between atoms: C19_21  and  C20_22 
REMARK    8  A    between atoms: C20_22  and  C22_24 
REMARK    9  A    between atoms: C22_24  and  C23_26 
REMARK   10  A    between atoms: C23_26  and  O4_27 
REMARK   11  A    between atoms: C23_26  and  C24_28 
REMARK   12  A    between atoms: C24_28  and  C25_29 
ROOT
HETATM    1  C1  UNL     1      -6.367  49.452 -20.860  1.00  0.00     0.043 C 
HETATM    2  C2  UNL     1      -5.093  49.842 -21.564  1.00  0.00    -0.084 C 
HETATM    3  C3  UNL     1      -4.037  50.413 -20.944  1.00  0.00    -0.024 C 
ENDROOT
BRANCH   3   4
HETATM    4  C4  UNL     1      -3.887  50.664 -19.471  1.00  0.00     0.030 C 
BRANCH   4   5
HETATM    5  C5  UNL     1      -2.564  51.291 -19.025  1.00  0.00     0.042 C 
BRANCH   5   6
HETATM    6  C6  UNL     1      -1.254  50.476 -19.207  1.00  0.00     0.065 C 
HETATM    7  C7  UNL     1      -1.524  48.967 -19.062  1.00  0.00     0.046 C 
HETATM    8  C8  UNL     1      -0.106  50.861 -18.265  1.00  0.00     0.043 C 
HETATM    9  C9  UNL     1       0.326  52.303 -18.490  1.00  0.00     0.044 C 
HETATM   10  C10 UNL     1       0.461  52.591 -19.955  1.00  0.00    -0.021 A 
HETATM   11  C11 UNL     1       1.150  53.740 -20.371  1.00  0.00     0.046 A 
HETATM   12  C16 UNL     1      -0.120  51.749 -20.916  1.00  0.00     0.082 A 
HETATM   13  C12 UNL     1       1.273  54.017 -21.725  1.00  0.00     0.066 A 
HETATM   14  C13 UNL     1       0.725  53.172 -22.682  1.00  0.00     0.046 A 
HETATM   15  C14 UNL     1       0.025  52.023 -22.285  1.00  0.00    -0.025 A 
HETATM   16  C15 UNL     1      -0.574  51.115 -23.319  1.00  0.00     0.051 C 
HETATM   17  O2  UNL     1      -0.839  50.627 -20.588  1.00  0.00    -0.340 OA
BRANCH  13  18
HETATM   18  O1  UNL     1       1.922  55.135 -22.168  1.00  0.00    -0.361 OA
HETATM   19  H17 UNL     1       2.220  55.649 -21.396  1.00  0.00     0.217 HD
ENDBRANCH  13  18
ENDBRANCH   5   6
ENDBRANCH   4   5
ENDBRANCH   3   4
BRANCH   2  20
HETATM   20  C17 UNL     1      -5.069  49.567 -23.058  1.00  0.00     0.060 C 
BRANCH  20  21
HETATM   21  C18 UNL     1      -3.777  48.918 -23.478  1.00  0.00    -0.026 C 
HETATM   22  C19 UNL     1      -3.236  48.854 -24.706  1.00  0.00    -0.019 C 
BRANCH  22  23
HETATM   23  C20 UNL     1      -3.795  49.413 -25.992  1.00  0.00     0.076 C 
HETATM   24  C21 UNL     1      -3.397  48.570 -27.197  1.00  0.00     0.022 C 
BRANCH  23  25
HETATM   25  C22 UNL     1      -3.383  50.881 -26.163  1.00  0.00     0.162 C 
HETATM   26  O3  UNL     1      -3.825  51.748 -25.399  1.00  0.00    -0.294 OA
BRANCH  25  27
HETATM   27  C23 UNL     1      -2.393  51.244 -27.280  1.00  0.00     0.188 C 
BRANCH  27  28
HETATM   28  O4  UNL     1      -2.785  50.676 -28.526  1.00  0.00    -0.388 OA
HETATM   29  H31 UNL     1      -2.546  49.724 -28.511  1.00  0.00     0.210 HD
ENDBRANCH  27  28
BRANCH  27  30
HETATM   30  C24 UNL     1      -0.927  50.908 -26.957  1.00  0.00     0.043 C 
BRANCH  30  31
HETATM   31  C25 UNL     1       0.086  52.064 -26.800  1.00  0.00    -0.020 C 
HETATM   32  C26 UNL     1      -0.147  53.086 -27.918  1.00  0.00     0.009 C 
HETATM   33  C27 UNL     1       1.551  51.624 -26.831  1.00  0.00     0.009 C 
ENDBRANCH  30  31
ENDBRANCH  27  30
ENDBRANCH  25  27
ENDBRANCH  23  25
ENDBRANCH  22  23
ENDBRANCH  20  21
ENDBRANCH   2  20
TORSDOF 12
ENDMDL
MODEL 2
REMARK minimizedAffinity -8.59680939
REMARK  12 active torsions:
REMARK  status: ('A' for Active; 'I' for Inactive)
REMARK    1  A    between atoms: C2_2  and  C17_19 
REMARK    2  A    between atoms: C3_3  and  C4_4 
REMARK    3  A    between atoms: C4_4  and  C5_5 
REMARK    4  A    between atoms: C5_5  and  C6_6 
REMARK    5  A    between atoms: C12_12  and  O1_13 
REMARK    6  A    between atoms: C17_19  and  C18_20 
REMARK    7  A    between atoms: C19_21  and  C20_22 
REMARK    8  A    between atoms: C20_22  and  C22_24 
REMARK    9  A    between atoms: C22_24  and  C23_26 
REMARK   10  A    between atoms: C23_26  and  O4_27 
REMARK   11  A    between atoms: C23_26  and  C24_28 
REMARK   12  A    between atoms: C24_28  and  C25_29 
ROOT
HETATM    1  C1  UNL     1      -3.087  48.693 -24.419  1.00  0.00     0.043 C 
HETATM    2  C2  UNL     1      -3.263  48.904 -25.900  1.00  0.00    -0.084 C 
HETATM    3  C3  UNL     1      -2.396  49.602 -26.666  1.00  0.00    -0.024 C 
ENDROOT
BRANCH   3   4
HETATM    4  C4  UNL     1      -1.085  50.190 -26.233  1.00  0.00     0.030 C 
BRANCH   4   5
HETATM    5  C5  UNL     1      -0.531  51.321 -27.105  1.00  0.00     0.042 C 
BRANCH   5   6
HETATM    6  C6  UNL     1      -0.827  52.790 -26.696  1.00  0.00     0.065 C 
HETATM    7  C7  UNL     1      -1.243  53.625 -27.920  1.00  0.00     0.046 C 
HETATM    8  C8  UNL     1       0.319  53.512 -25.975  1.00  0.00     0.043 C 
HETATM    9  C9  UNL     1       0.656  52.826 -24.659  1.00  0.00     0.044 C 
HETATM   10  C10 UNL     1      -0.593  52.505 -23.896  1.00  0.00    -0.021 A 
HETATM   11  C11 UNL     1      -0.503  52.171 -22.537  1.00  0.00     0.046 A 
HETATM   12  C16 UNL     1      -1.846  52.496 -24.528  1.00  0.00     0.082 A 
HETATM   13  C12 UNL     1      -1.655  51.865 -21.826  1.00  0.00     0.066 A 
HETATM   14  C13 UNL     1      -2.902  51.884 -22.437  1.00  0.00     0.046 A 
HETATM   15  C14 UNL     1      -3.010  52.206 -23.798  1.00  0.00    -0.025 A 
HETATM   16  C15 UNL     1      -4.357  52.217 -24.462  1.00  0.00     0.051 C 
HETATM   17  O2  UNL     1      -2.012  52.776 -25.861  1.00  0.00    -0.340 OA
BRANCH  13  18
HETATM   18  O1  UNL     1      -1.606  51.520 -20.504  1.00  0.00    -0.361 OA
HETATM   19  H17 UNL     1      -0.674  51.512 -20.218  1.00  0.00     0.217 HD
ENDBRANCH  13  18
ENDBRANCH   5   6
ENDBRANCH   4   5
ENDBRANCH   3   4
BRANCH   2  20
HETATM   20  C17 UNL     1      -4.516  48.288 -26.498  1.00  0.00     0.060 C 
BRANCH  20  21
HETATM   21  C18 UNL     1      -4.591  48.522 -27.983  1.00  0.00    -0.026 C 
HETATM   22  C19 UNL     1      -5.415  47.951 -28.877  1.00  0.00    -0.019 C 
BRANCH  22  23
HETATM   23  C20 UNL     1      -6.480  46.913 -28.620  1.00  0.00     0.076 C 
HETATM   24  C21 UNL     1      -6.771  46.081 -29.864  1.00  0.00     0.022 C 
BRANCH  23  25
HETATM   25  C22 UNL     1      -7.750  47.571 -28.065  1.00  0.00     0.162 C 
HETATM   26  O3  UNL     1      -7.933  47.644 -26.844  1.00  0.00    -0.294 OA
BRANCH  25  27
HETATM   27  C23 UNL     1      -8.768  48.160 -29.053  1.00  0.00     0.188 C 
BRANCH  27  28
HETATM   28  O4  UNL     1      -8.668  49.580 -29.118  1.00  0.00    -0.388 OA
HETATM   29  H31 UNL     1      -9.105  49.949 -28.320  1.00  0.00     0.210 HD
ENDBRANCH  27  28
BRANCH  27  30
HETATM   30  C24 UNL     1     -10.220  47.721 -28.798  1.00  0.00     0.043 C 
BRANCH  30  31
HETATM   31  C25 UNL     1     -11.213  47.704 -29.982  1.00  0.00    -0.020 C 
HETATM   32  C26 UNL     1     -12.540  47.098 -29.510  1.00  0.00     0.009 C 
HETATM   33  C27 UNL     1     -10.722  46.923 -31.202  1.00  0.00     0.009 C 
ENDBRANCH  30  31
ENDBRANCH  27  30
ENDBRANCH  25  27
ENDBRANCH  23  25
ENDBRANCH  22  23
ENDBRANCH  20  21
ENDBRANCH   2  20
TORSDOF 12
ENDMDL
MODEL 3
REMARK minimizedAffinity -8.57975769
REMARK  12 active torsions:
REMARK  status: ('A' for Active; 'I' for Inactive)
REMARK    1  A    between atoms: C2_2  and  C17_19 
REMARK    2  A    between atoms: C3_3  and  C4_4 
REMARK    3  A    between atoms: C4_4  and  C5_5 
REMARK    4  A    between atoms: C5_5  and  C6_6 
REMARK    5  A    between atoms: C12_12  and  O1_13 
REMARK    6  A    between atoms: C17_19  and  C18_20 
REMARK    7  A    between atoms: C19_21  and  C20_22 
REMARK    8  A    between atoms: C20_22  and  C22_24 
REMARK    9  A    between atoms: C22_24  and  C23_26 
REMARK   10  A    between atoms: C23_26  and  O4_27 
REMARK   11  A    between atoms: C23_26  and  C24_28 
REMARK   12  A    between atoms: C24_28  and  C25_29 
ROOT
HETATM    1  C1  UNL     1      -2.928  48.916 -26.780  1.00  0.00     0.043 C 
HETATM    2  C2  UNL     1      -4.048  48.539 -25.846  1.00  0.00    -0.084 C 
HETATM    3  C3  UNL     1      -3.975  48.655 -24.501  1.00  0.00    -0.024 C 
ENDROOT
BRANCH   3   4
HETATM    4  C4  UNL     1      -2.851  49.258 -23.710  1.00  0.00     0.030 C 
BRANCH   4   5
HETATM    5  C5  UNL     1      -3.143  49.547 -22.235  1.00  0.00     0.042 C 
BRANCH   5   6
HETATM    6  C6  UNL     1      -3.402  51.017 -21.802  1.00  0.00     0.065 C 
HETATM    7  C7  UNL     1      -4.144  51.067 -20.455  1.00  0.00     0.046 C 
HETATM    8  C8  UNL     1      -4.169  51.873 -22.818  1.00  0.00     0.043 C 
HETATM    9  C9  UNL     1      -3.392  52.007 -24.119  1.00  0.00     0.044 C 
HETATM   10  C10 UNL     1      -1.953  52.322 -23.845  1.00  0.00    -0.021 A 
HETATM   11  C11 UNL     1      -1.142  52.799 -24.885  1.00  0.00     0.046 A 
HETATM   12  C16 UNL     1      -1.395  52.114 -22.574  1.00  0.00     0.082 A 
HETATM   13  C12 UNL     1       0.194  53.086 -24.640  1.00  0.00     0.066 A 
HETATM   14  C13 UNL     1       0.745  52.911 -23.377  1.00  0.00     0.046 A 
HETATM   15  C14 UNL     1      -0.049  52.426 -22.327  1.00  0.00    -0.025 A 
HETATM   16  C15 UNL     1       0.550  52.227 -20.965  1.00  0.00     0.051 C 
HETATM   17  O2  UNL     1      -2.113  51.617 -21.515  1.00  0.00    -0.340 OA
BRANCH  13  18
HETATM   18  O1  UNL     1       1.019  53.537 -25.632  1.00  0.00    -0.361 OA
HETATM   19  H17 UNL     1       0.514  53.578 -26.464  1.00  0.00     0.217 HD
ENDBRANCH  13  18
ENDBRANCH   5   6
ENDBRANCH   4   5
ENDBRANCH   3   4
BRANCH   2  20
HETATM   20  C17 UNL     1      -5.293  47.987 -26.517  1.00  0.00     0.060 C 
BRANCH  20  21
HETATM   21  C18 UNL     1      -5.173  48.025 -28.017  1.00  0.00    -0.026 C 
HETATM   22  C19 UNL     1      -5.891  47.349 -28.930  1.00  0.00    -0.019 C 
BRANCH  22  23
HETATM   23  C20 UNL     1      -7.006  46.362 -28.681  1.00  0.00     0.076 C 
HETATM   24  C21 UNL     1      -6.981  45.215 -29.684  1.00  0.00     0.022 C 
BRANCH  23  25
HETATM   25  C22 UNL     1      -8.364  47.077 -28.666  1.00  0.00     0.162 C 
HETATM   26  O3  UNL     1      -9.342  46.549 -28.123  1.00  0.00    -0.294 OA
BRANCH  25  27
HETATM   27  C23 UNL     1      -8.473  48.466 -29.312  1.00  0.00     0.188 C 
BRANCH  27  28
HETATM   28  O4  UNL     1      -8.858  49.453 -28.360  1.00  0.00    -0.388 OA
HETATM   29  H31 UNL     1      -9.822  49.359 -28.203  1.00  0.00     0.210 HD
ENDBRANCH  27  28
BRANCH  27  30
HETATM   30  C24 UNL     1      -9.380  48.514 -30.554  1.00  0.00     0.043 C 
BRANCH  30  31
HETATM   31  C25 UNL     1      -9.288  47.371 -31.588  1.00  0.00    -0.020 C 
HETATM   32  C26 UNL     1      -8.492  47.860 -32.803  1.00  0.00     0.009 C 
HETATM   33  C27 UNL     1     -10.644  46.847 -32.067  1.00  0.00     0.009 C 
ENDBRANCH  30  31
ENDBRANCH  27  30
ENDBRANCH  25  27
ENDBRANCH  23  25
ENDBRANCH  22  23
ENDBRANCH  20  21
ENDBRANCH   2  20
TORSDOF 12
ENDMDL
MODEL 4
REMARK minimizedAffinity -8.54129791
REMARK  12 active torsions:
REMARK  status: ('A' for Active; 'I' for Inactive)
REMARK    1  A    between atoms: C2_2  and  C17_19 
REMARK    2  A    between atoms: C3_3  and  C4_4 
REMARK    3  A    between atoms: C4_4  and  C5_5 
REMARK    4  A    between atoms: C5_5  and  C6_6 
REMARK    5  A    between atoms: C12_12  and  O1_13 
REMARK    6  A    between atoms: C17_19  and  C18_20 
REMARK    7  A    between atoms: C19_21  and  C20_22 
REMARK    8  A    between atoms: C20_22  and  C22_24 
REMARK    9  A    between atoms: C22_24  and  C23_26 
REMARK   10  A    between atoms: C23_26  and  O4_27 
REMARK   11  A    between atoms: C23_26  and  C24_28 
REMARK   12  A    between atoms: C24_28  and  C25_29 
ROOT
HETATM    1  C1  UNL     1      -2.710  48.472 -26.288  1.00  0.00     0.043 C 
HETATM    2  C2  UNL     1      -4.105  48.366 -25.729  1.00  0.00    -0.084 C 
HETATM    3  C3  UNL     1      -4.394  48.456 -24.412  1.00  0.00    -0.024 C 
ENDROOT
BRANCH   3   4
HETATM    4  C4  UNL     1      -3.436  48.773 -23.300  1.00  0.00     0.030 C 
BRANCH   4   5
HETATM    5  C5  UNL     1      -2.414  49.878 -23.585  1.00  0.00     0.042 C 
BRANCH   5   6
HETATM    6  C6  UNL     1      -2.830  51.356 -23.349  1.00  0.00     0.065 C 
HETATM    7  C7  UNL     1      -3.143  51.605 -21.862  1.00  0.00     0.046 C 
HETATM    8  C8  UNL     1      -4.016  51.844 -24.189  1.00  0.00     0.043 C 
HETATM    9  C9  UNL     1      -3.696  51.787 -25.675  1.00  0.00     0.044 C 
HETATM   10  C10 UNL     1      -2.334  52.354 -25.943  1.00  0.00    -0.021 A 
HETATM   11  C11 UNL     1      -1.975  52.692 -27.256  1.00  0.00     0.046 A 
HETATM   12  C16 UNL     1      -1.401  52.519 -24.908  1.00  0.00     0.082 A 
HETATM   13  C12 UNL     1      -0.713  53.211 -27.513  1.00  0.00     0.066 A 
HETATM   14  C13 UNL     1       0.204  53.404 -26.489  1.00  0.00     0.046 A 
HETATM   15  C14 UNL     1      -0.134  53.064 -25.171  1.00  0.00    -0.025 A 
HETATM   16  C15 UNL     1       0.861  53.264 -24.065  1.00  0.00     0.051 C 
HETATM   17  O2  UNL     1      -1.664  52.179 -23.605  1.00  0.00    -0.340 OA
BRANCH  13  18
HETATM   18  O1  UNL     1      -0.321  53.536 -28.781  1.00  0.00    -0.361 OA
HETATM   19  H17 UNL     1      -1.044  53.317 -29.398  1.00  0.00     0.217 HD
ENDBRANCH  13  18
ENDBRANCH   5   6
ENDBRANCH   4   5
ENDBRANCH   3   4
BRANCH   2  20
HETATM   20  C17 UNL     1      -5.198  48.127 -26.756  1.00  0.00     0.060 C 
BRANCH  20  21
HETATM   21  C18 UNL     1      -4.684  48.305 -28.159  1.00  0.00    -0.026 C 
HETATM   22  C19 UNL     1      -5.345  48.140 -29.317  1.00  0.00    -0.019 C 
BRANCH  22  23
HETATM   23  C20 UNL     1      -6.783  47.721 -29.508  1.00  0.00     0.076 C 
HETATM   24  C21 UNL     1      -6.948  46.208 -29.418  1.00  0.00     0.022 C 
BRANCH  23  25
HETATM   25  C22 UNL     1      -7.333  48.276 -30.829  1.00  0.00     0.162 C 
HETATM   26  O3  UNL     1      -6.677  48.172 -31.872  1.00  0.00    -0.294 OA
BRANCH  25  27
HETATM   27  C23 UNL     1      -8.721  48.935 -30.830  1.00  0.00     0.188 C 
BRANCH  27  28
HETATM   28  O4  UNL     1      -8.652  50.291 -30.399  1.00  0.00    -0.388 OA
HETATM   29  H31 UNL     1      -8.562  50.291 -29.422  1.00  0.00     0.210 HD
ENDBRANCH  27  28
BRANCH  27  30
HETATM   30  C24 UNL     1      -9.789  48.158 -30.041  1.00  0.00     0.043 C 
BRANCH  30  31
HETATM   31  C25 UNL     1     -10.852  47.353 -30.819  1.00  0.00    -0.020 C 
HETATM   32  C26 UNL     1     -11.424  46.266 -29.901  1.00  0.00     0.009 C 
HETATM   33  C27 UNL     1     -10.330  46.694 -32.097  1.00  0.00     0.009 C 
ENDBRANCH  30  31
ENDBRANCH  27  30
ENDBRANCH  25  27
ENDBRANCH  23  25
ENDBRANCH  22  23
ENDBRANCH  20  21
ENDBRANCH   2  20
TORSDOF 12
ENDMDL
MODEL 5
REMARK minimizedAffinity -8.51028633
REMARK  12 active torsions:
REMARK  status: ('A' for Active; 'I' for Inactive)
REMARK    1  A    between atoms: C2_2  and  C17_19 
REMARK    2  A    between atoms: C3_3  and  C4_4 
REMARK    3  A    between atoms: C4_4  and  C5_5 
REMARK    4  A    between atoms: C5_5  and  C6_6 
REMARK    5  A    between atoms: C12_12  and  O1_13 
REMARK    6  A    between atoms: C17_19  and  C18_20 
REMARK    7  A    between atoms: C19_21  and  C20_22 
REMARK    8  A    between atoms: C20_22  and  C22_24 
REMARK    9  A    between atoms: C22_24  and  C23_26 
REMARK   10  A    between atoms: C23_26  and  O4_27 
REMARK   11  A    between atoms: C23_26  and  C24_28 
REMARK   12  A    between atoms: C24_28  and  C25_29 
ROOT
HETATM    1  C1  UNL     1      -5.499  50.798 -23.494  1.00  0.00     0.043 C 
HETATM    2  C2  UNL     1      -4.873  49.430 -23.413  1.00  0.00    -0.084 C 
HETATM    3  C3  UNL     1      -4.299  48.932 -22.296  1.00  0.00    -0.024 C 
ENDROOT
BRANCH   3   4
HETATM    4  C4  UNL     1      -4.268  49.573 -20.939  1.00  0.00     0.030 C 
BRANCH   4   5
HETATM    5  C5  UNL     1      -2.990  50.340 -20.584  1.00  0.00     0.042 C 
BRANCH   5   6
HETATM    6  C6  UNL     1      -1.622  49.622 -20.746  1.00  0.00     0.065 C 
HETATM    7  C7  UNL     1      -1.571  48.832 -22.066  1.00  0.00     0.046 C 
HETATM    8  C8  UNL     1      -1.236  48.682 -19.596  1.00  0.00     0.043 C 
HETATM    9  C9  UNL     1      -1.096  49.446 -18.288  1.00  0.00     0.044 C 
HETATM   10  C10 UNL     1      -0.307  50.704 -18.493  1.00  0.00    -0.021 A 
HETATM   11  C11 UNL     1       0.209  51.382 -17.379  1.00  0.00     0.046 A 
HETATM   12  C16 UNL     1      -0.108  51.234 -19.776  1.00  0.00     0.082 A 
HETATM   13  C12 UNL     1       0.934  52.552 -17.560  1.00  0.00     0.066 A 
HETATM   14  C13 UNL     1       1.160  53.065 -18.830  1.00  0.00     0.046 A 
HETATM   15  C14 UNL     1       0.643  52.406 -19.956  1.00  0.00    -0.025 A 
HETATM   16  C15 UNL     1       0.880  52.966 -21.328  1.00  0.00     0.051 C 
HETATM   17  O2  UNL     1      -0.612  50.649 -20.912  1.00  0.00    -0.340 OA
BRANCH  13  18
HETATM   18  O1  UNL     1       1.439  53.249 -16.498  1.00  0.00    -0.361 OA
HETATM   19  H17 UNL     1       1.176  52.798 -15.675  1.00  0.00     0.217 HD
ENDBRANCH  13  18
ENDBRANCH   5   6
ENDBRANCH   4   5
ENDBRANCH   3   4
BRANCH   2  20
HETATM   20  C17 UNL     1      -4.906  48.625 -24.701  1.00  0.00     0.060 C 
BRANCH  20  21
HETATM   21  C18 UNL     1      -3.526  48.444 -25.274  1.00  0.00    -0.026 C 
HETATM   22  C19 UNL     1      -2.840  49.272 -26.079  1.00  0.00    -0.019 C 
BRANCH  22  23
HETATM   23  C20 UNL     1      -3.287  50.606 -26.627  1.00  0.00     0.076 C 
HETATM   24  C21 UNL     1      -3.058  50.705 -28.131  1.00  0.00     0.022 C 
BRANCH  23  25
HETATM   25  C22 UNL     1      -2.605  51.753 -25.870  1.00  0.00     0.162 C 
HETATM   26  O3  UNL     1      -3.083  52.894 -25.904  1.00  0.00    -0.294 OA
BRANCH  25  27
HETATM   27  C23 UNL     1      -1.341  51.450 -25.052  1.00  0.00     0.188 C 
BRANCH  27  28
HETATM   28  O4  UNL     1      -1.503  51.824 -23.687  1.00  0.00    -0.388 OA
HETATM   29  H31 UNL     1      -1.407  52.799 -23.630  1.00  0.00     0.210 HD
ENDBRANCH  27  28
BRANCH  27  30
HETATM   30  C24 UNL     1      -0.051  52.049 -25.639  1.00  0.00     0.043 C 
BRANCH  30  31
HETATM   31  C25 UNL     1       0.736  51.238 -26.691  1.00  0.00    -0.020 C 
HETATM   32  C26 UNL     1       2.223  51.250 -26.319  1.00  0.00     0.009 C 
HETATM   33  C27 UNL     1       0.583  51.752 -28.124  1.00  0.00     0.009 C 
ENDBRANCH  30  31
ENDBRANCH  27  30
ENDBRANCH  25  27
ENDBRANCH  23  25
ENDBRANCH  22  23
ENDBRANCH  20  21
ENDBRANCH   2  20
TORSDOF 12
ENDMDL
MODEL 6
REMARK minimizedAffinity -8.48664093
REMARK  12 active torsions:
REMARK  status: ('A' for Active; 'I' for Inactive)
REMARK    1  A    between atoms: C2_2  and  C17_19 
REMARK    2  A    between atoms: C3_3  and  C4_4 
REMARK    3  A    between atoms: C4_4  and  C5_5 
REMARK    4  A    between atoms: C5_5  and  C6_6 
REMARK    5  A    between atoms: C12_12  and  O1_13 
REMARK    6  A    between atoms: C17_19  and  C18_20 
REMARK    7  A    between atoms: C19_21  and  C20_22 
REMARK    8  A    between atoms: C20_22  and  C22_24 
REMARK    9  A    between atoms: C22_24  and  C23_26 
REMARK   10  A    between atoms: C23_26  and  O4_27 
REMARK   11  A    between atoms: C23_26  and  C24_28 
REMARK   12  A    between atoms: C24_28  and  C25_29 
ROOT
HETATM    1  C1  UNL     1      -2.695  48.491 -26.139  1.00  0.00     0.043 C 
HETATM    2  C2  UNL     1      -4.079  48.378 -25.554  1.00  0.00    -0.084 C 
HETATM    3  C3  UNL     1      -4.348  48.497 -24.235  1.00  0.00    -0.024 C 
ENDROOT
BRANCH   3   4
HETATM    4  C4  UNL     1      -3.376  48.856 -23.148  1.00  0.00     0.030 C 
BRANCH   4   5
HETATM    5  C5  UNL     1      -2.378  49.970 -23.477  1.00  0.00     0.042 C 
BRANCH   5   6
HETATM    6  C6  UNL     1      -2.820  51.447 -23.289  1.00  0.00     0.065 C 
HETATM    7  C7  UNL     1      -3.151  51.735 -21.813  1.00  0.00     0.046 C 
HETATM    8  C8  UNL     1      -4.007  51.890 -24.153  1.00  0.00     0.043 C 
HETATM    9  C9  UNL     1      -3.672  51.794 -25.634  1.00  0.00     0.044 C 
HETATM   10  C10 UNL     1      -2.318  52.376 -25.908  1.00  0.00    -0.021 A 
HETATM   11  C11 UNL     1      -1.953  52.680 -27.227  1.00  0.00     0.046 A 
HETATM   12  C16 UNL     1      -1.398  52.588 -24.870  1.00  0.00     0.082 A 
HETATM   13  C12 UNL     1      -0.698  53.213 -27.489  1.00  0.00     0.066 A 
HETATM   14  C13 UNL     1       0.207  53.453 -26.463  1.00  0.00     0.046 A 
HETATM   15  C14 UNL     1      -0.138  53.146 -25.138  1.00  0.00    -0.025 A 
HETATM   16  C15 UNL     1       0.844  53.396 -24.031  1.00  0.00     0.051 C 
HETATM   17  O2  UNL     1      -1.666  52.282 -23.559  1.00  0.00    -0.340 OA
BRANCH  13  18
HETATM   18  O1  UNL     1      -0.301  53.507 -28.763  1.00  0.00    -0.361 OA
HETATM   19  H17 UNL     1      -1.014  53.257 -29.379  1.00  0.00     0.217 HD
ENDBRANCH  13  18
ENDBRANCH   5   6
ENDBRANCH   4   5
ENDBRANCH   3   4
BRANCH   2  20
HETATM   20  C17 UNL     1      -5.184  48.096 -26.556  1.00  0.00     0.060 C 
BRANCH  20  21
HETATM   21  C18 UNL     1      -4.690  48.217 -27.972  1.00  0.00    -0.026 C 
HETATM   22  C19 UNL     1      -5.357  47.977 -29.113  1.00  0.00    -0.019 C 
BRANCH  22  23
HETATM   23  C20 UNL     1      -6.784  47.510 -29.267  1.00  0.00     0.076 C 
HETATM   24  C21 UNL     1      -6.871  45.997 -29.426  1.00  0.00     0.022 C 
BRANCH  23  25
HETATM   25  C22 UNL     1      -7.467  48.245 -30.428  1.00  0.00     0.162 C 
HETATM   26  O3  UNL     1      -8.393  49.034 -30.209  1.00  0.00    -0.294 OA
BRANCH  25  27
HETATM   27  C23 UNL     1      -6.959  48.000 -31.857  1.00  0.00     0.188 C 
BRANCH  27  28
HETATM   28  O4  UNL     1      -7.484  46.790 -32.395  1.00  0.00    -0.388 OA
HETATM   29  H31 UNL     1      -6.984  46.043 -32.001  1.00  0.00     0.210 HD
ENDBRANCH  27  28
BRANCH  27  30
HETATM   30  C24 UNL     1      -5.428  48.048 -31.999  1.00  0.00     0.043 C 
BRANCH  30  31
HETATM   31  C25 UNL     1      -4.730  47.009 -32.905  1.00  0.00    -0.020 C 
HETATM   32  C26 UNL     1      -4.108  45.919 -32.025  1.00  0.00     0.009 C 
HETATM   33  C27 UNL     1      -3.642  47.594 -33.807  1.00  0.00     0.009 C 
ENDBRANCH  30  31
ENDBRANCH  27  30
ENDBRANCH  25  27
ENDBRANCH  23  25
ENDBRANCH  22  23
ENDBRANCH  20  21
ENDBRANCH   2  20
TORSDOF 12
ENDMDL
MODEL 7
REMARK minimizedAffinity -8.47369289
REMARK  12 active torsions:
REMARK  status: ('A' for Active; 'I' for Inactive)
REMARK    1  A    between atoms: C2_2  and  C17_19 
REMARK    2  A    between atoms: C3_3  and  C4_4 
REMARK    3  A    between atoms: C4_4  and  C5_5 
REMARK    4  A    between atoms: C5_5  and  C6_6 
REMARK    5  A    between atoms: C12_12  and  O1_13 
REMARK    6  A    between atoms: C17_19  and  C18_20 
REMARK    7  A    between atoms: C19_21  and  C20_22 
REMARK    8  A    between atoms: C20_22  and  C22_24 
REMARK    9  A    between atoms: C22_24  and  C23_26 
REMARK   10  A    between atoms: C23_26  and  O4_27 
REMARK   11  A    between atoms: C23_26  and  C24_28 
REMARK   12  A    between atoms: C24_28  and  C25_29 
ROOT
HETATM    1  C1  UNL     1      -4.618  47.828 -22.588  1.00  0.00     0.043 C 
HETATM    2  C2  UNL     1      -3.380  48.255 -23.332  1.00  0.00    -0.084 C 
HETATM    3  C3  UNL     1      -2.163  48.378 -22.757  1.00  0.00    -0.024 C 
ENDROOT
BRANCH   3   4
HETATM    4  C4  UNL     1      -1.797  48.026 -21.344  1.00  0.00     0.030 C 
BRANCH   4   5
HETATM    5  C5  UNL     1      -1.121  49.131 -20.527  1.00  0.00     0.042 C 
BRANCH   5   6
HETATM    6  C6  UNL     1      -1.984  50.322 -20.027  1.00  0.00     0.065 C 
HETATM    7  C7  UNL     1      -3.043  49.844 -19.018  1.00  0.00     0.046 C 
HETATM    8  C8  UNL     1      -2.683  51.131 -21.126  1.00  0.00     0.043 C 
HETATM    9  C9  UNL     1      -1.669  51.779 -22.058  1.00  0.00     0.044 C 
HETATM   10  C10 UNL     1      -0.567  52.423 -21.273  1.00  0.00    -0.021 A 
HETATM   11  C11 UNL     1       0.285  53.340 -21.906  1.00  0.00     0.046 A 
HETATM   12  C16 UNL     1      -0.352  52.098 -19.925  1.00  0.00     0.082 A 
HETATM   13  C12 UNL     1       1.312  53.935 -21.187  1.00  0.00     0.066 A 
HETATM   14  C13 UNL     1       1.513  53.640 -19.845  1.00  0.00     0.046 A 
HETATM   15  C14 UNL     1       0.676  52.718 -19.198  1.00  0.00    -0.025 A 
HETATM   16  C15 UNL     1       0.899  52.392 -17.749  1.00  0.00     0.051 C 
HETATM   17  O2  UNL     1      -1.118  51.185 -19.245  1.00  0.00    -0.340 OA
BRANCH  13  18
HETATM   18  O1  UNL     1       2.172  54.820 -21.774  1.00  0.00    -0.361 OA
HETATM   19  H17 UNL     1       1.939  54.905 -22.716  1.00  0.00     0.217 HD
ENDBRANCH  13  18
ENDBRANCH   5   6
ENDBRANCH   4   5
ENDBRANCH   3   4
BRANCH   2  20
HETATM   20  C17 UNL     1      -3.584  48.566 -24.804  1.00  0.00     0.060 C 
BRANCH  20  21
HETATM   21  C18 UNL     1      -5.005  48.311 -25.230  1.00  0.00    -0.026 C 
HETATM   22  C19 UNL     1      -5.489  48.148 -26.473  1.00  0.00    -0.019 C 
BRANCH  22  23
HETATM   23  C20 UNL     1      -4.723  48.187 -27.773  1.00  0.00     0.076 C 
HETATM   24  C21 UNL     1      -3.753  49.362 -27.823  1.00  0.00     0.022 C 
BRANCH  23  25
HETATM   25  C22 UNL     1      -5.689  48.195 -28.965  1.00  0.00     0.162 C 
HETATM   26  O3  UNL     1      -6.912  48.163 -28.779  1.00  0.00    -0.294 OA
BRANCH  25  27
HETATM   27  C23 UNL     1      -5.108  48.270 -30.385  1.00  0.00     0.188 C 
BRANCH  27  28
HETATM   28  O4  UNL     1      -4.771  49.608 -30.739  1.00  0.00    -0.388 OA
HETATM   29  H31 UNL     1      -5.603  50.078 -30.965  1.00  0.00     0.210 HD
ENDBRANCH  27  28
BRANCH  27  30
HETATM   30  C24 UNL     1      -5.994  47.621 -31.464  1.00  0.00     0.043 C 
BRANCH  30  31
HETATM   31  C25 UNL     1      -5.646  46.199 -31.957  1.00  0.00    -0.020 C 
HETATM   32  C26 UNL     1      -6.277  45.175 -31.008  1.00  0.00     0.009 C 
HETATM   33  C27 UNL     1      -4.145  45.919 -32.058  1.00  0.00     0.009 C 
ENDBRANCH  30  31
ENDBRANCH  27  30
ENDBRANCH  25  27
ENDBRANCH  23  25
ENDBRANCH  22  23
ENDBRANCH  20  21
ENDBRANCH   2  20
TORSDOF 12
ENDMDL
MODEL 8
REMARK minimizedAffinity -8.46487522
REMARK  12 active torsions:
REMARK  status: ('A' for Active; 'I' for Inactive)
REMARK    1  A    between atoms: C2_2  and  C17_19 
REMARK    2  A    between atoms: C3_3  and  C4_4 
REMARK    3  A    between atoms: C4_4  and  C5_5 
REMARK    4  A    between atoms: C5_5  and  C6_6 
REMARK    5  A    between atoms: C12_12  and  O1_13 
REMARK    6  A    between atoms: C17_19  and  C18_20 
REMARK    7  A    between atoms: C19_21  and  C20_22 
REMARK    8  A    between atoms: C20_22  and  C22_24 
REMARK    9  A    between atoms: C22_24  and  C23_26 
REMARK   10  A    between atoms: C23_26  and  O4_27 
REMARK   11  A    between atoms: C23_26  and  C24_28 
REMARK   12  A    between atoms: C24_28  and  C25_29 
ROOT
HETATM    1  C1  UNL     1      -2.706  48.485 -26.149  1.00  0.00     0.043 C 
HETATM    2  C2  UNL     1      -4.207  48.389 -26.240  1.00  0.00    -0.084 C 
HETATM    3  C3  UNL     1      -5.021  48.316 -25.164  1.00  0.00    -0.024 C 
ENDROOT
BRANCH   3   4
HETATM    4  C4  UNL     1      -4.616  48.420 -23.722  1.00  0.00     0.030 C 
BRANCH   4   5
HETATM    5  C5  UNL     1      -3.485  49.403 -23.408  1.00  0.00     0.042 C 
BRANCH   5   6
HETATM    6  C6  UNL     1      -3.854  50.841 -22.948  1.00  0.00     0.065 C 
HETATM    7  C7  UNL     1      -4.756  50.802 -21.702  1.00  0.00     0.046 C 
HETATM    8  C8  UNL     1      -4.525  51.717 -24.013  1.00  0.00     0.043 C 
HETATM    9  C9  UNL     1      -3.602  51.938 -25.202  1.00  0.00     0.044 C 
HETATM   10  C10 UNL     1      -2.220  52.289 -24.739  1.00  0.00    -0.021 A 
HETATM   11  C11 UNL     1      -1.309  52.842 -25.651  1.00  0.00     0.046 A 
HETATM   12  C16 UNL     1      -1.813  52.042 -23.420  1.00  0.00     0.082 A 
HETATM   13  C12 UNL     1      -0.025  53.164 -25.231  1.00  0.00     0.066 A 
HETATM   14  C13 UNL     1       0.375  52.949 -23.919  1.00  0.00     0.046 A 
HETATM   15  C14 UNL     1      -0.521  52.388 -22.996  1.00  0.00    -0.025 A 
HETATM   16  C15 UNL     1      -0.085  52.147 -21.580  1.00  0.00     0.051 C 
HETATM   17  O2  UNL     1      -2.634  51.471 -22.480  1.00  0.00    -0.340 OA
BRANCH  13  18
HETATM   18  O1  UNL     1       0.896  53.689 -26.094  1.00  0.00    -0.361 OA
HETATM   19  H17 UNL     1       0.494  53.751 -26.980  1.00  0.00     0.217 HD
ENDBRANCH  13  18
ENDBRANCH   5   6
ENDBRANCH   4   5
ENDBRANCH   3   4
BRANCH   2  20
HETATM   20  C17 UNL     1      -4.769  48.359 -27.650  1.00  0.00     0.060 C 
BRANCH  20  21
HETATM   21  C18 UNL     1      -6.076  47.615 -27.707  1.00  0.00    -0.026 C 
HETATM   22  C19 UNL     1      -6.736  47.167 -28.788  1.00  0.00    -0.019 C 
BRANCH  22  23
HETATM   23  C20 UNL     1      -6.336  47.305 -30.237  1.00  0.00     0.076 C 
HETATM   24  C21 UNL     1      -7.215  48.308 -30.974  1.00  0.00     0.022 C 
BRANCH  23  25
HETATM   25  C22 UNL     1      -6.333  45.934 -30.927  1.00  0.00     0.162 C 
HETATM   26  O3  UNL     1      -6.628  44.915 -30.292  1.00  0.00    -0.294 OA
BRANCH  25  27
HETATM   27  C23 UNL     1      -5.985  45.862 -32.422  1.00  0.00     0.188 C 
BRANCH  27  28
HETATM   28  O4  UNL     1      -6.330  44.594 -32.974  1.00  0.00    -0.388 OA
HETATM   29  H31 UNL     1      -5.644  43.950 -32.698  1.00  0.00     0.210 HD
ENDBRANCH  27  28
BRANCH  27  30
HETATM   30  C24 UNL     1      -4.527  46.228 -32.748  1.00  0.00     0.043 C 
BRANCH  30  31
HETATM   31  C25 UNL     1      -4.215  47.644 -33.279  1.00  0.00    -0.020 C 
HETATM   32  C26 UNL     1      -5.232  48.004 -34.367  1.00  0.00     0.009 C 
HETATM   33  C27 UNL     1      -2.805  47.803 -33.851  1.00  0.00     0.009 C 
ENDBRANCH  30  31
ENDBRANCH  27  30
ENDBRANCH  25  27
ENDBRANCH  23  25
ENDBRANCH  22  23
ENDBRANCH  20  21
ENDBRANCH   2  20
TORSDOF 12
ENDMDL
MODEL 9
REMARK minimizedAffinity -8.46419907
REMARK  12 active torsions:
REMARK  status: ('A' for Active; 'I' for Inactive)
REMARK    1  A    between atoms: C2_2  and  C17_19 
REMARK    2  A    between atoms: C3_3  and  C4_4 
REMARK    3  A    between atoms: C4_4  and  C5_5 
REMARK    4  A    between atoms: C5_5  and  C6_6 
REMARK    5  A    between atoms: C12_12  and  O1_13 
REMARK    6  A    between atoms: C17_19  and  C18_20 
REMARK    7  A    between atoms: C19_21  and  C20_22 
REMARK    8  A    between atoms: C20_22  and  C22_24 
REMARK    9  A    between atoms: C22_24  and  C23_26 
REMARK   10  A    between atoms: C23_26  and  O4_27 
REMARK   11  A    between atoms: C23_26  and  C24_28 
REMARK   12  A    between atoms: C24_28  and  C25_29 
ROOT
HETATM    1  C1  UNL     1      -3.761  50.308 -21.502  1.00  0.00     0.043 C 
HETATM    2  C2  UNL     1      -2.799  49.185 -21.788  1.00  0.00    -0.084 C 
HETATM    3  C3  UNL     1      -2.745  48.524 -22.965  1.00  0.00    -0.024 C 
ENDROOT
BRANCH   3   4
HETATM    4  C4  UNL     1      -3.528  48.835 -24.207  1.00  0.00     0.030 C 
BRANCH   4   5
HETATM    5  C5  UNL     1      -2.740  49.461 -25.362  1.00  0.00     0.042 C 
BRANCH   5   6
HETATM    6  C6  UNL     1      -2.879  50.988 -25.617  1.00  0.00     0.065 C 
HETATM    7  C7  UNL     1      -4.112  51.554 -24.891  1.00  0.00     0.046 C 
HETATM    8  C8  UNL     1      -2.944  51.402 -27.092  1.00  0.00     0.043 C 
HETATM    9  C9  UNL     1      -1.665  51.023 -27.825  1.00  0.00     0.044 C 
HETATM   10  C10 UNL     1      -0.461  51.404 -27.017  1.00  0.00    -0.021 A 
HETATM   11  C11 UNL     1       0.798  51.441 -27.633  1.00  0.00     0.046 A 
HETATM   12  C16 UNL     1      -0.568  51.688 -25.647  1.00  0.00     0.082 A 
HETATM   13  C12 UNL     1       1.918  51.785 -26.890  1.00  0.00     0.066 A 
HETATM   14  C13 UNL     1       1.815  52.097 -25.540  1.00  0.00     0.046 A 
HETATM   15  C14 UNL     1       0.565  52.055 -24.905  1.00  0.00    -0.025 A 
HETATM   16  C15 UNL     1       0.455  52.383 -23.444  1.00  0.00     0.051 C 
HETATM   17  O2  UNL     1      -1.758  51.638 -24.964  1.00  0.00    -0.340 OA
BRANCH  13  18
HETATM   18  O1  UNL     1       3.164  51.817 -27.451  1.00  0.00    -0.361 OA
HETATM   19  H17 UNL     1       3.093  51.544 -28.384  1.00  0.00     0.217 HD
ENDBRANCH  13  18
ENDBRANCH   5   6
ENDBRANCH   4   5
ENDBRANCH   3   4
BRANCH   2  20
HETATM   20  C17 UNL     1      -1.878  48.813 -20.638  1.00  0.00     0.060 C 
BRANCH  20  21
HETATM   21  C18 UNL     1      -0.497  49.377 -20.833  1.00  0.00    -0.026 C 
HETATM   22  C19 UNL     1      -0.047  50.607 -20.534  1.00  0.00    -0.019 C 
BRANCH  22  23
HETATM   23  C20 UNL     1      -0.823  51.751 -19.928  1.00  0.00     0.076 C 
HETATM   24  C21 UNL     1      -0.054  53.065 -20.014  1.00  0.00     0.022 C 
BRANCH  23  25
HETATM   25  C22 UNL     1      -1.229  51.421 -18.486  1.00  0.00     0.162 C 
HETATM   26  O3  UNL     1      -2.394  51.596 -18.109  1.00  0.00    -0.294 OA
BRANCH  25  27
HETATM   27  C23 UNL     1      -0.168  50.846 -17.534  1.00  0.00     0.188 C 
BRANCH  27  28
HETATM   28  O4  UNL     1      -0.769  50.135 -16.456  1.00  0.00    -0.388 OA
HETATM   29  H31 UNL     1      -1.108  50.794 -15.813  1.00  0.00     0.210 HD
ENDBRANCH  27  28
BRANCH  27  30
HETATM   30  C24 UNL     1       0.842  51.884 -17.015  1.00  0.00     0.043 C 
BRANCH  30  31
HETATM   31  C25 UNL     1       1.715  51.528 -15.791  1.00  0.00    -0.020 C 
HETATM   32  C26 UNL     1       1.003  52.001 -14.519  1.00  0.00     0.009 C 
HETATM   33  C27 UNL     1       3.119  52.133 -15.824  1.00  0.00     0.009 C 
ENDBRANCH  30  31
ENDBRANCH  27  30
ENDBRANCH  25  27
ENDBRANCH  23  25
ENDBRANCH  22  23
ENDBRANCH  20  21
ENDBRANCH   2  20
TORSDOF 12
ENDMDL
