MODEL 1
REMARK minimizedAffinity -10.0774431
REMARK  2 active torsions:
REMARK  status: ('A' for Active; 'I' for Inactive)
REMARK       I    between atoms: C1_2  and  N1_3 
REMARK    1  A    between atoms: C1_2  and  C14_18 
REMARK    2  A    between atoms: N1_3  and  C2_4 
ROOT
HETATM    1  C2  UNL     1      -0.654  52.361 -23.804  1.00  0.00     0.135 C 
HETATM    2  C3  UNL     1       0.754  52.268 -24.440  1.00  0.00     0.032 C 
HETATM    3  C4  UNL     1       0.702  52.052 -25.963  1.00  0.00     0.007 C 
HETATM    4  C5  UNL     1      -0.029  50.748 -26.335  1.00  0.00     0.042 C 
HETATM    5  C6  UNL     1      -1.308  50.624 -25.576  1.00  0.00    -0.021 A 
HETATM    6  C7  UNL     1      -1.559  51.355 -24.432  1.00  0.00     0.040 A 
HETATM    7  N2  UNL     1      -2.822  51.056 -24.003  1.00  0.00    -0.355 N 
HETATM    8  C8  UNL     1      -3.379  50.094 -24.818  1.00  0.00     0.065 A 
HETATM    9  C9  UNL     1      -4.627  49.463 -24.759  1.00  0.00     0.061 A 
HETATM   10 CL1  UNL     1      -5.754  49.832 -23.515  1.00  0.00    -0.082 Cl
HETATM   11  C10 UNL     1      -4.939  48.518 -25.738  1.00  0.00     0.026 A 
HETATM   12  C11 UNL     1      -4.029  48.216 -26.750  1.00  0.00     0.003 A 
HETATM   13  C12 UNL     1      -2.782  48.853 -26.802  1.00  0.00     0.014 A 
HETATM   14  C13 UNL     1      -2.447  49.807 -25.821  1.00  0.00     0.001 A 
HETATM   15  H9  UNL     1      -3.285  51.471 -23.202  1.00  0.00     0.166 HD
ENDROOT
BRANCH   1  16
HETATM   16  N1  UNL     1      -0.597  52.081 -22.387  1.00  0.00    -0.347 N 
HETATM   17  C1  UNL     1       0.283  52.745 -21.562  1.00  0.00     0.252 C 
HETATM   18  O1  UNL     1       0.966  53.693 -21.929  1.00  0.00    -0.268 OA
HETATM   19  H1  UNL     1      -1.117  51.286 -22.047  1.00  0.00     0.163 HD
BRANCH  17  20
HETATM   20  C14 UNL     1       0.352  52.273 -20.149  1.00  0.00     0.034 A 
HETATM   21  C15 UNL     1      -0.265  51.057 -19.837  1.00  0.00     0.018 A 
HETATM   22  C16 UNL     1      -0.236  50.551 -18.531  1.00  0.00     0.015 A 
HETATM   23  C17 UNL     1       0.413  51.287 -17.522  1.00  0.00    -0.008 A 
HETATM   24  C18 UNL     1       0.626  51.079 -16.131  1.00  0.00     0.030 A 
HETATM   25  C20 UNL     1       1.006  52.506 -17.851  1.00  0.00     0.043 A 
HETATM   26  C19 UNL     1       1.326  52.160 -15.648  1.00  0.00     0.089 A 
HETATM   27  N3  UNL     1       1.547  53.018 -16.692  1.00  0.00    -0.365 N 
HETATM   28  H17 UNL     1       2.036  53.900 -16.625  1.00  0.00     0.165 HD
HETATM   29  C21 UNL     1       0.990  53.030 -19.152  1.00  0.00     0.047 A 
ENDBRANCH  17  20
ENDBRANCH   1  16
TORSDOF 2
ENDMDL
MODEL 2
REMARK minimizedAffinity -9.54854393
REMARK  2 active torsions:
REMARK  status: ('A' for Active; 'I' for Inactive)
REMARK       I    between atoms: C1_2  and  N1_3 
REMARK    1  A    between atoms: C1_2  and  C14_18 
REMARK    2  A    between atoms: N1_3  and  C2_4 
ROOT
HETATM    1  C2  UNL     1      -0.740  52.308 -22.732  1.00  0.00     0.135 C 
HETATM    2  C3  UNL     1       0.655  52.508 -23.373  1.00  0.00     0.032 C 
HETATM    3  C4  UNL     1       0.595  52.576 -24.909  1.00  0.00     0.007 C 
HETATM    4  C5  UNL     1       0.018  51.285 -25.521  1.00  0.00     0.042 C 
HETATM    5  C6  UNL     1      -1.219  50.867 -24.800  1.00  0.00    -0.021 A 
HETATM    6  C7  UNL     1      -1.531  51.334 -23.539  1.00  0.00     0.040 A 
HETATM    7  N2  UNL     1      -2.739  50.808 -23.175  1.00  0.00    -0.355 N 
HETATM    8  C8  UNL     1      -3.194  49.955 -24.157  1.00  0.00     0.065 A 
HETATM    9  C9  UNL     1      -4.356  49.176 -24.220  1.00  0.00     0.061 A 
HETATM   10 CL1  UNL     1      -5.491  49.165 -22.929  1.00  0.00    -0.082 Cl
HETATM   11  C10 UNL     1      -4.574  48.401 -25.360  1.00  0.00     0.026 A 
HETATM   12  C11 UNL     1      -3.656  48.407 -26.409  1.00  0.00     0.003 A 
HETATM   13  C12 UNL     1      -2.497  49.190 -26.339  1.00  0.00     0.014 A 
HETATM   14  C13 UNL     1      -2.257  49.977 -25.196  1.00  0.00     0.001 A 
HETATM   15  H9  UNL     1      -3.231  51.006 -22.311  1.00  0.00     0.166 HD
ENDROOT
BRANCH   1  16
HETATM   16  N1  UNL     1      -0.618  51.776 -21.394  1.00  0.00    -0.347 N 
HETATM   17  C1  UNL     1      -0.089  52.531 -20.370  1.00  0.00     0.252 C 
HETATM   18  O1  UNL     1       0.181  53.721 -20.480  1.00  0.00    -0.268 OA
HETATM   19  H1  UNL     1      -0.797  50.791 -21.264  1.00  0.00     0.163 HD
BRANCH  17  20
HETATM   20  C14 UNL     1       0.118  51.832 -19.069  1.00  0.00     0.034 A 
HETATM   21  C15 UNL     1       0.836  52.504 -18.075  1.00  0.00     0.018 A 
HETATM   22  C16 UNL     1       1.066  51.910 -16.827  1.00  0.00     0.015 A 
HETATM   23  C17 UNL     1       0.574  50.614 -16.582  1.00  0.00    -0.008 A 
HETATM   24  C18 UNL     1       0.624  49.735 -15.465  1.00  0.00     0.030 A 
HETATM   25  C20 UNL     1      -0.123  49.953 -17.594  1.00  0.00     0.043 A 
HETATM   26  C19 UNL     1      -0.027  48.575 -15.814  1.00  0.00     0.089 A 
HETATM   27  N3  UNL     1      -0.471  48.714 -17.103  1.00  0.00    -0.365 N 
HETATM   28  H17 UNL     1      -0.980  48.012 -17.621  1.00  0.00     0.165 HD
HETATM   29  C21 UNL     1      -0.365  50.531 -18.849  1.00  0.00     0.047 A 
ENDBRANCH  17  20
ENDBRANCH   1  16
TORSDOF 2
ENDMDL
MODEL 3
REMARK minimizedAffinity -9.12613773
REMARK  2 active torsions:
REMARK  status: ('A' for Active; 'I' for Inactive)
REMARK       I    between atoms: C1_2  and  N1_3 
REMARK    1  A    between atoms: C1_2  and  C14_18 
REMARK    2  A    between atoms: N1_3  and  C2_4 
ROOT
HETATM    1  C2  UNL     1      -1.169  53.319 -25.448  1.00  0.00     0.135 C 
HETATM    2  C3  UNL     1       0.085  53.309 -26.355  1.00  0.00     0.032 C 
HETATM    3  C4  UNL     1      -0.207  52.758 -27.763  1.00  0.00     0.007 C 
HETATM    4  C5  UNL     1      -0.721  51.306 -27.717  1.00  0.00     0.042 C 
HETATM    5  C6  UNL     1      -1.784  51.155 -26.682  1.00  0.00    -0.021 A 
HETATM    6  C7  UNL     1      -1.957  52.070 -25.664  1.00  0.00     0.040 A 
HETATM    7  N2  UNL     1      -3.033  51.680 -24.916  1.00  0.00    -0.355 N 
HETATM    8  C8  UNL     1      -3.530  50.488 -25.397  1.00  0.00     0.065 A 
HETATM    9  C9  UNL     1      -4.594  49.697 -24.946  1.00  0.00     0.061 A 
HETATM   10 CL1  UNL     1      -5.519  50.151 -23.570  1.00  0.00    -0.082 Cl
HETATM   11  C10 UNL     1      -4.890  48.524 -25.642  1.00  0.00     0.026 A 
HETATM   12  C11 UNL     1      -4.143  48.153 -26.759  1.00  0.00     0.003 A 
HETATM   13  C12 UNL     1      -3.081  48.949 -27.204  1.00  0.00     0.014 A 
HETATM   14  C13 UNL     1      -2.764  50.136 -26.513  1.00  0.00     0.001 A 
HETATM   15  H9  UNL     1      -3.411  52.183 -24.122  1.00  0.00     0.166 HD
ENDROOT
BRANCH   1  16
HETATM   16  N1  UNL     1      -0.794  53.369 -24.054  1.00  0.00    -0.347 N 
HETATM   17  C1  UNL     1       0.195  52.554 -23.549  1.00  0.00     0.252 C 
HETATM   18  O1  UNL     1       0.906  51.844 -24.251  1.00  0.00    -0.268 OA
HETATM   19  H1  UNL     1      -1.374  53.914 -23.433  1.00  0.00     0.163 HD
BRANCH  17  20
HETATM   20  C14 UNL     1       0.398  52.592 -22.073  1.00  0.00     0.034 A 
HETATM   21  C15 UNL     1       1.147  53.650 -21.545  1.00  0.00     0.018 A 
HETATM   22  C16 UNL     1       1.374  53.752 -20.167  1.00  0.00     0.015 A 
HETATM   23  C17 UNL     1       0.849  52.768 -19.308  1.00  0.00    -0.008 A 
HETATM   24  C18 UNL     1       0.888  52.564 -17.901  1.00  0.00     0.030 A 
HETATM   25  C20 UNL     1       0.121  51.711 -19.857  1.00  0.00     0.043 A 
HETATM   26  C19 UNL     1       0.199  51.405 -17.626  1.00  0.00     0.089 A 
HETATM   27  N3  UNL     1      -0.255  50.895 -18.813  1.00  0.00    -0.365 N 
HETATM   28  H17 UNL     1      -0.791  50.044 -18.912  1.00  0.00     0.165 HD
HETATM   29  C21 UNL     1      -0.119  51.591 -21.234  1.00  0.00     0.047 A 
ENDBRANCH  17  20
ENDBRANCH   1  16
TORSDOF 2
ENDMDL
MODEL 4
REMARK minimizedAffinity -9.10003471
REMARK  2 active torsions:
REMARK  status: ('A' for Active; 'I' for Inactive)
REMARK       I    between atoms: C1_2  and  N1_3 
REMARK    1  A    between atoms: C1_2  and  C14_18 
REMARK    2  A    between atoms: N1_3  and  C2_4 
ROOT
HETATM    1  C2  UNL     1      -0.678  50.750 -26.388  1.00  0.00     0.135 C 
HETATM    2  C3  UNL     1      -0.863  51.584 -27.679  1.00  0.00     0.032 C 
HETATM    3  C4  UNL     1       0.261  52.616 -27.884  1.00  0.00     0.007 C 
HETATM    4  C5  UNL     1       0.333  53.625 -26.722  1.00  0.00     0.042 C 
HETATM    5  C6  UNL     1       0.271  52.923 -25.407  1.00  0.00    -0.021 A 
HETATM    6  C7  UNL     1      -0.200  51.631 -25.284  1.00  0.00     0.040 A 
HETATM    7  N2  UNL     1      -0.085  51.257 -23.973  1.00  0.00    -0.355 N 
HETATM    8  C8  UNL     1       0.399  52.310 -23.227  1.00  0.00     0.065 A 
HETATM    9  C9  UNL     1       0.655  52.410 -21.854  1.00  0.00     0.061 A 
HETATM   10 CL1  UNL     1       0.353  51.092 -20.794  1.00  0.00    -0.082 Cl
HETATM   11  C10 UNL     1       1.164  53.613 -21.361  1.00  0.00     0.026 A 
HETATM   12  C11 UNL     1       1.412  54.685 -22.217  1.00  0.00     0.003 A 
HETATM   13  C12 UNL     1       1.153  54.576 -23.589  1.00  0.00     0.014 A 
HETATM   14  C13 UNL     1       0.637  53.371 -24.107  1.00  0.00     0.001 A 
HETATM   15  H9  UNL     1      -0.325  50.348 -23.598  1.00  0.00     0.166 HD
ENDROOT
BRANCH   1  16
HETATM   16  N1  UNL     1      -1.931  50.162 -25.974  1.00  0.00    -0.347 N 
HETATM   17  C1  UNL     1      -2.969  50.941 -25.510  1.00  0.00     0.252 C 
HETATM   18  O1  UNL     1      -2.958  52.166 -25.543  1.00  0.00    -0.268 OA
HETATM   19  H1  UNL     1      -1.973  49.156 -25.899  1.00  0.00     0.163 HD
BRANCH  17  20
HETATM   20  C14 UNL     1      -4.157  50.214 -24.979  1.00  0.00     0.034 A 
HETATM   21  C15 UNL     1      -4.408  48.929 -25.470  1.00  0.00     0.018 A 
HETATM   22  C16 UNL     1      -5.505  48.186 -25.013  1.00  0.00     0.015 A 
HETATM   23  C17 UNL     1      -6.368  48.753 -24.057  1.00  0.00    -0.008 A 
HETATM   24  C18 UNL     1      -7.542  48.297 -23.395  1.00  0.00     0.030 A 
HETATM   25  C20 UNL     1      -6.111  50.043 -23.594  1.00  0.00     0.043 A 
HETATM   26  C19 UNL     1      -7.971  49.304 -22.562  1.00  0.00     0.089 A 
HETATM   27  N3  UNL     1      -7.104  50.356 -22.693  1.00  0.00    -0.365 N 
HETATM   28  H17 UNL     1      -7.179  51.235 -22.200  1.00  0.00     0.165 HD
HETATM   29  C21 UNL     1      -5.018  50.803 -24.038  1.00  0.00     0.047 A 
ENDBRANCH  17  20
ENDBRANCH   1  16
TORSDOF 2
ENDMDL
MODEL 5
REMARK minimizedAffinity -9.09566689
REMARK  2 active torsions:
REMARK  status: ('A' for Active; 'I' for Inactive)
REMARK       I    between atoms: C1_2  and  N1_3 
REMARK    1  A    between atoms: C1_2  and  C14_18 
REMARK    2  A    between atoms: N1_3  and  C2_4 
ROOT
HETATM    1  C2  UNL     1      -2.405  49.671 -21.819  1.00  0.00     0.135 C 
HETATM    2  C3  UNL     1      -2.709  48.155 -21.735  1.00  0.00     0.032 C 
HETATM    3  C4  UNL     1      -3.070  47.701 -20.310  1.00  0.00     0.007 C 
HETATM    4  C5  UNL     1      -1.926  47.970 -19.313  1.00  0.00     0.042 C 
HETATM    5  C6  UNL     1      -1.391  49.353 -19.483  1.00  0.00    -0.021 A 
HETATM    6  C7  UNL     1      -1.612  50.092 -20.628  1.00  0.00     0.040 A 
HETATM    7  N2  UNL     1      -1.041  51.323 -20.458  1.00  0.00    -0.355 N 
HETATM    8  C8  UNL     1      -0.396  51.376 -19.241  1.00  0.00     0.065 A 
HETATM    9  C9  UNL     1       0.344  52.406 -18.648  1.00  0.00     0.061 A 
HETATM   10 CL1  UNL     1       0.588  53.904 -19.453  1.00  0.00    -0.082 Cl
HETATM   11  C10 UNL     1       0.886  52.188 -17.380  1.00  0.00     0.026 A 
HETATM   12  C11 UNL     1       0.690  50.974 -16.723  1.00  0.00     0.003 A 
HETATM   13  C12 UNL     1      -0.053  49.950 -17.323  1.00  0.00     0.014 A 
HETATM   14  C13 UNL     1      -0.605  50.148 -18.604  1.00  0.00     0.001 A 
HETATM   15  H9  UNL     1      -1.075  52.085 -21.125  1.00  0.00     0.166 HD
ENDROOT
BRANCH   1  16
HETATM   16  N1  UNL     1      -1.627  49.974 -22.998  1.00  0.00    -0.347 N 
HETATM   17  C1  UNL     1      -1.779  51.168 -23.667  1.00  0.00     0.252 C 
HETATM   18  O1  UNL     1      -2.463  52.094 -23.247  1.00  0.00    -0.268 OA
HETATM   19  H1  UNL     1      -1.076  49.229 -23.398  1.00  0.00     0.163 HD
BRANCH  17  20
HETATM   20  C14 UNL     1      -1.028  51.311 -24.947  1.00  0.00     0.034 A 
HETATM   21  C15 UNL     1      -1.741  51.160 -26.142  1.00  0.00     0.018 A 
HETATM   22  C16 UNL     1      -1.101  51.285 -27.381  1.00  0.00     0.015 A 
HETATM   23  C17 UNL     1       0.280  51.554 -27.418  1.00  0.00    -0.008 A 
HETATM   24  C18 UNL     1       1.222  51.735 -28.469  1.00  0.00     0.030 A 
HETATM   25  C20 UNL     1       0.976  51.682 -26.216  1.00  0.00     0.043 A 
HETATM   26  C19 UNL     1       2.452  51.961 -27.895  1.00  0.00     0.089 A 
HETATM   27  N3  UNL     1       2.294  51.922 -26.535  1.00  0.00    -0.365 N 
HETATM   28  H17 UNL     1       3.036  52.051 -25.861  1.00  0.00     0.165 HD
HETATM   29  C21 UNL     1       0.354  51.562 -24.964  1.00  0.00     0.047 A 
ENDBRANCH  17  20
ENDBRANCH   1  16
TORSDOF 2
ENDMDL
MODEL 6
REMARK minimizedAffinity -8.92722702
REMARK  2 active torsions:
REMARK  status: ('A' for Active; 'I' for Inactive)
REMARK       I    between atoms: C1_2  and  N1_3 
REMARK    1  A    between atoms: C1_2  and  C14_18 
REMARK    2  A    between atoms: N1_3  and  C2_4 
ROOT
HETATM    1  C2  UNL     1      -1.974  51.396 -24.101  1.00  0.00     0.135 C 
HETATM    2  C3  UNL     1      -0.780  50.918 -24.963  1.00  0.00     0.032 C 
HETATM    3  C4  UNL     1      -1.202  50.522 -26.389  1.00  0.00     0.007 C 
HETATM    4  C5  UNL     1      -2.225  49.369 -26.387  1.00  0.00     0.042 C 
HETATM    5  C6  UNL     1      -3.308  49.626 -25.393  1.00  0.00    -0.021 A 
HETATM    6  C7  UNL     1      -3.163  50.536 -24.365  1.00  0.00     0.040 A 
HETATM    7  N2  UNL     1      -4.336  50.577 -23.663  1.00  0.00    -0.355 N 
HETATM    8  C8  UNL     1      -5.225  49.660 -24.181  1.00  0.00     0.065 A 
HETATM    9  C9  UNL     1      -6.524  49.327 -23.782  1.00  0.00     0.061 A 
HETATM   10 CL1  UNL     1      -7.264  50.090 -22.432  1.00  0.00    -0.082 Cl
HETATM   11  C10 UNL     1      -7.212  48.352 -24.508  1.00  0.00     0.026 A 
HETATM   12  C11 UNL     1      -6.616  47.731 -25.604  1.00  0.00     0.003 A 
HETATM   13  C12 UNL     1      -5.316  48.071 -25.998  1.00  0.00     0.014 A 
HETATM   14  C13 UNL     1      -4.604  49.050 -25.276  1.00  0.00     0.001 A 
HETATM   15  H9  UNL     1      -4.528  51.183 -22.874  1.00  0.00     0.166 HD
ENDROOT
BRANCH   1  16
HETATM   16  N1  UNL     1      -1.661  51.298 -22.693  1.00  0.00    -0.347 N 
HETATM   17  C1  UNL     1      -0.664  52.060 -22.127  1.00  0.00     0.252 C 
HETATM   18  O1  UNL     1      -0.076  52.953 -22.725  1.00  0.00    -0.268 OA
HETATM   19  H1  UNL     1      -2.097  50.553 -22.169  1.00  0.00     0.163 HD
BRANCH  17  20
HETATM   20  C14 UNL     1      -0.337  51.771 -20.701  1.00  0.00     0.034 A 
HETATM   21  C15 UNL     1      -0.764  50.550 -20.169  1.00  0.00     0.018 A 
HETATM   22  C16 UNL     1      -0.489  50.210 -18.838  1.00  0.00     0.015 A 
HETATM   23  C17 UNL     1       0.218  51.119 -18.028  1.00  0.00    -0.008 A 
HETATM   24  C18 UNL     1       0.654  51.101 -16.674  1.00  0.00     0.030 A 
HETATM   25  C20 UNL     1       0.618  52.339 -18.573  1.00  0.00     0.043 A 
HETATM   26  C19 UNL     1       1.295  52.292 -16.425  1.00  0.00     0.089 A 
HETATM   27  N3  UNL     1       1.265  53.035 -17.575  1.00  0.00    -0.365 N 
HETATM   28  H17 UNL     1       1.659  53.960 -17.680  1.00  0.00     0.165 HD
HETATM   29  C21 UNL     1       0.354  52.698 -19.903  1.00  0.00     0.047 A 
ENDBRANCH  17  20
ENDBRANCH   1  16
TORSDOF 2
ENDMDL
MODEL 7
REMARK minimizedAffinity -8.76196861
REMARK  2 active torsions:
REMARK  status: ('A' for Active; 'I' for Inactive)
REMARK       I    between atoms: C1_2  and  N1_3 
REMARK    1  A    between atoms: C1_2  and  C14_18 
REMARK    2  A    between atoms: N1_3  and  C2_4 
ROOT
HETATM    1  C2  UNL     1      -1.163  50.631 -26.135  1.00  0.00     0.135 C 
HETATM    2  C3  UNL     1      -1.387  51.440 -27.436  1.00  0.00     0.032 C 
HETATM    3  C4  UNL     1      -0.226  52.403 -27.742  1.00  0.00     0.007 C 
HETATM    4  C5  UNL     1      -0.025  53.437 -26.617  1.00  0.00     0.042 C 
HETATM    5  C6  UNL     1      -0.040  52.774 -25.281  1.00  0.00    -0.021 A 
HETATM    6  C7  UNL     1      -0.569  51.514 -25.089  1.00  0.00     0.040 A 
HETATM    7  N2  UNL     1      -0.389  51.169 -23.778  1.00  0.00    -0.355 N 
HETATM    8  C8  UNL     1       0.197  52.213 -23.096  1.00  0.00     0.065 A 
HETATM    9  C9  UNL     1       0.547  52.336 -21.746  1.00  0.00     0.061 A 
HETATM   10 CL1  UNL     1       0.244  51.065 -20.629  1.00  0.00    -0.082 Cl
HETATM   11  C10 UNL     1       1.149  53.522 -21.321  1.00  0.00     0.026 A 
HETATM   12  C11 UNL     1       1.396  54.555 -22.223  1.00  0.00     0.003 A 
HETATM   13  C12 UNL     1       1.045  54.424 -23.573  1.00  0.00     0.014 A 
HETATM   14  C13 UNL     1       0.433  53.236 -24.021  1.00  0.00     0.001 A 
HETATM   15  H9  UNL     1      -0.651  50.284 -23.361  1.00  0.00     0.166 HD
ENDROOT
BRANCH   1  16
HETATM   16  N1  UNL     1      -2.416  50.123 -25.625  1.00  0.00    -0.347 N 
HETATM   17  C1  UNL     1      -2.923  48.914 -26.048  1.00  0.00     0.252 C 
HETATM   18  O1  UNL     1      -2.302  48.136 -26.762  1.00  0.00    -0.268 OA
HETATM   19  H1  UNL     1      -2.977  50.745 -25.061  1.00  0.00     0.163 HD
BRANCH  17  20
HETATM   20  C14 UNL     1      -4.287  48.561 -25.561  1.00  0.00     0.034 A 
HETATM   21  C15 UNL     1      -4.528  48.636 -24.185  1.00  0.00     0.018 A 
HETATM   22  C16 UNL     1      -5.788  48.322 -23.659  1.00  0.00     0.015 A 
HETATM   23  C17 UNL     1      -6.816  47.915 -24.530  1.00  0.00    -0.008 A 
HETATM   24  C18 UNL     1      -8.173  47.530 -24.343  1.00  0.00     0.030 A 
HETATM   25  C20 UNL     1      -6.549  47.829 -25.896  1.00  0.00     0.043 A 
HETATM   26  C19 UNL     1      -8.694  47.218 -25.577  1.00  0.00     0.089 A 
HETATM   27  N3  UNL     1      -7.705  47.396 -26.508  1.00  0.00    -0.365 N 
HETATM   28  H17 UNL     1      -7.806  47.235 -27.500  1.00  0.00     0.165 HD
HETATM   29  C21 UNL     1      -5.296  48.140 -26.445  1.00  0.00     0.047 A 
ENDBRANCH  17  20
ENDBRANCH   1  16
TORSDOF 2
ENDMDL
MODEL 8
REMARK minimizedAffinity -8.72907162
REMARK  2 active torsions:
REMARK  status: ('A' for Active; 'I' for Inactive)
REMARK       I    between atoms: C1_2  and  N1_3 
REMARK    1  A    between atoms: C1_2  and  C14_18 
REMARK    2  A    between atoms: N1_3  and  C2_4 
ROOT
HETATM    1  C2  UNL     1      -0.382  52.466 -21.355  1.00  0.00     0.135 C 
HETATM    2  C3  UNL     1       0.792  52.874 -22.277  1.00  0.00     0.032 C 
HETATM    3  C4  UNL     1       0.362  53.042 -23.745  1.00  0.00     0.007 C 
HETATM    4  C5  UNL     1      -0.214  51.738 -24.329  1.00  0.00     0.042 C 
HETATM    5  C6  UNL     1      -1.196  51.126 -23.387  1.00  0.00    -0.021 A 
HETATM    6  C7  UNL     1      -1.243  51.464 -22.049  1.00  0.00     0.040 A 
HETATM    7  N2  UNL     1      -2.272  50.775 -21.470  1.00  0.00    -0.355 N 
HETATM    8  C8  UNL     1      -2.861  49.945 -22.399  1.00  0.00     0.065 A 
HETATM    9  C9  UNL     1      -3.921  49.040 -22.268  1.00  0.00     0.061 A 
HETATM   10 CL1  UNL     1      -4.709  48.805 -20.759  1.00  0.00    -0.082 Cl
HETATM   11  C10 UNL     1      -4.327  48.326 -23.397  1.00  0.00     0.026 A 
HETATM   12  C11 UNL     1      -3.692  48.514 -24.623  1.00  0.00     0.003 A 
HETATM   13  C12 UNL     1      -2.632  49.422 -24.746  1.00  0.00     0.014 A 
HETATM   14  C13 UNL     1      -2.205  50.150 -23.617  1.00  0.00     0.001 A 
HETATM   15  H9  UNL     1      -2.561  50.852 -20.502  1.00  0.00     0.166 HD
ENDROOT
BRANCH   1  16
HETATM   16  N1  UNL     1       0.107  51.860 -20.138  1.00  0.00    -0.347 N 
HETATM   17  C1  UNL     1      -0.587  51.974 -18.953  1.00  0.00     0.252 C 
HETATM   18  O1  UNL     1      -1.707  52.463 -18.873  1.00  0.00    -0.268 OA
HETATM   19  H1  UNL     1       1.040  51.476 -20.150  1.00  0.00     0.163 HD
BRANCH  17  20
HETATM   20  C14 UNL     1       0.084  51.431 -17.737  1.00  0.00     0.034 A 
HETATM   21  C15 UNL     1      -0.251  50.135 -17.332  1.00  0.00     0.018 A 
HETATM   22  C16 UNL     1       0.343  49.560 -16.201  1.00  0.00     0.015 A 
HETATM   23  C17 UNL     1       1.279  50.306 -15.461  1.00  0.00    -0.008 A 
HETATM   24  C18 UNL     1       2.050  50.043 -14.294  1.00  0.00     0.030 A 
HETATM   25  C20 UNL     1       1.585  51.604 -15.872  1.00  0.00     0.043 A 
HETATM   26  C19 UNL     1       2.792  51.168 -14.020  1.00  0.00     0.089 A 
HETATM   27  N3  UNL     1       2.501  52.106 -14.974  1.00  0.00    -0.365 N 
HETATM   28  H17 UNL     1       2.900  53.034 -15.017  1.00  0.00     0.165 HD
HETATM   29  C21 UNL     1       1.003  52.198 -17.001  1.00  0.00     0.047 A 
ENDBRANCH  17  20
ENDBRANCH   1  16
TORSDOF 2
ENDMDL
MODEL 9
REMARK minimizedAffinity -8.67941475
REMARK  2 active torsions:
REMARK  status: ('A' for Active; 'I' for Inactive)
REMARK       I    between atoms: C1_2  and  N1_3 
REMARK    1  A    between atoms: C1_2  and  C14_18 
REMARK    2  A    between atoms: N1_3  and  C2_4 
ROOT
HETATM    1  C2  UNL     1      -5.427  47.827 -27.939  1.00  0.00     0.135 C 
HETATM    2  C3  UNL     1      -6.533  48.204 -26.924  1.00  0.00     0.032 C 
HETATM    3  C4  UNL     1      -7.884  47.542 -27.249  1.00  0.00     0.007 C 
HETATM    4  C5  UNL     1      -8.409  47.958 -28.637  1.00  0.00     0.042 C 
HETATM    5  C6  UNL     1      -7.329  47.861 -29.661  1.00  0.00    -0.021 A 
HETATM    6  C7  UNL     1      -5.992  47.815 -29.320  1.00  0.00     0.040 A 
HETATM    7  N2  UNL     1      -5.262  47.679 -30.468  1.00  0.00    -0.355 N 
HETATM    8  C8  UNL     1      -6.101  47.696 -31.561  1.00  0.00     0.065 A 
HETATM    9  C9  UNL     1      -5.815  47.615 -32.929  1.00  0.00     0.061 A 
HETATM   10 CL1  UNL     1      -4.197  47.483 -33.494  1.00  0.00    -0.082 Cl
HETATM   11  C10 UNL     1      -6.879  47.645 -33.832  1.00  0.00     0.026 A 
HETATM   12  C11 UNL     1      -8.193  47.750 -33.379  1.00  0.00     0.003 A 
HETATM   13  C12 UNL     1      -8.471  47.830 -32.009  1.00  0.00     0.014 A 
HETATM   14  C13 UNL     1      -7.410  47.805 -31.081  1.00  0.00     0.001 A 
HETATM   15  H9  UNL     1      -4.254  47.586 -30.517  1.00  0.00     0.166 HD
ENDROOT
BRANCH   1  16
HETATM   16  N1  UNL     1      -4.353  48.793 -27.910  1.00  0.00    -0.347 N 
HETATM   17  C1  UNL     1      -3.526  48.910 -26.815  1.00  0.00     0.252 C 
HETATM   18  O1  UNL     1      -3.549  48.134 -25.867  1.00  0.00    -0.268 OA
HETATM   19  H1  UNL     1      -4.318  49.475 -28.653  1.00  0.00     0.163 HD
BRANCH  17  20
HETATM   20  C14 UNL     1      -2.547  50.034 -26.840  1.00  0.00     0.034 A 
HETATM   21  C15 UNL     1      -1.373  49.894 -26.091  1.00  0.00     0.018 A 
HETATM   22  C16 UNL     1      -0.407  50.908 -26.072  1.00  0.00     0.015 A 
HETATM   23  C17 UNL     1      -0.632  52.086 -26.809  1.00  0.00    -0.008 A 
HETATM   24  C18 UNL     1       0.112  53.283 -27.007  1.00  0.00     0.030 A 
HETATM   25  C20 UNL     1      -1.817  52.214 -27.534  1.00  0.00     0.043 A 
HETATM   26  C19 UNL     1      -0.625  54.102 -27.830  1.00  0.00     0.089 A 
HETATM   27  N3  UNL     1      -1.789  53.451 -28.139  1.00  0.00    -0.365 N 
HETATM   28  H17 UNL     1      -2.524  53.821 -28.726  1.00  0.00     0.165 HD
HETATM   29  C21 UNL     1      -2.796  51.210 -27.568  1.00  0.00     0.047 A 
ENDBRANCH  17  20
ENDBRANCH   1  16
TORSDOF 2
ENDMDL
