MODEL 1
REMARK minimizedAffinity -7.94883919
REMARK CNNscore 0.80731672
REMARK CNNaffinity 6.71567488
REMARK  9 active torsions:
REMARK  status: ('A' for Active; 'I' for Inactive)
REMARK    1  A    between atoms: C2_2  and  C30_35 
REMARK    2  A    between atoms: C3_3  and  C4_4 
REMARK    3  A    between atoms: C4_4  and  O1_5 
REMARK    4  A    between atoms: C4_4  and  C5_6 
REMARK    5  A    between atoms: C5_6  and  C6_7 
REMARK    6  A    between atoms: C6_7  and  C8_9 
REMARK    7  A    between atoms: C10_11  and  O2_12 
REMARK    8  A    between atoms: C29_33  and  O5_34 
REMARK    9  A    between atoms: C30_35  and  O7_37 
ROOT
HETATM    1  C8  UNL     1       0.641  12.938  19.536  1.00  0.00     0.001 C 
HETATM    2  C9  UNL     1      -0.703  13.682  19.293  1.00  0.00     0.038 C 
HETATM    3  C10 UNL     1      -1.363  13.017  18.068  1.00  0.00     0.132 C 
HETATM    4  C11 UNL     1      -0.638  11.651  17.930  1.00  0.00     0.017 C 
HETATM    5  C12 UNL     1      -1.263  10.653  18.962  1.00  0.00     0.023 C 
HETATM    6  C13 UNL     1      -0.655  10.911  16.588  1.00  0.00    -0.029 C 
HETATM    7  C14 UNL     1       0.289   9.974  16.299  1.00  0.00     0.002 C 
HETATM    8  C15 UNL     1       1.460   9.818  17.265  1.00  0.00     0.157 C 
HETATM    9  O3  UNL     1       2.265   8.897  17.142  1.00  0.00    -0.293 OA
HETATM   10  C16 UNL     1       1.671  10.814  18.404  1.00  0.00     0.094 C 
HETATM   11  C17 UNL     1       0.839  12.085  18.243  1.00  0.00    -0.019 C 
HETATM   12  C18 UNL     1       1.480  12.941  17.113  1.00  0.00     0.017 C 
HETATM   13  C19 UNL     1       0.261   9.116  15.000  1.00  0.00    -0.008 C 
HETATM   14  C20 UNL     1       1.318   9.754  14.070  1.00  0.00     0.021 C 
HETATM   15  C21 UNL     1       0.608   7.619  15.240  1.00  0.00     0.022 C 
HETATM   16  C22 UNL     1       0.451   6.737  14.010  1.00  0.00     0.080 C 
HETATM   17  C23 UNL     1      -0.940   6.819  13.441  1.00  0.00     0.135 C 
HETATM   18  O4  UNL     1      -1.537   5.788  13.123  1.00  0.00    -0.297 OA
HETATM   19  C24 UNL     1      -1.519   8.217  13.183  1.00  0.00     0.018 C 
HETATM   20  C25 UNL     1      -0.978   8.728  11.840  1.00  0.00     0.023 C 
HETATM   21  C26 UNL     1      -3.054   8.061  13.024  1.00  0.00     0.023 C 
HETATM   22  C27 UNL     1      -1.214   9.127  14.424  1.00  0.00     0.016 C 
HETATM   23  C28 UNL     1      -1.714  10.574  14.269  1.00  0.00     0.043 C 
HETATM   24  C29 UNL     1      -1.748  11.289  15.620  1.00  0.00     0.149 C 
ENDROOT
BRANCH   1  25
HETATM   25  C6  UNL     1       1.763  13.838  20.138  1.00  0.00    -0.011 C 
HETATM   26  C7  UNL     1       3.011  14.044  19.271  1.00  0.00     0.010 C 
BRANCH  25  27
HETATM   27  C5  UNL     1       2.131  13.384  21.574  1.00  0.00     0.040 C 
BRANCH  27  28
HETATM   28  C4  UNL     1       3.201  12.283  21.639  1.00  0.00     0.142 C 
BRANCH  28  29
HETATM   29  C3  UNL     1       2.593  10.953  22.003  1.00  0.00     0.018 C 
HETATM   30  C2  UNL     1       3.139   9.921  22.683  1.00  0.00     0.010 C 
HETATM   31  C1  UNL     1       4.555   9.855  23.178  1.00  0.00     0.055 C 
BRANCH  30  32
HETATM   32  C30 UNL     1       2.337   8.703  22.976  1.00  0.00     0.171 C 
HETATM   33  O6  UNL     1       1.947   7.899  22.146  1.00  0.00    -0.646 OA
BRANCH  32  34
HETATM   34  O7  UNL     1       2.051   8.536  24.278  1.00  0.00    -0.773 OA
HETATM   35  H44 UNL     1       1.522   7.713  24.289  1.00  0.00     0.167 HD
ENDBRANCH  32  34
ENDBRANCH  30  32
ENDBRANCH  28  29
BRANCH  28  36
HETATM   36  O1  UNL     1       3.897  12.183  20.407  1.00  0.00    -0.392 OA
HETATM   37  H6  UNL     1       4.543  11.462  20.505  1.00  0.00     0.210 HD
ENDBRANCH  28  36
ENDBRANCH  27  28
ENDBRANCH  25  27
ENDBRANCH   1  25
BRANCH   3  38
HETATM   38  O2  UNL     1      -2.763  12.913  18.274  1.00  0.00    -0.394 OA
HETATM   39  H17 UNL     1      -3.118  12.345  17.556  1.00  0.00     0.210 HD
ENDBRANCH   3  38
BRANCH  24  40
HETATM   40  O5  UNL     1      -3.002  11.056  16.255  1.00  0.00    -0.391 OA
HETATM   41  H43 UNL     1      -3.114  10.093  16.348  1.00  0.00     0.210 HD
ENDBRANCH  24  40
TORSDOF 9
ENDMDL
MODEL 2
REMARK minimizedAffinity -8.55381012
REMARK CNNscore 0.670822918
REMARK CNNaffinity 6.39896727
REMARK  9 active torsions:
REMARK  status: ('A' for Active; 'I' for Inactive)
REMARK    1  A    between atoms: C2_2  and  C30_35 
REMARK    2  A    between atoms: C3_3  and  C4_4 
REMARK    3  A    between atoms: C4_4  and  O1_5 
REMARK    4  A    between atoms: C4_4  and  C5_6 
REMARK    5  A    between atoms: C5_6  and  C6_7 
REMARK    6  A    between atoms: C6_7  and  C8_9 
REMARK    7  A    between atoms: C10_11  and  O2_12 
REMARK    8  A    between atoms: C29_33  and  O5_34 
REMARK    9  A    between atoms: C30_35  and  O7_37 
ROOT
HETATM    1  C8  UNL     1     -14.872  -4.943   9.802  1.00  0.00     0.001 C 
HETATM    2  C9  UNL     1     -14.587  -3.476   9.374  1.00  0.00     0.038 C 
HETATM    3  C10 UNL     1     -14.964  -2.583  10.574  1.00  0.00     0.132 C 
HETATM    4  C11 UNL     1     -15.006  -3.555  11.783  1.00  0.00     0.017 C 
HETATM    5  C12 UNL     1     -13.539  -3.801  12.271  1.00  0.00     0.023 C 
HETATM    6  C13 UNL     1     -15.793  -3.172  13.042  1.00  0.00    -0.029 C 
HETATM    7  C14 UNL     1     -16.212  -4.127  13.916  1.00  0.00     0.002 C 
HETATM    8  C15 UNL     1     -16.038  -5.589  13.515  1.00  0.00     0.157 C 
HETATM    9  O3  UNL     1     -16.261  -6.496  14.314  1.00  0.00    -0.293 OA
HETATM   10  C16 UNL     1     -15.598  -5.964  12.101  1.00  0.00     0.094 C 
HETATM   11  C17 UNL     1     -15.699  -4.798  11.119  1.00  0.00    -0.019 C 
HETATM   12  C18 UNL     1     -17.203  -4.564  10.800  1.00  0.00     0.017 C 
HETATM   13  C19 UNL     1     -16.921  -3.791  15.261  1.00  0.00    -0.008 C 
HETATM   14  C20 UNL     1     -18.421  -4.064  15.008  1.00  0.00     0.021 C 
HETATM   15  C21 UNL     1     -16.424  -4.655  16.455  1.00  0.00     0.022 C 
HETATM   16  C22 UNL     1     -17.002  -4.249  17.803  1.00  0.00     0.080 C 
HETATM   17  C23 UNL     1     -16.726  -2.802  18.113  1.00  0.00     0.135 C 
HETATM   18  O4  UNL     1     -16.310  -2.481  19.229  1.00  0.00    -0.297 OA
HETATM   19  C24 UNL     1     -17.079  -1.767  17.037  1.00  0.00     0.018 C 
HETATM   20  C25 UNL     1     -18.581  -1.462  17.130  1.00  0.00     0.023 C 
HETATM   21  C26 UNL     1     -16.328  -0.456  17.391  1.00  0.00     0.023 C 
HETATM   22  C27 UNL     1     -16.582  -2.292  15.646  1.00  0.00     0.016 C 
HETATM   23  C28 UNL     1     -16.914  -1.353  14.473  1.00  0.00     0.043 C 
HETATM   24  C29 UNL     1     -16.084  -1.705  13.239  1.00  0.00     0.149 C 
ENDROOT
BRANCH   1  25
HETATM   25  C6  UNL     1     -15.305  -5.873   8.627  1.00  0.00    -0.011 C 
HETATM   26  C7  UNL     1     -14.858  -7.337   8.715  1.00  0.00     0.010 C 
BRANCH  25  27
HETATM   27  C5  UNL     1     -14.942  -5.244   7.258  1.00  0.00     0.040 C 
BRANCH  27  28
HETATM   28  C4  UNL     1     -13.610  -5.733   6.665  1.00  0.00     0.142 C 
BRANCH  28  29
HETATM   29  C3  UNL     1     -13.262  -4.975   5.410  1.00  0.00     0.018 C 
HETATM   30  C2  UNL     1     -12.567  -5.387   4.328  1.00  0.00     0.010 C 
HETATM   31  C1  UNL     1     -11.907  -6.728   4.174  1.00  0.00     0.055 C 
BRANCH  30  32
HETATM   32  C30 UNL     1     -12.375  -4.480   3.165  1.00  0.00     0.171 C 
HETATM   33  O6  UNL     1     -11.684  -3.475   3.161  1.00  0.00    -0.646 OA
BRANCH  32  34
HETATM   34  O7  UNL     1     -13.047  -4.853   2.063  1.00  0.00    -0.773 OA
HETATM   35  H44 UNL     1     -12.820  -4.156   1.414  1.00  0.00     0.167 HD
ENDBRANCH  32  34
ENDBRANCH  30  32
ENDBRANCH  28  29
BRANCH  28  36
HETATM   36  O1  UNL     1     -12.563  -5.617   7.615  1.00  0.00    -0.392 OA
HETATM   37  H6  UNL     1     -11.750  -5.922   7.177  1.00  0.00     0.210 HD
ENDBRANCH  28  36
ENDBRANCH  27  28
ENDBRANCH  25  27
ENDBRANCH   1  25
BRANCH   3  38
HETATM   38  O2  UNL     1     -14.018  -1.532  10.705  1.00  0.00    -0.394 OA
HETATM   39  H17 UNL     1     -14.197  -1.091  11.564  1.00  0.00     0.210 HD
ENDBRANCH   3  38
BRANCH  24  40
HETATM   40  O5  UNL     1     -14.842  -1.009  13.280  1.00  0.00    -0.391 OA
HETATM   41  H43 UNL     1     -14.390  -1.256  14.108  1.00  0.00     0.210 HD
ENDBRANCH  24  40
TORSDOF 9
ENDMDL
MODEL 3
REMARK minimizedAffinity -8.22628021
REMARK CNNscore 0.66936177
REMARK CNNaffinity 6.90275764
REMARK  9 active torsions:
REMARK  status: ('A' for Active; 'I' for Inactive)
REMARK    1  A    between atoms: C2_2  and  C30_35 
REMARK    2  A    between atoms: C3_3  and  C4_4 
REMARK    3  A    between atoms: C4_4  and  O1_5 
REMARK    4  A    between atoms: C4_4  and  C5_6 
REMARK    5  A    between atoms: C5_6  and  C6_7 
REMARK    6  A    between atoms: C6_7  and  C8_9 
REMARK    7  A    between atoms: C10_11  and  O2_12 
REMARK    8  A    between atoms: C29_33  and  O5_34 
REMARK    9  A    between atoms: C30_35  and  O7_37 
ROOT
HETATM    1  C8  UNL     1       0.649   6.675  13.110  1.00  0.00     0.001 C 
HETATM    2  C9  UNL     1       0.046   7.796  14.004  1.00  0.00     0.038 C 
HETATM    3  C10 UNL     1      -1.474   7.542  14.067  1.00  0.00     0.132 C 
HETATM    4  C11 UNL     1      -1.640   6.066  13.617  1.00  0.00     0.017 C 
HETATM    5  C12 UNL     1      -1.311   5.137  14.834  1.00  0.00     0.023 C 
HETATM    6  C13 UNL     1      -2.994   5.578  13.089  1.00  0.00    -0.029 C 
HETATM    7  C14 UNL     1      -3.075   4.470  12.304  1.00  0.00     0.002 C 
HETATM    8  C15 UNL     1      -1.772   3.842  11.817  1.00  0.00     0.157 C 
HETATM    9  O3  UNL     1      -1.769   2.763  11.229  1.00  0.00    -0.293 OA
HETATM   10  C16 UNL     1      -0.435   4.549  12.035  1.00  0.00     0.094 C 
HETATM   11  C17 UNL     1      -0.597   6.012  12.444  1.00  0.00    -0.019 C 
HETATM   12  C18 UNL     1      -1.043   6.817  11.189  1.00  0.00     0.017 C 
HETATM   13  C19 UNL     1      -4.429   3.867  11.827  1.00  0.00    -0.008 C 
HETATM   14  C20 UNL     1      -4.578   4.317  10.356  1.00  0.00     0.021 C 
HETATM   15  C21 UNL     1      -4.478   2.314  11.908  1.00  0.00     0.022 C 
HETATM   16  C22 UNL     1      -5.837   1.714  11.580  1.00  0.00     0.080 C 
HETATM   17  C23 UNL     1      -6.920   2.273  12.464  1.00  0.00     0.135 C 
HETATM   18  O4  UNL     1      -7.738   1.514  12.990  1.00  0.00    -0.297 OA
HETATM   19  C24 UNL     1      -7.016   3.800  12.587  1.00  0.00     0.018 C 
HETATM   20  C25 UNL     1      -7.782   4.339  11.371  1.00  0.00     0.023 C 
HETATM   21  C26 UNL     1      -7.878   4.109  13.839  1.00  0.00     0.023 C 
HETATM   22  C27 UNL     1      -5.575   4.383  12.791  1.00  0.00     0.016 C 
HETATM   23  C28 UNL     1      -5.536   5.918  12.890  1.00  0.00     0.043 C 
HETATM   24  C29 UNL     1      -4.204   6.395  13.470  1.00  0.00     0.149 C 
ENDROOT
BRANCH   1  25
HETATM   25  C6  UNL     1       1.908   7.118  12.303  1.00  0.00    -0.011 C 
HETATM   26  C7  UNL     1       2.017   8.611  11.975  1.00  0.00     0.010 C 
BRANCH  25  27
HETATM   27  C5  UNL     1       2.097   6.238  11.040  1.00  0.00     0.040 C 
BRANCH  27  28
HETATM   28  C4  UNL     1       3.317   6.609  10.182  1.00  0.00     0.142 C 
BRANCH  28  29
HETATM   29  C3  UNL     1       4.588   6.552  10.989  1.00  0.00     0.018 C 
HETATM   30  C2  UNL     1       5.414   7.557  11.356  1.00  0.00     0.010 C 
HETATM   31  C1  UNL     1       5.265   8.997  10.956  1.00  0.00     0.055 C 
BRANCH  30  32
HETATM   32  C30 UNL     1       6.605   7.282  12.202  1.00  0.00     0.171 C 
HETATM   33  O6  UNL     1       7.755   7.218  11.802  1.00  0.00    -0.646 OA
BRANCH  32  34
HETATM   34  O7  UNL     1       6.322   7.096  13.503  1.00  0.00    -0.773 OA
HETATM   35  H44 UNL     1       7.198   6.921  13.902  1.00  0.00     0.167 HD
ENDBRANCH  32  34
ENDBRANCH  30  32
ENDBRANCH  28  29
BRANCH  28  36
HETATM   36  O1  UNL     1       3.415   5.758   9.052  1.00  0.00    -0.392 OA
HETATM   37  H6  UNL     1       4.211   6.029   8.563  1.00  0.00     0.210 HD
ENDBRANCH  28  36
ENDBRANCH  27  28
ENDBRANCH  25  27
ENDBRANCH   1  25
BRANCH   3  38
HETATM   38  O2  UNL     1      -1.950   7.807  15.378  1.00  0.00    -0.394 OA
HETATM   39  H17 UNL     1      -2.875   7.480  15.419  1.00  0.00     0.210 HD
ENDBRANCH   3  38
BRANCH  24  40
HETATM   40  O5  UNL     1      -4.284   6.430  14.892  1.00  0.00    -0.391 OA
HETATM   41  H43 UNL     1      -4.518   5.535  15.199  1.00  0.00     0.210 HD
ENDBRANCH  24  40
TORSDOF 9
ENDMDL
MODEL 4
REMARK minimizedAffinity -6.9889555
REMARK CNNscore 0.600647807
REMARK CNNaffinity 6.50353622
REMARK  9 active torsions:
REMARK  status: ('A' for Active; 'I' for Inactive)
REMARK    1  A    between atoms: C2_2  and  C30_35 
REMARK    2  A    between atoms: C3_3  and  C4_4 
REMARK    3  A    between atoms: C4_4  and  O1_5 
REMARK    4  A    between atoms: C4_4  and  C5_6 
REMARK    5  A    between atoms: C5_6  and  C6_7 
REMARK    6  A    between atoms: C6_7  and  C8_9 
REMARK    7  A    between atoms: C10_11  and  O2_12 
REMARK    8  A    between atoms: C29_33  and  O5_34 
REMARK    9  A    between atoms: C30_35  and  O7_37 
ROOT
HETATM    1  C8  UNL     1     -15.158  -4.475  12.586  1.00  0.00     0.001 C 
HETATM    2  C9  UNL     1     -14.175  -4.447  13.791  1.00  0.00     0.038 C 
HETATM    3  C10 UNL     1     -14.384  -3.095  14.502  1.00  0.00     0.132 C 
HETATM    4  C11 UNL     1     -15.763  -2.597  13.991  1.00  0.00     0.017 C 
HETATM    5  C12 UNL     1     -16.885  -3.333  14.797  1.00  0.00     0.023 C 
HETATM    6  C13 UNL     1     -16.113  -1.107  14.076  1.00  0.00    -0.029 C 
HETATM    7  C14 UNL     1     -17.078  -0.574  13.278  1.00  0.00     0.002 C 
HETATM    8  C15 UNL     1     -17.663  -1.456  12.178  1.00  0.00     0.157 C 
HETATM    9  O3  UNL     1     -18.634  -1.088  11.519  1.00  0.00    -0.293 OA
HETATM   10  C16 UNL     1     -17.046  -2.815  11.855  1.00  0.00     0.094 C 
HETATM   11  C17 UNL     1     -15.662  -3.002  12.477  1.00  0.00    -0.019 C 
HETATM   12  C18 UNL     1     -14.652  -2.132  11.675  1.00  0.00     0.017 C 
HETATM   13  C19 UNL     1     -17.551   0.905  13.393  1.00  0.00    -0.008 C 
HETATM   14  C20 UNL     1     -16.866   1.642  12.219  1.00  0.00     0.021 C 
HETATM   15  C21 UNL     1     -19.094   1.071  13.287  1.00  0.00     0.022 C 
HETATM   16  C22 UNL     1     -19.587   2.489  13.536  1.00  0.00     0.080 C 
HETATM   17  C23 UNL     1     -19.141   3.006  14.878  1.00  0.00     0.135 C 
HETATM   18  O4  UNL     1     -19.947   3.580  15.615  1.00  0.00    -0.297 OA
HETATM   19  C24 UNL     1     -17.652   2.881  15.226  1.00  0.00     0.018 C 
HETATM   20  C25 UNL     1     -16.899   4.046  14.568  1.00  0.00     0.023 C 
HETATM   21  C26 UNL     1     -17.518   3.064  16.761  1.00  0.00     0.023 C 
HETATM   22  C27 UNL     1     -17.158   1.447  14.828  1.00  0.00     0.016 C 
HETATM   23  C28 UNL     1     -15.661   1.211  15.094  1.00  0.00     0.043 C 
HETATM   24  C29 UNL     1     -15.328  -0.281  15.064  1.00  0.00     0.149 C 
ENDROOT
BRANCH   1  25
HETATM   25  C6  UNL     1     -14.634  -5.285  11.360  1.00  0.00    -0.011 C 
HETATM   26  C7  UNL     1     -13.420  -6.189  11.608  1.00  0.00     0.010 C 
BRANCH  25  27
HETATM   27  C5  UNL     1     -14.420  -4.361  10.133  1.00  0.00     0.040 C 
BRANCH  27  28
HETATM   28  C4  UNL     1     -15.444  -4.556   9.003  1.00  0.00     0.142 C 
BRANCH  28  29
HETATM   29  C3  UNL     1     -14.802  -4.378   7.651  1.00  0.00     0.018 C 
HETATM   30  C2  UNL     1     -13.932  -5.184   7.005  1.00  0.00     0.010 C 
HETATM   31  C1  UNL     1     -13.341  -6.450   7.557  1.00  0.00     0.055 C 
BRANCH  30  32
HETATM   32  C30 UNL     1     -13.453  -4.836   5.641  1.00  0.00     0.171 C 
HETATM   33  O6  UNL     1     -12.394  -5.192   5.153  1.00  0.00    -0.646 OA
BRANCH  32  34
HETATM   34  O7  UNL     1     -14.302  -4.062   4.943  1.00  0.00    -0.773 OA
HETATM   35  H44 UNL     1     -13.835  -3.924   4.094  1.00  0.00     0.167 HD
ENDBRANCH  32  34
ENDBRANCH  30  32
ENDBRANCH  28  29
BRANCH  28  36
HETATM   36  O1  UNL     1     -16.055  -5.833   9.092  1.00  0.00    -0.392 OA
HETATM   37  H6  UNL     1     -16.673  -5.903   8.344  1.00  0.00     0.210 HD
ENDBRANCH  28  36
ENDBRANCH  27  28
ENDBRANCH  25  27
ENDBRANCH   1  25
BRANCH   3  38
HETATM   38  O2  UNL     1     -14.317  -3.278  15.908  1.00  0.00    -0.394 OA
HETATM   39  H17 UNL     1     -14.615  -2.438  16.321  1.00  0.00     0.210 HD
ENDBRANCH   3  38
BRANCH  24  40
HETATM   40  O5  UNL     1     -15.519  -0.842  16.360  1.00  0.00    -0.391 OA
HETATM   41  H43 UNL     1     -16.443  -0.678  16.622  1.00  0.00     0.210 HD
ENDBRANCH  24  40
TORSDOF 9
ENDMDL
MODEL 5
REMARK minimizedAffinity -9.08488655
REMARK CNNscore 0.557901144
REMARK CNNaffinity 6.89094734
REMARK  9 active torsions:
REMARK  status: ('A' for Active; 'I' for Inactive)
REMARK    1  A    between atoms: C2_2  and  C30_35 
REMARK    2  A    between atoms: C3_3  and  C4_4 
REMARK    3  A    between atoms: C4_4  and  O1_5 
REMARK    4  A    between atoms: C4_4  and  C5_6 
REMARK    5  A    between atoms: C5_6  and  C6_7 
REMARK    6  A    between atoms: C6_7  and  C8_9 
REMARK    7  A    between atoms: C10_11  and  O2_12 
REMARK    8  A    between atoms: C29_33  and  O5_34 
REMARK    9  A    between atoms: C30_35  and  O7_37 
ROOT
HETATM    1  C8  UNL     1       0.961   6.880  12.839  1.00  0.00     0.001 C 
HETATM    2  C9  UNL     1       1.280   7.737  14.097  1.00  0.00     0.038 C 
HETATM    3  C10 UNL     1      -0.056   7.953  14.836  1.00  0.00     0.132 C 
HETATM    4  C11 UNL     1      -0.998   6.859  14.265  1.00  0.00     0.017 C 
HETATM    5  C12 UNL     1      -0.679   5.506  14.984  1.00  0.00     0.023 C 
HETATM    6  C13 UNL     1      -2.518   7.029  14.375  1.00  0.00    -0.029 C 
HETATM    7  C14 UNL     1      -3.354   6.353  13.540  1.00  0.00     0.002 C 
HETATM    8  C15 UNL     1      -2.734   5.575  12.384  1.00  0.00     0.157 C 
HETATM    9  O3  UNL     1      -3.416   4.829  11.684  1.00  0.00    -0.293 OA
HETATM   10  C16 UNL     1      -1.249   5.715  12.055  1.00  0.00     0.094 C 
HETATM   11  C17 UNL     1      -0.598   6.911  12.747  1.00  0.00    -0.019 C 
HETATM   12  C18 UNL     1      -1.080   8.204  12.029  1.00  0.00     0.017 C 
HETATM   13  C19 UNL     1      -4.905   6.403  13.674  1.00  0.00    -0.008 C 
HETATM   14  C20 UNL     1      -5.376   7.369  12.563  1.00  0.00     0.021 C 
HETATM   15  C21 UNL     1      -5.586   5.017  13.488  1.00  0.00     0.022 C 
HETATM   16  C22 UNL     1      -7.084   5.018  13.751  1.00  0.00     0.080 C 
HETATM   17  C23 UNL     1      -7.406   5.527  15.131  1.00  0.00     0.135 C 
HETATM   18  O4  UNL     1      -8.212   4.919  15.839  1.00  0.00    -0.297 OA
HETATM   19  C24 UNL     1      -6.779   6.861  15.558  1.00  0.00     0.018 C 
HETATM   20  C25 UNL     1      -7.626   8.004  14.978  1.00  0.00     0.023 C 
HETATM   21  C26 UNL     1      -6.891   6.952  17.102  1.00  0.00     0.023 C 
HETATM   22  C27 UNL     1      -5.267   6.865  15.144  1.00  0.00     0.016 C 
HETATM   23  C28 UNL     1      -4.534   8.174  15.486  1.00  0.00     0.043 C 
HETATM   24  C29 UNL     1      -3.018   7.983  15.430  1.00  0.00     0.149 C 
ENDROOT
BRANCH   1  25
HETATM   25  C6  UNL     1       1.888   7.175  11.620  1.00  0.00    -0.011 C 
HETATM   26  C7  UNL     1       1.278   8.001  10.482  1.00  0.00     0.010 C 
BRANCH  25  27
HETATM   27  C5  UNL     1       2.547   5.874  11.095  1.00  0.00     0.040 C 
BRANCH  27  28
HETATM   28  C4  UNL     1       3.582   6.089   9.978  1.00  0.00     0.142 C 
BRANCH  28  29
HETATM   29  C3  UNL     1       4.382   7.344  10.212  1.00  0.00     0.018 C 
HETATM   30  C2  UNL     1       5.611   7.486  10.754  1.00  0.00     0.010 C 
HETATM   31  C1  UNL     1       6.445   6.376  11.326  1.00  0.00     0.055 C 
BRANCH  30  32
HETATM   32  C30 UNL     1       6.242   8.829  10.851  1.00  0.00     0.171 C 
HETATM   33  O6  UNL     1       7.253   9.090  11.480  1.00  0.00    -0.646 OA
BRANCH  32  34
HETATM   34  O7  UNL     1       5.593   9.789  10.169  1.00  0.00    -0.773 OA
HETATM   35  H44 UNL     1       6.126  10.591  10.346  1.00  0.00     0.167 HD
ENDBRANCH  32  34
ENDBRANCH  30  32
ENDBRANCH  28  29
BRANCH  28  36
HETATM   36  O1  UNL     1       4.446   4.969   9.870  1.00  0.00    -0.392 OA
HETATM   37  H6  UNL     1       5.084   5.173   9.164  1.00  0.00     0.210 HD
ENDBRANCH  28  36
ENDBRANCH  27  28
ENDBRANCH  25  27
ENDBRANCH   1  25
BRANCH   3  38
HETATM   38  O2  UNL     1       0.152   7.866  16.237  1.00  0.00    -0.394 OA
HETATM   39  H17 UNL     1      -0.735   7.845  16.659  1.00  0.00     0.210 HD
ENDBRANCH   3  38
BRANCH  24  40
HETATM   40  O5  UNL     1      -2.543   7.533  16.695  1.00  0.00    -0.391 OA
HETATM   41  H43 UNL     1      -3.008   6.704  16.910  1.00  0.00     0.210 HD
ENDBRANCH  24  40
TORSDOF 9
ENDMDL
MODEL 6
REMARK minimizedAffinity -7.97247553
REMARK CNNscore 0.531438828
REMARK CNNaffinity 6.46108103
REMARK  9 active torsions:
REMARK  status: ('A' for Active; 'I' for Inactive)
REMARK    1  A    between atoms: C2_2  and  C30_35 
REMARK    2  A    between atoms: C3_3  and  C4_4 
REMARK    3  A    between atoms: C4_4  and  O1_5 
REMARK    4  A    between atoms: C4_4  and  C5_6 
REMARK    5  A    between atoms: C5_6  and  C6_7 
REMARK    6  A    between atoms: C6_7  and  C8_9 
REMARK    7  A    between atoms: C10_11  and  O2_12 
REMARK    8  A    between atoms: C29_33  and  O5_34 
REMARK    9  A    between atoms: C30_35  and  O7_37 
ROOT
HETATM    1  C8  UNL     1     -10.160   7.435  14.821  1.00  0.00     0.001 C 
HETATM    2  C9  UNL     1      -9.761   8.924  14.620  1.00  0.00     0.038 C 
HETATM    3  C10 UNL     1     -11.018   9.655  14.106  1.00  0.00     0.132 C 
HETATM    4  C11 UNL     1     -12.192   8.704  14.463  1.00  0.00     0.017 C 
HETATM    5  C12 UNL     1     -12.546   8.902  15.975  1.00  0.00     0.023 C 
HETATM    6  C13 UNL     1     -13.525   8.825  13.715  1.00  0.00    -0.029 C 
HETATM    7  C14 UNL     1     -14.398   7.781  13.678  1.00  0.00     0.002 C 
HETATM    8  C15 UNL     1     -13.933   6.441  14.240  1.00  0.00     0.157 C 
HETATM    9  O3  UNL     1     -14.716   5.502  14.369  1.00  0.00    -0.293 OA
HETATM   10  C16 UNL     1     -12.475   6.225  14.641  1.00  0.00     0.094 C 
HETATM   11  C17 UNL     1     -11.546   7.317  14.112  1.00  0.00    -0.019 C 
HETATM   12  C18 UNL     1     -11.363   7.094  12.583  1.00  0.00     0.017 C 
HETATM   13  C19 UNL     1     -15.809   7.880  13.026  1.00  0.00    -0.008 C 
HETATM   14  C20 UNL     1     -15.673   7.175  11.658  1.00  0.00     0.021 C 
HETATM   15  C21 UNL     1     -16.925   7.193  13.863  1.00  0.00     0.022 C 
HETATM   16  C22 UNL     1     -18.330   7.397  13.315  1.00  0.00     0.080 C 
HETATM   17  C23 UNL     1     -18.666   8.859  13.178  1.00  0.00     0.135 C 
HETATM   18  O4  UNL     1     -19.754   9.280  13.580  1.00  0.00    -0.297 OA
HETATM   19  C24 UNL     1     -17.661   9.751  12.438  1.00  0.00     0.018 C 
HETATM   20  C25 UNL     1     -17.890   9.594  10.928  1.00  0.00     0.023 C 
HETATM   21  C26 UNL     1     -17.996  11.222  12.797  1.00  0.00     0.023 C 
HETATM   22  C27 UNL     1     -16.215   9.408  12.941  1.00  0.00     0.016 C 
HETATM   23  C28 UNL     1     -15.108  10.215  12.241  1.00  0.00     0.043 C 
HETATM   24  C29 UNL     1     -13.796  10.137  13.022  1.00  0.00     0.149 C 
ENDROOT
BRANCH   1  25
HETATM   25  C6  UNL     1      -8.994   6.428  14.578  1.00  0.00    -0.011 C 
HETATM   26  C7  UNL     1      -7.709   6.666  15.381  1.00  0.00     0.010 C 
BRANCH  25  27
HETATM   27  C5  UNL     1      -8.703   6.269  13.064  1.00  0.00     0.040 C 
BRANCH  27  28
HETATM   28  C4  UNL     1      -8.145   4.893  12.664  1.00  0.00     0.142 C 
BRANCH  28  29
HETATM   29  C3  UNL     1      -6.665   4.807  12.930  1.00  0.00     0.018 C 
HETATM   30  C2  UNL     1      -5.777   3.870  12.531  1.00  0.00     0.010 C 
HETATM   31  C1  UNL     1      -6.112   2.625  11.761  1.00  0.00     0.055 C 
BRANCH  30  32
HETATM   32  C30 UNL     1      -4.336   4.004  12.871  1.00  0.00     0.171 C 
HETATM   33  O6  UNL     1      -3.451   3.250  12.504  1.00  0.00    -0.646 OA
BRANCH  32  34
HETATM   34  O7  UNL     1      -4.054   5.061  13.652  1.00  0.00    -0.773 OA
HETATM   35  H44 UNL     1      -3.086   4.992  13.784  1.00  0.00     0.167 HD
ENDBRANCH  32  34
ENDBRANCH  30  32
ENDBRANCH  28  29
BRANCH  28  36
HETATM   36  O1  UNL     1      -8.828   3.855  13.347  1.00  0.00    -0.392 OA
HETATM   37  H6  UNL     1      -8.420   3.017  13.067  1.00  0.00     0.210 HD
ENDBRANCH  28  36
ENDBRANCH  27  28
ENDBRANCH  25  27
ENDBRANCH   1  25
BRANCH   3  38
HETATM   38  O2  UNL     1     -11.106  10.938  14.706  1.00  0.00    -0.394 OA
HETATM   39  H17 UNL     1     -11.992  11.299  14.484  1.00  0.00     0.210 HD
ENDBRANCH   3  38
BRANCH  24  40
HETATM   40  O5  UNL     1     -13.758  11.171  14.001  1.00  0.00    -0.391 OA
HETATM   41  H43 UNL     1     -14.535  11.063  14.579  1.00  0.00     0.210 HD
ENDBRANCH  24  40
TORSDOF 9
ENDMDL
MODEL 7
REMARK minimizedAffinity -9.77583981
REMARK CNNscore 0.517677069
REMARK CNNaffinity 6.83172941
REMARK  9 active torsions:
REMARK  status: ('A' for Active; 'I' for Inactive)
REMARK    1  A    between atoms: C2_2  and  C30_35 
REMARK    2  A    between atoms: C3_3  and  C4_4 
REMARK    3  A    between atoms: C4_4  and  O1_5 
REMARK    4  A    between atoms: C4_4  and  C5_6 
REMARK    5  A    between atoms: C5_6  and  C6_7 
REMARK    6  A    between atoms: C6_7  and  C8_9 
REMARK    7  A    between atoms: C10_11  and  O2_12 
REMARK    8  A    between atoms: C29_33  and  O5_34 
REMARK    9  A    between atoms: C30_35  and  O7_37 
ROOT
HETATM    1  C8  UNL     1      -6.095   7.256  14.542  1.00  0.00     0.001 C 
HETATM    2  C9  UNL     1      -5.970   8.651  15.218  1.00  0.00     0.038 C 
HETATM    3  C10 UNL     1      -4.487   9.061  15.117  1.00  0.00     0.132 C 
HETATM    4  C11 UNL     1      -3.905   8.144  14.007  1.00  0.00     0.017 C 
HETATM    5  C12 UNL     1      -4.293   8.744  12.615  1.00  0.00     0.023 C 
HETATM    6  C13 UNL     1      -2.394   7.898  13.937  1.00  0.00    -0.029 C 
HETATM    7  C14 UNL     1      -1.897   6.807  13.293  1.00  0.00     0.002 C 
HETATM    8  C15 UNL     1      -2.886   5.749  12.812  1.00  0.00     0.157 C 
HETATM    9  O3  UNL     1      -2.520   4.816  12.101  1.00  0.00    -0.293 OA
HETATM   10  C16 UNL     1      -4.358   5.815  13.215  1.00  0.00     0.094 C 
HETATM   11  C17 UNL     1      -4.616   6.789  14.364  1.00  0.00    -0.019 C 
HETATM   12  C18 UNL     1      -4.082   6.142  15.674  1.00  0.00     0.017 C 
HETATM   13  C19 UNL     1      -0.372   6.561  13.097  1.00  0.00    -0.008 C 
HETATM   14  C20 UNL     1       0.007   5.498  14.154  1.00  0.00     0.021 C 
HETATM   15  C21 UNL     1      -0.007   6.042  11.677  1.00  0.00     0.022 C 
HETATM   16  C22 UNL     1       1.489   5.928  11.420  1.00  0.00     0.080 C 
HETATM   17  C23 UNL     1       2.193   7.239  11.645  1.00  0.00     0.135 C 
HETATM   18  O4  UNL     1       3.015   7.646  10.820  1.00  0.00    -0.297 OA
HETATM   19  C24 UNL     1       1.925   7.970  12.968  1.00  0.00     0.018 C 
HETATM   20  C25 UNL     1       2.812   7.348  14.056  1.00  0.00     0.023 C 
HETATM   21  C26 UNL     1       2.390   9.439  12.788  1.00  0.00     0.023 C 
HETATM   22  C27 UNL     1       0.383   7.944  13.256  1.00  0.00     0.016 C 
HETATM   23  C28 UNL     1      -0.010   8.616  14.583  1.00  0.00     0.043 C 
HETATM   24  C29 UNL     1      -1.510   8.909  14.624  1.00  0.00     0.149 C 
ENDROOT
BRANCH   1  25
HETATM   25  C6  UNL     1      -7.202   6.348  15.162  1.00  0.00    -0.011 C 
HETATM   26  C7  UNL     1      -7.290   6.330  16.692  1.00  0.00     0.010 C 
BRANCH  25  27
HETATM   27  C5  UNL     1      -7.141   4.915  14.574  1.00  0.00     0.040 C 
BRANCH  27  28
HETATM   28  C4  UNL     1      -7.773   4.771  13.180  1.00  0.00     0.142 C 
BRANCH  28  29
HETATM   29  C3  UNL     1      -6.809   4.144  12.207  1.00  0.00     0.018 C 
HETATM   30  C2  UNL     1      -6.541   2.837  11.991  1.00  0.00     0.010 C 
HETATM   31  C1  UNL     1      -7.126   1.689  12.761  1.00  0.00     0.055 C 
BRANCH  30  32
HETATM   32  C30 UNL     1      -5.575   2.431  10.937  1.00  0.00     0.171 C 
HETATM   33  O6  UNL     1      -5.203   3.132  10.011  1.00  0.00    -0.646 OA
BRANCH  32  34
HETATM   34  O7  UNL     1      -5.113   1.176  11.071  1.00  0.00    -0.773 OA
HETATM   35  H44 UNL     1      -4.511   1.073  10.306  1.00  0.00     0.167 HD
ENDBRANCH  32  34
ENDBRANCH  30  32
ENDBRANCH  28  29
BRANCH  28  36
HETATM   36  O1  UNL     1      -8.969   4.010  13.246  1.00  0.00    -0.392 OA
HETATM   37  H6  UNL     1      -9.308   3.939  12.337  1.00  0.00     0.210 HD
ENDBRANCH  28  36
ENDBRANCH  27  28
ENDBRANCH  25  27
ENDBRANCH   1  25
BRANCH   3  38
HETATM   38  O2  UNL     1      -4.391  10.448  14.833  1.00  0.00    -0.394 OA
HETATM   39  H17 UNL     1      -3.452  10.633  14.615  1.00  0.00     0.210 HD
ENDBRANCH   3  38
BRANCH  24  40
HETATM   40  O5  UNL     1      -1.766  10.186  14.046  1.00  0.00    -0.391 OA
HETATM   41  H43 UNL     1      -1.420  10.175  13.135  1.00  0.00     0.210 HD
ENDBRANCH  24  40
TORSDOF 9
ENDMDL
MODEL 8
REMARK minimizedAffinity -8.78337955
REMARK CNNscore 0.502342224
REMARK CNNaffinity 6.81793165
REMARK  9 active torsions:
REMARK  status: ('A' for Active; 'I' for Inactive)
REMARK    1  A    between atoms: C2_2  and  C30_35 
REMARK    2  A    between atoms: C3_3  and  C4_4 
REMARK    3  A    between atoms: C4_4  and  O1_5 
REMARK    4  A    between atoms: C4_4  and  C5_6 
REMARK    5  A    between atoms: C5_6  and  C6_7 
REMARK    6  A    between atoms: C6_7  and  C8_9 
REMARK    7  A    between atoms: C10_11  and  O2_12 
REMARK    8  A    between atoms: C29_33  and  O5_34 
REMARK    9  A    between atoms: C30_35  and  O7_37 
ROOT
HETATM    1  C8  UNL     1      -5.460   6.483  14.920  1.00  0.00     0.001 C 
HETATM    2  C9  UNL     1      -5.725   5.192  14.096  1.00  0.00     0.038 C 
HETATM    3  C10 UNL     1      -4.491   4.978  13.197  1.00  0.00     0.132 C 
HETATM    4  C11 UNL     1      -3.383   5.852  13.845  1.00  0.00     0.017 C 
HETATM    5  C12 UNL     1      -2.784   5.069  15.061  1.00  0.00     0.023 C 
HETATM    6  C13 UNL     1      -2.174   6.292  13.011  1.00  0.00    -0.029 C 
HETATM    7  C14 UNL     1      -1.432   7.372  13.379  1.00  0.00     0.002 C 
HETATM    8  C15 UNL     1      -1.946   8.232  14.530  1.00  0.00     0.157 C 
HETATM    9  O3  UNL     1      -1.256   9.132  15.006  1.00  0.00    -0.293 OA
HETATM   10  C16 UNL     1      -3.340   8.008  15.111  1.00  0.00     0.094 C 
HETATM   11  C17 UNL     1      -4.218   7.126  14.225  1.00  0.00    -0.019 C 
HETATM   12  C18 UNL     1      -4.654   7.966  12.990  1.00  0.00     0.017 C 
HETATM   13  C19 UNL     1      -0.134   7.802  12.634  1.00  0.00    -0.008 C 
HETATM   14  C20 UNL     1      -0.550   9.005  11.757  1.00  0.00     0.021 C 
HETATM   15  C21 UNL     1       1.017   8.223  13.590  1.00  0.00     0.022 C 
HETATM   16  C22 UNL     1       2.337   8.512  12.889  1.00  0.00     0.080 C 
HETATM   17  C23 UNL     1       2.801   7.337  12.070  1.00  0.00     0.135 C 
HETATM   18  O4  UNL     1       3.975   6.966  12.137  1.00  0.00    -0.297 OA
HETATM   19  C24 UNL     1       1.794   6.712  11.095  1.00  0.00     0.018 C 
HETATM   20  C25 UNL     1       1.774   7.552   9.811  1.00  0.00     0.023 C 
HETATM   21  C26 UNL     1       2.333   5.309  10.710  1.00  0.00     0.023 C 
HETATM   22  C27 UNL     1       0.414   6.557  11.823  1.00  0.00     0.016 C 
HETATM   23  C28 UNL     1      -0.695   5.972  10.931  1.00  0.00     0.043 C 
HETATM   24  C29 UNL     1      -1.874   5.483  11.774  1.00  0.00     0.149 C 
ENDROOT
BRANCH   1  25
HETATM   25  C6  UNL     1      -6.749   7.289  15.268  1.00  0.00    -0.011 C 
HETATM   26  C7  UNL     1      -7.417   6.961  16.608  1.00  0.00     0.010 C 
BRANCH  25  27
HETATM   27  C5  UNL     1      -7.764   7.248  14.096  1.00  0.00     0.040 C 
BRANCH  27  28
HETATM   28  C4  UNL     1      -9.227   7.058  14.527  1.00  0.00     0.142 C 
BRANCH  28  29
HETATM   29  C3  UNL     1     -10.081   8.214  14.075  1.00  0.00     0.018 C 
HETATM   30  C2  UNL     1     -11.339   8.206  13.582  1.00  0.00     0.010 C 
HETATM   31  C1  UNL     1     -12.158   6.979  13.303  1.00  0.00     0.055 C 
BRANCH  30  32
HETATM   32  C30 UNL     1     -12.021   9.482  13.237  1.00  0.00     0.171 C 
HETATM   33  O6  UNL     1     -11.922  10.526  13.858  1.00  0.00    -0.646 OA
BRANCH  32  34
HETATM   34  O7  UNL     1     -12.798   9.408  12.142  1.00  0.00    -0.773 OA
HETATM   35  H44 UNL     1     -13.169  10.311  12.068  1.00  0.00     0.167 HD
ENDBRANCH  32  34
ENDBRANCH  30  32
ENDBRANCH  28  29
BRANCH  28  36
HETATM   36  O1  UNL     1      -9.746   5.838  14.023  1.00  0.00    -0.392 OA
HETATM   37  H6  UNL     1     -10.674   5.786  14.312  1.00  0.00     0.210 HD
ENDBRANCH  28  36
ENDBRANCH  27  28
ENDBRANCH  25  27
ENDBRANCH   1  25
BRANCH   3  38
HETATM   38  O2  UNL     1      -4.177   3.596  13.133  1.00  0.00    -0.394 OA
HETATM   39  H17 UNL     1      -3.302   3.519  12.693  1.00  0.00     0.210 HD
ENDBRANCH   3  38
BRANCH  24  40
HETATM   40  O5  UNL     1      -1.654   4.132  12.170  1.00  0.00    -0.391 OA
HETATM   41  H43 UNL     1      -0.813   4.100  12.663  1.00  0.00     0.210 HD
ENDBRANCH  24  40
TORSDOF 9
ENDMDL
MODEL 9
REMARK minimizedAffinity -7.05022717
REMARK CNNscore 0.488322735
REMARK CNNaffinity 5.5408535
REMARK  9 active torsions:
REMARK  status: ('A' for Active; 'I' for Inactive)
REMARK    1  A    between atoms: C2_2  and  C30_35 
REMARK    2  A    between atoms: C3_3  and  C4_4 
REMARK    3  A    between atoms: C4_4  and  O1_5 
REMARK    4  A    between atoms: C4_4  and  C5_6 
REMARK    5  A    between atoms: C5_6  and  C6_7 
REMARK    6  A    between atoms: C6_7  and  C8_9 
REMARK    7  A    between atoms: C10_11  and  O2_12 
REMARK    8  A    between atoms: C29_33  and  O5_34 
REMARK    9  A    between atoms: C30_35  and  O7_37 
ROOT
HETATM    1  C8  UNL     1     -15.305   7.273  21.075  1.00  0.00     0.001 C 
HETATM    2  C9  UNL     1     -15.686   8.437  22.033  1.00  0.00     0.038 C 
HETATM    3  C10 UNL     1     -15.481   7.915  23.469  1.00  0.00     0.132 C 
HETATM    4  C11 UNL     1     -14.569   6.669  23.302  1.00  0.00     0.017 C 
HETATM    5  C12 UNL     1     -13.091   7.157  23.138  1.00  0.00     0.023 C 
HETATM    6  C13 UNL     1     -14.525   5.604  24.404  1.00  0.00    -0.029 C 
HETATM    7  C14 UNL     1     -14.106   4.339  24.130  1.00  0.00     0.002 C 
HETATM    8  C15 UNL     1     -13.861   3.967  22.670  1.00  0.00     0.157 C 
HETATM    9  O3  UNL     1     -13.346   2.893  22.367  1.00  0.00    -0.293 OA
HETATM   10  C16 UNL     1     -14.267   4.916  21.544  1.00  0.00     0.094 C 
HETATM   11  C17 UNL     1     -15.201   6.031  22.014  1.00  0.00    -0.019 C 
HETATM   12  C18 UNL     1     -16.606   5.410  22.262  1.00  0.00     0.017 C 
HETATM   13  C19 UNL     1     -13.939   3.246  25.227  1.00  0.00    -0.008 C 
HETATM   14  C20 UNL     1     -15.181   2.337  25.086  1.00  0.00     0.021 C 
HETATM   15  C21 UNL     1     -12.646   2.397  25.062  1.00  0.00     0.022 C 
HETATM   16  C22 UNL     1     -12.393   1.418  26.200  1.00  0.00     0.080 C 
HETATM   17  C23 UNL     1     -12.340   2.117  27.532  1.00  0.00     0.135 C 
HETATM   18  O4  UNL     1     -11.437   1.852  28.330  1.00  0.00    -0.297 OA
HETATM   19  C24 UNL     1     -13.494   3.067  27.881  1.00  0.00     0.018 C 
HETATM   20  C25 UNL     1     -14.670   2.232  28.406  1.00  0.00     0.023 C 
HETATM   21  C26 UNL     1     -13.016   3.965  29.053  1.00  0.00     0.023 C 
HETATM   22  C27 UNL     1     -13.806   3.963  26.633  1.00  0.00     0.016 C 
HETATM   23  C28 UNL     1     -14.977   4.937  26.846  1.00  0.00     0.043 C 
HETATM   24  C29 UNL     1     -14.982   6.030  25.777  1.00  0.00     0.149 C 
ENDROOT
BRANCH   1  25
HETATM   25  C6  UNL     1     -16.112   7.262  19.740  1.00  0.00    -0.011 C 
HETATM   26  C7  UNL     1     -17.375   6.394  19.713  1.00  0.00     0.010 C 
BRANCH  25  27
HETATM   27  C5  UNL     1     -15.186   6.965  18.533  1.00  0.00     0.040 C 
BRANCH  27  28
HETATM   28  C4  UNL     1     -15.370   7.916  17.339  1.00  0.00     0.142 C 
BRANCH  28  29
HETATM   29  C3  UNL     1     -14.375   7.619  16.248  1.00  0.00     0.018 C 
HETATM   30  C2  UNL     1     -14.404   6.652  15.304  1.00  0.00     0.010 C 
HETATM   31  C1  UNL     1     -15.449   5.580  15.187  1.00  0.00     0.055 C 
BRANCH  30  32
HETATM   32  C30 UNL     1     -13.329   6.565  14.281  1.00  0.00     0.171 C 
HETATM   33  O6  UNL     1     -13.490   6.662  13.077  1.00  0.00    -0.646 OA
BRANCH  32  34
HETATM   34  O7  UNL     1     -12.103   6.357  14.792  1.00  0.00    -0.773 OA
HETATM   35  H44 UNL     1     -11.531   6.316  13.999  1.00  0.00     0.167 HD
ENDBRANCH  32  34
ENDBRANCH  30  32
ENDBRANCH  28  29
BRANCH  28  36
HETATM   36  O1  UNL     1     -16.693   7.839  16.832  1.00  0.00    -0.392 OA
HETATM   37  H6  UNL     1     -16.740   8.445  16.073  1.00  0.00     0.210 HD
ENDBRANCH  28  36
ENDBRANCH  27  28
ENDBRANCH  25  27
ENDBRANCH   1  25
BRANCH   3  38
HETATM   38  O2  UNL     1     -14.924   8.939  24.277  1.00  0.00    -0.394 OA
HETATM   39  H17 UNL     1     -14.659   8.523  25.127  1.00  0.00     0.210 HD
ENDBRANCH   3  38
BRANCH  24  40
HETATM   40  O5  UNL     1     -14.164   7.118  26.198  1.00  0.00    -0.391 OA
HETATM   41  H43 UNL     1     -13.268   6.771  26.362  1.00  0.00     0.210 HD
ENDBRANCH  24  40
TORSDOF 9
ENDMDL
