MODEL 1
REMARK minimizedAffinity -8.90471458
REMARK  7 active torsions:
REMARK  status: ('A' for Active; 'I' for Inactive)
REMARK    1  A    between atoms: C2_2  and  C4_4 
REMARK    2  A    between atoms: C7_7  and  O1_9 
REMARK    3  A    between atoms: C9_10  and  C10_11 
REMARK    4  A    between atoms: C11_12  and  C12_13 
REMARK    5  A    between atoms: C14_15  and  C15_16 
REMARK    6  A    between atoms: C24_26  and  C26_28 
REMARK    7  A    between atoms: C29_32  and  O4_34 
ROOT
HETATM    1  C15 UNL     1      -4.847  47.811 -28.754  1.00  0.00     0.149 C 
HETATM    2  C16 UNL     1      -5.754  46.718 -29.332  1.00  0.00     0.054 C 
HETATM    3  C17 UNL     1      -6.544  47.379 -30.490  1.00  0.00     0.050 C 
HETATM    4  C18 UNL     1      -5.547  48.516 -30.834  1.00  0.00     0.272 C 
HETATM    5  O2  UNL     1      -4.422  48.102 -31.606  1.00  0.00    -0.360 OA
HETATM    6  C19 UNL     1      -4.639  48.151 -33.003  1.00  0.00     0.171 C 
HETATM    7  C20 UNL     1      -5.116  46.809 -33.528  1.00  0.00     0.027 C 
HETATM    8  C21 UNL     1      -5.637  45.849 -32.462  1.00  0.00     0.012 C 
HETATM    9  C22 UNL     1      -6.847  46.329 -31.630  1.00  0.00     0.032 C 
HETATM   10  C23 UNL     1      -8.042  46.706 -32.535  1.00  0.00    -0.066 C 
HETATM   11  C24 UNL     1      -8.796  45.819 -33.233  1.00  0.00    -0.021 C 
HETATM   12  C25 UNL     1      -9.939  46.195 -34.135  1.00  0.00     0.052 C 
HETATM   13  C27 UNL     1      -8.356  48.183 -32.546  1.00  0.00     0.038 C 
HETATM   14  C28 UNL     1      -8.647  48.724 -31.149  1.00  0.00     0.042 C 
HETATM   15  C29 UNL     1      -7.931  47.977 -29.997  1.00  0.00     0.067 C 
HETATM   16  C30 UNL     1      -8.887  46.918 -29.399  1.00  0.00     0.047 C 
HETATM   17  O5  UNL     1      -5.013  48.965 -29.580  1.00  0.00    -0.351 OA
ENDROOT
BRANCH   1  18
HETATM   18  C14 UNL     1      -5.164  48.184 -27.333  1.00  0.00     0.011 C 
HETATM   19  C12 UNL     1      -4.302  48.460 -26.331  1.00  0.00    -0.064 C 
HETATM   20  C13 UNL     1      -2.804  48.486 -26.506  1.00  0.00     0.048 C 
BRANCH  19  21
HETATM   21  C11 UNL     1      -4.848  48.788 -25.015  1.00  0.00     0.003 C 
HETATM   22  C10 UNL     1      -4.347  48.415 -23.825  1.00  0.00    -0.018 C 
BRANCH  22  23
HETATM   23  C9  UNL     1      -4.892  48.773 -22.457  1.00  0.00     0.050 C 
HETATM   24  C4  UNL     1      -6.132  49.721 -22.378  1.00  0.00     0.024 C 
HETATM   25  C5  UNL     1      -5.998  50.324 -20.970  1.00  0.00     0.013 C 
HETATM   26  C6  UNL     1      -4.512  50.628 -20.860  1.00  0.00     0.039 C 
HETATM   27  C7  UNL     1      -3.830  49.401 -21.484  1.00  0.00     0.062 C 
HETATM   28  C8  UNL     1      -2.484  49.795 -22.091  1.00  0.00     0.046 C 
BRANCH  24  29
HETATM   29  C2  UNL     1      -7.476  49.057 -22.679  1.00  0.00    -0.088 C 
HETATM   30  C1  UNL     1      -8.128  49.147 -23.853  1.00  0.00     0.014 C 
HETATM   31  C3  UNL     1      -8.063  48.208 -21.579  1.00  0.00     0.043 C 
ENDBRANCH  24  29
BRANCH  27  32
HETATM   32  O1  UNL     1      -3.536  48.456 -20.444  1.00  0.00    -0.390 OA
HETATM   33  H14 UNL     1      -4.360  48.250 -19.971  1.00  0.00     0.210 HD
ENDBRANCH  27  32
ENDBRANCH  22  23
ENDBRANCH  19  21
ENDBRANCH   1  18
BRANCH  15  34
HETATM   34  O4  UNL     1      -7.746  48.932 -28.949  1.00  0.00    -0.389 OA
HETATM   35  H44 UNL     1      -8.605  49.331 -28.726  1.00  0.00     0.210 HD
ENDBRANCH  15  34
BRANCH  11  36
HETATM   36  C26 UNL     1      -8.557  44.343 -33.182  1.00  0.00     0.265 C 
HETATM   37  O3  UNL     1      -8.028  43.703 -34.080  1.00  0.00    -0.302 OA
ENDBRANCH  11  36
TORSDOF 7
ENDMDL
MODEL 2
REMARK minimizedAffinity -8.90170479
REMARK  7 active torsions:
REMARK  status: ('A' for Active; 'I' for Inactive)
REMARK    1  A    between atoms: C2_2  and  C4_4 
REMARK    2  A    between atoms: C7_7  and  O1_9 
REMARK    3  A    between atoms: C9_10  and  C10_11 
REMARK    4  A    between atoms: C11_12  and  C12_13 
REMARK    5  A    between atoms: C14_15  and  C15_16 
REMARK    6  A    between atoms: C24_26  and  C26_28 
REMARK    7  A    between atoms: C29_32  and  O4_34 
ROOT
HETATM    1  C15 UNL     1      -4.728  47.877 -28.832  1.00  0.00     0.149 C 
HETATM    2  C16 UNL     1      -5.626  46.764 -29.383  1.00  0.00     0.054 C 
HETATM    3  C17 UNL     1      -6.492  47.415 -30.492  1.00  0.00     0.050 C 
HETATM    4  C18 UNL     1      -5.550  48.589 -30.864  1.00  0.00     0.272 C 
HETATM    5  O2  UNL     1      -4.451  48.224 -31.696  1.00  0.00    -0.360 OA
HETATM    6  C19 UNL     1      -4.737  48.286 -33.080  1.00  0.00     0.171 C 
HETATM    7  C20 UNL     1      -5.196  46.937 -33.603  1.00  0.00     0.027 C 
HETATM    8  C21 UNL     1      -5.633  45.945 -32.529  1.00  0.00     0.012 C 
HETATM    9  C22 UNL     1      -6.817  46.373 -31.633  1.00  0.00     0.032 C 
HETATM   10  C23 UNL     1      -8.065  46.724 -32.472  1.00  0.00    -0.066 C 
HETATM   11  C24 UNL     1      -8.823  45.823 -33.148  1.00  0.00    -0.021 C 
HETATM   12  C25 UNL     1     -10.020  46.174 -33.988  1.00  0.00     0.052 C 
HETATM   13  C27 UNL     1      -8.427  48.189 -32.444  1.00  0.00     0.038 C 
HETATM   14  C28 UNL     1      -8.667  48.700 -31.026  1.00  0.00     0.042 C 
HETATM   15  C29 UNL     1      -7.872  47.960 -29.922  1.00  0.00     0.067 C 
HETATM   16  C30 UNL     1      -8.763  46.862 -29.297  1.00  0.00     0.047 C 
HETATM   17  O5  UNL     1      -4.970  49.037 -29.630  1.00  0.00    -0.351 OA
ENDROOT
BRANCH   1  18
HETATM   18  C14 UNL     1      -4.987  48.218 -27.392  1.00  0.00     0.011 C 
HETATM   19  C12 UNL     1      -4.086  48.495 -26.424  1.00  0.00    -0.064 C 
HETATM   20  C13 UNL     1      -2.599  48.554 -26.666  1.00  0.00     0.048 C 
BRANCH  19  21
HETATM   21  C11 UNL     1      -4.579  48.788 -25.080  1.00  0.00     0.003 C 
HETATM   22  C10 UNL     1      -4.537  49.977 -24.455  1.00  0.00    -0.018 C 
BRANCH  22  23
HETATM   23  C9  UNL     1      -5.070  50.297 -23.072  1.00  0.00     0.050 C 
HETATM   24  C4  UNL     1      -4.260  49.798 -21.832  1.00  0.00     0.024 C 
HETATM   25  C5  UNL     1      -5.336  49.737 -20.736  1.00  0.00     0.013 C 
HETATM   26  C6  UNL     1      -6.528  49.121 -21.451  1.00  0.00     0.039 C 
HETATM   27  C7  UNL     1      -6.544  49.815 -22.822  1.00  0.00     0.062 C 
HETATM   28  C8  UNL     1      -7.158  48.893 -23.874  1.00  0.00     0.046 C 
BRANCH  24  29
HETATM   29  C2  UNL     1      -3.023  50.630 -21.488  1.00  0.00    -0.088 C 
HETATM   30  C1  UNL     1      -2.069  50.985 -22.369  1.00  0.00     0.014 C 
HETATM   31  C3  UNL     1      -2.920  51.115 -20.063  1.00  0.00     0.043 C 
ENDBRANCH  24  29
BRANCH  27  32
HETATM   32  O1  UNL     1      -7.403  50.963 -22.749  1.00  0.00    -0.390 OA
HETATM   33  H14 UNL     1      -7.096  51.532 -22.023  1.00  0.00     0.210 HD
ENDBRANCH  27  32
ENDBRANCH  22  23
ENDBRANCH  19  21
ENDBRANCH   1  18
BRANCH  15  34
HETATM   34  O4  UNL     1      -7.667  48.905 -28.869  1.00  0.00    -0.389 OA
HETATM   35  H44 UNL     1      -8.527  49.272 -28.599  1.00  0.00     0.210 HD
ENDBRANCH  15  34
BRANCH  11  36
HETATM   36  C26 UNL     1      -8.535  44.354 -33.133  1.00  0.00     0.265 C 
HETATM   37  O3  UNL     1      -8.042  43.743 -34.071  1.00  0.00    -0.302 OA
ENDBRANCH  11  36
TORSDOF 7
ENDMDL
MODEL 3
REMARK minimizedAffinity -8.78478432
REMARK  7 active torsions:
REMARK  status: ('A' for Active; 'I' for Inactive)
REMARK    1  A    between atoms: C2_2  and  C4_4 
REMARK    2  A    between atoms: C7_7  and  O1_9 
REMARK    3  A    between atoms: C9_10  and  C10_11 
REMARK    4  A    between atoms: C11_12  and  C12_13 
REMARK    5  A    between atoms: C14_15  and  C15_16 
REMARK    6  A    between atoms: C24_26  and  C26_28 
REMARK    7  A    between atoms: C29_32  and  O4_34 
ROOT
HETATM    1  C15 UNL     1      -5.232  47.995 -25.003  1.00  0.00     0.149 C 
HETATM    2  C16 UNL     1      -3.809  48.232 -24.484  1.00  0.00     0.054 C 
HETATM    3  C17 UNL     1      -3.905  49.411 -23.482  1.00  0.00     0.050 C 
HETATM    4  C18 UNL     1      -5.395  49.255 -23.081  1.00  0.00     0.272 C 
HETATM    5  O2  UNL     1      -5.649  48.211 -22.143  1.00  0.00    -0.360 OA
HETATM    6  C19 UNL     1      -5.541  48.618 -20.792  1.00  0.00     0.171 C 
HETATM    7  C20 UNL     1      -4.147  48.356 -20.254  1.00  0.00     0.027 C 
HETATM    8  C21 UNL     1      -3.080  48.111 -21.318  1.00  0.00     0.012 C 
HETATM    9  C22 UNL     1      -2.837  49.254 -22.329  1.00  0.00     0.032 C 
HETATM   10  C23 UNL     1      -2.480  50.576 -21.614  1.00  0.00    -0.066 C 
HETATM   11  C24 UNL     1      -1.310  50.816 -20.968  1.00  0.00    -0.021 C 
HETATM   12  C25 UNL     1      -0.980  52.095 -20.249  1.00  0.00     0.052 C 
HETATM   13  C27 UNL     1      -3.543  51.641 -21.735  1.00  0.00     0.038 C 
HETATM   14  C28 UNL     1      -3.865  51.976 -23.189  1.00  0.00     0.042 C 
HETATM   15  C29 UNL     1      -3.656  50.812 -24.189  1.00  0.00     0.067 C 
HETATM   16  C30 UNL     1      -2.260  50.940 -24.841  1.00  0.00     0.047 C 
HETATM   17  O5  UNL     1      -6.089  48.878 -24.278  1.00  0.00    -0.351 OA
ENDROOT
BRANCH   1  18
HETATM   18  C14 UNL     1      -5.400  48.255 -26.473  1.00  0.00     0.011 C 
HETATM   19  C12 UNL     1      -4.439  48.376 -27.415  1.00  0.00    -0.064 C 
HETATM   20  C13 UNL     1      -2.968  48.211 -27.128  1.00  0.00     0.048 C 
BRANCH  19  21
HETATM   21  C11 UNL     1      -4.847  48.645 -28.793  1.00  0.00     0.003 C 
HETATM   22  C10 UNL     1      -5.680  47.900 -29.540  1.00  0.00    -0.018 C 
BRANCH  22  23
HETATM   23  C9  UNL     1      -6.129  48.187 -30.960  1.00  0.00     0.050 C 
HETATM   24  C4  UNL     1      -7.575  47.767 -31.377  1.00  0.00     0.024 C 
HETATM   25  C5  UNL     1      -7.450  47.627 -32.904  1.00  0.00     0.013 C 
HETATM   26  C6  UNL     1      -6.122  46.910 -33.081  1.00  0.00     0.039 C 
HETATM   27  C7  UNL     1      -5.189  47.588 -32.066  1.00  0.00     0.062 C 
HETATM   28  C8  UNL     1      -4.110  46.610 -31.603  1.00  0.00     0.046 C 
BRANCH  24  29
HETATM   29  C2  UNL     1      -8.686  48.700 -30.896  1.00  0.00    -0.088 C 
HETATM   30  C1  UNL     1      -8.569  50.036 -30.784  1.00  0.00     0.014 C 
HETATM   31  C3  UNL     1     -10.012  48.053 -30.578  1.00  0.00     0.043 C 
ENDBRANCH  24  29
BRANCH  27  32
HETATM   32  O1  UNL     1      -4.497  48.663 -32.720  1.00  0.00    -0.390 OA
HETATM   33  H14 UNL     1      -5.156  49.262 -33.111  1.00  0.00     0.210 HD
ENDBRANCH  27  32
ENDBRANCH  22  23
ENDBRANCH  19  21
ENDBRANCH   1  18
BRANCH  15  34
HETATM   34  O4  UNL     1      -4.579  51.029 -25.260  1.00  0.00    -0.389 OA
HETATM   35  H44 UNL     1      -4.446  51.924 -25.617  1.00  0.00     0.210 HD
ENDBRANCH  15  34
BRANCH  11  36
HETATM   36  C26 UNL     1      -0.207  49.808 -20.896  1.00  0.00     0.265 C 
HETATM   37  O3  UNL     1      -0.344  48.671 -20.468  1.00  0.00    -0.302 OA
ENDBRANCH  11  36
TORSDOF 7
ENDMDL
MODEL 4
REMARK minimizedAffinity -8.71370316
REMARK  7 active torsions:
REMARK  status: ('A' for Active; 'I' for Inactive)
REMARK    1  A    between atoms: C2_2  and  C4_4 
REMARK    2  A    between atoms: C7_7  and  O1_9 
REMARK    3  A    between atoms: C9_10  and  C10_11 
REMARK    4  A    between atoms: C11_12  and  C12_13 
REMARK    5  A    between atoms: C14_15  and  C15_16 
REMARK    6  A    between atoms: C24_26  and  C26_28 
REMARK    7  A    between atoms: C29_32  and  O4_34 
ROOT
HETATM    1  C15 UNL     1      -4.712  47.983 -23.328  1.00  0.00     0.149 C 
HETATM    2  C16 UNL     1      -3.512  48.935 -23.399  1.00  0.00     0.054 C 
HETATM    3  C17 UNL     1      -3.439  49.642 -22.021  1.00  0.00     0.050 C 
HETATM    4  C18 UNL     1      -4.158  48.565 -21.168  1.00  0.00     0.272 C 
HETATM    5  O2  UNL     1      -3.347  47.441 -20.829  1.00  0.00    -0.360 OA
HETATM    6  C19 UNL     1      -2.615  47.607 -19.630  1.00  0.00     0.171 C 
HETATM    7  C20 UNL     1      -1.225  48.147 -19.911  1.00  0.00     0.027 C 
HETATM    8  C21 UNL     1      -1.040  48.764 -21.295  1.00  0.00     0.012 C 
HETATM    9  C22 UNL     1      -1.942  49.970 -21.640  1.00  0.00     0.032 C 
HETATM   10  C23 UNL     1      -1.788  51.107 -20.605  1.00  0.00    -0.066 C 
HETATM   11  C24 UNL     1      -0.687  51.890 -20.472  1.00  0.00    -0.021 C 
HETATM   12  C25 UNL     1      -0.532  52.975 -19.443  1.00  0.00     0.052 C 
HETATM   13  C27 UNL     1      -3.016  51.328 -19.756  1.00  0.00     0.038 C 
HETATM   14  C28 UNL     1      -4.254  51.633 -20.595  1.00  0.00     0.042 C 
HETATM   15  C29 UNL     1      -4.255  51.006 -22.010  1.00  0.00     0.067 C 
HETATM   16  C30 UNL     1      -3.741  52.045 -23.034  1.00  0.00     0.047 C 
HETATM   17  O5  UNL     1      -5.213  48.048 -21.992  1.00  0.00    -0.351 OA
ENDROOT
BRANCH   1  18
HETATM   18  C14 UNL     1      -5.824  48.325 -24.279  1.00  0.00     0.011 C 
HETATM   19  C12 UNL     1      -6.980  47.658 -24.485  1.00  0.00    -0.064 C 
HETATM   20  C13 UNL     1      -7.377  46.423 -23.716  1.00  0.00     0.048 C 
BRANCH  19  21
HETATM   21  C11 UNL     1      -7.915  48.179 -25.482  1.00  0.00     0.003 C 
HETATM   22  C10 UNL     1      -8.319  47.556 -26.601  1.00  0.00    -0.018 C 
BRANCH  22  23
HETATM   23  C9  UNL     1      -9.308  48.078 -27.626  1.00  0.00     0.050 C 
HETATM   24  C4  UNL     1     -10.576  47.219 -27.935  1.00  0.00     0.024 C 
HETATM   25  C5  UNL     1     -10.957  47.691 -29.348  1.00  0.00     0.013 C 
HETATM   26  C6  UNL     1      -9.618  47.771 -30.063  1.00  0.00     0.039 C 
HETATM   27  C7  UNL     1      -8.676  48.400 -29.026  1.00  0.00     0.062 C 
HETATM   28  C8  UNL     1      -7.240  47.931 -29.262  1.00  0.00     0.046 C 
BRANCH  24  29
HETATM   29  C2  UNL     1     -11.692  47.308 -26.894  1.00  0.00    -0.088 C 
HETATM   30  C1  UNL     1     -11.545  47.015 -25.588  1.00  0.00     0.014 C 
HETATM   31  C3  UNL     1     -13.026  47.811 -27.385  1.00  0.00     0.043 C 
ENDBRANCH  24  29
BRANCH  27  32
HETATM   32  O1  UNL     1      -8.664  49.824 -29.215  1.00  0.00    -0.390 OA
HETATM   33  H14 UNL     1      -9.579  50.149 -29.164  1.00  0.00     0.210 HD
ENDBRANCH  27  32
ENDBRANCH  22  23
ENDBRANCH  19  21
ENDBRANCH   1  18
BRANCH  15  34
HETATM   34  O4  UNL     1      -5.626  50.798 -22.360  1.00  0.00    -0.389 OA
HETATM   35  H44 UNL     1      -6.108  51.638 -22.268  1.00  0.00     0.210 HD
ENDBRANCH  15  34
BRANCH  11  36
HETATM   36  C26 UNL     1       0.516  51.745 -21.349  1.00  0.00     0.265 C 
HETATM   37  O3  UNL     1       1.459  52.524 -21.353  1.00  0.00    -0.302 OA
ENDBRANCH  11  36
TORSDOF 7
ENDMDL
MODEL 5
REMARK minimizedAffinity -8.70608616
REMARK  7 active torsions:
REMARK  status: ('A' for Active; 'I' for Inactive)
REMARK    1  A    between atoms: C2_2  and  C4_4 
REMARK    2  A    between atoms: C7_7  and  O1_9 
REMARK    3  A    between atoms: C9_10  and  C10_11 
REMARK    4  A    between atoms: C11_12  and  C12_13 
REMARK    5  A    between atoms: C14_15  and  C15_16 
REMARK    6  A    between atoms: C24_26  and  C26_28 
REMARK    7  A    between atoms: C29_32  and  O4_34 
ROOT
HETATM    1  C15 UNL     1      -4.937  50.114 -20.241  1.00  0.00     0.149 C 
HETATM    2  C16 UNL     1      -6.466  50.110 -20.350  1.00  0.00     0.054 C 
HETATM    3  C17 UNL     1      -6.897  48.621 -20.345  1.00  0.00     0.050 C 
HETATM    4  C18 UNL     1      -5.675  48.027 -19.598  1.00  0.00     0.272 C 
HETATM    5  O2  UNL     1      -5.696  48.218 -18.185  1.00  0.00    -0.360 OA
HETATM    6  C19 UNL     1      -6.366  47.190 -17.481  1.00  0.00     0.171 C 
HETATM    7  C20 UNL     1      -7.823  47.546 -17.250  1.00  0.00     0.027 C 
HETATM    8  C21 UNL     1      -8.356  48.676 -18.127  1.00  0.00     0.012 C 
HETATM    9  C22 UNL     1      -8.306  48.449 -19.654  1.00  0.00     0.032 C 
HETATM   10  C23 UNL     1      -9.055  47.159 -20.060  1.00  0.00    -0.066 C 
HETATM   11  C24 UNL     1     -10.403  47.000 -20.017  1.00  0.00    -0.021 C 
HETATM   12  C25 UNL     1     -11.123  45.732 -20.385  1.00  0.00     0.052 C 
HETATM   13  C27 UNL     1      -8.151  46.066 -20.575  1.00  0.00     0.038 C 
HETATM   14  C28 UNL     1      -7.324  46.515 -21.777  1.00  0.00     0.042 C 
HETATM   15  C29 UNL     1      -7.000  48.029 -21.816  1.00  0.00     0.067 C 
HETATM   16  C30 UNL     1      -8.035  48.753 -22.707  1.00  0.00     0.047 C 
HETATM   17  O5  UNL     1      -4.532  48.755 -20.070  1.00  0.00    -0.351 OA
ENDROOT
BRANCH   1  18
HETATM   18  C14 UNL     1      -4.237  50.680 -21.444  1.00  0.00     0.011 C 
HETATM   19  C12 UNL     1      -3.018  51.257 -21.506  1.00  0.00    -0.064 C 
HETATM   20  C13 UNL     1      -2.098  51.386 -20.318  1.00  0.00     0.048 C 
BRANCH  19  21
HETATM   21  C11 UNL     1      -2.547  51.750 -22.799  1.00  0.00     0.003 C 
HETATM   22  C10 UNL     1      -1.852  51.054 -23.715  1.00  0.00    -0.018 C 
BRANCH  22  23
HETATM   23  C9  UNL     1      -1.384  51.549 -25.070  1.00  0.00     0.050 C 
HETATM   24  C4  UNL     1      -1.120  50.495 -26.193  1.00  0.00     0.024 C 
HETATM   25  C5  UNL     1      -0.129  51.231 -27.110  1.00  0.00     0.013 C 
HETATM   26  C6  UNL     1       0.826  51.894 -26.132  1.00  0.00     0.039 C 
HETATM   27  C7  UNL     1      -0.088  52.433 -25.020  1.00  0.00     0.062 C 
HETATM   28  C8  UNL     1       0.667  52.482 -23.692  1.00  0.00     0.046 C 
BRANCH  24  29
HETATM   29  C2  UNL     1      -2.372  49.955 -26.884  1.00  0.00    -0.088 C 
HETATM   30  C1  UNL     1      -3.026  50.580 -27.880  1.00  0.00     0.014 C 
HETATM   31  C3  UNL     1      -2.856  48.601 -26.428  1.00  0.00     0.043 C 
ENDBRANCH  24  29
BRANCH  27  32
HETATM   32  O1  UNL     1      -0.438  53.792 -25.328  1.00  0.00    -0.390 OA
HETATM   33  H14 UNL     1      -0.839  53.814 -26.214  1.00  0.00     0.210 HD
ENDBRANCH  27  32
ENDBRANCH  22  23
ENDBRANCH  19  21
ENDBRANCH   1  18
BRANCH  15  34
HETATM   34  O4  UNL     1      -5.761  48.158 -22.520  1.00  0.00    -0.389 OA
HETATM   35  H44 UNL     1      -5.839  47.718 -23.384  1.00  0.00     0.210 HD
ENDBRANCH  15  34
BRANCH  11  36
HETATM   36  C26 UNL     1     -11.331  48.090 -19.584  1.00  0.00     0.265 C 
HETATM   37  O3  UNL     1     -12.433  47.896 -19.091  1.00  0.00    -0.302 OA
ENDBRANCH  11  36
TORSDOF 7
ENDMDL
MODEL 6
REMARK minimizedAffinity -8.69696712
REMARK  7 active torsions:
REMARK  status: ('A' for Active; 'I' for Inactive)
REMARK    1  A    between atoms: C2_2  and  C4_4 
REMARK    2  A    between atoms: C7_7  and  O1_9 
REMARK    3  A    between atoms: C9_10  and  C10_11 
REMARK    4  A    between atoms: C11_12  and  C12_13 
REMARK    5  A    between atoms: C14_15  and  C15_16 
REMARK    6  A    between atoms: C24_26  and  C26_28 
REMARK    7  A    between atoms: C29_32  and  O4_34 
ROOT
HETATM    1  C15 UNL     1      -3.233  50.673 -24.082  1.00  0.00     0.149 C 
HETATM    2  C16 UNL     1      -3.453  50.826 -22.573  1.00  0.00     0.054 C 
HETATM    3  C17 UNL     1      -2.227  50.171 -21.888  1.00  0.00     0.050 C 
HETATM    4  C18 UNL     1      -1.205  50.321 -23.044  1.00  0.00     0.272 C 
HETATM    5  O2  UNL     1      -0.651  51.628 -23.177  1.00  0.00    -0.360 OA
HETATM    6  C19 UNL     1       0.512  51.837 -22.398  1.00  0.00     0.171 C 
HETATM    7  C20 UNL     1       0.164  52.445 -21.052  1.00  0.00     0.027 C 
HETATM    8  C21 UNL     1      -1.305  52.334 -20.655  1.00  0.00     0.012 C 
HETATM    9  C22 UNL     1      -1.883  50.907 -20.533  1.00  0.00     0.032 C 
HETATM   10  C23 UNL     1      -1.071  50.049 -19.537  1.00  0.00    -0.066 C 
HETATM   11  C24 UNL     1      -1.061  50.227 -18.191  1.00  0.00    -0.021 C 
HETATM   12  C25 UNL     1      -0.246  49.408 -17.229  1.00  0.00     0.052 C 
HETATM   13  C27 UNL     1      -0.300  48.926 -20.186  1.00  0.00     0.038 C 
HETATM   14  C28 UNL     1      -1.205  47.982 -20.974  1.00  0.00     0.042 C 
HETATM   15  C29 UNL     1      -2.482  48.637 -21.557  1.00  0.00     0.067 C 
HETATM   16  C30 UNL     1      -3.668  48.397 -20.594  1.00  0.00     0.047 C 
HETATM   17  O5  UNL     1      -1.941  50.088 -24.254  1.00  0.00    -0.351 OA
ENDROOT
BRANCH   1  18
HETATM   18  C14 UNL     1      -4.251  49.806 -24.766  1.00  0.00     0.011 C 
HETATM   19  C12 UNL     1      -4.063  48.947 -25.792  1.00  0.00    -0.064 C 
HETATM   20  C13 UNL     1      -2.716  48.676 -26.412  1.00  0.00     0.048 C 
BRANCH  19  21
HETATM   21  C11 UNL     1      -5.219  48.214 -26.305  1.00  0.00     0.003 C 
HETATM   22  C10 UNL     1      -5.526  48.009 -27.598  1.00  0.00    -0.018 C 
BRANCH  22  23
HETATM   23  C9  UNL     1      -6.707  47.227 -28.138  1.00  0.00     0.050 C 
HETATM   24  C4  UNL     1      -7.453  47.786 -29.392  1.00  0.00     0.024 C 
HETATM   25  C5  UNL     1      -8.847  47.150 -29.258  1.00  0.00     0.013 C 
HETATM   26  C6  UNL     1      -9.156  47.296 -27.777  1.00  0.00     0.039 C 
HETATM   27  C7  UNL     1      -7.832  46.945 -27.080  1.00  0.00     0.062 C 
HETATM   28  C8  UNL     1      -7.726  47.681 -25.745  1.00  0.00     0.046 C 
BRANCH  24  29
HETATM   29  C2  UNL     1      -6.750  47.542 -30.729  1.00  0.00    -0.088 C 
HETATM   30  C1  UNL     1      -5.568  46.914 -30.868  1.00  0.00     0.014 C 
HETATM   31  C3  UNL     1      -7.483  48.004 -31.964  1.00  0.00     0.043 C 
ENDBRANCH  24  29
BRANCH  27  32
HETATM   32  O1  UNL     1      -7.834  45.545 -26.763  1.00  0.00    -0.390 OA
HETATM   33  H14 UNL     1      -7.993  45.044 -27.581  1.00  0.00     0.210 HD
ENDBRANCH  27  32
ENDBRANCH  22  23
ENDBRANCH  19  21
ENDBRANCH   1  18
BRANCH  15  34
HETATM   34  O4  UNL     1      -2.814  47.897 -22.735  1.00  0.00    -0.389 OA
HETATM   35  H44 UNL     1      -2.887  46.954 -22.507  1.00  0.00     0.210 HD
ENDBRANCH  15  34
BRANCH  11  36
HETATM   36  C26 UNL     1      -1.874  51.283 -17.510  1.00  0.00     0.265 C 
HETATM   37  O3  UNL     1      -2.964  51.082 -16.993  1.00  0.00    -0.302 OA
ENDBRANCH  11  36
TORSDOF 7
ENDMDL
MODEL 7
REMARK minimizedAffinity -8.66616821
REMARK  7 active torsions:
REMARK  status: ('A' for Active; 'I' for Inactive)
REMARK    1  A    between atoms: C2_2  and  C4_4 
REMARK    2  A    between atoms: C7_7  and  O1_9 
REMARK    3  A    between atoms: C9_10  and  C10_11 
REMARK    4  A    between atoms: C11_12  and  C12_13 
REMARK    5  A    between atoms: C14_15  and  C15_16 
REMARK    6  A    between atoms: C24_26  and  C26_28 
REMARK    7  A    between atoms: C29_32  and  O4_34 
ROOT
HETATM    1  C15 UNL     1      -4.504  48.452 -23.973  1.00  0.00     0.149 C 
HETATM    2  C16 UNL     1      -4.453  47.786 -22.594  1.00  0.00     0.054 C 
HETATM    3  C17 UNL     1      -5.727  48.250 -21.842  1.00  0.00     0.050 C 
HETATM    4  C18 UNL     1      -6.621  48.563 -23.069  1.00  0.00     0.272 C 
HETATM    5  O2  UNL     1      -7.196  47.416 -23.690  1.00  0.00    -0.360 OA
HETATM    6  C19 UNL     1      -8.441  47.032 -23.140  1.00  0.00     0.171 C 
HETATM    7  C20 UNL     1      -8.260  45.985 -22.056  1.00  0.00     0.027 C 
HETATM    8  C21 UNL     1      -6.839  45.861 -21.512  1.00  0.00     0.012 C 
HETATM    9  C22 UNL     1      -6.236  47.124 -20.858  1.00  0.00     0.032 C 
HETATM   10  C23 UNL     1      -7.126  47.646 -19.708  1.00  0.00    -0.066 C 
HETATM   11  C24 UNL     1      -7.287  47.027 -18.510  1.00  0.00    -0.021 C 
HETATM   12  C25 UNL     1      -8.178  47.525 -17.405  1.00  0.00     0.052 C 
HETATM   13  C27 UNL     1      -7.789  48.970 -20.002  1.00  0.00     0.038 C 
HETATM   14  C28 UNL     1      -6.777  50.064 -20.334  1.00  0.00     0.042 C 
HETATM   15  C29 UNL     1      -5.464  49.563 -20.985  1.00  0.00     0.067 C 
HETATM   16  C30 UNL     1      -4.383  49.388 -19.894  1.00  0.00     0.047 C 
HETATM   17  O5  UNL     1      -5.752  49.143 -24.053  1.00  0.00    -0.351 OA
ENDROOT
BRANCH   1  18
HETATM   18  C14 UNL     1      -3.393  49.432 -24.224  1.00  0.00     0.011 C 
HETATM   19  C12 UNL     1      -2.588  49.522 -25.304  1.00  0.00    -0.064 C 
HETATM   20  C13 UNL     1      -2.719  48.635 -26.516  1.00  0.00     0.048 C 
BRANCH  19  21
HETATM   21  C11 UNL     1      -1.557  50.559 -25.318  1.00  0.00     0.003 C 
HETATM   22  C10 UNL     1      -0.906  51.053 -24.250  1.00  0.00    -0.018 C 
BRANCH  22  23
HETATM   23  C9  UNL     1       0.183  52.109 -24.258  1.00  0.00     0.050 C 
HETATM   24  C4  UNL     1       0.197  53.166 -23.108  1.00  0.00     0.024 C 
HETATM   25  C5  UNL     1       0.956  54.340 -23.748  1.00  0.00     0.013 C 
HETATM   26  C6  UNL     1       0.373  54.411 -25.149  1.00  0.00     0.039 C 
HETATM   27  C7  UNL     1       0.263  52.942 -25.586  1.00  0.00     0.062 C 
HETATM   28  C8  UNL     1      -0.883  52.770 -26.582  1.00  0.00     0.046 C 
BRANCH  24  29
HETATM   29  C2  UNL     1       0.763  52.670 -21.776  1.00  0.00    -0.088 C 
HETATM   30  C1  UNL     1       1.642  53.350 -21.017  1.00  0.00     0.014 C 
HETATM   31  C3  UNL     1       0.243  51.343 -21.282  1.00  0.00     0.043 C 
ENDBRANCH  24  29
BRANCH  27  32
HETATM   32  O1  UNL     1       1.460  52.579 -26.292  1.00  0.00    -0.390 OA
HETATM   33  H14 UNL     1       2.224  52.764 -25.719  1.00  0.00     0.210 HD
ENDBRANCH  27  32
ENDBRANCH  22  23
ENDBRANCH  19  21
ENDBRANCH   1  18
BRANCH  15  34
HETATM   34  O4  UNL     1      -4.985  50.633 -21.804  1.00  0.00    -0.389 OA
HETATM   35  H44 UNL     1      -4.910  51.438 -21.262  1.00  0.00     0.210 HD
ENDBRANCH  15  34
BRANCH  11  36
HETATM   36  C26 UNL     1      -6.584  45.754 -18.160  1.00  0.00     0.265 C 
HETATM   37  O3  UNL     1      -7.133  44.784 -17.657  1.00  0.00    -0.302 OA
ENDBRANCH  11  36
TORSDOF 7
ENDMDL
MODEL 8
REMARK minimizedAffinity -8.52936459
REMARK  7 active torsions:
REMARK  status: ('A' for Active; 'I' for Inactive)
REMARK    1  A    between atoms: C2_2  and  C4_4 
REMARK    2  A    between atoms: C7_7  and  O1_9 
REMARK    3  A    between atoms: C9_10  and  C10_11 
REMARK    4  A    between atoms: C11_12  and  C12_13 
REMARK    5  A    between atoms: C14_15  and  C15_16 
REMARK    6  A    between atoms: C24_26  and  C26_28 
REMARK    7  A    between atoms: C29_32  and  O4_34 
ROOT
HETATM    1  C15 UNL     1       5.698  67.457 -38.583  1.00  0.00     0.149 C 
HETATM    2  C16 UNL     1       4.286  67.221 -39.131  1.00  0.00     0.054 C 
HETATM    3  C17 UNL     1       3.370  68.254 -38.427  1.00  0.00     0.050 C 
HETATM    4  C18 UNL     1       4.440  69.324 -38.091  1.00  0.00     0.272 C 
HETATM    5  O2  UNL     1       4.816  70.149 -39.192  1.00  0.00    -0.360 OA
HETATM    6  C19 UNL     1       4.009  71.301 -39.344  1.00  0.00     0.171 C 
HETATM    7  C20 UNL     1       2.868  71.044 -40.312  1.00  0.00     0.027 C 
HETATM    8  C21 UNL     1       2.582  69.572 -40.594  1.00  0.00     0.012 C 
HETATM    9  C22 UNL     1       2.192  68.698 -39.380  1.00  0.00     0.032 C 
HETATM   10  C23 UNL     1       0.963  69.273 -38.640  1.00  0.00    -0.066 C 
HETATM   11  C24 UNL     1      -0.304  69.273 -39.127  1.00  0.00    -0.021 C 
HETATM   12  C25 UNL     1      -1.491  69.860 -38.414  1.00  0.00     0.052 C 
HETATM   13  C27 UNL     1       1.276  69.809 -37.264  1.00  0.00     0.038 C 
HETATM   14  C28 UNL     1       1.905  68.753 -36.360  1.00  0.00     0.042 C 
HETATM   15  C29 UNL     1       2.726  67.666 -37.098  1.00  0.00     0.067 C 
HETATM   16  C30 UNL     1       1.837  66.423 -37.335  1.00  0.00     0.047 C 
HETATM   17  O5  UNL     1       5.624  68.600 -37.728  1.00  0.00    -0.351 OA
ENDROOT
BRANCH   1  18
HETATM   18  C14 UNL     1       6.253  66.302 -37.798  1.00  0.00     0.011 C 
HETATM   19  C12 UNL     1       7.488  66.170 -37.267  1.00  0.00    -0.064 C 
HETATM   20  C13 UNL     1       8.544  67.243 -37.342  1.00  0.00     0.048 C 
BRANCH  19  21
HETATM   21  C11 UNL     1       7.807  64.937 -36.549  1.00  0.00     0.003 C 
HETATM   22  C10 UNL     1       7.676  64.724 -35.229  1.00  0.00    -0.018 C 
BRANCH  22  23
HETATM   23  C9  UNL     1       7.979  63.441 -34.480  1.00  0.00     0.050 C 
HETATM   24  C4  UNL     1       9.192  62.576 -34.953  1.00  0.00     0.024 C 
HETATM   25  C5  UNL     1       8.820  61.176 -34.438  1.00  0.00     0.013 C 
HETATM   26  C6  UNL     1       7.340  61.065 -34.764  1.00  0.00     0.039 C 
HETATM   27  C7  UNL     1       6.769  62.443 -34.396  1.00  0.00     0.062 C 
HETATM   28  C8  UNL     1       5.550  62.759 -35.261  1.00  0.00     0.046 C 
BRANCH  24  29
HETATM   29  C2  UNL     1      10.564  63.090 -34.517  1.00  0.00    -0.088 C 
HETATM   30  C1  UNL     1      11.517  63.536 -35.356  1.00  0.00     0.014 C 
HETATM   31  C3  UNL     1      10.820  63.134 -33.030  1.00  0.00     0.043 C 
ENDBRANCH  24  29
BRANCH  27  32
HETATM   32  O1  UNL     1       6.295  62.400 -33.041  1.00  0.00    -0.390 OA
HETATM   33  H14 UNL     1       7.025  62.110 -32.468  1.00  0.00     0.210 HD
ENDBRANCH  27  32
ENDBRANCH  22  23
ENDBRANCH  19  21
ENDBRANCH   1  18
BRANCH  15  34
HETATM   34  O4  UNL     1       3.730  67.226 -36.180  1.00  0.00    -0.389 OA
HETATM   35  H44 UNL     1       3.303  66.945 -35.352  1.00  0.00     0.210 HD
ENDBRANCH  15  34
BRANCH  11  36
HETATM   36  C26 UNL     1      -0.658  68.681 -40.454  1.00  0.00     0.265 C 
HETATM   37  O3  UNL     1      -0.835  67.486 -40.647  1.00  0.00    -0.302 OA
ENDBRANCH  11  36
TORSDOF 7
ENDMDL
MODEL 9
REMARK minimizedAffinity -8.52254009
REMARK  7 active torsions:
REMARK  status: ('A' for Active; 'I' for Inactive)
REMARK    1  A    between atoms: C2_2  and  C4_4 
REMARK    2  A    between atoms: C7_7  and  O1_9 
REMARK    3  A    between atoms: C9_10  and  C10_11 
REMARK    4  A    between atoms: C11_12  and  C12_13 
REMARK    5  A    between atoms: C14_15  and  C15_16 
REMARK    6  A    between atoms: C24_26  and  C26_28 
REMARK    7  A    between atoms: C29_32  and  O4_34 
ROOT
HETATM    1  C15 UNL     1      -0.450  50.381 -20.584  1.00  0.00     0.149 C 
HETATM    2  C16 UNL     1      -1.547  49.310 -20.598  1.00  0.00     0.054 C 
HETATM    3  C17 UNL     1      -2.774  49.957 -21.290  1.00  0.00     0.050 C 
HETATM    4  C18 UNL     1      -2.030  51.025 -22.133  1.00  0.00     0.272 C 
HETATM    5  O2  UNL     1      -1.411  50.520 -23.314  1.00  0.00    -0.360 OA
HETATM    6  C19 UNL     1      -2.260  50.516 -24.446  1.00  0.00     0.171 C 
HETATM    7  C20 UNL     1      -2.958  49.177 -24.599  1.00  0.00     0.027 C 
HETATM    8  C21 UNL     1      -2.938  48.294 -23.354  1.00  0.00     0.012 C 
HETATM    9  C22 UNL     1      -3.602  48.873 -22.085  1.00  0.00     0.032 C 
HETATM   10  C23 UNL     1      -5.073  49.268 -22.346  1.00  0.00    -0.066 C 
HETATM   11  C24 UNL     1      -6.087  48.389 -22.551  1.00  0.00    -0.021 C 
HETATM   12  C25 UNL     1      -7.512  48.780 -22.833  1.00  0.00     0.052 C 
HETATM   13  C27 UNL     1      -5.321  50.756 -22.303  1.00  0.00     0.038 C 
HETATM   14  C28 UNL     1      -4.908  51.375 -20.970  1.00  0.00     0.042 C 
HETATM   15  C29 UNL     1      -3.751  50.646 -20.243  1.00  0.00     0.067 C 
HETATM   16  C30 UNL     1      -4.337  49.665 -19.201  1.00  0.00     0.047 C 
HETATM   17  O5  UNL     1      -0.958  51.503 -21.308  1.00  0.00    -0.351 OA
ENDROOT
BRANCH   1  18
HETATM   18  C14 UNL     1      -0.051  50.834 -19.208  1.00  0.00     0.011 C 
HETATM   19  C12 UNL     1       0.528  52.000 -18.848  1.00  0.00    -0.064 C 
HETATM   20  C13 UNL     1       0.839  53.109 -19.820  1.00  0.00     0.048 C 
BRANCH  19  21
HETATM   21  C11 UNL     1       0.839  52.214 -17.435  1.00  0.00     0.003 C 
HETATM   22  C10 UNL     1       0.604  51.358 -16.426  1.00  0.00    -0.018 C 
BRANCH  22  23
HETATM   23  C9  UNL     1       0.947  51.560 -14.963  1.00  0.00     0.050 C 
HETATM   24  C4  UNL     1       2.008  50.616 -14.314  1.00  0.00     0.024 C 
HETATM   25  C5  UNL     1       1.642  50.683 -12.822  1.00  0.00     0.013 C 
HETATM   26  C6  UNL     1       0.124  50.607 -12.831  1.00  0.00     0.039 C 
HETATM   27  C7  UNL     1      -0.291  51.516 -13.999  1.00  0.00     0.062 C 
HETATM   28  C8  UNL     1      -1.616  51.040 -14.594  1.00  0.00     0.046 C 
BRANCH  24  29
HETATM   29  C2  UNL     1       3.464  50.949 -14.645  1.00  0.00    -0.088 C 
HETATM   30  C1  UNL     1       3.861  52.022 -15.354  1.00  0.00     0.014 C 
HETATM   31  C3  UNL     1       4.508  50.018 -14.080  1.00  0.00     0.043 C 
ENDBRANCH  24  29
BRANCH  27  32
HETATM   32  O1  UNL     1      -0.535  52.837 -13.492  1.00  0.00    -0.390 OA
HETATM   33  H14 UNL     1       0.261  53.138 -13.021  1.00  0.00     0.210 HD
ENDBRANCH  27  32
ENDBRANCH  22  23
ENDBRANCH  19  21
ENDBRANCH   1  18
BRANCH  15  34
HETATM   34  O4  UNL     1      -3.072  51.637 -19.468  1.00  0.00    -0.389 OA
HETATM   35  H44 UNL     1      -3.716  52.089 -18.895  1.00  0.00     0.210 HD
ENDBRANCH  15  34
BRANCH  11  36
HETATM   36  C26 UNL     1      -5.887  46.906 -22.524  1.00  0.00     0.265 C 
HETATM   37  O3  UNL     1      -6.643  46.123 -21.967  1.00  0.00    -0.302 OA
ENDBRANCH  11  36
TORSDOF 7
ENDMDL
