MODEL 1
REMARK minimizedAffinity -8.01481342
REMARK CNNscore 0.308064997
REMARK CNNaffinity 7.51560259
REMARK  9 active torsions:
REMARK  status: ('A' for Active; 'I' for Inactive)
REMARK       I    between atoms: N1_1  and  C1_2 
REMARK       I    between atoms: C1_2  and  N2_3 
REMARK    1  A    between atoms: N3_4  and  C2_6 
REMARK    2  A    between atoms: C2_6  and  C3_7 
REMARK    3  A    between atoms: C3_7  and  C4_8 
REMARK    4  A    between atoms: C4_8  and  C5_9 
REMARK    5  A    between atoms: C5_9  and  O1_10 
REMARK    6  A    between atoms: C19_25  and  S1_26 
REMARK    7  A    between atoms: C28_38  and  C29_39 
REMARK    8  A    between atoms: C29_39  and  O6_40 
REMARK    9  A    between atoms: C35_46  and  O7_47 
ROOT
HETATM    1  C2  UNL     1       1.452  52.393 -10.637  1.00  0.00     0.171 C 
HETATM    2  O2  UNL     1       1.810  53.688 -11.256  1.00  0.00    -0.316 OA
HETATM    3  C11 UNL     1       2.075  54.738 -10.418  1.00  0.00     0.072 C 
HETATM    4  C12 UNL     1       3.321  55.349 -10.565  1.00  0.00     0.037 C 
HETATM    5  C13 UNL     1       3.774  56.248  -9.596  1.00  0.00     0.010 C 
HETATM    6  C14 UNL     1       2.972  56.565  -8.491  1.00  0.00    -0.058 C 
HETATM    7  C15 UNL     1       1.660  56.079  -8.462  1.00  0.00     0.010 C 
HETATM    8  C16 UNL     1       1.209  55.162  -9.420  1.00  0.00     0.037 C 
HETATM    9  C17 UNL     1       3.546  57.412  -7.381  1.00  0.00     0.040 C 
HETATM   10  C18 UNL     1       3.143  57.111  -5.926  1.00  0.00     0.028 C 
HETATM   11  C19 UNL     1       3.482  55.736  -5.245  1.00  0.00     0.140 C 
HETATM   12  C20 UNL     1       4.636  54.903  -5.894  1.00  0.00     0.053 C 
HETATM   13  C21 UNL     1       5.990  55.316  -5.239  1.00  0.00    -0.013 C 
HETATM   14  C22 UNL     1       6.476  54.498  -4.278  1.00  0.00    -0.050 C 
HETATM   15  C23 UNL     1       5.444  53.610  -3.608  1.00  0.00     0.043 C 
HETATM   16  C24 UNL     1       5.026  52.578  -4.639  1.00  0.00     0.016 C 
HETATM   17  C25 UNL     1       6.102  51.457  -4.745  1.00  0.00     0.039 C 
HETATM   18  C26 UNL     1       7.550  51.658  -4.175  1.00  0.00     0.123 C 
HETATM   19  C27 UNL     1       7.718  51.252  -2.681  1.00  0.00     0.039 C 
HETATM   20  C28 UNL     1       9.130  50.830  -2.155  1.00  0.00     0.023 C 
HETATM   21  C30 UNL     1       9.683  51.761  -1.036  1.00  0.00     0.101 C 
HETATM   22  C31 UNL     1      10.022  53.093  -1.541  1.00  0.00    -0.101 C 
HETATM   23  C32 UNL     1      10.160  54.103  -2.174  1.00  0.00    -0.066 C 
HETATM   24  C33 UNL     1      10.134  55.076  -3.225  1.00  0.00     0.029 C 
HETATM   25  C34 UNL     1      11.239  55.920  -3.394  1.00  0.00     0.057 C 
HETATM   26  C35 UNL     1      11.323  56.700  -4.540  1.00  0.00     0.067 C 
HETATM   27  C36 UNL     1      10.353  56.611  -5.529  1.00  0.00     0.037 C 
HETATM   28  C37 UNL     1       9.248  55.766  -5.351  1.00  0.00     0.014 C 
HETATM   29  C38 UNL     1       9.071  55.038  -4.164  1.00  0.00    -0.006 C 
HETATM   30  C39 UNL     1       7.885  54.110  -3.908  1.00  0.00     0.185 C 
HETATM   31  O8  UNL     1       8.204  52.867  -4.567  1.00  0.00    -0.371 OA
HETATM   32  C40 UNL     1       4.793  53.315  -6.006  1.00  0.00     0.104 A 
HETATM   33  C41 UNL     1       3.973  52.652  -7.100  1.00  0.00     0.082 A 
HETATM   34  C42 UNL     1       2.629  52.351  -6.945  1.00  0.00     0.010 C 
HETATM   35  C43 UNL     1       1.818  52.173  -8.074  1.00  0.00     0.011 C 
HETATM   36  C44 UNL     1       2.346  52.168  -9.379  1.00  0.00    -0.003 C 
HETATM   37  C45 UNL     1       3.744  52.216  -9.495  1.00  0.00     0.011 C 
HETATM   38  C46 UNL     1       4.539  52.484  -8.378  1.00  0.00     0.010 C 
HETATM   39 NA1  UNL     1       4.311  53.288  -7.759  1.00  0.00    -0.398 Na
ATOM     40  HA1 UNL     1       4.358  53.655  -8.709  1.00  0.00     0.155 HD
ENDROOT
BRANCH   1  41
HETATM   41  N3  UNL     1       0.001  52.251 -10.417  1.00  0.00    -0.331 N 
HETATM   42  C1  UNL     1      -0.904  52.538 -11.264  1.00  0.00     0.146 C 
HETATM   43  N1  UNL     1      -0.844  52.985 -12.536  1.00  0.00    -0.376 N 
HETATM   44  N2  UNL     1      -2.205  52.363 -10.924  1.00  0.00    -0.274 NA
HETATM   45  H1  UNL     1       0.071  53.215 -12.900  1.00  0.00     0.158 HD
HETATM   46  H2  UNL     1      -1.563  53.654 -12.782  1.00  0.00     0.158 HD
HETATM   47  H3  UNL     1      -2.685  51.821 -11.633  1.00  0.00     0.127 HD
HETATM   48  H4  UNL     1      -2.250  51.851 -10.045  1.00  0.00     0.127 HD
ATOM     49  H3  UNL     1      -0.303  51.894  -9.510  1.00  0.00     0.165 HD
ENDBRANCH   1  41
BRANCH   1  50
HETATM   50  C3  UNL     1       1.855  51.374 -11.758  1.00  0.00     0.070 C 
BRANCH  50  51
HETATM   51  C4  UNL     1       2.720  51.887 -12.938  1.00  0.00     0.043 C 
BRANCH  51  52
HETATM   52  C5  UNL     1       3.051  50.916 -14.106  1.00  0.00     0.058 C 
HETATM   53  C6  UNL     1       3.861  51.567 -15.244  1.00  0.00     0.038 C 
HETATM   54  C7  UNL     1       3.113  52.687 -15.971  1.00  0.00     0.003 C 
HETATM   55  C8  UNL     1       1.602  52.468 -16.040  1.00  0.00     0.000 C 
HETATM   56  C9  UNL     1       1.248  50.992 -15.982  1.00  0.00     0.003 C 
HETATM   57  C10 UNL     1       1.759  50.305 -14.713  1.00  0.00     0.038 C 
BRANCH  52  58
HETATM   58  O1  UNL     1       3.786  49.807 -13.578  1.00  0.00    -0.390 OA
HETATM   59  H9  UNL     1       4.703  50.127 -13.444  1.00  0.00     0.210 HD
ENDBRANCH  52  58
ENDBRANCH  51  52
ENDBRANCH  50  51
ENDBRANCH   1  50
BRANCH  11  60
HETATM   60  S1  UNL     1       1.967  54.961  -4.643  1.00  0.00     0.106 S 
HETATM   61  O3  UNL     1       2.476  53.825  -3.870  1.00  0.00    -0.595 OA
HETATM   62  O4  UNL     1       1.298  55.968  -3.827  1.00  0.00    -0.595 OA
HETATM   63  O5  UNL     1       1.225  54.551  -5.830  1.00  0.00    -0.595 OA
ENDBRANCH  11  60
BRANCH  20  64
HETATM   64  C29 UNL     1      10.178  50.538  -3.237  1.00  0.00     0.169 C 
BRANCH  64  65
HETATM   65  O6  UNL     1      11.339  49.951  -2.653  1.00  0.00    -0.400 OA
HETATM   66  H42 UNL     1      11.110  49.038  -2.407  1.00  0.00     0.209 HD
ENDBRANCH  64  65
ENDBRANCH  20  64
BRANCH  26  67
HETATM   67  O7  UNL     1      12.388  57.526  -4.761  1.00  0.00    -0.361 OA
HETATM   68  H46 UNL     1      12.955  57.497  -3.977  1.00  0.00     0.217 HD
ENDBRANCH  26  67
TORSDOF 9
ENDMDL
MODEL 2
REMARK minimizedAffinity -8.93164921
REMARK CNNscore 0.28129378
REMARK CNNaffinity 6.4304986
REMARK  9 active torsions:
REMARK  status: ('A' for Active; 'I' for Inactive)
REMARK       I    between atoms: N1_1  and  C1_2 
REMARK       I    between atoms: C1_2  and  N2_3 
REMARK    1  A    between atoms: N3_4  and  C2_6 
REMARK    2  A    between atoms: C2_6  and  C3_7 
REMARK    3  A    between atoms: C3_7  and  C4_8 
REMARK    4  A    between atoms: C4_8  and  C5_9 
REMARK    5  A    between atoms: C5_9  and  O1_10 
REMARK    6  A    between atoms: C19_25  and  S1_26 
REMARK    7  A    between atoms: C28_38  and  C29_39 
REMARK    8  A    between atoms: C29_39  and  O6_40 
REMARK    9  A    between atoms: C35_46  and  O7_47 
ROOT
HETATM    1  C2  UNL     1     -10.645  46.855 -27.412  1.00  0.00     0.171 C 
HETATM    2  O2  UNL     1      -9.938  45.928 -26.501  1.00  0.00    -0.316 OA
HETATM    3  C11 UNL     1     -10.636  45.439 -25.430  1.00  0.00     0.072 C 
HETATM    4  C12 UNL     1     -10.716  44.050 -25.323  1.00  0.00     0.037 C 
HETATM    5  C13 UNL     1     -11.612  43.471 -24.421  1.00  0.00     0.010 C 
HETATM    6  C14 UNL     1     -12.410  44.277 -23.596  1.00  0.00    -0.058 C 
HETATM    7  C15 UNL     1     -12.180  45.658 -23.595  1.00  0.00     0.010 C 
HETATM    8  C16 UNL     1     -11.299  46.243 -24.513  1.00  0.00     0.037 C 
HETATM    9  C17 UNL     1     -13.479  43.634 -22.746  1.00  0.00     0.040 C 
HETATM   10  C18 UNL     1     -14.811  44.376 -22.534  1.00  0.00     0.028 C 
HETATM   11  C19 UNL     1     -15.767  44.711 -23.734  1.00  0.00     0.140 C 
HETATM   12  C20 UNL     1     -15.578  43.864 -25.035  1.00  0.00     0.053 C 
HETATM   13  C21 UNL     1     -16.482  42.595 -24.950  1.00  0.00    -0.013 C 
HETATM   14  C22 UNL     1     -17.653  42.638 -25.625  1.00  0.00    -0.050 C 
HETATM   15  C23 UNL     1     -18.171  44.031 -25.927  1.00  0.00     0.043 C 
HETATM   16  C24 UNL     1     -17.247  44.618 -26.978  1.00  0.00     0.016 C 
HETATM   17  C25 UNL     1     -17.600  44.047 -28.384  1.00  0.00     0.039 C 
HETATM   18  C26 UNL     1     -18.481  42.758 -28.545  1.00  0.00     0.123 C 
HETATM   19  C27 UNL     1     -20.014  43.028 -28.608  1.00  0.00     0.039 C 
HETATM   20  C28 UNL     1     -20.944  42.001 -29.335  1.00  0.00     0.023 C 
HETATM   21  C30 UNL     1     -22.003  41.346 -28.400  1.00  0.00     0.101 C 
HETATM   22  C31 UNL     1     -21.394  40.443 -27.421  1.00  0.00    -0.101 C 
HETATM   23  C32 UNL     1     -20.664  39.820 -26.701  1.00  0.00    -0.066 C 
HETATM   24  C33 UNL     1     -19.499  39.286 -26.060  1.00  0.00     0.029 C 
HETATM   25  C34 UNL     1     -19.485  37.933 -25.700  1.00  0.00     0.057 C 
HETATM   26  C35 UNL     1     -18.288  37.355 -25.295  1.00  0.00     0.067 C 
HETATM   27  C36 UNL     1     -17.112  38.092 -25.294  1.00  0.00     0.037 C 
HETATM   28  C37 UNL     1     -17.135  39.447 -25.653  1.00  0.00     0.014 C 
HETATM   29  C38 UNL     1     -18.338  40.098 -25.969  1.00  0.00    -0.006 C 
HETATM   30  C39 UNL     1     -18.428  41.572 -26.357  1.00  0.00     0.185 C 
HETATM   31  O8  UNL     1     -18.081  41.636 -27.757  1.00  0.00    -0.371 OA
HETATM   32  C40 UNL     1     -15.766  44.303 -26.561  1.00  0.00     0.104 A 
HETATM   33  C41 UNL     1     -14.620  45.103 -27.157  1.00  0.00     0.082 A 
HETATM   34  C42 UNL     1     -14.472  46.465 -26.947  1.00  0.00     0.010 C 
HETATM   35  C43 UNL     1     -13.217  47.067 -27.113  1.00  0.00     0.011 C 
HETATM   36  C44 UNL     1     -12.109  46.355 -27.610  1.00  0.00    -0.003 C 
HETATM   37  C45 UNL     1     -12.347  45.047 -28.060  1.00  0.00     0.011 C 
HETATM   38  C46 UNL     1     -13.573  44.424 -27.809  1.00  0.00     0.010 C 
HETATM   39 NA1  UNL     1     -13.975  44.437 -26.851  1.00  0.00    -0.398 Na
ATOM     40  HA1 UNL     1     -13.023  44.084 -26.762  1.00  0.00     0.155 HD
ENDROOT
BRANCH   1  41
HETATM   41  N3  UNL     1     -10.507  48.266 -27.004  1.00  0.00    -0.331 N 
HETATM   42  C1  UNL     1      -9.507  48.760 -26.393  1.00  0.00     0.146 C 
HETATM   43  N1  UNL     1      -8.337  48.224 -25.988  1.00  0.00    -0.376 N 
HETATM   44  N2  UNL     1      -9.516  50.078 -26.073  1.00  0.00    -0.274 NA
HETATM   45  H1  UNL     1      -8.220  47.227 -26.112  1.00  0.00     0.158 HD
HETATM   46  H2  UNL     1      -8.002  48.568 -25.096  1.00  0.00     0.158 HD
HETATM   47  H3  UNL     1      -8.663  50.524 -26.391  1.00  0.00     0.127 HD
HETATM   48  H4  UNL     1     -10.302  50.526 -26.540  1.00  0.00     0.127 HD
ATOM     49  H3  UNL     1     -11.276  48.897 -27.232  1.00  0.00     0.165 HD
ENDBRANCH   1  41
BRANCH   1  50
HETATM   50  C3  UNL     1      -9.842  46.675 -28.747  1.00  0.00     0.070 C 
BRANCH  50  51
HETATM   51  C4  UNL     1      -9.893  47.817 -29.794  1.00  0.00     0.043 C 
BRANCH  51  52
HETATM   52  C5  UNL     1      -8.618  48.671 -30.037  1.00  0.00     0.058 C 
HETATM   53  C6  UNL     1      -8.408  49.066 -31.513  1.00  0.00     0.038 C 
HETATM   54  C7  UNL     1      -8.169  47.874 -32.442  1.00  0.00     0.003 C 
HETATM   55  C8  UNL     1      -7.427  46.718 -31.774  1.00  0.00     0.000 C 
HETATM   56  C9  UNL     1      -6.553  47.201 -30.629  1.00  0.00     0.003 C 
HETATM   57  C10 UNL     1      -7.344  47.935 -29.543  1.00  0.00     0.038 C 
BRANCH  52  58
HETATM   58  O1  UNL     1      -8.707  49.856 -29.239  1.00  0.00    -0.390 OA
HETATM   59  H9  UNL     1      -9.326  50.454 -29.709  1.00  0.00     0.210 HD
ENDBRANCH  52  58
ENDBRANCH  51  52
ENDBRANCH  50  51
ENDBRANCH   1  50
BRANCH  11  60
HETATM   60  S1  UNL     1     -16.079  46.488 -23.789  1.00  0.00     0.106 S 
HETATM   61  O3  UNL     1     -14.771  47.029 -24.171  1.00  0.00    -0.595 OA
HETATM   62  O4  UNL     1     -17.110  46.685 -24.802  1.00  0.00    -0.595 OA
HETATM   63  O5  UNL     1     -16.477  46.870 -22.437  1.00  0.00    -0.595 OA
ENDBRANCH  11  60
BRANCH  20  64
HETATM   64  C29 UNL     1     -20.227  40.967 -30.213  1.00  0.00     0.169 C 
BRANCH  64  65
HETATM   65  O6  UNL     1     -21.164  40.308 -31.063  1.00  0.00    -0.400 OA
HETATM   66  H42 UNL     1     -21.426  40.942 -31.753  1.00  0.00     0.209 HD
ENDBRANCH  64  65
ENDBRANCH  20  64
BRANCH  26  67
HETATM   67  O7  UNL     1     -18.217  36.036 -24.951  1.00  0.00    -0.361 OA
HETATM   68  H46 UNL     1     -19.115  35.672 -24.976  1.00  0.00     0.217 HD
ENDBRANCH  26  67
TORSDOF 9
ENDMDL
MODEL 3
REMARK minimizedAffinity -8.14321613
REMARK CNNscore 0.238824084
REMARK CNNaffinity 7.61695337
REMARK  9 active torsions:
REMARK  status: ('A' for Active; 'I' for Inactive)
REMARK       I    between atoms: N1_1  and  C1_2 
REMARK       I    between atoms: C1_2  and  N2_3 
REMARK    1  A    between atoms: N3_4  and  C2_6 
REMARK    2  A    between atoms: C2_6  and  C3_7 
REMARK    3  A    between atoms: C3_7  and  C4_8 
REMARK    4  A    between atoms: C4_8  and  C5_9 
REMARK    5  A    between atoms: C5_9  and  O1_10 
REMARK    6  A    between atoms: C19_25  and  S1_26 
REMARK    7  A    between atoms: C28_38  and  C29_39 
REMARK    8  A    between atoms: C29_39  and  O6_40 
REMARK    9  A    between atoms: C35_46  and  O7_47 
ROOT
HETATM    1  C2  UNL     1     -16.380  44.548 -25.581  1.00  0.00     0.171 C 
HETATM    2  O2  UNL     1     -15.504  43.357 -25.517  1.00  0.00    -0.316 OA
HETATM    3  C11 UNL     1     -16.035  42.160 -25.916  1.00  0.00     0.072 C 
HETATM    4  C12 UNL     1     -15.355  41.489 -26.934  1.00  0.00     0.037 C 
HETATM    5  C13 UNL     1     -15.957  40.403 -27.574  1.00  0.00     0.010 C 
HETATM    6  C14 UNL     1     -17.227  39.960 -27.180  1.00  0.00    -0.058 C 
HETATM    7  C15 UNL     1     -17.806  40.534 -26.042  1.00  0.00     0.010 C 
HETATM    8  C16 UNL     1     -17.217  41.637 -25.411  1.00  0.00     0.037 C 
HETATM    9  C17 UNL     1     -17.921  38.891 -27.988  1.00  0.00     0.040 C 
HETATM   10  C18 UNL     1     -19.448  38.963 -28.171  1.00  0.00     0.028 C 
HETATM   11  C19 UNL     1     -20.132  40.168 -28.913  1.00  0.00     0.140 C 
HETATM   12  C20 UNL     1     -19.220  41.009 -29.865  1.00  0.00     0.053 C 
HETATM   13  C21 UNL     1     -19.264  40.384 -31.293  1.00  0.00    -0.013 C 
HETATM   14  C22 UNL     1     -20.076  40.982 -32.193  1.00  0.00    -0.050 C 
HETATM   15  C23 UNL     1     -21.194  41.816 -31.597  1.00  0.00     0.043 C 
HETATM   16  C24 UNL     1     -20.540  43.042 -30.985  1.00  0.00     0.016 C 
HETATM   17  C25 UNL     1     -20.194  44.077 -32.096  1.00  0.00     0.039 C 
HETATM   18  C26 UNL     1     -20.153  43.668 -33.610  1.00  0.00     0.123 C 
HETATM   19  C27 UNL     1     -21.518  43.793 -34.349  1.00  0.00     0.039 C 
HETATM   20  C28 UNL     1     -21.535  44.006 -35.900  1.00  0.00     0.023 C 
HETATM   21  C30 UNL     1     -22.233  42.853 -36.681  1.00  0.00     0.101 C 
HETATM   22  C31 UNL     1     -21.464  41.607 -36.634  1.00  0.00    -0.101 C 
HETATM   23  C32 UNL     1     -20.695  40.716 -36.401  1.00  0.00    -0.066 C 
HETATM   24  C33 UNL     1     -19.608  39.947 -35.873  1.00  0.00     0.029 C 
HETATM   25  C34 UNL     1     -18.930  39.062 -36.721  1.00  0.00     0.057 C 
HETATM   26  C35 UNL     1     -17.741  38.490 -36.287  1.00  0.00     0.067 C 
HETATM   27  C36 UNL     1     -17.204  38.826 -35.051  1.00  0.00     0.037 C 
HETATM   28  C37 UNL     1     -17.891  39.710 -34.207  1.00  0.00     0.014 C 
HETATM   29  C38 UNL     1     -19.145  40.231 -34.562  1.00  0.00    -0.006 C 
HETATM   30  C39 UNL     1     -19.945  41.189 -33.681  1.00  0.00     0.185 C 
HETATM   31  O8  UNL     1     -19.388  42.500 -33.913  1.00  0.00    -0.371 OA
HETATM   32  C40 UNL     1     -19.272  42.575 -30.186  1.00  0.00     0.104 A 
HETATM   33  C41 UNL     1     -18.660  43.480 -29.130  1.00  0.00     0.082 A 
HETATM   34  C42 UNL     1     -19.341  43.854 -27.982  1.00  0.00     0.010 C 
HETATM   35  C43 UNL     1     -18.629  44.288 -26.856  1.00  0.00     0.011 C 
HETATM   36  C44 UNL     1     -17.234  44.480 -26.885  1.00  0.00    -0.003 C 
HETATM   37  C45 UNL     1     -16.602  44.345 -28.130  1.00  0.00     0.011 C 
HETATM   38  C46 UNL     1     -17.298  43.825 -29.225  1.00  0.00     0.010 C 
HETATM   39 NA1  UNL     1     -17.843  42.946 -29.123  1.00  0.00    -0.398 Na
ATOM     40  HA1 UNL     1     -16.903  42.747 -28.781  1.00  0.00     0.155 HD
ENDROOT
BRANCH   1  41
HETATM   41  N3  UNL     1     -17.140  44.761 -24.335  1.00  0.00    -0.331 N 
HETATM   42  C1  UNL     1     -17.718  45.844 -24.002  1.00  0.00     0.146 C 
HETATM   43  N1  UNL     1     -17.852  47.030 -24.630  1.00  0.00    -0.376 N 
HETATM   44  N2  UNL     1     -18.379  45.901 -22.819  1.00  0.00    -0.274 NA
HETATM   45  H1  UNL     1     -17.354  47.147 -25.503  1.00  0.00     0.158 HD
HETATM   46  H2  UNL     1     -17.804  47.838 -24.021  1.00  0.00     0.158 HD
HETATM   47  H3  UNL     1     -19.320  46.253 -22.957  1.00  0.00     0.127 HD
HETATM   48  H4  UNL     1     -18.445  44.961 -22.432  1.00  0.00     0.127 HD
ATOM     49  H3  UNL     1     -17.208  43.975 -23.688  1.00  0.00     0.165 HD
ENDBRANCH   1  41
BRANCH   1  50
HETATM   50  C3  UNL     1     -15.337  45.713 -25.696  1.00  0.00     0.070 C 
BRANCH  50  51
HETATM   51  C4  UNL     1     -13.837  45.344 -25.829  1.00  0.00     0.043 C 
BRANCH  51  52
HETATM   52  C5  UNL     1     -12.848  46.406 -26.385  1.00  0.00     0.058 C 
HETATM   53  C6  UNL     1     -13.368  47.144 -27.635  1.00  0.00     0.038 C 
HETATM   54  C7  UNL     1     -13.567  46.234 -28.850  1.00  0.00     0.003 C 
HETATM   55  C8  UNL     1     -12.570  45.078 -28.917  1.00  0.00     0.000 C 
HETATM   56  C9  UNL     1     -11.272  45.417 -28.205  1.00  0.00     0.003 C 
HETATM   57  C10 UNL     1     -11.474  45.770 -26.729  1.00  0.00     0.038 C 
BRANCH  52  58
HETATM   58  O1  UNL     1     -12.579  47.359 -25.352  1.00  0.00    -0.390 OA
HETATM   59  H9  UNL     1     -13.360  47.950 -25.317  1.00  0.00     0.210 HD
ENDBRANCH  52  58
ENDBRANCH  51  52
ENDBRANCH  50  51
ENDBRANCH   1  50
BRANCH  11  60
HETATM   60  S1  UNL     1     -21.352  40.940 -27.829  1.00  0.00     0.106 S 
HETATM   61  O3  UNL     1     -22.025  41.881 -28.728  1.00  0.00    -0.595 OA
HETATM   62  O4  UNL     1     -22.215  39.861 -27.362  1.00  0.00    -0.595 OA
HETATM   63  O5  UNL     1     -20.591  41.607 -26.777  1.00  0.00    -0.595 OA
ENDBRANCH  11  60
BRANCH  20  64
HETATM   64  C29 UNL     1     -20.191  44.400 -36.526  1.00  0.00     0.169 C 
BRANCH  64  65
HETATM   65  O6  UNL     1     -19.832  45.723 -36.129  1.00  0.00    -0.400 OA
HETATM   66  H42 UNL     1     -19.563  45.682 -35.195  1.00  0.00     0.209 HD
ENDBRANCH  64  65
ENDBRANCH  20  64
BRANCH  26  67
HETATM   67  O7  UNL     1     -17.032  37.636 -37.082  1.00  0.00    -0.361 OA
HETATM   68  H46 UNL     1     -17.546  37.484 -37.888  1.00  0.00     0.217 HD
ENDBRANCH  26  67
TORSDOF 9
ENDMDL
MODEL 4
REMARK minimizedAffinity -8.41788197
REMARK CNNscore 0.219488904
REMARK CNNaffinity 7.31109858
REMARK  9 active torsions:
REMARK  status: ('A' for Active; 'I' for Inactive)
REMARK       I    between atoms: N1_1  and  C1_2 
REMARK       I    between atoms: C1_2  and  N2_3 
REMARK    1  A    between atoms: N3_4  and  C2_6 
REMARK    2  A    between atoms: C2_6  and  C3_7 
REMARK    3  A    between atoms: C3_7  and  C4_8 
REMARK    4  A    between atoms: C4_8  and  C5_9 
REMARK    5  A    between atoms: C5_9  and  O1_10 
REMARK    6  A    between atoms: C19_25  and  S1_26 
REMARK    7  A    between atoms: C28_38  and  C29_39 
REMARK    8  A    between atoms: C29_39  and  O6_40 
REMARK    9  A    between atoms: C35_46  and  O7_47 
ROOT
HETATM    1  C2  UNL     1       2.680  52.810 -10.413  1.00  0.00     0.171 C 
HETATM    2  O2  UNL     1       2.552  54.201 -10.904  1.00  0.00    -0.316 OA
HETATM    3  C11 UNL     1       2.511  55.200  -9.969  1.00  0.00     0.072 C 
HETATM    4  C12 UNL     1       3.475  56.202 -10.089  1.00  0.00     0.037 C 
HETATM    5  C13 UNL     1       3.670  57.110  -9.046  1.00  0.00     0.010 C 
HETATM    6  C14 UNL     1       2.881  57.043  -7.889  1.00  0.00    -0.058 C 
HETATM    7  C15 UNL     1       1.806  56.146  -7.870  1.00  0.00     0.010 C 
HETATM    8  C16 UNL     1       1.621  55.220  -8.904  1.00  0.00     0.037 C 
HETATM    9  C17 UNL     1       3.215  57.930  -6.714  1.00  0.00     0.040 C 
HETATM   10  C18 UNL     1       3.028  57.384  -5.287  1.00  0.00     0.028 C 
HETATM   11  C19 UNL     1       3.844  56.146  -4.766  1.00  0.00     0.140 C 
HETATM   12  C20 UNL     1       5.163  55.806  -5.534  1.00  0.00     0.053 C 
HETATM   13  C21 UNL     1       6.345  56.587  -4.882  1.00  0.00    -0.013 C 
HETATM   14  C22 UNL     1       7.133  55.896  -4.029  1.00  0.00    -0.050 C 
HETATM   15  C23 UNL     1       6.496  54.659  -3.424  1.00  0.00     0.043 C 
HETATM   16  C24 UNL     1       6.374  53.642  -4.544  1.00  0.00     0.016 C 
HETATM   17  C25 UNL     1       7.750  52.959  -4.802  1.00  0.00     0.039 C 
HETATM   18  C26 UNL     1       9.085  53.579  -4.259  1.00  0.00     0.123 C 
HETATM   19  C27 UNL     1       9.473  53.121  -2.823  1.00  0.00     0.039 C 
HETATM   20  C28 UNL     1      10.977  53.149  -2.388  1.00  0.00     0.023 C 
HETATM   21  C30 UNL     1      11.264  54.108  -1.195  1.00  0.00     0.101 C 
HETATM   22  C31 UNL     1      11.113  55.516  -1.568  1.00  0.00    -0.101 C 
HETATM   23  C32 UNL     1      10.871  56.566  -2.095  1.00  0.00    -0.066 C 
HETATM   24  C33 UNL     1      10.459  57.565  -3.036  1.00  0.00     0.029 C 
HETATM   25  C34 UNL     1      11.212  58.740  -3.151  1.00  0.00     0.057 C 
HETATM   26  C35 UNL     1      10.961  59.602  -4.210  1.00  0.00     0.067 C 
HETATM   27  C36 UNL     1      10.012  59.282  -5.172  1.00  0.00     0.037 C 
HETATM   28  C37 UNL     1       9.260  58.105  -5.050  1.00  0.00     0.014 C 
HETATM   29  C38 UNL     1       9.409  57.257  -3.941  1.00  0.00    -0.006 C 
HETATM   30  C39 UNL     1       8.613  55.968  -3.746  1.00  0.00     0.185 C 
HETATM   31  O8  UNL     1       9.279  54.967  -4.543  1.00  0.00    -0.371 OA
HETATM   32  C40 UNL     1       5.825  54.378  -5.818  1.00  0.00     0.104 A 
HETATM   33  C41 UNL     1       5.199  53.580  -6.949  1.00  0.00     0.082 A 
HETATM   34  C42 UNL     1       4.042  52.835  -6.785  1.00  0.00     0.010 C 
HETATM   35  C43 UNL     1       3.263  52.498  -7.900  1.00  0.00     0.011 C 
HETATM   36  C44 UNL     1       3.678  52.785  -9.214  1.00  0.00    -0.003 C 
HETATM   37  C45 UNL     1       4.972  53.307  -9.369  1.00  0.00     0.011 C 
HETATM   38  C46 UNL     1       5.705  53.724  -8.255  1.00  0.00     0.010 C 
HETATM   39 NA1  UNL     1       5.266  54.348  -7.548  1.00  0.00    -0.398 Na
ATOM     40  HA1 UNL     1       5.129  54.793  -8.456  1.00  0.00     0.155 HD
ENDROOT
BRANCH   1  41
HETATM   41  N3  UNL     1       1.374  52.174 -10.163  1.00  0.00    -0.331 N 
HETATM   42  C1  UNL     1       0.272  52.521 -10.697  1.00  0.00     0.146 C 
HETATM   43  N1  UNL     1      -0.033  53.466 -11.611  1.00  0.00    -0.376 N 
HETATM   44  N2  UNL     1      -0.859  51.849 -10.371  1.00  0.00    -0.274 NA
HETATM   45  H1  UNL     1       0.713  54.084 -11.901  1.00  0.00     0.158 HD
HETATM   46  H2  UNL     1      -0.916  53.936 -11.452  1.00  0.00     0.158 HD
HETATM   47  H3  UNL     1      -1.346  51.549 -11.208  1.00  0.00     0.127 HD
HETATM   48  H4  UNL     1      -0.608  51.021  -9.835  1.00  0.00     0.127 HD
ATOM     49  H3  UNL     1       1.351  51.392  -9.508  1.00  0.00     0.165 HD
ENDBRANCH   1  41
BRANCH   1  50
HETATM   50  C3  UNL     1       3.323  52.088 -11.647  1.00  0.00     0.070 C 
BRANCH  50  51
HETATM   51  C4  UNL     1       2.621  52.224 -13.023  1.00  0.00     0.043 C 
BRANCH  51  52
HETATM   52  C5  UNL     1       2.734  51.057 -14.043  1.00  0.00     0.058 C 
HETATM   53  C6  UNL     1       4.021  51.097 -14.892  1.00  0.00     0.038 C 
HETATM   54  C7  UNL     1       4.119  52.321 -15.805  1.00  0.00     0.003 C 
HETATM   55  C8  UNL     1       2.766  52.812 -16.316  1.00  0.00     0.000 C 
HETATM   56  C9  UNL     1       1.746  51.688 -16.367  1.00  0.00     0.003 C 
HETATM   57  C10 UNL     1       1.516  51.029 -15.004  1.00  0.00     0.038 C 
BRANCH  52  58
HETATM   58  O1  UNL     1       2.681  49.821 -13.324  1.00  0.00    -0.390 OA
HETATM   59  H9  UNL     1       3.569  49.699 -12.926  1.00  0.00     0.210 HD
ENDBRANCH  52  58
ENDBRANCH  51  52
ENDBRANCH  50  51
ENDBRANCH   1  50
BRANCH  11  60
HETATM   60  S1  UNL     1       2.709  54.861  -4.201  1.00  0.00     0.106 S 
HETATM   61  O3  UNL     1       1.844  55.588  -3.267  1.00  0.00    -0.595 OA
HETATM   62  O4  UNL     1       2.013  54.386  -5.392  1.00  0.00    -0.595 OA
HETATM   63  O5  UNL     1       3.536  53.855  -3.541  1.00  0.00    -0.595 OA
ENDBRANCH  11  60
BRANCH  20  64
HETATM   64  C29 UNL     1      11.990  53.320  -3.527  1.00  0.00     0.169 C 
BRANCH  64  65
HETATM   65  O6  UNL     1      11.919  54.644  -4.055  1.00  0.00    -0.400 OA
HETATM   66  H42 UNL     1      12.320  55.239  -3.399  1.00  0.00     0.209 HD
ENDBRANCH  64  65
ENDBRANCH  20  64
BRANCH  26  67
HETATM   67  O7  UNL     1      11.678  60.751  -4.376  1.00  0.00    -0.361 OA
HETATM   68  H46 UNL     1      12.273  60.844  -3.617  1.00  0.00     0.217 HD
ENDBRANCH  26  67
TORSDOF 9
ENDMDL
MODEL 5
REMARK minimizedAffinity -7.99843264
REMARK CNNscore 0.16787295
REMARK CNNaffinity 7.16957808
REMARK  9 active torsions:
REMARK  status: ('A' for Active; 'I' for Inactive)
REMARK       I    between atoms: N1_1  and  C1_2 
REMARK       I    between atoms: C1_2  and  N2_3 
REMARK    1  A    between atoms: N3_4  and  C2_6 
REMARK    2  A    between atoms: C2_6  and  C3_7 
REMARK    3  A    between atoms: C3_7  and  C4_8 
REMARK    4  A    between atoms: C4_8  and  C5_9 
REMARK    5  A    between atoms: C5_9  and  O1_10 
REMARK    6  A    between atoms: C19_25  and  S1_26 
REMARK    7  A    between atoms: C28_38  and  C29_39 
REMARK    8  A    between atoms: C29_39  and  O6_40 
REMARK    9  A    between atoms: C35_46  and  O7_47 
ROOT
HETATM    1  C2  UNL     1      -0.633  52.219 -11.572  1.00  0.00     0.171 C 
HETATM    2  O2  UNL     1      -0.750  53.688 -11.434  1.00  0.00    -0.316 OA
HETATM    3  C11 UNL     1      -0.527  54.226 -10.195  1.00  0.00     0.072 C 
HETATM    4  C12 UNL     1       0.467  55.202 -10.112  1.00  0.00     0.037 C 
HETATM    5  C13 UNL     1       0.935  55.616  -8.863  1.00  0.00     0.010 C 
HETATM    6  C14 UNL     1       0.389  55.081  -7.687  1.00  0.00    -0.058 C 
HETATM    7  C15 UNL     1      -0.726  54.242  -7.795  1.00  0.00     0.010 C 
HETATM    8  C16 UNL     1      -1.184  53.808  -9.046  1.00  0.00     0.037 C 
HETATM    9  C17 UNL     1       1.017  55.424  -6.358  1.00  0.00     0.040 C 
HETATM   10  C18 UNL     1       1.076  54.348  -5.259  1.00  0.00     0.028 C 
HETATM   11  C19 UNL     1       1.882  53.014  -5.455  1.00  0.00     0.140 C 
HETATM   12  C20 UNL     1       2.992  53.025  -6.557  1.00  0.00     0.053 C 
HETATM   13  C21 UNL     1       4.337  53.490  -5.918  1.00  0.00    -0.013 C 
HETATM   14  C22 UNL     1       5.223  52.521  -5.596  1.00  0.00    -0.050 C 
HETATM   15  C23 UNL     1       4.626  51.139  -5.408  1.00  0.00     0.043 C 
HETATM   16  C24 UNL     1       4.207  50.658  -6.785  1.00  0.00     0.016 C 
HETATM   17  C25 UNL     1       5.447  50.149  -7.578  1.00  0.00     0.039 C 
HETATM   18  C26 UNL     1       6.907  50.513  -7.133  1.00  0.00     0.123 C 
HETATM   19  C27 UNL     1       7.537  49.520  -6.112  1.00  0.00     0.039 C 
HETATM   20  C28 UNL     1       9.095  49.385  -6.033  1.00  0.00     0.023 C 
HETATM   21  C30 UNL     1       9.686  49.786  -4.649  1.00  0.00     0.101 C 
HETATM   22  C31 UNL     1       9.572  51.224  -4.394  1.00  0.00    -0.101 C 
HETATM   23  C32 UNL     1       9.311  52.395  -4.399  1.00  0.00    -0.066 C 
HETATM   24  C33 UNL     1       8.798  53.683  -4.758  1.00  0.00     0.029 C 
HETATM   25  C34 UNL     1       9.601  54.813  -4.556  1.00  0.00     0.057 C 
HETATM   26  C35 UNL     1       9.211  56.026  -5.110  1.00  0.00     0.067 C 
HETATM   27  C36 UNL     1       8.068  56.110  -5.893  1.00  0.00     0.037 C 
HETATM   28  C37 UNL     1       7.268  54.976  -6.089  1.00  0.00     0.014 C 
HETATM   29  C38 UNL     1       7.569  53.755  -5.464  1.00  0.00    -0.006 C 
HETATM   30  C39 UNL     1       6.731  52.489  -5.630  1.00  0.00     0.185 C 
HETATM   31  O8  UNL     1       7.147  51.899  -6.879  1.00  0.00    -0.371 OA
HETATM   32  C40 UNL     1       3.473  51.838  -7.515  1.00  0.00     0.104 A 
HETATM   33  C41 UNL     1       2.575  51.556  -8.708  1.00  0.00     0.082 A 
HETATM   34  C42 UNL     1       1.420  50.796  -8.609  1.00  0.00     0.010 C 
HETATM   35  C43 UNL     1       0.411  50.928  -9.573  1.00  0.00     0.011 C 
HETATM   36  C44 UNL     1       0.578  51.724 -10.723  1.00  0.00    -0.003 C 
HETATM   37  C45 UNL     1       1.851  52.276 -10.931  1.00  0.00     0.011 C 
HETATM   38  C46 UNL     1       2.821  52.218  -9.926  1.00  0.00     0.010 C 
HETATM   39 NA1  UNL     1       2.581  52.500  -8.955  1.00  0.00    -0.398 Na
ATOM     40  HA1 UNL     1       2.300  53.271  -9.561  1.00  0.00     0.155 HD
ENDROOT
BRANCH   1  41
HETATM   41  N3  UNL     1      -1.909  51.523 -11.321  1.00  0.00    -0.331 N 
HETATM   42  C1  UNL     1      -3.065  51.995 -11.565  1.00  0.00     0.146 C 
HETATM   43  N1  UNL     1      -3.471  53.157 -12.118  1.00  0.00    -0.376 N 
HETATM   44  N2  UNL     1      -4.158  51.244 -11.279  1.00  0.00    -0.274 NA
HETATM   45  H1  UNL     1      -2.756  53.841 -12.328  1.00  0.00     0.158 HD
HETATM   46  H2  UNL     1      -4.306  53.552 -11.703  1.00  0.00     0.158 HD
HETATM   47  H3  UNL     1      -4.770  51.190 -12.085  1.00  0.00     0.127 HD
HETATM   48  H4  UNL     1      -3.857  50.301 -11.043  1.00  0.00     0.127 HD
ATOM     49  H3  UNL     1      -1.861  50.586 -10.919  1.00  0.00     0.165 HD
ENDBRANCH   1  41
BRANCH   1  50
HETATM   50  C3  UNL     1      -0.307  52.061 -13.097  1.00  0.00     0.070 C 
BRANCH  50  51
HETATM   51  C4  UNL     1       1.173  52.170 -13.545  1.00  0.00     0.043 C 
BRANCH  51  52
HETATM   52  C5  UNL     1       1.790  51.020 -14.390  1.00  0.00     0.058 C 
HETATM   53  C6  UNL     1       3.076  51.422 -15.139  1.00  0.00     0.038 C 
HETATM   54  C7  UNL     1       2.861  52.507 -16.196  1.00  0.00     0.003 C 
HETATM   55  C8  UNL     1       1.489  52.442 -16.867  1.00  0.00     0.000 C 
HETATM   56  C9  UNL     1       0.921  51.033 -16.843  1.00  0.00     0.003 C 
HETATM   57  C10 UNL     1       0.771  50.474 -15.426  1.00  0.00     0.038 C 
BRANCH  52  58
HETATM   58  O1  UNL     1       2.074  49.921 -13.519  1.00  0.00    -0.390 OA
HETATM   59  H9  UNL     1       2.899  50.157 -13.043  1.00  0.00     0.210 HD
ENDBRANCH  52  58
ENDBRANCH  51  52
ENDBRANCH  50  51
ENDBRANCH   1  50
BRANCH  11  60
HETATM   60  S1  UNL     1       0.787  51.598  -5.216  1.00  0.00     0.106 S 
HETATM   61  O3  UNL     1       0.193  51.873  -3.905  1.00  0.00    -0.595 OA
HETATM   62  O4  UNL     1      -0.173  51.643  -6.313  1.00  0.00    -0.595 OA
HETATM   63  O5  UNL     1       1.648  50.419  -5.212  1.00  0.00    -0.595 OA
ENDBRANCH  11  60
BRANCH  20  64
HETATM   64  C29 UNL     1       9.871  50.010  -7.199  1.00  0.00     0.169 C 
BRANCH  64  65
HETATM   65  O6  UNL     1       9.868  49.129  -8.321  1.00  0.00    -0.400 OA
HETATM   66  H42 UNL     1       8.973  49.148  -8.702  1.00  0.00     0.209 HD
ENDBRANCH  64  65
ENDBRANCH  20  64
BRANCH  26  67
HETATM   67  O7  UNL     1       9.967  57.152  -4.957  1.00  0.00    -0.361 OA
HETATM   68  H46 UNL     1      10.707  56.938  -4.369  1.00  0.00     0.217 HD
ENDBRANCH  26  67
TORSDOF 9
ENDMDL
MODEL 6
REMARK minimizedAffinity -7.86068916
REMARK CNNscore 0.157354027
REMARK CNNaffinity 7.00797462
REMARK  9 active torsions:
REMARK  status: ('A' for Active; 'I' for Inactive)
REMARK       I    between atoms: N1_1  and  C1_2 
REMARK       I    between atoms: C1_2  and  N2_3 
REMARK    1  A    between atoms: N3_4  and  C2_6 
REMARK    2  A    between atoms: C2_6  and  C3_7 
REMARK    3  A    between atoms: C3_7  and  C4_8 
REMARK    4  A    between atoms: C4_8  and  C5_9 
REMARK    5  A    between atoms: C5_9  and  O1_10 
REMARK    6  A    between atoms: C19_25  and  S1_26 
REMARK    7  A    between atoms: C28_38  and  C29_39 
REMARK    8  A    between atoms: C29_39  and  O6_40 
REMARK    9  A    between atoms: C35_46  and  O7_47 
ROOT
HETATM    1  C2  UNL     1       0.904  51.797 -11.964  1.00  0.00     0.171 C 
HETATM    2  O2  UNL     1       1.575  50.592 -11.426  1.00  0.00    -0.316 OA
HETATM    3  C11 UNL     1       2.585  50.782 -10.522  1.00  0.00     0.072 C 
HETATM    4  C12 UNL     1       2.439  50.150  -9.286  1.00  0.00     0.037 C 
HETATM    5  C13 UNL     1       3.282  50.491  -8.226  1.00  0.00     0.010 C 
HETATM    6  C14 UNL     1       4.296  51.443  -8.402  1.00  0.00    -0.058 C 
HETATM    7  C15 UNL     1       4.535  51.926  -9.694  1.00  0.00     0.010 C 
HETATM    8  C16 UNL     1       3.680  51.603 -10.754  1.00  0.00     0.037 C 
HETATM    9  C17 UNL     1       5.088  51.909  -7.204  1.00  0.00     0.040 C 
HETATM   10  C18 UNL     1       5.530  53.381  -7.127  1.00  0.00     0.028 C 
HETATM   11  C19 UNL     1       4.484  54.553  -7.070  1.00  0.00     0.140 C 
HETATM   12  C20 UNL     1       3.039  54.175  -6.605  1.00  0.00     0.053 C 
HETATM   13  C21 UNL     1       2.953  54.312  -5.054  1.00  0.00    -0.013 C 
HETATM   14  C22 UNL     1       2.385  55.440  -4.573  1.00  0.00    -0.050 C 
HETATM   15  C23 UNL     1       2.383  56.617  -5.530  1.00  0.00     0.043 C 
HETATM   16  C24 UNL     1       1.394  56.279  -6.630  1.00  0.00     0.016 C 
HETATM   17  C25 UNL     1      -0.064  56.519  -6.136  1.00  0.00     0.039 C 
HETATM   18  C26 UNL     1      -0.396  56.664  -4.609  1.00  0.00     0.123 C 
HETATM   19  C27 UNL     1      -0.297  58.119  -4.063  1.00  0.00     0.039 C 
HETATM   20  C28 UNL     1      -1.132  58.523  -2.801  1.00  0.00     0.023 C 
HETATM   21  C30 UNL     1      -0.259  58.961  -1.589  1.00  0.00     0.101 C 
HETATM   22  C31 UNL     1       0.490  57.842  -1.012  1.00  0.00    -0.101 C 
HETATM   23  C32 UNL     1       1.028  56.798  -0.768  1.00  0.00    -0.066 C 
HETATM   24  C33 UNL     1       1.473  55.438  -0.831  1.00  0.00     0.029 C 
HETATM   25  C34 UNL     1       1.575  54.702   0.356  1.00  0.00     0.057 C 
HETATM   26  C35 UNL     1       1.779  53.330   0.285  1.00  0.00     0.067 C 
HETATM   27  C36 UNL     1       1.831  52.686  -0.944  1.00  0.00     0.037 C 
HETATM   28  C37 UNL     1       1.731  53.429  -2.129  1.00  0.00     0.014 C 
HETATM   29  C38 UNL     1       1.628  54.829  -2.104  1.00  0.00    -0.006 C 
HETATM   30  C39 UNL     1       1.526  55.693  -3.360  1.00  0.00     0.185 C 
HETATM   31  O8  UNL     1       0.141  55.645  -3.763  1.00  0.00    -0.371 OA
HETATM   32  C40 UNL     1       1.638  54.791  -7.070  1.00  0.00     0.104 A 
HETATM   33  C41 UNL     1       1.118  54.297  -8.409  1.00  0.00     0.082 A 
HETATM   34  C42 UNL     1       1.565  54.808  -9.618  1.00  0.00     0.010 C 
HETATM   35  C43 UNL     1       1.423  54.056 -10.792  1.00  0.00     0.011 C 
HETATM   36  C44 UNL     1       0.724  52.834 -10.814  1.00  0.00    -0.003 C 
HETATM   37  C45 UNL     1       0.059  52.464  -9.635  1.00  0.00     0.011 C 
HETATM   38  C46 UNL     1       0.278  53.168  -8.447  1.00  0.00     0.010 C 
HETATM   39 NA1  UNL     1       1.249  53.369  -8.135  1.00  0.00    -0.398 Na
ATOM     40  HA1 UNL     1       1.202  52.366  -8.311  1.00  0.00     0.155 HD
ENDROOT
BRANCH   1  41
HETATM   41  N3  UNL     1       1.554  52.310 -13.184  1.00  0.00    -0.331 N 
HETATM   42  C1  UNL     1       2.153  51.599 -14.054  1.00  0.00     0.146 C 
HETATM   43  N1  UNL     1       2.340  50.268 -14.162  1.00  0.00    -0.376 N 
HETATM   44  N2  UNL     1       2.713  52.207 -15.129  1.00  0.00    -0.274 NA
HETATM   45  H1  UNL     1       2.022  49.694 -13.392  1.00  0.00     0.158 HD
HETATM   46  H2  UNL     1       3.246  49.997 -14.526  1.00  0.00     0.158 HD
HETATM   47  H3  UNL     1       2.407  51.759 -15.986  1.00  0.00     0.127 HD
HETATM   48  H4  UNL     1       2.412  53.179 -15.152  1.00  0.00     0.127 HD
ATOM     49  H3  UNL     1       1.521  53.317 -13.345  1.00  0.00     0.165 HD
ENDBRANCH   1  41
BRANCH   1  50
HETATM   50  C3  UNL     1      -0.495  51.228 -12.384  1.00  0.00     0.070 C 
BRANCH  50  51
HETATM   51  C4  UNL     1      -1.563  52.222 -12.909  1.00  0.00     0.043 C 
BRANCH  51  52
HETATM   52  C5  UNL     1      -3.063  51.821 -12.838  1.00  0.00     0.058 C 
HETATM   53  C6  UNL     1      -4.014  53.014 -12.615  1.00  0.00     0.038 C 
HETATM   54  C7  UNL     1      -3.814  53.719 -11.271  1.00  0.00     0.003 C 
HETATM   55  C8  UNL     1      -3.374  52.781 -10.149  1.00  0.00     0.000 C 
HETATM   56  C9  UNL     1      -3.837  51.356 -10.397  1.00  0.00     0.003 C 
HETATM   57  C10 UNL     1      -3.315  50.779 -11.716  1.00  0.00     0.038 C 
BRANCH  52  58
HETATM   58  O1  UNL     1      -3.414  51.160 -14.058  1.00  0.00    -0.390 OA
HETATM   59  H9  UNL     1      -3.525  51.867 -14.728  1.00  0.00     0.210 HD
ENDBRANCH  52  58
ENDBRANCH  51  52
ENDBRANCH  50  51
ENDBRANCH   1  50
BRANCH  11  60
HETATM   60  S1  UNL     1       4.781  55.703  -8.429  1.00  0.00     0.106 S 
HETATM   61  O3  UNL     1       6.217  55.972  -8.311  1.00  0.00    -0.595 OA
HETATM   62  O4  UNL     1       4.418  54.989  -9.647  1.00  0.00    -0.595 OA
HETATM   63  O5  UNL     1       3.960  56.878  -8.148  1.00  0.00    -0.595 OA
ENDBRANCH  11  60
BRANCH  20  64
HETATM   64  C29 UNL     1      -2.234  57.536  -2.396  1.00  0.00     0.169 C 
BRANCH  64  65
HETATM   65  O6  UNL     1      -3.482  58.216  -2.271  1.00  0.00    -0.400 OA
HETATM   66  H42 UNL     1      -3.788  58.431  -3.169  1.00  0.00     0.209 HD
ENDBRANCH  64  65
ENDBRANCH  20  64
BRANCH  26  67
HETATM   67  O7  UNL     1       1.868  52.566   1.413  1.00  0.00    -0.361 OA
HETATM   68  H46 UNL     1       1.841  53.159   2.178  1.00  0.00     0.217 HD
ENDBRANCH  26  67
TORSDOF 9
ENDMDL
MODEL 7
REMARK minimizedAffinity -8.50309849
REMARK CNNscore 0.152832776
REMARK CNNaffinity 6.45322227
REMARK  9 active torsions:
REMARK  status: ('A' for Active; 'I' for Inactive)
REMARK       I    between atoms: N1_1  and  C1_2 
REMARK       I    between atoms: C1_2  and  N2_3 
REMARK    1  A    between atoms: N3_4  and  C2_6 
REMARK    2  A    between atoms: C2_6  and  C3_7 
REMARK    3  A    between atoms: C3_7  and  C4_8 
REMARK    4  A    between atoms: C4_8  and  C5_9 
REMARK    5  A    between atoms: C5_9  and  O1_10 
REMARK    6  A    between atoms: C19_25  and  S1_26 
REMARK    7  A    between atoms: C28_38  and  C29_39 
REMARK    8  A    between atoms: C29_39  and  O6_40 
REMARK    9  A    between atoms: C35_46  and  O7_47 
ROOT
HETATM    1  C2  UNL     1     -11.284  43.929 -25.884  1.00  0.00     0.171 C 
HETATM    2  O2  UNL     1     -11.696  45.347 -25.787  1.00  0.00    -0.316 OA
HETATM    3  C11 UNL     1     -11.148  46.227 -26.681  1.00  0.00     0.072 C 
HETATM    4  C12 UNL     1     -12.045  46.957 -27.462  1.00  0.00     0.037 C 
HETATM    5  C13 UNL     1     -11.582  47.680 -28.564  1.00  0.00     0.010 C 
HETATM    6  C14 UNL     1     -10.215  47.703 -28.874  1.00  0.00    -0.058 C 
HETATM    7  C15 UNL     1      -9.320  47.113 -27.974  1.00  0.00     0.010 C 
HETATM    8  C16 UNL     1      -9.782  46.370 -26.880  1.00  0.00     0.037 C 
HETATM    9  C17 UNL     1      -9.759  48.357 -30.156  1.00  0.00     0.040 C 
HETATM   10  C18 UNL     1      -8.582  47.739 -30.933  1.00  0.00     0.028 C 
HETATM   11  C19 UNL     1      -8.663  46.290 -31.534  1.00  0.00     0.140 C 
HETATM   12  C20 UNL     1     -10.096  45.701 -31.748  1.00  0.00     0.053 C 
HETATM   13  C21 UNL     1     -10.595  46.087 -33.174  1.00  0.00    -0.013 C 
HETATM   14  C22 UNL     1     -10.494  45.138 -34.131  1.00  0.00    -0.050 C 
HETATM   15  C23 UNL     1      -9.472  44.052 -33.855  1.00  0.00     0.043 C 
HETATM   16  C24 UNL     1     -10.028  43.214 -32.717  1.00  0.00     0.016 C 
HETATM   17  C25 UNL     1     -11.110  42.231 -33.253  1.00  0.00     0.039 C 
HETATM   18  C26 UNL     1     -11.775  42.434 -34.659  1.00  0.00     0.123 C 
HETATM   19  C27 UNL     1     -11.016  41.755 -35.837  1.00  0.00     0.039 C 
HETATM   20  C28 UNL     1     -11.804  41.355 -37.129  1.00  0.00     0.023 C 
HETATM   21  C30 UNL     1     -11.311  42.088 -38.412  1.00  0.00     0.101 C 
HETATM   22  C31 UNL     1     -11.627  43.518 -38.389  1.00  0.00    -0.101 C 
HETATM   23  C32 UNL     1     -11.941  44.641 -38.109  1.00  0.00    -0.066 C 
HETATM   24  C33 UNL     1     -12.410  45.798 -37.406  1.00  0.00     0.029 C 
HETATM   25  C34 UNL     1     -13.172  46.748 -38.098  1.00  0.00     0.057 C 
HETATM   26  C35 UNL     1     -13.821  47.745 -37.380  1.00  0.00     0.067 C 
HETATM   27  C36 UNL     1     -13.758  47.773 -35.994  1.00  0.00     0.037 C 
HETATM   28  C37 UNL     1     -12.990  46.821 -35.309  1.00  0.00     0.014 C 
HETATM   29  C38 UNL     1     -12.236  45.859 -35.999  1.00  0.00    -0.006 C 
HETATM   30  C39 UNL     1     -11.374  44.803 -35.310  1.00  0.00     0.185 C 
HETATM   31  O8  UNL     1     -12.277  43.747 -34.920  1.00  0.00    -0.371 OA
HETATM   32  C40 UNL     1     -10.593  44.187 -31.622  1.00  0.00     0.104 A 
HETATM   33  C41 UNL     1     -10.819  43.689 -30.204  1.00  0.00     0.082 A 
HETATM   34  C42 UNL     1      -9.784  43.251 -29.393  1.00  0.00     0.010 C 
HETATM   35  C43 UNL     1      -9.946  43.235 -28.000  1.00  0.00     0.011 C 
HETATM   36  C44 UNL     1     -11.179  43.533 -27.390  1.00  0.00    -0.003 C 
HETATM   37  C45 UNL     1     -12.278  43.720 -28.241  1.00  0.00     0.011 C 
HETATM   38  C46 UNL     1     -12.094  43.825 -29.623  1.00  0.00     0.010 C 
HETATM   39 NA1  UNL     1     -11.371  44.468 -30.002  1.00  0.00    -0.398 Na
ATOM     40  HA1 UNL     1     -11.946  45.021 -29.366  1.00  0.00     0.155 HD
ENDROOT
BRANCH   1  41
HETATM   41  N3  UNL     1     -10.096  43.626 -25.065  1.00  0.00    -0.331 N 
HETATM   42  C1  UNL     1      -8.888  43.750 -25.445  1.00  0.00     0.146 C 
HETATM   43  N1  UNL     1      -8.342  44.194 -26.596  1.00  0.00    -0.376 N 
HETATM   44  N2  UNL     1      -7.890  43.428 -24.585  1.00  0.00    -0.274 NA
HETATM   45  H1  UNL     1      -8.978  44.415 -27.352  1.00  0.00     0.158 HD
HETATM   46  H2  UNL     1      -7.514  43.692 -26.891  1.00  0.00     0.158 HD
HETATM   47  H3  UNL     1      -7.220  44.187 -24.523  1.00  0.00     0.127 HD
HETATM   48  H4  UNL     1      -8.287  43.277 -23.660  1.00  0.00     0.127 HD
ATOM     49  H3  UNL     1     -10.256  43.289 -24.115  1.00  0.00     0.165 HD
ENDBRANCH   1  41
BRANCH   1  50
HETATM   50  C3  UNL     1     -12.502  43.191 -25.230  1.00  0.00     0.070 C 
BRANCH  50  51
HETATM   51  C4  UNL     1     -13.608  44.049 -24.564  1.00  0.00     0.043 C 
BRANCH  51  52
HETATM   52  C5  UNL     1     -15.085  43.844 -25.001  1.00  0.00     0.058 C 
HETATM   53  C6  UNL     1     -15.432  44.509 -26.348  1.00  0.00     0.038 C 
HETATM   54  C7  UNL     1     -15.320  46.035 -26.329  1.00  0.00     0.003 C 
HETATM   55  C8  UNL     1     -15.668  46.656 -24.977  1.00  0.00     0.000 C 
HETATM   56  C9  UNL     1     -16.625  45.779 -24.188  1.00  0.00     0.003 C 
HETATM   57  C10 UNL     1     -16.070  44.376 -23.925  1.00  0.00     0.038 C 
BRANCH  52  58
HETATM   58  O1  UNL     1     -15.340  42.438 -25.089  1.00  0.00    -0.390 OA
HETATM   59  H9  UNL     1     -14.938  42.141 -25.932  1.00  0.00     0.210 HD
ENDBRANCH  52  58
ENDBRANCH  51  52
ENDBRANCH  50  51
ENDBRANCH   1  50
BRANCH  11  60
HETATM   60  S1  UNL     1      -7.304  45.287 -30.895  1.00  0.00     0.106 S 
HETATM   61  O3  UNL     1      -7.395  44.072 -31.709  1.00  0.00    -0.595 OA
HETATM   62  O4  UNL     1      -6.089  46.059 -31.133  1.00  0.00    -0.595 OA
HETATM   63  O5  UNL     1      -7.606  45.050 -29.487  1.00  0.00    -0.595 OA
ENDBRANCH  11  60
BRANCH  20  64
HETATM   64  C29 UNL     1     -13.332  41.373 -37.002  1.00  0.00     0.169 C 
BRANCH  64  65
HETATM   65  O6  UNL     1     -13.724  40.928 -35.704  1.00  0.00    -0.400 OA
HETATM   66  H42 UNL     1     -13.507  41.638 -35.077  1.00  0.00     0.209 HD
ENDBRANCH  64  65
ENDBRANCH  20  64
BRANCH  26  67
HETATM   67  O7  UNL     1     -14.590  48.684 -38.005  1.00  0.00    -0.361 OA
HETATM   68  H46 UNL     1     -14.511  48.547 -38.961  1.00  0.00     0.217 HD
ENDBRANCH  26  67
TORSDOF 9
ENDMDL
MODEL 8
REMARK minimizedAffinity -10.0442486
REMARK CNNscore 0.145625204
REMARK CNNaffinity 7.99460745
REMARK  9 active torsions:
REMARK  status: ('A' for Active; 'I' for Inactive)
REMARK       I    between atoms: N1_1  and  C1_2 
REMARK       I    between atoms: C1_2  and  N2_3 
REMARK    1  A    between atoms: N3_4  and  C2_6 
REMARK    2  A    between atoms: C2_6  and  C3_7 
REMARK    3  A    between atoms: C3_7  and  C4_8 
REMARK    4  A    between atoms: C4_8  and  C5_9 
REMARK    5  A    between atoms: C5_9  and  O1_10 
REMARK    6  A    between atoms: C19_25  and  S1_26 
REMARK    7  A    between atoms: C28_38  and  C29_39 
REMARK    8  A    between atoms: C29_39  and  O6_40 
REMARK    9  A    between atoms: C35_46  and  O7_47 
ROOT
HETATM    1  C2  UNL     1      -0.725  51.828  -9.370  1.00  0.00     0.171 C 
HETATM    2  O2  UNL     1       0.560  52.555  -9.470  1.00  0.00    -0.316 OA
HETATM    3  C11 UNL     1       1.471  52.107 -10.389  1.00  0.00     0.072 C 
HETATM    4  C12 UNL     1       1.905  53.035 -11.336  1.00  0.00     0.037 C 
HETATM    5  C13 UNL     1       2.626  52.606 -12.453  1.00  0.00     0.010 C 
HETATM    6  C14 UNL     1       2.945  51.250 -12.614  1.00  0.00    -0.058 C 
HETATM    7  C15 UNL     1       2.655  50.371 -11.564  1.00  0.00     0.010 C 
HETATM    8  C16 UNL     1       1.914  50.793 -10.454  1.00  0.00     0.037 C 
HETATM    9  C17 UNL     1       3.584  50.790 -13.902  1.00  0.00     0.040 C 
HETATM   10  C18 UNL     1       3.201  49.414 -14.477  1.00  0.00     0.028 C 
HETATM   11  C19 UNL     1       1.730  49.089 -14.924  1.00  0.00     0.140 C 
HETATM   12  C20 UNL     1       0.806  50.315 -15.227  1.00  0.00     0.053 C 
HETATM   13  C21 UNL     1       0.950  50.698 -16.732  1.00  0.00    -0.013 C 
HETATM   14  C22 UNL     1      -0.023  50.264 -17.565  1.00  0.00    -0.050 C 
HETATM   15  C23 UNL     1      -0.813  49.069 -17.065  1.00  0.00     0.043 C 
HETATM   16  C24 UNL     1      -1.664  49.567 -15.911  1.00  0.00     0.016 C 
HETATM   17  C25 UNL     1      -2.914  50.323 -16.452  1.00  0.00     0.039 C 
HETATM   18  C26 UNL     1      -2.985  50.828 -17.936  1.00  0.00     0.123 C 
HETATM   19  C27 UNL     1      -3.558  49.790 -18.944  1.00  0.00     0.039 C 
HETATM   20  C28 UNL     1      -4.233  50.294 -20.264  1.00  0.00     0.023 C 
HETATM   21  C30 UNL     1      -3.509  49.815 -21.557  1.00  0.00     0.101 C 
HETATM   22  C31 UNL     1      -2.196  50.443 -21.723  1.00  0.00    -0.101 C 
HETATM   23  C32 UNL     1      -1.160  51.034 -21.600  1.00  0.00    -0.066 C 
HETATM   24  C33 UNL     1      -0.093  51.837 -21.080  1.00  0.00     0.029 C 
HETATM   25  C34 UNL     1       0.594  52.696 -21.948  1.00  0.00     0.057 C 
HETATM   26  C35 UNL     1       1.464  53.638 -21.416  1.00  0.00     0.067 C 
HETATM   27  C36 UNL     1       1.616  53.763 -20.042  1.00  0.00     0.037 C 
HETATM   28  C37 UNL     1       0.928  52.898 -19.179  1.00  0.00     0.014 C 
HETATM   29  C38 UNL     1       0.119  51.865 -19.677  1.00  0.00    -0.006 C 
HETATM   30  C39 UNL     1      -0.647  50.886 -18.789  1.00  0.00     0.185 C 
HETATM   31  O8  UNL     1      -1.851  51.573 -18.388  1.00  0.00    -0.371 OA
HETATM   32  C40 UNL     1      -0.768  50.473 -14.994  1.00  0.00     0.104 A 
HETATM   33  C41 UNL     1      -1.191  50.764 -13.564  1.00  0.00     0.082 A 
HETATM   34  C42 UNL     1      -1.307  49.772 -12.603  1.00  0.00     0.010 C 
HETATM   35  C43 UNL     1      -1.251  50.105 -11.243  1.00  0.00     0.011 C 
HETATM   36  C44 UNL     1      -1.203  51.442 -10.804  1.00  0.00    -0.003 C 
HETATM   37  C45 UNL     1      -1.348  52.435 -11.784  1.00  0.00     0.011 C 
HETATM   38  C46 UNL     1      -1.312  52.102 -13.141  1.00  0.00     0.010 C 
HETATM   39 NA1  UNL     1      -0.549  51.498 -13.507  1.00  0.00    -0.398 Na
ATOM     40  HA1 UNL     1      -0.099  52.259 -13.000  1.00  0.00     0.155 HD
ENDROOT
BRANCH   1  41
HETATM   41  N3  UNL     1      -0.674  50.719  -8.399  1.00  0.00    -0.331 N 
HETATM   42  C1  UNL     1      -1.685  50.110  -7.923  1.00  0.00     0.146 C 
HETATM   43  N1  UNL     1      -3.008  50.235  -8.154  1.00  0.00    -0.376 N 
HETATM   44  N2  UNL     1      -1.491  49.108  -7.030  1.00  0.00    -0.274 NA
HETATM   45  H1  UNL     1      -3.300  50.989  -8.761  1.00  0.00     0.158 HD
HETATM   46  H2  UNL     1      -3.592  50.119  -7.335  1.00  0.00     0.158 HD
HETATM   47  H3  UNL     1      -1.995  48.277  -7.317  1.00  0.00     0.127 HD
HETATM   48  H4  UNL     1      -0.498  48.883  -6.997  1.00  0.00     0.127 HD
ATOM     49  H3  UNL     1       0.248  50.415  -8.083  1.00  0.00     0.165 HD
ENDBRANCH   1  41
BRANCH   1  50
HETATM   50  C3  UNL     1      -1.674  52.925  -8.776  1.00  0.00     0.070 C 
BRANCH  50  51
HETATM   51  C4  UNL     1      -1.041  54.068  -7.941  1.00  0.00     0.043 C 
BRANCH  51  52
HETATM   52  C5  UNL     1      -0.352  55.247  -8.682  1.00  0.00     0.058 C 
HETATM   53  C6  UNL     1       1.187  55.223  -8.588  1.00  0.00     0.038 C 
HETATM   54  C7  UNL     1       1.721  55.392  -7.164  1.00  0.00     0.003 C 
HETATM   55  C8  UNL     1       0.845  56.283  -6.285  1.00  0.00     0.000 C 
HETATM   56  C9  UNL     1       0.057  57.283  -7.112  1.00  0.00     0.003 C 
HETATM   57  C10 UNL     1      -0.852  56.616  -8.149  1.00  0.00     0.038 C 
BRANCH  52  58
HETATM   58  O1  UNL     1      -0.742  55.208 -10.058  1.00  0.00    -0.390 OA
HETATM   59  H9  UNL     1      -0.208  54.497 -10.472  1.00  0.00     0.210 HD
ENDBRANCH  52  58
ENDBRANCH  51  52
ENDBRANCH  50  51
ENDBRANCH   1  50
BRANCH  11  60
HETATM   60  S1  UNL     1       1.128  47.636 -14.038  1.00  0.00     0.106 S 
HETATM   61  O3  UNL     1      -0.150  47.365 -14.702  1.00  0.00    -0.595 OA
HETATM   62  O4  UNL     1       2.128  46.595 -14.249  1.00  0.00    -0.595 OA
HETATM   63  O5  UNL     1       0.968  48.050 -12.647  1.00  0.00    -0.595 OA
ENDBRANCH  11  60
BRANCH  20  64
HETATM   64  C29 UNL     1      -4.565  51.791 -20.306  1.00  0.00     0.169 C 
BRANCH  64  65
HETATM   65  O6  UNL     1      -4.957  52.172 -21.623  1.00  0.00    -0.400 OA
HETATM   66  H42 UNL     1      -5.847  51.811 -21.777  1.00  0.00     0.209 HD
ENDBRANCH  64  65
ENDBRANCH  20  64
BRANCH  26  67
HETATM   67  O7  UNL     1       2.143  54.510 -22.217  1.00  0.00    -0.361 OA
HETATM   68  H46 UNL     1       1.953  54.278 -23.138  1.00  0.00     0.217 HD
ENDBRANCH  26  67
TORSDOF 9
ENDMDL
MODEL 9
REMARK minimizedAffinity -7.89788866
REMARK CNNscore 0.116958164
REMARK CNNaffinity 5.68023491
REMARK  9 active torsions:
REMARK  status: ('A' for Active; 'I' for Inactive)
REMARK       I    between atoms: N1_1  and  C1_2 
REMARK       I    between atoms: C1_2  and  N2_3 
REMARK    1  A    between atoms: N3_4  and  C2_6 
REMARK    2  A    between atoms: C2_6  and  C3_7 
REMARK    3  A    between atoms: C3_7  and  C4_8 
REMARK    4  A    between atoms: C4_8  and  C5_9 
REMARK    5  A    between atoms: C5_9  and  O1_10 
REMARK    6  A    between atoms: C19_25  and  S1_26 
REMARK    7  A    between atoms: C28_38  and  C29_39 
REMARK    8  A    between atoms: C29_39  and  O6_40 
REMARK    9  A    between atoms: C35_46  and  O7_47 
ROOT
HETATM    1  C2  UNL     1     -10.297  45.090 -28.990  1.00  0.00     0.171 C 
HETATM    2  O2  UNL     1     -11.272  46.163 -29.287  1.00  0.00    -0.316 OA
HETATM    3  C11 UNL     1     -12.487  46.105 -28.659  1.00  0.00     0.072 C 
HETATM    4  C12 UNL     1     -12.850  47.223 -27.906  1.00  0.00     0.037 C 
HETATM    5  C13 UNL     1     -13.939  47.151 -27.034  1.00  0.00     0.010 C 
HETATM    6  C14 UNL     1     -14.691  45.973 -26.932  1.00  0.00    -0.058 C 
HETATM    7  C15 UNL     1     -14.418  44.931 -27.827  1.00  0.00     0.010 C 
HETATM    8  C16 UNL     1     -13.315  44.991 -28.688  1.00  0.00     0.037 C 
HETATM    9  C17 UNL     1     -15.761  45.868 -25.872  1.00  0.00     0.040 C 
HETATM   10  C18 UNL     1     -15.989  44.516 -25.171  1.00  0.00     0.028 C 
HETATM   11  C19 UNL     1     -14.865  43.836 -24.308  1.00  0.00     0.140 C 
HETATM   12  C20 UNL     1     -13.725  44.771 -23.786  1.00  0.00     0.053 C 
HETATM   13  C21 UNL     1     -14.140  45.351 -22.399  1.00  0.00    -0.013 C 
HETATM   14  C22 UNL     1     -13.608  44.755 -21.307  1.00  0.00    -0.050 C 
HETATM   15  C23 UNL     1     -13.122  43.334 -21.523  1.00  0.00     0.043 C 
HETATM   16  C24 UNL     1     -11.883  43.428 -22.394  1.00  0.00     0.016 C 
HETATM   17  C25 UNL     1     -10.653  43.851 -21.537  1.00  0.00     0.039 C 
HETATM   18  C26 UNL     1     -10.829  44.483 -20.111  1.00  0.00     0.123 C 
HETATM   19  C27 UNL     1     -10.895  43.447 -18.951  1.00  0.00     0.039 C 
HETATM   20  C28 UNL     1     -10.476  43.885 -17.507  1.00  0.00     0.023 C 
HETATM   21  C30 UNL     1     -11.630  43.788 -16.465  1.00  0.00     0.101 C 
HETATM   22  C31 UNL     1     -12.678  44.782 -16.706  1.00  0.00    -0.101 C 
HETATM   23  C32 UNL     1     -13.410  45.627 -17.141  1.00  0.00    -0.066 C 
HETATM   24  C33 UNL     1     -13.997  46.637 -17.970  1.00  0.00     0.029 C 
HETATM   25  C34 UNL     1     -14.591  47.752 -17.364  1.00  0.00     0.057 C 
HETATM   26  C35 UNL     1     -14.952  48.837 -18.152  1.00  0.00     0.067 C 
HETATM   27  C36 UNL     1     -14.685  48.840 -19.514  1.00  0.00     0.037 C 
HETATM   28  C37 UNL     1     -14.094  47.720 -20.115  1.00  0.00     0.014 C 
HETATM   29  C38 UNL     1     -13.807  46.562 -19.375  1.00  0.00    -0.006 C 
HETATM   30  C39 UNL     1     -13.173  45.308 -19.974  1.00  0.00     0.185 C 
HETATM   31  O8  UNL     1     -11.755  45.569 -20.029  1.00  0.00    -0.371 OA
HETATM   32  C40 UNL     1     -12.177  44.441 -23.558  1.00  0.00     0.104 A 
HETATM   33  C41 UNL     1     -11.319  44.431 -24.812  1.00  0.00     0.082 A 
HETATM   34  C42 UNL     1     -11.262  43.343 -25.669  1.00  0.00     0.010 C 
HETATM   35  C43 UNL     1     -10.848  43.518 -26.996  1.00  0.00     0.011 C 
HETATM   36  C44 UNL     1     -10.362  44.753 -27.468  1.00  0.00    -0.003 C 
HETATM   37  C45 UNL     1     -10.185  45.769 -26.518  1.00  0.00     0.011 C 
HETATM   38  C46 UNL     1     -10.683  45.619 -25.220  1.00  0.00     0.010 C 
HETATM   39 NA1  UNL     1     -11.663  45.306 -25.073  1.00  0.00    -0.398 Na
ATOM     40  HA1 UNL     1     -11.704  46.101 -25.711  1.00  0.00     0.155 HD
ENDROOT
BRANCH   1  41
HETATM   41  N3  UNL     1     -10.426  43.938 -29.901  1.00  0.00    -0.331 N 
HETATM   42  C1  UNL     1     -10.870  43.988 -31.092  1.00  0.00     0.146 C 
HETATM   43  N1  UNL     1     -11.292  45.015 -31.859  1.00  0.00    -0.376 N 
HETATM   44  N2  UNL     1     -10.940  42.845 -31.819  1.00  0.00    -0.274 NA
HETATM   45  H1  UNL     1     -11.348  45.925 -31.420  1.00  0.00     0.158 HD
HETATM   46  H2  UNL     1     -12.081  44.800 -32.456  1.00  0.00     0.158 HD
HETATM   47  H3  UNL     1     -10.491  42.971 -32.719  1.00  0.00     0.127 HD
HETATM   48  H4  UNL     1     -10.449  42.106 -31.318  1.00  0.00     0.127 HD
ATOM     49  H3  UNL     1     -10.135  43.026 -29.548  1.00  0.00     0.165 HD
ENDBRANCH   1  41
BRANCH   1  50
HETATM   50  C3  UNL     1      -8.933  45.792 -29.315  1.00  0.00     0.070 C 
BRANCH  50  51
HETATM   51  C4  UNL     1      -8.967  47.158 -30.048  1.00  0.00     0.043 C 
BRANCH  51  52
HETATM   52  C5  UNL     1      -7.971  48.269 -29.613  1.00  0.00     0.058 C 
HETATM   53  C6  UNL     1      -7.254  48.955 -30.794  1.00  0.00     0.038 C 
HETATM   54  C7  UNL     1      -6.348  48.017 -31.594  1.00  0.00     0.003 C 
HETATM   55  C8  UNL     1      -5.701  46.922 -30.746  1.00  0.00     0.000 C 
HETATM   56  C9  UNL     1      -5.557  47.350 -29.296  1.00  0.00     0.003 C 
HETATM   57  C10 UNL     1      -6.894  47.712 -28.644  1.00  0.00     0.038 C 
BRANCH  52  58
HETATM   58  O1  UNL     1      -8.689  49.252 -28.861  1.00  0.00    -0.390 OA
HETATM   59  H9  UNL     1      -9.174  49.796 -29.517  1.00  0.00     0.210 HD
ENDBRANCH  52  58
ENDBRANCH  51  52
ENDBRANCH  50  51
ENDBRANCH   1  50
BRANCH  11  60
HETATM   60  S1  UNL     1     -14.529  42.179 -24.939  1.00  0.00     0.106 S 
HETATM   61  O3  UNL     1     -13.642  41.622 -23.914  1.00  0.00    -0.595 OA
HETATM   62  O4  UNL     1     -15.821  41.509 -25.019  1.00  0.00    -0.595 OA
HETATM   63  O5  UNL     1     -13.861  42.365 -26.224  1.00  0.00    -0.595 OA
ENDBRANCH  11  60
BRANCH  20  64
HETATM   64  C29 UNL     1      -9.722  45.218 -17.415  1.00  0.00     0.169 C 
BRANCH  64  65
HETATM   65  O6  UNL     1      -9.203  45.400 -16.098  1.00  0.00    -0.400 OA
HETATM   66  H42 UNL     1      -8.453  44.789 -15.995  1.00  0.00     0.209 HD
ENDBRANCH  64  65
ENDBRANCH  20  64
BRANCH  26  67
HETATM   67  O7  UNL     1     -15.517  49.953 -17.607  1.00  0.00    -0.361 OA
HETATM   68  H46 UNL     1     -15.661  49.785 -16.664  1.00  0.00     0.217 HD
ENDBRANCH  26  67
TORSDOF 9
ENDMDL
