MODEL 1
REMARK minimizedAffinity -10.3774776
REMARK  5 active torsions:
REMARK  status: ('A' for Active; 'I' for Inactive)
REMARK    1  A    between atoms: C5_5  and  C6_6 
REMARK    2  A    between atoms: C6_6  and  C7_8 
REMARK    3  A    between atoms: C7_8  and  O2_9 
REMARK    4  A    between atoms: O2_9  and  C8_10 
REMARK    5  A    between atoms: C14_17  and  C15_18 
ROOT
HETATM    1  C8  UNL     1      -1.818   4.502  12.668  1.00  0.00     0.093 A 
HETATM    2  C9  UNL     1      -2.400   3.385  12.071  1.00  0.00     0.076 A 
HETATM    3  C10 UNL     1      -3.790   3.242  12.098  1.00  0.00     0.093 A 
HETATM    4  C11 UNL     1      -4.627   4.183  12.695  1.00  0.00     0.011 A 
HETATM    5  C12 UNL     1      -4.038   5.307  13.283  1.00  0.00     0.042 A 
HETATM    6  C13 UNL     1      -2.647   5.466  13.265  1.00  0.00     0.068 A 
HETATM    7 CL1  UNL     1      -1.978   6.870  14.024  1.00  0.00    -0.081 Cl
HETATM    8  C14 UNL     1      -6.080   3.963  12.682  1.00  0.00    -0.007 A 
HETATM    9  C21 UNL     1      -6.545   2.853  12.087  1.00  0.00     0.095 A 
HETATM   10  C22 UNL     1      -5.677   1.851  11.451  1.00  0.00     0.289 A 
HETATM   11  O3  UNL     1      -6.155   0.853  10.925  1.00  0.00    -0.260 OA
HETATM   12  O4  UNL     1      -4.314   2.090  11.481  1.00  0.00    -0.275 OA
ENDROOT
BRANCH   1  13
HETATM   13  O2  UNL     1      -0.470   4.744  12.673  1.00  0.00    -0.342 OA
BRANCH  13  14
HETATM   14  C7  UNL     1      -0.043   5.960  12.076  1.00  0.00     0.254 C 
BRANCH  14  15
HETATM   15  C6  UNL     1       1.110   5.700  11.110  1.00  0.00     0.155 C 
HETATM   16  O1  UNL     1       1.585   4.567  11.004  1.00  0.00    -0.295 OA
BRANCH  15  17
HETATM   17  C5  UNL     1       1.712   6.903  10.377  1.00  0.00     0.062 C 
HETATM   18  C4  UNL     1       1.855   6.553   8.889  1.00  0.00     0.049 C 
HETATM   19  C2  UNL     1       1.929   7.795   7.983  1.00  0.00     0.054 C 
HETATM   20  C1  UNL     1       1.814   7.366   6.516  1.00  0.00     0.045 C 
HETATM   21  C3  UNL     1       3.255   8.542   8.175  1.00  0.00     0.045 C 
HETATM   22  O5  UNL     1       0.868   8.731   8.219  1.00  0.00    -0.381 OA
HETATM   23  C24 UNL     1       0.042   8.478   9.353  1.00  0.00     0.169 C 
HETATM   24  C23 UNL     1       0.878   8.177  10.584  1.00  0.00     0.038 C 
ENDBRANCH  15  17
ENDBRANCH  14  15
ENDBRANCH  13  14
ENDBRANCH   1  13
BRANCH   8  25
HETATM   25  C15 UNL     1      -7.093   4.862  13.267  1.00  0.00    -0.025 A 
HETATM   26  C16 UNL     1      -6.991   5.262  14.605  1.00  0.00     0.012 A 
HETATM   27  C17 UNL     1      -7.952   6.110  15.159  1.00  0.00     0.001 A 
HETATM   28  C18 UNL     1      -9.017   6.562  14.379  1.00  0.00     0.000 A 
HETATM   29  C19 UNL     1      -9.123   6.168  13.046  1.00  0.00     0.001 A 
HETATM   30  C20 UNL     1      -8.164   5.320  12.489  1.00  0.00     0.012 A 
ENDBRANCH   8  25
TORSDOF 5
ENDMDL
MODEL 2
REMARK minimizedAffinity -9.84022141
REMARK  5 active torsions:
REMARK  status: ('A' for Active; 'I' for Inactive)
REMARK    1  A    between atoms: C5_5  and  C6_6 
REMARK    2  A    between atoms: C6_6  and  C7_8 
REMARK    3  A    between atoms: C7_8  and  O2_9 
REMARK    4  A    between atoms: O2_9  and  C8_10 
REMARK    5  A    between atoms: C14_17  and  C15_18 
ROOT
HETATM    1  C8  UNL     1      -2.027   5.431  13.455  1.00  0.00     0.093 A 
HETATM    2  C9  UNL     1      -2.510   4.368  12.693  1.00  0.00     0.076 A 
HETATM    3  C10 UNL     1      -3.885   4.126  12.649  1.00  0.00     0.093 A 
HETATM    4  C11 UNL     1      -4.805   4.916  13.337  1.00  0.00     0.011 A 
HETATM    5  C12 UNL     1      -4.316   5.987  14.091  1.00  0.00     0.042 A 
HETATM    6  C13 UNL     1      -2.941   6.244  14.145  1.00  0.00     0.068 A 
HETATM    7 CL1  UNL     1      -2.399   7.575  15.109  1.00  0.00    -0.081 Cl
HETATM    8  C14 UNL     1      -6.237   4.599  13.241  1.00  0.00    -0.007 A 
HETATM    9  C21 UNL     1      -6.602   3.551  12.487  1.00  0.00     0.095 A 
HETATM   10  C22 UNL     1      -5.646   2.707  11.754  1.00  0.00     0.289 A 
HETATM   11  O3  UNL     1      -6.034   1.760  11.082  1.00  0.00    -0.260 OA
HETATM   12  O4  UNL     1      -4.305   3.035  11.865  1.00  0.00    -0.275 OA
ENDROOT
BRANCH   1  13
HETATM   13  O2  UNL     1      -0.702   5.763  13.542  1.00  0.00    -0.342 OA
BRANCH  13  14
HETATM   14  C7  UNL     1       0.133   5.315  12.484  1.00  0.00     0.254 C 
BRANCH  14  15
HETATM   15  C6  UNL     1       0.405   6.453  11.504  1.00  0.00     0.155 C 
HETATM   16  O1  UNL     1      -0.069   7.573  11.710  1.00  0.00    -0.295 OA
BRANCH  15  17
HETATM   17  C5  UNL     1       1.181   6.124  10.224  1.00  0.00     0.062 C 
HETATM   18  C4  UNL     1       1.520   7.435   9.502  1.00  0.00     0.049 C 
HETATM   19  C2  UNL     1       2.711   7.301   8.538  1.00  0.00     0.054 C 
HETATM   20  C1  UNL     1       3.142   8.692   8.058  1.00  0.00     0.045 C 
HETATM   21  C3  UNL     1       2.342   6.450   7.315  1.00  0.00     0.045 C 
HETATM   22  O5  UNL     1       3.866   6.704   9.145  1.00  0.00    -0.381 OA
HETATM   23  C24 UNL     1       3.683   6.161  10.451  1.00  0.00     0.169 C 
HETATM   24  C23 UNL     1       2.440   5.293  10.515  1.00  0.00     0.038 C 
ENDBRANCH  15  17
ENDBRANCH  14  15
ENDBRANCH  13  14
ENDBRANCH   1  13
BRANCH   8  25
HETATM   25  C15 UNL     1      -7.329   5.337  13.904  1.00  0.00    -0.025 A 
HETATM   26  C16 UNL     1      -8.371   5.884  13.146  1.00  0.00     0.012 A 
HETATM   27  C17 UNL     1      -9.402   6.587  13.774  1.00  0.00     0.001 A 
HETATM   28  C18 UNL     1      -9.396   6.744  15.160  1.00  0.00     0.000 A 
HETATM   29  C19 UNL     1      -8.362   6.200  15.921  1.00  0.00     0.001 A 
HETATM   30  C20 UNL     1      -7.329   5.497  15.296  1.00  0.00     0.012 A 
ENDBRANCH   8  25
TORSDOF 5
ENDMDL
MODEL 3
REMARK minimizedAffinity -9.83947754
REMARK  5 active torsions:
REMARK  status: ('A' for Active; 'I' for Inactive)
REMARK    1  A    between atoms: C5_5  and  C6_6 
REMARK    2  A    between atoms: C6_6  and  C7_8 
REMARK    3  A    between atoms: C7_8  and  O2_9 
REMARK    4  A    between atoms: O2_9  and  C8_10 
REMARK    5  A    between atoms: C14_17  and  C15_18 
ROOT
HETATM    1  C8  UNL     1      -2.533   4.901  12.530  1.00  0.00     0.093 A 
HETATM    2  C9  UNL     1      -3.444   3.864  12.331  1.00  0.00     0.076 A 
HETATM    3  C10 UNL     1      -4.783   4.052  12.685  1.00  0.00     0.093 A 
HETATM    4  C11 UNL     1      -5.252   5.248  13.226  1.00  0.00     0.011 A 
HETATM    5  C12 UNL     1      -4.336   6.288  13.413  1.00  0.00     0.042 A 
HETATM    6  C13 UNL     1      -2.991   6.117  13.063  1.00  0.00     0.068 A 
HETATM    7 CL1  UNL     1      -1.905   7.436  13.335  1.00  0.00    -0.081 Cl
HETATM    8  C14 UNL     1      -6.675   5.370  13.572  1.00  0.00    -0.007 A 
HETATM    9  C21 UNL     1      -7.472   4.314  13.349  1.00  0.00     0.095 A 
HETATM   10  C22 UNL     1      -6.995   3.045  12.777  1.00  0.00     0.289 A 
HETATM   11  O3  UNL     1      -7.766   2.111  12.597  1.00  0.00    -0.260 OA
HETATM   12  O4  UNL     1      -5.649   2.965  12.462  1.00  0.00    -0.275 OA
ENDROOT
BRANCH   1  13
HETATM   13  O2  UNL     1      -1.208   4.822  12.194  1.00  0.00    -0.342 OA
BRANCH  13  14
HETATM   14  C7  UNL     1      -0.749   5.741  11.213  1.00  0.00     0.254 C 
BRANCH  14  15
HETATM   15  C6  UNL     1       0.721   6.077  11.448  1.00  0.00     0.155 C 
HETATM   16  O1  UNL     1       1.334   5.553  12.382  1.00  0.00    -0.295 OA
BRANCH  15  17
HETATM   17  C5  UNL     1       1.359   7.153  10.563  1.00  0.00     0.062 C 
HETATM   18  C4  UNL     1       1.694   6.535   9.198  1.00  0.00     0.049 C 
HETATM   19  C2  UNL     1       1.827   7.583   8.080  1.00  0.00     0.054 C 
HETATM   20  C1  UNL     1       1.906   6.876   6.722  1.00  0.00     0.045 C 
HETATM   21  C3  UNL     1       3.089   8.435   8.265  1.00  0.00     0.045 C 
HETATM   22  O5  UNL     1       0.709   8.479   8.008  1.00  0.00    -0.381 OA
HETATM   23  C24 UNL     1      -0.237   8.396   9.072  1.00  0.00     0.169 C 
HETATM   24  C23 UNL     1       0.457   8.388  10.422  1.00  0.00     0.038 C 
ENDBRANCH  15  17
ENDBRANCH  14  15
ENDBRANCH  13  14
ENDBRANCH   1  13
BRANCH   8  25
HETATM   25  C15 UNL     1      -7.322   6.565  14.148  1.00  0.00    -0.025 A 
HETATM   26  C16 UNL     1      -6.543   7.631  14.615  1.00  0.00     0.012 A 
HETATM   27  C17 UNL     1      -7.156   8.759  15.164  1.00  0.00     0.001 A 
HETATM   28  C18 UNL     1      -8.547   8.827  15.248  1.00  0.00     0.000 A 
HETATM   29  C19 UNL     1      -9.327   7.769  14.783  1.00  0.00     0.001 A 
HETATM   30  C20 UNL     1      -8.718   6.639  14.234  1.00  0.00     0.012 A 
ENDBRANCH   8  25
TORSDOF 5
ENDMDL
MODEL 4
REMARK minimizedAffinity -9.62102985
REMARK  5 active torsions:
REMARK  status: ('A' for Active; 'I' for Inactive)
REMARK    1  A    between atoms: C5_5  and  C6_6 
REMARK    2  A    between atoms: C6_6  and  C7_8 
REMARK    3  A    between atoms: C7_8  and  O2_9 
REMARK    4  A    between atoms: O2_9  and  C8_10 
REMARK    5  A    between atoms: C14_17  and  C15_18 
ROOT
HETATM    1  C8  UNL     1       0.053   6.132  12.285  1.00  0.00     0.093 A 
HETATM    2  C9  UNL     1       0.373   4.883  11.754  1.00  0.00     0.076 A 
HETATM    3  C10 UNL     1      -0.632   3.922  11.612  1.00  0.00     0.093 A 
HETATM    4  C11 UNL     1      -1.955   4.166  11.975  1.00  0.00     0.011 A 
HETATM    5  C12 UNL     1      -2.272   5.425  12.497  1.00  0.00     0.042 A 
HETATM    6  C13 UNL     1      -1.278   6.399  12.646  1.00  0.00     0.068 A 
HETATM    7 CL1  UNL     1      -1.731   7.929  13.313  1.00  0.00    -0.081 Cl
HETATM    8  C14 UNL     1      -2.957   3.105  11.795  1.00  0.00    -0.007 A 
HETATM    9  C21 UNL     1      -2.550   1.934  11.281  1.00  0.00     0.095 A 
HETATM   10  C22 UNL     1      -1.159   1.660  10.892  1.00  0.00     0.289 A 
HETATM   11  O3  UNL     1      -0.841   0.571  10.430  1.00  0.00    -0.260 OA
HETATM   12  O4  UNL     1      -0.242   2.682  11.074  1.00  0.00    -0.275 OA
ENDROOT
BRANCH   1  13
HETATM   13  O2  UNL     1       0.961   7.145  12.441  1.00  0.00    -0.342 OA
BRANCH  13  14
HETATM   14  C7  UNL     1       0.801   8.274  11.593  1.00  0.00     0.254 C 
BRANCH  14  15
HETATM   15  C6  UNL     1       1.272   7.946  10.179  1.00  0.00     0.155 C 
HETATM   16  O1  UNL     1       0.455   7.616   9.315  1.00  0.00    -0.295 OA
BRANCH  15  17
HETATM   17  C5  UNL     1       2.781   7.936   9.913  1.00  0.00     0.062 C 
HETATM   18  C4  UNL     1       3.520   8.023  11.255  1.00  0.00     0.049 C 
HETATM   19  C2  UNL     1       4.963   7.496  11.184  1.00  0.00     0.054 C 
HETATM   20  C1  UNL     1       5.538   7.381  12.600  1.00  0.00     0.045 C 
HETATM   21  C3  UNL     1       5.857   8.436  10.365  1.00  0.00     0.045 C 
HETATM   22  O5  UNL     1       5.060   6.191  10.597  1.00  0.00    -0.381 OA
HETATM   23  C24 UNL     1       3.869   5.673  10.007  1.00  0.00     0.169 C 
HETATM   24  C23 UNL     1       3.213   6.703   9.105  1.00  0.00     0.038 C 
ENDBRANCH  15  17
ENDBRANCH  14  15
ENDBRANCH  13  14
ENDBRANCH   1  13
BRANCH   8  25
HETATM   25  C15 UNL     1      -4.390   3.209  12.127  1.00  0.00    -0.025 A 
HETATM   26  C16 UNL     1      -5.298   2.266  11.630  1.00  0.00     0.012 A 
HETATM   27  C17 UNL     1      -6.656   2.367  11.941  1.00  0.00     0.001 A 
HETATM   28  C18 UNL     1      -7.111   3.409  12.750  1.00  0.00     0.000 A 
HETATM   29  C19 UNL     1      -6.211   4.350  13.249  1.00  0.00     0.001 A 
HETATM   30  C20 UNL     1      -4.853   4.252  12.939  1.00  0.00     0.012 A 
ENDBRANCH   8  25
TORSDOF 5
ENDMDL
MODEL 5
REMARK minimizedAffinity -9.54237366
REMARK  5 active torsions:
REMARK  status: ('A' for Active; 'I' for Inactive)
REMARK    1  A    between atoms: C5_5  and  C6_6 
REMARK    2  A    between atoms: C6_6  and  C7_8 
REMARK    3  A    between atoms: C7_8  and  O2_9 
REMARK    4  A    between atoms: O2_9  and  C8_10 
REMARK    5  A    between atoms: C14_17  and  C15_18 
ROOT
HETATM    1  C8  UNL     1      -1.985   4.690  12.869  1.00  0.00     0.093 A 
HETATM    2  C9  UNL     1      -2.539   3.580  12.233  1.00  0.00     0.076 A 
HETATM    3  C10 UNL     1      -3.927   3.418  12.224  1.00  0.00     0.093 A 
HETATM    4  C11 UNL     1      -4.790   4.335  12.823  1.00  0.00     0.011 A 
HETATM    5  C12 UNL     1      -4.229   5.452  13.450  1.00  0.00     0.042 A 
HETATM    6  C13 UNL     1      -2.840   5.630  13.468  1.00  0.00     0.068 A 
HETATM    7 CL1  UNL     1      -2.208   7.024  14.273  1.00  0.00    -0.081 Cl
HETATM    8  C14 UNL     1      -6.239   4.097  12.770  1.00  0.00    -0.007 A 
HETATM    9  C21 UNL     1      -6.675   2.995  12.140  1.00  0.00     0.095 A 
HETATM   10  C22 UNL     1      -5.780   2.018  11.502  1.00  0.00     0.289 A 
HETATM   11  O3  UNL     1      -6.231   1.027  10.942  1.00  0.00    -0.260 OA
HETATM   12  O4  UNL     1      -4.420   2.274  11.569  1.00  0.00    -0.275 OA
ENDROOT
BRANCH   1  13
HETATM   13  O2  UNL     1      -0.641   4.949  12.911  1.00  0.00    -0.342 OA
BRANCH  13  14
HETATM   14  C7  UNL     1      -0.105   5.690  11.825  1.00  0.00     0.254 C 
BRANCH  14  15
HETATM   15  C6  UNL     1       1.066   6.549  12.295  1.00  0.00     0.155 C 
HETATM   16  O1  UNL     1       1.167   6.861  13.484  1.00  0.00    -0.295 OA
BRANCH  15  17
HETATM   17  C5  UNL     1       2.030   7.087  11.232  1.00  0.00     0.062 C 
HETATM   18  C4  UNL     1       3.457   7.046  11.794  1.00  0.00     0.049 C 
HETATM   19  C2  UNL     1       4.536   7.041  10.697  1.00  0.00     0.054 C 
HETATM   20  C1  UNL     1       5.903   6.744  11.324  1.00  0.00     0.045 C 
HETATM   21  C3  UNL     1       4.606   8.396   9.981  1.00  0.00     0.045 C 
HETATM   22  O5  UNL     1       4.320   6.036   9.696  1.00  0.00    -0.381 OA
HETATM   23  C24 UNL     1       3.075   5.343   9.754  1.00  0.00     0.169 C 
HETATM   24  C23 UNL     1       1.916   6.312   9.910  1.00  0.00     0.038 C 
ENDBRANCH  15  17
ENDBRANCH  14  15
ENDBRANCH  13  14
ENDBRANCH   1  13
BRANCH   8  25
HETATM   25  C15 UNL     1      -7.277   4.969  13.351  1.00  0.00    -0.025 A 
HETATM   26  C16 UNL     1      -8.314   5.461  12.549  1.00  0.00     0.012 A 
HETATM   27  C17 UNL     1      -9.293   6.291  13.098  1.00  0.00     0.001 A 
HETATM   28  C18 UNL     1      -9.241   6.631  14.450  1.00  0.00     0.000 A 
HETATM   29  C19 UNL     1      -8.212   6.144  15.255  1.00  0.00     0.001 A 
HETATM   30  C20 UNL     1      -7.231   5.314  14.708  1.00  0.00     0.012 A 
ENDBRANCH   8  25
TORSDOF 5
ENDMDL
MODEL 6
REMARK minimizedAffinity -9.4066782
REMARK  5 active torsions:
REMARK  status: ('A' for Active; 'I' for Inactive)
REMARK    1  A    between atoms: C5_5  and  C6_6 
REMARK    2  A    between atoms: C6_6  and  C7_8 
REMARK    3  A    between atoms: C7_8  and  O2_9 
REMARK    4  A    between atoms: O2_9  and  C8_10 
REMARK    5  A    between atoms: C14_17  and  C15_18 
ROOT
HETATM    1  C8  UNL     1      -0.745   6.338  12.230  1.00  0.00     0.093 A 
HETATM    2  C9  UNL     1      -0.277   5.127  11.721  1.00  0.00     0.076 A 
HETATM    3  C10 UNL     1      -1.158   4.049  11.599  1.00  0.00     0.093 A 
HETATM    4  C11 UNL     1      -2.502   4.138  11.960  1.00  0.00     0.011 A 
HETATM    5  C12 UNL     1      -2.968   5.359  12.459  1.00  0.00     0.042 A 
HETATM    6  C13 UNL     1      -2.098   6.449  12.587  1.00  0.00     0.068 A 
HETATM    7 CL1  UNL     1      -2.734   7.926  13.227  1.00  0.00    -0.081 Cl
HETATM    8  C14 UNL     1      -3.368   2.961  11.801  1.00  0.00    -0.007 A 
HETATM    9  C21 UNL     1      -2.822   1.838  11.309  1.00  0.00     0.095 A 
HETATM   10  C22 UNL     1      -1.408   1.727  10.922  1.00  0.00     0.289 A 
HETATM   11  O3  UNL     1      -0.961   0.676  10.480  1.00  0.00    -0.260 OA
HETATM   12  O4  UNL     1      -0.621   2.855  11.084  1.00  0.00    -0.275 OA
ENDROOT
BRANCH   1  13
HETATM   13  O2  UNL     1       0.033   7.456  12.365  1.00  0.00    -0.342 OA
BRANCH  13  14
HETATM   14  C7  UNL     1       0.958   7.457  13.443  1.00  0.00     0.254 C 
BRANCH  14  15
HETATM   15  C6  UNL     1       2.362   7.780  12.937  1.00  0.00     0.155 C 
HETATM   16  O1  UNL     1       3.017   8.683  13.464  1.00  0.00    -0.295 OA
BRANCH  15  17
HETATM   17  C5  UNL     1       2.868   7.026  11.703  1.00  0.00     0.062 C 
HETATM   18  C4  UNL     1       2.365   7.747  10.445  1.00  0.00     0.049 C 
HETATM   19  C2  UNL     1       3.209   7.436   9.196  1.00  0.00     0.054 C 
HETATM   20  C1  UNL     1       2.804   8.379   8.056  1.00  0.00     0.045 C 
HETATM   21  C3  UNL     1       3.002   5.988   8.733  1.00  0.00     0.045 C 
HETATM   22  O5  UNL     1       4.615   7.626   9.402  1.00  0.00    -0.381 OA
HETATM   23  C24 UNL     1       5.030   7.876  10.744  1.00  0.00     0.169 C 
HETATM   24  C23 UNL     1       4.398   6.886  11.705  1.00  0.00     0.038 C 
ENDBRANCH  15  17
ENDBRANCH  14  15
ENDBRANCH  13  14
ENDBRANCH   1  13
BRANCH   8  25
HETATM   25  C15 UNL     1      -4.803   2.897  12.134  1.00  0.00    -0.025 A 
HETATM   26  C16 UNL     1      -5.593   1.849  11.646  1.00  0.00     0.012 A 
HETATM   27  C17 UNL     1      -6.953   1.792  11.958  1.00  0.00     0.001 A 
HETATM   28  C18 UNL     1      -7.528   2.779  12.759  1.00  0.00     0.000 A 
HETATM   29  C19 UNL     1      -6.746   3.824  13.249  1.00  0.00     0.001 A 
HETATM   30  C20 UNL     1      -5.386   3.885  12.938  1.00  0.00     0.012 A 
ENDBRANCH   8  25
TORSDOF 5
ENDMDL
MODEL 7
REMARK minimizedAffinity -9.35810852
REMARK  5 active torsions:
REMARK  status: ('A' for Active; 'I' for Inactive)
REMARK    1  A    between atoms: C5_5  and  C6_6 
REMARK    2  A    between atoms: C6_6  and  C7_8 
REMARK    3  A    between atoms: C7_8  and  O2_9 
REMARK    4  A    between atoms: O2_9  and  C8_10 
REMARK    5  A    between atoms: C14_17  and  C15_18 
ROOT
HETATM    1  C8  UNL     1      -1.314   6.953  12.755  1.00  0.00     0.093 A 
HETATM    2  C9  UNL     1      -2.326   7.645  13.418  1.00  0.00     0.076 A 
HETATM    3  C10 UNL     1      -3.591   7.063  13.534  1.00  0.00     0.093 A 
HETATM    4  C11 UNL     1      -3.883   5.802  13.017  1.00  0.00     0.011 A 
HETATM    5  C12 UNL     1      -2.861   5.107  12.362  1.00  0.00     0.042 A 
HETATM    6  C13 UNL     1      -1.588   5.676  12.238  1.00  0.00     0.068 A 
HETATM    7 CL1  UNL     1      -0.371   4.773  11.403  1.00  0.00    -0.081 Cl
HETATM    8  C14 UNL     1      -5.238   5.255  13.180  1.00  0.00    -0.007 A 
HETATM    9  C21 UNL     1      -6.146   6.001  13.828  1.00  0.00     0.095 A 
HETATM   10  C22 UNL     1      -5.855   7.332  14.381  1.00  0.00     0.289 A 
HETATM   11  O3  UNL     1      -6.723   7.972  14.961  1.00  0.00    -0.260 OA
HETATM   12  O4  UNL     1      -4.569   7.816  14.210  1.00  0.00    -0.275 OA
ENDROOT
BRANCH   1  13
HETATM   13  O2  UNL     1      -0.038   7.428  12.611  1.00  0.00    -0.342 OA
BRANCH  13  14
HETATM   14  C7  UNL     1       0.959   6.818  13.418  1.00  0.00     0.254 C 
BRANCH  14  15
HETATM   15  C6  UNL     1       2.350   7.220  12.936  1.00  0.00     0.155 C 
HETATM   16  O1  UNL     1       3.012   8.043  13.574  1.00  0.00    -0.295 OA
BRANCH  15  17
HETATM   17  C5  UNL     1       2.835   6.655  11.597  1.00  0.00     0.062 C 
HETATM   18  C4  UNL     1       2.130   7.407  10.460  1.00  0.00     0.049 C 
HETATM   19  C2  UNL     1       2.888   7.326   9.124  1.00  0.00     0.054 C 
HETATM   20  C1  UNL     1       2.262   8.301   8.119  1.00  0.00     0.045 C 
HETATM   21  C3  UNL     1       2.829   5.910   8.538  1.00  0.00     0.045 C 
HETATM   22  O5  UNL     1       4.271   7.689   9.236  1.00  0.00    -0.381 OA
HETATM   23  C24 UNL     1       4.771   7.874  10.559  1.00  0.00     0.169 C 
HETATM   24  C23 UNL     1       4.363   6.726  11.464  1.00  0.00     0.038 C 
ENDBRANCH  15  17
ENDBRANCH  14  15
ENDBRANCH  13  14
ENDBRANCH   1  13
BRANCH   8  25
HETATM   25  C15 UNL     1      -5.701   3.941  12.693  1.00  0.00    -0.025 A 
HETATM   26  C16 UNL     1      -6.950   3.445  13.085  1.00  0.00     0.012 A 
HETATM   27  C17 UNL     1      -7.385   2.199  12.628  1.00  0.00     0.001 A 
HETATM   28  C18 UNL     1      -6.576   1.446  11.777  1.00  0.00     0.000 A 
HETATM   29  C19 UNL     1      -5.331   1.936  11.382  1.00  0.00     0.001 A 
HETATM   30  C20 UNL     1      -4.893   3.180  11.838  1.00  0.00     0.012 A 
ENDBRANCH   8  25
TORSDOF 5
ENDMDL
MODEL 8
REMARK minimizedAffinity -9.34413719
REMARK  5 active torsions:
REMARK  status: ('A' for Active; 'I' for Inactive)
REMARK    1  A    between atoms: C5_5  and  C6_6 
REMARK    2  A    between atoms: C6_6  and  C7_8 
REMARK    3  A    between atoms: C7_8  and  O2_9 
REMARK    4  A    between atoms: O2_9  and  C8_10 
REMARK    5  A    between atoms: C14_17  and  C15_18 
ROOT
HETATM    1  C8  UNL     1      -1.044   6.519  12.716  1.00  0.00     0.093 A 
HETATM    2  C9  UNL     1      -1.957   7.440  13.228  1.00  0.00     0.076 A 
HETATM    3  C10 UNL     1      -3.301   7.074  13.354  1.00  0.00     0.093 A 
HETATM    4  C11 UNL     1      -3.768   5.812  12.993  1.00  0.00     0.011 A 
HETATM    5  C12 UNL     1      -2.845   4.888  12.490  1.00  0.00     0.042 A 
HETATM    6  C13 UNL     1      -1.496   5.238  12.359  1.00  0.00     0.068 A 
HETATM    7 CL1  UNL     1      -0.408   4.057  11.715  1.00  0.00    -0.081 Cl
HETATM    8  C14 UNL     1      -5.195   5.501  13.155  1.00  0.00    -0.007 A 
HETATM    9  C21 UNL     1      -5.997   6.457  13.651  1.00  0.00     0.095 A 
HETATM   10  C22 UNL     1      -5.521   7.793  14.037  1.00  0.00     0.289 A 
HETATM   11  O3  UNL     1      -6.297   8.630  14.482  1.00  0.00    -0.260 OA
HETATM   12  O4  UNL     1      -4.170   8.052  13.872  1.00  0.00    -0.275 OA
ENDROOT
BRANCH   1  13
HETATM   13  O2  UNL     1       0.294   6.774  12.578  1.00  0.00    -0.342 OA
BRANCH  13  14
HETATM   14  C7  UNL     1       0.856   6.526  11.297  1.00  0.00     0.254 C 
BRANCH  14  15
HETATM   15  C6  UNL     1       1.310   7.834  10.655  1.00  0.00     0.155 C 
HETATM   16  O1  UNL     1       0.485   8.711  10.387  1.00  0.00    -0.295 OA
BRANCH  15  17
HETATM   17  C5  UNL     1       2.786   7.964  10.264  1.00  0.00     0.062 C 
HETATM   18  C4  UNL     1       3.642   7.881  11.535  1.00  0.00     0.049 C 
HETATM   19  C2  UNL     1       5.097   7.466  11.254  1.00  0.00     0.054 C 
HETATM   20  C1  UNL     1       5.808   7.161  12.579  1.00  0.00     0.045 C 
HETATM   21  C3  UNL     1       5.862   8.581  10.530  1.00  0.00     0.045 C 
HETATM   22  O5  UNL     1       5.202   6.280  10.454  1.00  0.00    -0.381 OA
HETATM   23  C24 UNL     1       3.988   5.789   9.889  1.00  0.00     0.169 C 
HETATM   24  C23 UNL     1       3.200   6.906   9.229  1.00  0.00     0.038 C 
ENDBRANCH  15  17
ENDBRANCH  14  15
ENDBRANCH  13  14
ENDBRANCH   1  13
BRANCH   8  25
HETATM   25  C15 UNL     1      -5.840   4.217  12.823  1.00  0.00    -0.025 A 
HETATM   26  C16 UNL     1      -7.019   3.832  13.473  1.00  0.00     0.012 A 
HETATM   27  C17 UNL     1      -7.627   2.614  13.161  1.00  0.00     0.001 A 
HETATM   28  C18 UNL     1      -7.060   1.777  12.199  1.00  0.00     0.000 A 
HETATM   29  C19 UNL     1      -5.887   2.156  11.547  1.00  0.00     0.001 A 
HETATM   30  C20 UNL     1      -5.277   3.373  11.857  1.00  0.00     0.012 A 
ENDBRANCH   8  25
TORSDOF 5
ENDMDL
MODEL 9
REMARK minimizedAffinity -9.04082775
REMARK  5 active torsions:
REMARK  status: ('A' for Active; 'I' for Inactive)
REMARK    1  A    between atoms: C5_5  and  C6_6 
REMARK    2  A    between atoms: C6_6  and  C7_8 
REMARK    3  A    between atoms: C7_8  and  O2_9 
REMARK    4  A    between atoms: O2_9  and  C8_10 
REMARK    5  A    between atoms: C14_17  and  C15_18 
ROOT
HETATM    1  C8  UNL     1       0.746   6.262  11.499  1.00  0.00     0.093 A 
HETATM    2  C9  UNL     1       0.782   4.913  11.152  1.00  0.00     0.076 A 
HETATM    3  C10 UNL     1      -0.364   4.132  11.318  1.00  0.00     0.093 A 
HETATM    4  C11 UNL     1      -1.558   4.654  11.813  1.00  0.00     0.011 A 
HETATM    5  C12 UNL     1      -1.593   6.011  12.149  1.00  0.00     0.042 A 
HETATM    6  C13 UNL     1      -0.453   6.808  11.988  1.00  0.00     0.068 A 
HETATM    7 CL1  UNL     1      -0.555   8.476  12.437  1.00  0.00    -0.081 Cl
HETATM    8  C14 UNL     1      -2.723   3.769  11.958  1.00  0.00    -0.007 A 
HETATM    9  C21 UNL     1      -2.587   2.482  11.603  1.00  0.00     0.095 A 
HETATM   10  C22 UNL     1      -1.335   1.915  11.079  1.00  0.00     0.289 A 
HETATM   11  O3  UNL     1      -1.265   0.731  10.773  1.00  0.00    -0.260 OA
HETATM   12  O4  UNL     1      -0.258   2.776  10.954  1.00  0.00    -0.275 OA
ENDROOT
BRANCH   1  13
HETATM   13  O2  UNL     1       1.808   7.114  11.351  1.00  0.00    -0.342 OA
BRANCH  13  14
HETATM   14  C7  UNL     1       3.091   6.583  11.649  1.00  0.00     0.254 C 
BRANCH  14  15
HETATM   15  C6  UNL     1       4.000   6.673  10.427  1.00  0.00     0.155 C 
HETATM   16  O1  UNL     1       3.794   5.949   9.448  1.00  0.00    -0.295 OA
BRANCH  15  17
HETATM   17  C5  UNL     1       5.217   7.599  10.508  1.00  0.00     0.062 C 
HETATM   18  C4  UNL     1       4.866   8.800  11.397  1.00  0.00     0.049 C 
HETATM   19  C2  UNL     1       6.105   9.497  11.985  1.00  0.00     0.054 C 
HETATM   20  C1  UNL     1       5.667  10.510  13.049  1.00  0.00     0.045 C 
HETATM   21  C3  UNL     1       6.894  10.236  10.896  1.00  0.00     0.045 C 
HETATM   22  O5  UNL     1       7.009   8.591  12.632  1.00  0.00    -0.381 OA
HETATM   23  C24 UNL     1       6.736   7.201  12.470  1.00  0.00     0.169 C 
HETATM   24  C23 UNL     1       6.466   6.861  11.015  1.00  0.00     0.038 C 
ENDBRANCH  15  17
ENDBRANCH  14  15
ENDBRANCH  13  14
ENDBRANCH   1  13
BRANCH   8  25
HETATM   25  C15 UNL     1      -4.051   4.169  12.462  1.00  0.00    -0.025 A 
HETATM   26  C16 UNL     1      -5.208   3.573  11.947  1.00  0.00     0.012 A 
HETATM   27  C17 UNL     1      -6.465   3.955  12.422  1.00  0.00     0.001 A 
HETATM   28  C18 UNL     1      -6.569   4.933  13.412  1.00  0.00     0.000 A 
HETATM   29  C19 UNL     1      -5.420   5.529  13.930  1.00  0.00     0.001 A 
HETATM   30  C20 UNL     1      -4.162   5.149  13.457  1.00  0.00     0.012 A 
ENDBRANCH   8  25
TORSDOF 5
ENDMDL
