MODEL 1
REMARK minimizedAffinity -7.81405449
REMARK CNNscore 0.423804015
REMARK CNNaffinity 6.95666456
REMARK  19 active torsions:
REMARK  status: ('A' for Active; 'I' for Inactive)
REMARK    1  A    between atoms: C3_3  and  C4_4 
REMARK    2  A    between atoms: C5_5  and  C6_6 
REMARK    3  A    between atoms: C7_8  and  O2_9 
REMARK    4  A    between atoms: C7_8  and  C8_10 
REMARK    5  A    between atoms: C8_10  and  C10_12 
REMARK       I    between atoms: C10_12  and  N1_14 
REMARK    6  A    between atoms: N1_14  and  C11_15 
REMARK    7  A    between atoms: C11_15  and  C12_16 
REMARK    8  A    between atoms: C13_17  and  C14_18 
REMARK    9  A    between atoms: C15_19  and  C17_21 
REMARK   10  A    between atoms: C17_21  and  O4_22 
REMARK   11  A    between atoms: C17_21  and  C19_24 
REMARK   12  A    between atoms: C19_24  and  C21_26 
REMARK   13  A    between atoms: C23_28  and  O5_29 
REMARK   14  A    between atoms: C24_30  and  C25_31 
REMARK   15  A    between atoms: C26_32  and  C27_33 
REMARK   16  A    between atoms: C28_34  and  C29_35 
REMARK   17  A    between atoms: C30_36  and  C31_37 
REMARK   18  A    between atoms: C31_37  and  O7_39 
REMARK   19  A    between atoms: C33_42  and  O9_43 
ROOT
HETATM    1  C12 UNL     1      -6.876  47.249 -26.580  1.00  0.00    -0.007 C 
HETATM    2  C13 UNL     1      -6.061  48.293 -26.356  1.00  0.00    -0.002 C 
ENDROOT
BRANCH   2   3
HETATM    3  C14 UNL     1      -5.154  48.325 -25.229  1.00  0.00     0.005 C 
HETATM    4  C15 UNL     1      -3.830  48.586 -25.243  1.00  0.00    -0.055 C 
HETATM    5  C16 UNL     1      -3.083  48.529 -23.930  1.00  0.00     0.046 C 
BRANCH   4   6
HETATM    6  C17 UNL     1      -3.033  48.969 -26.489  1.00  0.00     0.155 C 
BRANCH   6   7
HETATM    7  O4  UNL     1      -3.418  48.142 -27.595  1.00  0.00    -0.386 OA
HETATM    8  C18 UNL     1      -4.117  48.856 -28.610  1.00  0.00     0.202 C 
ENDBRANCH   6   7
BRANCH   6   9
HETATM    9  C19 UNL     1      -3.170  50.478 -26.864  1.00  0.00     0.044 C 
HETATM   10  C20 UNL     1      -3.701  51.246 -25.635  1.00  0.00     0.015 C 
BRANCH   9  11
HETATM   11  C21 UNL     1      -1.872  51.149 -27.364  1.00  0.00     0.131 C 
HETATM   12  C22 UNL     1      -1.896  52.671 -27.362  1.00  0.00     0.067 C 
HETATM   13  C23 UNL     1      -0.426  52.989 -27.263  1.00  0.00     0.153 C 
HETATM   14  C24 UNL     1       0.059  51.935 -26.257  1.00  0.00     0.173 C 
HETATM   15  O8  UNL     1      -0.750  50.767 -26.529  1.00  0.00    -0.374 OA
BRANCH  13  16
HETATM   16  O5  UNL     1      -0.163  54.337 -26.930  1.00  0.00    -0.393 OA
HETATM   17  H35 UNL     1      -0.527  54.889 -27.641  1.00  0.00     0.210 HD
ENDBRANCH  13  16
BRANCH  14  18
HETATM   18  C25 UNL     1      -0.041  52.150 -24.767  1.00  0.00     0.007 C 
HETATM   19  C26 UNL     1      -0.745  51.450 -23.864  1.00  0.00    -0.001 C 
BRANCH  19  20
HETATM   20  C27 UNL     1      -0.774  51.799 -22.460  1.00  0.00    -0.000 C 
HETATM   21  C28 UNL     1      -0.138  51.089 -21.517  1.00  0.00     0.000 C 
BRANCH  21  22
HETATM   22  C29 UNL     1      -0.211  51.430 -20.112  1.00  0.00     0.007 C 
HETATM   23  C30 UNL     1      -0.438  50.521 -19.156  1.00  0.00     0.081 C 
BRANCH  23  24
HETATM   24  C31 UNL     1      -0.529  50.951 -17.754  1.00  0.00     0.165 C 
HETATM   25  O6  UNL     1      -1.515  50.955 -17.039  1.00  0.00    -0.647 OA
BRANCH  24  26
HETATM   26  O7  UNL     1       0.674  51.355 -17.318  1.00  0.00    -0.773 OA
HETATM   27  H43 UNL     1       0.512  51.593 -16.381  1.00  0.00     0.167 HD
ENDBRANCH  24  26
ENDBRANCH  23  24
ENDBRANCH  21  22
ENDBRANCH  19  20
ENDBRANCH  14  18
ENDBRANCH   9  11
ENDBRANCH   6   9
ENDBRANCH   4   6
ENDBRANCH   2   3
BRANCH   1  28
HETATM   28  C11 UNL     1      -7.797  47.111 -27.749  1.00  0.00     0.149 C 
BRANCH  28  29
HETATM   29  N1  UNL     1      -9.150  47.050 -27.254  1.00  0.00    -0.357 N 
HETATM   30  C10 UNL     1      -9.568  46.059 -26.391  1.00  0.00     0.227 C 
HETATM   31  O3  UNL     1      -8.834  45.144 -26.025  1.00  0.00    -0.273 OA
HETATM   32  H14 UNL     1      -9.715  47.886 -27.341  1.00  0.00     0.162 HD
BRANCH  30  33
HETATM   33  C8  UNL     1     -10.999  46.220 -25.888  1.00  0.00     0.136 C 
HETATM   34  C9  UNL     1     -11.620  47.509 -26.430  1.00  0.00     0.026 C 
BRANCH  33  35
HETATM   35  C7  UNL     1     -11.847  44.949 -26.168  1.00  0.00     0.176 C 
HETATM   36  O1  UNL     1     -13.215  45.329 -25.971  1.00  0.00    -0.344 OA
HETATM   37  C6  UNL     1     -14.123  44.278 -26.291  1.00  0.00     0.158 C 
HETATM   38  C34 UNL     1     -14.203  44.087 -27.837  1.00  0.00     0.008 C 
HETATM   39  C33 UNL     1     -12.836  44.451 -28.492  1.00  0.00     0.134 C 
HETATM   40  C35 UNL     1     -14.508  42.591 -28.109  1.00  0.00     0.020 C 
HETATM   41  C36 UNL     1     -15.335  44.908 -28.496  1.00  0.00     0.020 C 
HETATM   42  C32 UNL     1     -11.647  44.285 -27.549  1.00  0.00     0.101 C 
BRANCH  37  43
HETATM   43  C5  UNL     1     -15.420  44.619 -25.604  1.00  0.00     0.006 C 
HETATM   44  C4  UNL     1     -16.629  44.554 -26.186  1.00  0.00    -0.002 C 
BRANCH  44  45
HETATM   45  C3  UNL     1     -17.852  44.871 -25.488  1.00  0.00    -0.005 C 
HETATM   46  C2  UNL     1     -18.259  46.128 -25.263  1.00  0.00    -0.031 C 
HETATM   47  C1  UNL     1     -19.523  46.471 -24.544  1.00  0.00     0.036 C 
ENDBRANCH  44  45
ENDBRANCH  37  43
BRANCH  39  48
HETATM   48  O9  UNL     1     -12.835  45.791 -28.994  1.00  0.00    -0.395 OA
HETATM   49  H47 UNL     1     -12.098  45.872 -29.624  1.00  0.00     0.210 HD
ENDBRANCH  39  48
BRANCH  35  50
HETATM   50  O2  UNL     1     -11.514  43.981 -25.160  1.00  0.00    -0.364 OA
HETATM   51  H9  UNL     1     -10.574  43.749 -25.301  1.00  0.00     0.213 HD
ENDBRANCH  35  50
ENDBRANCH  33  35
ENDBRANCH  30  33
ENDBRANCH  28  29
ENDBRANCH   1  28
TORSDOF 19
ENDMDL
MODEL 2
REMARK minimizedAffinity -8.72240543
REMARK CNNscore 0.393735111
REMARK CNNaffinity 7.39289474
REMARK  19 active torsions:
REMARK  status: ('A' for Active; 'I' for Inactive)
REMARK    1  A    between atoms: C3_3  and  C4_4 
REMARK    2  A    between atoms: C5_5  and  C6_6 
REMARK    3  A    between atoms: C7_8  and  O2_9 
REMARK    4  A    between atoms: C7_8  and  C8_10 
REMARK    5  A    between atoms: C8_10  and  C10_12 
REMARK       I    between atoms: C10_12  and  N1_14 
REMARK    6  A    between atoms: N1_14  and  C11_15 
REMARK    7  A    between atoms: C11_15  and  C12_16 
REMARK    8  A    between atoms: C13_17  and  C14_18 
REMARK    9  A    between atoms: C15_19  and  C17_21 
REMARK   10  A    between atoms: C17_21  and  O4_22 
REMARK   11  A    between atoms: C17_21  and  C19_24 
REMARK   12  A    between atoms: C19_24  and  C21_26 
REMARK   13  A    between atoms: C23_28  and  O5_29 
REMARK   14  A    between atoms: C24_30  and  C25_31 
REMARK   15  A    between atoms: C26_32  and  C27_33 
REMARK   16  A    between atoms: C28_34  and  C29_35 
REMARK   17  A    between atoms: C30_36  and  C31_37 
REMARK   18  A    between atoms: C31_37  and  O7_39 
REMARK   19  A    between atoms: C33_42  and  O9_43 
ROOT
HETATM    1  C12 UNL     1      -3.467  49.955 -27.301  1.00  0.00    -0.007 C 
HETATM    2  C13 UNL     1      -2.197  50.389 -27.277  1.00  0.00    -0.002 C 
ENDROOT
BRANCH   2   3
HETATM    3  C14 UNL     1      -1.848  51.745 -27.642  1.00  0.00     0.005 C 
HETATM    4  C15 UNL     1      -0.766  52.453 -27.250  1.00  0.00    -0.055 C 
HETATM    5  C16 UNL     1      -0.634  53.875 -27.743  1.00  0.00     0.046 C 
BRANCH   4   6
HETATM    6  C17 UNL     1       0.355  51.907 -26.368  1.00  0.00     0.155 C 
BRANCH   6   7
HETATM    7  O4  UNL     1       1.615  52.460 -26.771  1.00  0.00    -0.386 OA
HETATM    8  C18 UNL     1       2.329  51.622 -27.675  1.00  0.00     0.202 C 
ENDBRANCH   6   7
BRANCH   6   9
HETATM    9  C19 UNL     1       0.114  52.157 -24.846  1.00  0.00     0.044 C 
HETATM   10  C20 UNL     1       0.401  53.641 -24.537  1.00  0.00     0.015 C 
BRANCH   9  11
HETATM   11  C21 UNL     1      -1.297  51.792 -24.337  1.00  0.00     0.131 C 
HETATM   12  C22 UNL     1      -1.471  50.341 -23.913  1.00  0.00     0.067 C 
HETATM   13  C23 UNL     1      -2.617  50.452 -22.940  1.00  0.00     0.153 C 
HETATM   14  C24 UNL     1      -2.265  51.743 -22.184  1.00  0.00     0.173 C 
HETATM   15  O8  UNL     1      -1.639  52.591 -23.175  1.00  0.00    -0.374 OA
BRANCH  13  16
HETATM   16  O5  UNL     1      -2.797  49.296 -22.148  1.00  0.00    -0.393 OA
HETATM   17  H35 UNL     1      -3.004  48.561 -22.749  1.00  0.00     0.210 HD
ENDBRANCH  13  16
BRANCH  14  18
HETATM   18  C25 UNL     1      -1.323  51.745 -21.006  1.00  0.00     0.007 C 
HETATM   19  C26 UNL     1      -0.158  52.395 -20.865  1.00  0.00    -0.001 C 
BRANCH  19  20
HETATM   20  C27 UNL     1       0.663  52.272 -19.680  1.00  0.00    -0.000 C 
HETATM   21  C28 UNL     1       0.153  52.203 -18.441  1.00  0.00     0.000 C 
BRANCH  21  22
HETATM   22  C29 UNL     1       0.991  52.119 -17.265  1.00  0.00     0.007 C 
HETATM   23  C30 UNL     1       2.234  52.617 -17.222  1.00  0.00     0.081 C 
BRANCH  23  24
HETATM   24  C31 UNL     1       3.034  52.463 -16.000  1.00  0.00     0.165 C 
HETATM   25  O6  UNL     1       4.246  52.393 -15.907  1.00  0.00    -0.647 OA
BRANCH  24  26
HETATM   26  O7  UNL     1       2.230  52.417 -14.928  1.00  0.00    -0.773 OA
HETATM   27  H43 UNL     1       2.853  52.341 -14.174  1.00  0.00     0.167 HD
ENDBRANCH  24  26
ENDBRANCH  23  24
ENDBRANCH  21  22
ENDBRANCH  19  20
ENDBRANCH  14  18
ENDBRANCH   9  11
ENDBRANCH   6   9
ENDBRANCH   4   6
ENDBRANCH   2   3
BRANCH   1  28
HETATM   28  C11 UNL     1      -3.918  48.592 -26.884  1.00  0.00     0.149 C 
BRANCH  28  29
HETATM   29  N1  UNL     1      -5.203  48.337 -27.488  1.00  0.00    -0.357 N 
HETATM   30  C10 UNL     1      -5.322  47.747 -28.729  1.00  0.00     0.227 C 
HETATM   31  O3  UNL     1      -4.349  47.444 -29.416  1.00  0.00    -0.273 OA
HETATM   32  H14 UNL     1      -6.014  48.357 -26.882  1.00  0.00     0.162 HD
BRANCH  30  33
HETATM   33  C8  UNL     1      -6.758  47.457 -29.156  1.00  0.00     0.136 C 
HETATM   34  C9  UNL     1      -7.711  48.514 -28.596  1.00  0.00     0.026 C 
BRANCH  33  35
HETATM   35  C7  UNL     1      -6.866  47.265 -30.694  1.00  0.00     0.176 C 
HETATM   36  O1  UNL     1      -6.663  45.867 -30.938  1.00  0.00    -0.344 OA
HETATM   37  C6  UNL     1      -6.834  45.524 -32.311  1.00  0.00     0.158 C 
HETATM   38  C34 UNL     1      -8.346  45.564 -32.692  1.00  0.00     0.008 C 
HETATM   39  C33 UNL     1      -9.084  46.638 -31.838  1.00  0.00     0.134 C 
HETATM   40  C35 UNL     1      -8.440  45.957 -34.188  1.00  0.00     0.020 C 
HETATM   41  C36 UNL     1      -9.051  44.196 -32.537  1.00  0.00     0.020 C 
HETATM   42  C32 UNL     1      -8.172  47.762 -31.354  1.00  0.00     0.101 C 
BRANCH  37  43
HETATM   43  C5  UNL     1      -6.143  44.199 -32.502  1.00  0.00     0.006 C 
HETATM   44  C4  UNL     1      -4.811  44.035 -32.544  1.00  0.00    -0.002 C 
BRANCH  44  45
HETATM   45  C3  UNL     1      -4.186  42.745 -32.710  1.00  0.00    -0.005 C 
HETATM   46  C2  UNL     1      -3.657  42.334 -33.872  1.00  0.00    -0.031 C 
HETATM   47  C1  UNL     1      -3.006  41.002 -34.058  1.00  0.00     0.036 C 
ENDBRANCH  44  45
ENDBRANCH  37  43
BRANCH  39  48
HETATM   48  O9  UNL     1      -9.730  46.054 -30.703  1.00  0.00    -0.395 OA
HETATM   49  H47 UNL     1     -10.391  46.690 -30.377  1.00  0.00     0.210 HD
ENDBRANCH  39  48
BRANCH  35  50
HETATM   50  O2  UNL     1      -5.770  47.975 -31.293  1.00  0.00    -0.364 OA
HETATM   51  H9  UNL     1      -5.918  48.923 -31.100  1.00  0.00     0.213 HD
ENDBRANCH  35  50
ENDBRANCH  33  35
ENDBRANCH  30  33
ENDBRANCH  28  29
ENDBRANCH   1  28
TORSDOF 19
ENDMDL
MODEL 3
REMARK minimizedAffinity -8.48445797
REMARK CNNscore 0.319594502
REMARK CNNaffinity 6.77412224
REMARK  19 active torsions:
REMARK  status: ('A' for Active; 'I' for Inactive)
REMARK    1  A    between atoms: C3_3  and  C4_4 
REMARK    2  A    between atoms: C5_5  and  C6_6 
REMARK    3  A    between atoms: C7_8  and  O2_9 
REMARK    4  A    between atoms: C7_8  and  C8_10 
REMARK    5  A    between atoms: C8_10  and  C10_12 
REMARK       I    between atoms: C10_12  and  N1_14 
REMARK    6  A    between atoms: N1_14  and  C11_15 
REMARK    7  A    between atoms: C11_15  and  C12_16 
REMARK    8  A    between atoms: C13_17  and  C14_18 
REMARK    9  A    between atoms: C15_19  and  C17_21 
REMARK   10  A    between atoms: C17_21  and  O4_22 
REMARK   11  A    between atoms: C17_21  and  C19_24 
REMARK   12  A    between atoms: C19_24  and  C21_26 
REMARK   13  A    between atoms: C23_28  and  O5_29 
REMARK   14  A    between atoms: C24_30  and  C25_31 
REMARK   15  A    between atoms: C26_32  and  C27_33 
REMARK   16  A    between atoms: C28_34  and  C29_35 
REMARK   17  A    between atoms: C30_36  and  C31_37 
REMARK   18  A    between atoms: C31_37  and  O7_39 
REMARK   19  A    between atoms: C33_42  and  O9_43 
ROOT
HETATM    1  C12 UNL     1      -5.055  48.082 -26.907  1.00  0.00    -0.007 C 
HETATM    2  C13 UNL     1      -3.768  48.257 -26.566  1.00  0.00    -0.002 C 
ENDROOT
BRANCH   2   3
HETATM    3  C14 UNL     1      -3.374  48.572 -25.210  1.00  0.00     0.005 C 
HETATM    4  C15 UNL     1      -2.931  49.755 -24.733  1.00  0.00    -0.055 C 
HETATM    5  C16 UNL     1      -2.548  49.832 -23.273  1.00  0.00     0.046 C 
BRANCH   4   6
HETATM    6  C17 UNL     1      -2.820  51.036 -25.557  1.00  0.00     0.155 C 
BRANCH   6   7
HETATM    7  O4  UNL     1      -2.457  52.137 -24.714  1.00  0.00    -0.386 OA
HETATM    8  C18 UNL     1      -3.547  52.634 -23.944  1.00  0.00     0.202 C 
ENDBRANCH   6   7
BRANCH   6   9
HETATM    9  C19 UNL     1      -1.821  50.912 -26.751  1.00  0.00     0.044 C 
HETATM   10  C20 UNL     1      -2.564  51.270 -28.055  1.00  0.00     0.015 C 
BRANCH   9  11
HETATM   11  C21 UNL     1      -0.549  51.779 -26.633  1.00  0.00     0.131 C 
HETATM   12  C22 UNL     1      -0.802  53.271 -26.479  1.00  0.00     0.067 C 
HETATM   13  C23 UNL     1       0.459  53.715 -25.783  1.00  0.00     0.153 C 
HETATM   14  C24 UNL     1       0.690  52.569 -24.786  1.00  0.00     0.173 C 
HETATM   15  O8  UNL     1       0.228  51.384 -25.473  1.00  0.00    -0.374 OA
BRANCH  13  16
HETATM   16  O5  UNL     1       0.372  55.013 -25.232  1.00  0.00    -0.393 OA
HETATM   17  H35 UNL     1       0.219  55.631 -25.966  1.00  0.00     0.210 HD
ENDBRANCH  13  16
BRANCH  14  18
HETATM   18  C25 UNL     1       0.012  52.538 -23.438  1.00  0.00     0.007 C 
HETATM   19  C26 UNL     1       0.541  52.780 -22.229  1.00  0.00    -0.001 C 
BRANCH  19  20
HETATM   20  C27 UNL     1      -0.230  52.675 -21.008  1.00  0.00    -0.000 C 
HETATM   21  C28 UNL     1       0.252  52.123 -19.884  1.00  0.00     0.000 C 
BRANCH  21  22
HETATM   22  C29 UNL     1      -0.547  51.991 -18.685  1.00  0.00     0.007 C 
HETATM   23  C30 UNL     1      -0.738  50.818 -18.067  1.00  0.00     0.081 C 
BRANCH  23  24
HETATM   24  C31 UNL     1      -1.589  50.760 -16.872  1.00  0.00     0.165 C 
HETATM   25  O6  UNL     1      -1.281  50.384 -15.756  1.00  0.00    -0.647 OA
BRANCH  24  26
HETATM   26  O7  UNL     1      -2.821  51.206 -17.163  1.00  0.00    -0.773 OA
HETATM   27  H43 UNL     1      -3.295  51.151 -16.306  1.00  0.00     0.167 HD
ENDBRANCH  24  26
ENDBRANCH  23  24
ENDBRANCH  21  22
ENDBRANCH  19  20
ENDBRANCH  14  18
ENDBRANCH   9  11
ENDBRANCH   6   9
ENDBRANCH   4   6
ENDBRANCH   2   3
BRANCH   1  28
HETATM   28  C11 UNL     1      -5.540  47.698 -28.268  1.00  0.00     0.149 C 
BRANCH  28  29
HETATM   29  N1  UNL     1      -6.844  48.282 -28.464  1.00  0.00    -0.357 N 
HETATM   30  C10 UNL     1      -7.797  47.688 -29.264  1.00  0.00     0.227 C 
HETATM   31  O3  UNL     1      -7.585  46.654 -29.894  1.00  0.00    -0.273 OA
HETATM   32  H14 UNL     1      -7.140  48.992 -27.805  1.00  0.00     0.162 HD
BRANCH  30  33
HETATM   33  C8  UNL     1      -9.151  48.391 -29.264  1.00  0.00     0.136 C 
HETATM   34  C9  UNL     1      -9.339  49.201 -30.548  1.00  0.00     0.026 C 
BRANCH  33  35
HETATM   35  C7  UNL     1     -10.309  47.397 -28.973  1.00  0.00     0.176 C 
HETATM   36  O1  UNL     1      -9.980  46.750 -27.737  1.00  0.00    -0.344 OA
HETATM   37  C6  UNL     1     -11.011  45.873 -27.291  1.00  0.00     0.158 C 
HETATM   38  C34 UNL     1     -12.223  46.695 -26.755  1.00  0.00     0.008 C 
HETATM   39  C33 UNL     1     -12.333  48.047 -27.522  1.00  0.00     0.134 C 
HETATM   40  C35 UNL     1     -13.504  45.862 -27.015  1.00  0.00     0.020 C 
HETATM   41  C36 UNL     1     -12.155  46.960 -25.233  1.00  0.00     0.020 C 
HETATM   42  C32 UNL     1     -11.731  48.001 -28.924  1.00  0.00     0.101 C 
BRANCH  37  43
HETATM   43  C5  UNL     1     -10.366  44.933 -26.305  1.00  0.00     0.006 C 
HETATM   44  C4  UNL     1     -10.805  43.693 -26.038  1.00  0.00    -0.002 C 
BRANCH  44  45
HETATM   45  C3  UNL     1     -10.148  42.815 -25.100  1.00  0.00    -0.005 C 
HETATM   46  C2  UNL     1      -9.105  42.040 -25.432  1.00  0.00    -0.031 C 
HETATM   47  C1  UNL     1      -8.414  41.128 -24.471  1.00  0.00     0.036 C 
ENDBRANCH  44  45
ENDBRANCH  37  43
BRANCH  39  48
HETATM   48  O9  UNL     1     -11.717  49.115 -26.796  1.00  0.00    -0.395 OA
HETATM   49  H47 UNL     1     -12.052  49.953 -27.160  1.00  0.00     0.210 HD
ENDBRANCH  39  48
BRANCH  35  50
HETATM   50  O2  UNL     1     -10.288  46.400 -30.007  1.00  0.00    -0.364 OA
HETATM   51  H9  UNL     1     -10.497  46.865 -30.842  1.00  0.00     0.213 HD
ENDBRANCH  35  50
ENDBRANCH  33  35
ENDBRANCH  30  33
ENDBRANCH  28  29
ENDBRANCH   1  28
TORSDOF 19
ENDMDL
MODEL 4
REMARK minimizedAffinity -8.35023594
REMARK CNNscore 0.313845843
REMARK CNNaffinity 7.07407141
REMARK  19 active torsions:
REMARK  status: ('A' for Active; 'I' for Inactive)
REMARK    1  A    between atoms: C3_3  and  C4_4 
REMARK    2  A    between atoms: C5_5  and  C6_6 
REMARK    3  A    between atoms: C7_8  and  O2_9 
REMARK    4  A    between atoms: C7_8  and  C8_10 
REMARK    5  A    between atoms: C8_10  and  C10_12 
REMARK       I    between atoms: C10_12  and  N1_14 
REMARK    6  A    between atoms: N1_14  and  C11_15 
REMARK    7  A    between atoms: C11_15  and  C12_16 
REMARK    8  A    between atoms: C13_17  and  C14_18 
REMARK    9  A    between atoms: C15_19  and  C17_21 
REMARK   10  A    between atoms: C17_21  and  O4_22 
REMARK   11  A    between atoms: C17_21  and  C19_24 
REMARK   12  A    between atoms: C19_24  and  C21_26 
REMARK   13  A    between atoms: C23_28  and  O5_29 
REMARK   14  A    between atoms: C24_30  and  C25_31 
REMARK   15  A    between atoms: C26_32  and  C27_33 
REMARK   16  A    between atoms: C28_34  and  C29_35 
REMARK   17  A    between atoms: C30_36  and  C31_37 
REMARK   18  A    between atoms: C31_37  and  O7_39 
REMARK   19  A    between atoms: C33_42  and  O9_43 
ROOT
HETATM    1  C12 UNL     1      -7.963  48.531 -24.619  1.00  0.00    -0.007 C 
HETATM    2  C13 UNL     1      -6.926  49.302 -24.253  1.00  0.00    -0.002 C 
ENDROOT
BRANCH   2   3
HETATM    3  C14 UNL     1      -5.767  48.753 -23.582  1.00  0.00     0.005 C 
HETATM    4  C15 UNL     1      -4.466  48.967 -23.874  1.00  0.00    -0.055 C 
HETATM    5  C16 UNL     1      -3.427  48.251 -23.044  1.00  0.00     0.046 C 
BRANCH   4   6
HETATM    6  C17 UNL     1      -3.966  49.911 -24.966  1.00  0.00     0.155 C 
BRANCH   6   7
HETATM    7  O4  UNL     1      -3.189  50.967 -24.388  1.00  0.00    -0.386 OA
HETATM    8  C18 UNL     1      -3.879  51.673 -23.362  1.00  0.00     0.202 C 
ENDBRANCH   6   7
BRANCH   6   9
HETATM    9  C19 UNL     1      -3.151  49.182 -26.081  1.00  0.00     0.044 C 
HETATM   10  C20 UNL     1      -4.109  48.273 -26.878  1.00  0.00     0.015 C 
BRANCH   9  11
HETATM   11  C21 UNL     1      -2.397  50.112 -27.056  1.00  0.00     0.131 C 
HETATM   12  C22 UNL     1      -3.057  51.463 -27.292  1.00  0.00     0.067 C 
HETATM   13  C23 UNL     1      -1.874  52.302 -27.701  1.00  0.00     0.153 C 
HETATM   14  C24 UNL     1      -0.786  51.807 -26.736  1.00  0.00     0.173 C 
HETATM   15  O8  UNL     1      -1.067  50.400 -26.555  1.00  0.00    -0.374 OA
BRANCH  13  16
HETATM   16  O5  UNL     1      -2.136  53.691 -27.686  1.00  0.00    -0.393 OA
HETATM   17  H35 UNL     1      -2.842  53.860 -28.331  1.00  0.00     0.210 HD
ENDBRANCH  13  16
BRANCH  14  18
HETATM   18  C25 UNL     1      -0.643  52.367 -25.342  1.00  0.00     0.007 C 
HETATM   19  C26 UNL     1       0.236  52.024 -24.388  1.00  0.00    -0.001 C 
BRANCH  19  20
HETATM   20  C27 UNL     1       0.230  52.629 -23.073  1.00  0.00    -0.000 C 
HETATM   21  C28 UNL     1       0.976  52.173 -22.055  1.00  0.00     0.000 C 
BRANCH  21  22
HETATM   22  C29 UNL     1       0.928  52.765 -20.736  1.00  0.00     0.007 C 
HETATM   23  C30 UNL     1       0.529  52.088 -19.651  1.00  0.00     0.081 C 
BRANCH  23  24
HETATM   24  C31 UNL     1       0.477  52.769 -18.351  1.00  0.00     0.165 C 
HETATM   25  O6  UNL     1       0.847  52.345 -17.272  1.00  0.00    -0.647 OA
BRANCH  24  26
HETATM   26  O7  UNL     1      -0.047  53.996 -18.496  1.00  0.00    -0.773 OA
HETATM   27  H43 UNL     1      -0.014  54.371 -17.590  1.00  0.00     0.167 HD
ENDBRANCH  24  26
ENDBRANCH  23  24
ENDBRANCH  21  22
ENDBRANCH  19  20
ENDBRANCH  14  18
ENDBRANCH   9  11
ENDBRANCH   6   9
ENDBRANCH   4   6
ENDBRANCH   2   3
BRANCH   1  28
HETATM   28  C11 UNL     1      -9.168  49.007 -25.366  1.00  0.00     0.149 C 
BRANCH  28  29
HETATM   29  N1  UNL     1      -9.516  48.008 -26.346  1.00  0.00    -0.357 N 
HETATM   30  C10 UNL     1     -10.764  47.962 -26.931  1.00  0.00     0.227 C 
HETATM   31  O3  UNL     1     -11.669  48.734 -26.624  1.00  0.00    -0.273 OA
HETATM   32  H14 UNL     1      -8.755  47.506 -26.788  1.00  0.00     0.162 HD
BRANCH  30  33
HETATM   33  C8  UNL     1     -10.912  46.907 -28.023  1.00  0.00     0.136 C 
HETATM   34  C9  UNL     1     -12.046  47.278 -28.980  1.00  0.00     0.026 C 
BRANCH  33  35
HETATM   35  C7  UNL     1      -9.558  46.627 -28.731  1.00  0.00     0.176 C 
HETATM   36  O1  UNL     1      -9.875  46.325 -30.096  1.00  0.00    -0.344 OA
HETATM   37  C6  UNL     1      -8.711  46.140 -30.897  1.00  0.00     0.158 C 
HETATM   38  C34 UNL     1      -8.019  47.512 -31.165  1.00  0.00     0.008 C 
HETATM   39  C33 UNL     1      -8.252  48.473 -29.960  1.00  0.00     0.134 C 
HETATM   40  C35 UNL     1      -6.498  47.248 -31.311  1.00  0.00     0.020 C 
HETATM   41  C36 UNL     1      -8.489  48.189 -32.474  1.00  0.00     0.020 C 
HETATM   42  C32 UNL     1      -8.496  47.746 -28.641  1.00  0.00     0.101 C 
BRANCH  37  43
HETATM   43  C5  UNL     1      -9.158  45.381 -32.120  1.00  0.00     0.006 C 
HETATM   44  C4  UNL     1     -10.439  45.133 -32.435  1.00  0.00    -0.002 C 
BRANCH  44  45
HETATM   45  C3  UNL     1     -10.828  44.418 -33.626  1.00  0.00    -0.005 C 
HETATM   46  C2  UNL     1     -11.356  43.185 -33.597  1.00  0.00    -0.031 C 
HETATM   47  C1  UNL     1     -11.765  42.433 -34.822  1.00  0.00     0.036 C 
ENDBRANCH  44  45
ENDBRANCH  37  43
BRANCH  39  48
HETATM   48  O9  UNL     1      -9.350  49.359 -30.201  1.00  0.00    -0.395 OA
HETATM   49  H47 UNL     1      -9.276  50.101 -29.574  1.00  0.00     0.210 HD
ENDBRANCH  39  48
BRANCH  35  50
HETATM   50  O2  UNL     1      -9.003  45.441 -28.140  1.00  0.00    -0.364 OA
HETATM   51  H9  UNL     1      -8.810  45.663 -27.206  1.00  0.00     0.213 HD
ENDBRANCH  35  50
ENDBRANCH  33  35
ENDBRANCH  30  33
ENDBRANCH  28  29
ENDBRANCH   1  28
TORSDOF 19
ENDMDL
MODEL 5
REMARK minimizedAffinity -8.60943317
REMARK CNNscore 0.309378386
REMARK CNNaffinity 7.17845106
REMARK  19 active torsions:
REMARK  status: ('A' for Active; 'I' for Inactive)
REMARK    1  A    between atoms: C3_3  and  C4_4 
REMARK    2  A    between atoms: C5_5  and  C6_6 
REMARK    3  A    between atoms: C7_8  and  O2_9 
REMARK    4  A    between atoms: C7_8  and  C8_10 
REMARK    5  A    between atoms: C8_10  and  C10_12 
REMARK       I    between atoms: C10_12  and  N1_14 
REMARK    6  A    between atoms: N1_14  and  C11_15 
REMARK    7  A    between atoms: C11_15  and  C12_16 
REMARK    8  A    between atoms: C13_17  and  C14_18 
REMARK    9  A    between atoms: C15_19  and  C17_21 
REMARK   10  A    between atoms: C17_21  and  O4_22 
REMARK   11  A    between atoms: C17_21  and  C19_24 
REMARK   12  A    between atoms: C19_24  and  C21_26 
REMARK   13  A    between atoms: C23_28  and  O5_29 
REMARK   14  A    between atoms: C24_30  and  C25_31 
REMARK   15  A    between atoms: C26_32  and  C27_33 
REMARK   16  A    between atoms: C28_34  and  C29_35 
REMARK   17  A    between atoms: C30_36  and  C31_37 
REMARK   18  A    between atoms: C31_37  and  O7_39 
REMARK   19  A    between atoms: C33_42  and  O9_43 
ROOT
HETATM    1  C12 UNL     1      -6.896  47.732 -24.740  1.00  0.00    -0.007 C 
HETATM    2  C13 UNL     1      -6.347  48.594 -23.869  1.00  0.00    -0.002 C 
ENDROOT
BRANCH   2   3
HETATM    3  C14 UNL     1      -5.058  48.347 -23.261  1.00  0.00     0.005 C 
HETATM    4  C15 UNL     1      -3.856  48.821 -23.654  1.00  0.00    -0.055 C 
HETATM    5  C16 UNL     1      -2.636  48.394 -22.871  1.00  0.00     0.046 C 
BRANCH   4   6
HETATM    6  C17 UNL     1      -3.642  49.788 -24.816  1.00  0.00     0.155 C 
BRANCH   6   7
HETATM    7  O4  UNL     1      -2.897  50.932 -24.378  1.00  0.00    -0.386 OA
HETATM    8  C18 UNL     1      -3.652  51.805 -23.544  1.00  0.00     0.202 C 
ENDBRANCH   6   7
BRANCH   6   9
HETATM    9  C19 UNL     1      -2.946  49.124 -26.046  1.00  0.00     0.044 C 
HETATM   10  C20 UNL     1      -4.021  48.424 -26.903  1.00  0.00     0.015 C 
BRANCH   9  11
HETATM   11  C21 UNL     1      -2.130  50.087 -26.936  1.00  0.00     0.131 C 
HETATM   12  C22 UNL     1      -2.593  51.536 -26.905  1.00  0.00     0.067 C 
HETATM   13  C23 UNL     1      -1.327  52.259 -27.290  1.00  0.00     0.153 C 
HETATM   14  C24 UNL     1      -0.263  51.469 -26.515  1.00  0.00     0.173 C 
HETATM   15  O8  UNL     1      -0.740  50.103 -26.522  1.00  0.00    -0.374 OA
BRANCH  13  16
HETATM   16  O5  UNL     1      -1.375  53.650 -27.043  1.00  0.00    -0.393 OA
HETATM   17  H35 UNL     1      -2.091  54.017 -27.587  1.00  0.00     0.210 HD
ENDBRANCH  13  16
BRANCH  14  18
HETATM   18  C25 UNL     1       0.059  51.770 -25.072  1.00  0.00     0.007 C 
HETATM   19  C26 UNL     1       0.361  52.950 -24.510  1.00  0.00    -0.001 C 
BRANCH  19  20
HETATM   20  C27 UNL     1       0.687  53.082 -23.106  1.00  0.00    -0.000 C 
HETATM   21  C28 UNL     1      -0.094  52.602 -22.126  1.00  0.00     0.000 C 
BRANCH  21  22
HETATM   22  C29 UNL     1       0.228  52.777 -20.726  1.00  0.00     0.007 C 
HETATM   23  C30 UNL     1      -0.054  51.854 -19.797  1.00  0.00     0.081 C 
BRANCH  23  24
HETATM   24  C31 UNL     1       0.275  52.120 -18.390  1.00  0.00     0.165 C 
HETATM   25  O6  UNL     1      -0.005  51.442 -17.418  1.00  0.00    -0.647 OA
BRANCH  24  26
HETATM   26  O7  UNL     1       0.973  53.261 -18.289  1.00  0.00    -0.773 OA
HETATM   27  H43 UNL     1       1.162  53.333 -17.329  1.00  0.00     0.167 HD
ENDBRANCH  24  26
ENDBRANCH  23  24
ENDBRANCH  21  22
ENDBRANCH  19  20
ENDBRANCH  14  18
ENDBRANCH   9  11
ENDBRANCH   6   9
ENDBRANCH   4   6
ENDBRANCH   2   3
BRANCH   1  28
HETATM   28  C11 UNL     1      -8.192  47.940 -25.456  1.00  0.00     0.149 C 
BRANCH  28  29
HETATM   29  N1  UNL     1      -8.172  47.152 -26.664  1.00  0.00    -0.357 N 
HETATM   30  C10 UNL     1      -9.079  47.355 -27.683  1.00  0.00     0.227 C 
HETATM   31  O3  UNL     1      -9.984  48.182 -27.612  1.00  0.00    -0.273 OA
HETATM   32  H14 UNL     1      -7.328  46.628 -26.864  1.00  0.00     0.162 HD
BRANCH  30  33
HETATM   33  C8  UNL     1      -8.835  46.504 -28.926  1.00  0.00     0.136 C 
HETATM   34  C9  UNL     1     -10.018  46.605 -29.890  1.00  0.00     0.026 C 
BRANCH  33  35
HETATM   35  C7  UNL     1      -7.462  46.828 -29.578  1.00  0.00     0.176 C 
HETATM   36  O1  UNL     1      -7.318  45.922 -30.679  1.00  0.00    -0.344 OA
HETATM   37  C6  UNL     1      -6.137  46.171 -31.437  1.00  0.00     0.158 C 
HETATM   38  C34 UNL     1      -6.306  47.470 -32.285  1.00  0.00     0.008 C 
HETATM   39  C33 UNL     1      -7.240  48.474 -31.544  1.00  0.00     0.134 C 
HETATM   40  C35 UNL     1      -4.903  48.111 -32.443  1.00  0.00     0.020 C 
HETATM   41  C36 UNL     1      -6.847  47.204 -33.709  1.00  0.00     0.020 C 
HETATM   42  C32 UNL     1      -7.250  48.291 -30.028  1.00  0.00     0.101 C 
BRANCH  37  43
HETATM   43  C5  UNL     1      -5.864  44.911 -32.216  1.00  0.00     0.006 C 
HETATM   44  C4  UNL     1      -4.643  44.387 -32.411  1.00  0.00    -0.002 C 
BRANCH  44  45
HETATM   45  C3  UNL     1      -4.423  43.166 -33.147  1.00  0.00    -0.005 C 
HETATM   46  C2  UNL     1      -5.394  42.271 -33.383  1.00  0.00    -0.031 C 
HETATM   47  C1  UNL     1      -5.181  41.003 -34.144  1.00  0.00     0.036 C 
ENDBRANCH  44  45
ENDBRANCH  37  43
BRANCH  39  48
HETATM   48  O9  UNL     1      -8.587  48.389 -32.021  1.00  0.00    -0.395 OA
HETATM   49  H47 UNL     1      -9.051  49.199 -31.748  1.00  0.00     0.210 HD
ENDBRANCH  39  48
BRANCH  35  50
HETATM   50  O2  UNL     1      -6.444  46.510 -28.615  1.00  0.00    -0.364 OA
HETATM   51  H9  UNL     1      -6.572  47.127 -27.865  1.00  0.00     0.213 HD
ENDBRANCH  35  50
ENDBRANCH  33  35
ENDBRANCH  30  33
ENDBRANCH  28  29
ENDBRANCH   1  28
TORSDOF 19
ENDMDL
MODEL 6
REMARK minimizedAffinity -8.81868935
REMARK CNNscore 0.298553705
REMARK CNNaffinity 7.08935213
REMARK  19 active torsions:
REMARK  status: ('A' for Active; 'I' for Inactive)
REMARK    1  A    between atoms: C3_3  and  C4_4 
REMARK    2  A    between atoms: C5_5  and  C6_6 
REMARK    3  A    between atoms: C7_8  and  O2_9 
REMARK    4  A    between atoms: C7_8  and  C8_10 
REMARK    5  A    between atoms: C8_10  and  C10_12 
REMARK       I    between atoms: C10_12  and  N1_14 
REMARK    6  A    between atoms: N1_14  and  C11_15 
REMARK    7  A    between atoms: C11_15  and  C12_16 
REMARK    8  A    between atoms: C13_17  and  C14_18 
REMARK    9  A    between atoms: C15_19  and  C17_21 
REMARK   10  A    between atoms: C17_21  and  O4_22 
REMARK   11  A    between atoms: C17_21  and  C19_24 
REMARK   12  A    between atoms: C19_24  and  C21_26 
REMARK   13  A    between atoms: C23_28  and  O5_29 
REMARK   14  A    between atoms: C24_30  and  C25_31 
REMARK   15  A    between atoms: C26_32  and  C27_33 
REMARK   16  A    between atoms: C28_34  and  C29_35 
REMARK   17  A    between atoms: C30_36  and  C31_37 
REMARK   18  A    between atoms: C31_37  and  O7_39 
REMARK   19  A    between atoms: C33_42  and  O9_43 
ROOT
HETATM    1  C12 UNL     1      -3.119  48.891 -24.808  1.00  0.00    -0.007 C 
HETATM    2  C13 UNL     1      -3.007  49.303 -23.535  1.00  0.00    -0.002 C 
ENDROOT
BRANCH   2   3
HETATM    3  C14 UNL     1      -2.372  48.489 -22.522  1.00  0.00     0.005 C 
HETATM    4  C15 UNL     1      -2.607  48.492 -21.193  1.00  0.00    -0.055 C 
HETATM    5  C16 UNL     1      -1.787  47.565 -20.326  1.00  0.00     0.046 C 
BRANCH   4   6
HETATM    6  C17 UNL     1      -3.669  49.345 -20.502  1.00  0.00     0.155 C 
BRANCH   6   7
HETATM    7  O4  UNL     1      -4.935  49.183 -21.155  1.00  0.00    -0.386 OA
HETATM    8  C18 UNL     1      -5.536  47.918 -20.903  1.00  0.00     0.202 C 
ENDBRANCH   6   7
BRANCH   6   9
HETATM    9  C19 UNL     1      -3.802  49.042 -18.976  1.00  0.00     0.044 C 
HETATM   10  C20 UNL     1      -3.344  47.590 -18.720  1.00  0.00     0.015 C 
BRANCH   9  11
HETATM   11  C21 UNL     1      -3.020  49.996 -18.048  1.00  0.00     0.131 C 
HETATM   12  C22 UNL     1      -1.570  49.605 -17.800  1.00  0.00     0.067 C 
HETATM   13  C23 UNL     1      -0.959  50.939 -17.456  1.00  0.00     0.153 C 
HETATM   14  C24 UNL     1      -1.649  51.872 -18.462  1.00  0.00     0.173 C 
HETATM   15  O8  UNL     1      -2.982  51.332 -18.611  1.00  0.00    -0.374 OA
BRANCH  13  16
HETATM   16  O5  UNL     1       0.454  50.933 -17.477  1.00  0.00    -0.393 OA
HETATM   17  H35 UNL     1       0.753  50.300 -16.804  1.00  0.00     0.210 HD
ENDBRANCH  13  16
BRANCH  14  18
HETATM   18  C25 UNL     1      -1.131  52.050 -19.868  1.00  0.00     0.007 C 
HETATM   19  C26 UNL     1       0.055  52.532 -20.269  1.00  0.00    -0.001 C 
BRANCH  19  20
HETATM   20  C27 UNL     1       0.401  52.681 -21.667  1.00  0.00    -0.000 C 
HETATM   21  C28 UNL     1      -0.276  52.077 -22.655  1.00  0.00     0.000 C 
BRANCH  21  22
HETATM   22  C29 UNL     1       0.108  52.205 -24.044  1.00  0.00     0.007 C 
HETATM   23  C30 UNL     1      -0.184  53.285 -24.781  1.00  0.00     0.081 C 
BRANCH  23  24
HETATM   24  C31 UNL     1       0.212  53.326 -26.195  1.00  0.00     0.165 C 
HETATM   25  O6  UNL     1       0.566  52.396 -26.897  1.00  0.00    -0.647 OA
BRANCH  24  26
HETATM   26  O7  UNL     1       0.125  54.581 -26.661  1.00  0.00    -0.773 OA
HETATM   27  H43 UNL     1       0.381  54.497 -27.604  1.00  0.00     0.167 HD
ENDBRANCH  24  26
ENDBRANCH  23  24
ENDBRANCH  21  22
ENDBRANCH  19  20
ENDBRANCH  14  18
ENDBRANCH   9  11
ENDBRANCH   6   9
ENDBRANCH   4   6
ENDBRANCH   2   3
BRANCH   1  28
HETATM   28  C11 UNL     1      -3.706  49.694 -25.925  1.00  0.00     0.149 C 
BRANCH  28  29
HETATM   29  N1  UNL     1      -4.835  48.970 -26.455  1.00  0.00    -0.357 N 
HETATM   30  C10 UNL     1      -4.754  48.247 -27.627  1.00  0.00     0.227 C 
HETATM   31  O3  UNL     1      -3.737  48.210 -28.315  1.00  0.00    -0.273 OA
HETATM   32  H14 UNL     1      -5.608  48.787 -25.826  1.00  0.00     0.162 HD
BRANCH  30  33
HETATM   33  C8  UNL     1      -6.015  47.460 -27.973  1.00  0.00     0.136 C 
HETATM   34  C9  UNL     1      -7.064  47.610 -26.870  1.00  0.00     0.026 C 
BRANCH  33  35
HETATM   35  C7  UNL     1      -6.538  47.818 -29.391  1.00  0.00     0.176 C 
HETATM   36  O1  UNL     1      -6.177  46.720 -30.239  1.00  0.00    -0.344 OA
HETATM   37  C6  UNL     1      -6.683  46.866 -31.564  1.00  0.00     0.158 C 
HETATM   38  C34 UNL     1      -8.223  46.618 -31.581  1.00  0.00     0.008 C 
HETATM   39  C33 UNL     1      -8.851  47.057 -30.224  1.00  0.00     0.134 C 
HETATM   40  C35 UNL     1      -8.823  47.485 -32.718  1.00  0.00     0.020 C 
HETATM   41  C36 UNL     1      -8.601  45.149 -31.883  1.00  0.00     0.020 C 
HETATM   42  C32 UNL     1      -8.046  48.135 -29.503  1.00  0.00     0.101 C 
BRANCH  37  43
HETATM   43  C5  UNL     1      -5.860  45.950 -32.432  1.00  0.00     0.006 C 
HETATM   44  C4  UNL     1      -5.025  45.008 -31.966  1.00  0.00    -0.002 C 
BRANCH  44  45
HETATM   45  C3  UNL     1      -4.268  44.136 -32.831  1.00  0.00    -0.005 C 
HETATM   46  C2  UNL     1      -4.206  42.808 -32.656  1.00  0.00    -0.031 C 
HETATM   47  C1  UNL     1      -3.427  41.893 -33.543  1.00  0.00     0.036 C 
ENDBRANCH  44  45
ENDBRANCH  37  43
BRANCH  39  48
HETATM   48  O9  UNL     1      -9.020  45.946 -29.340  1.00  0.00    -0.395 OA
HETATM   49  H47 UNL     1      -9.655  46.208 -28.650  1.00  0.00     0.210 HD
ENDBRANCH  39  48
BRANCH  35  50
HETATM   50  O2  UNL     1      -5.810  48.972 -29.838  1.00  0.00    -0.364 OA
HETATM   51  H9  UNL     1      -6.056  49.704 -29.236  1.00  0.00     0.213 HD
ENDBRANCH  35  50
ENDBRANCH  33  35
ENDBRANCH  30  33
ENDBRANCH  28  29
ENDBRANCH   1  28
TORSDOF 19
ENDMDL
MODEL 7
REMARK minimizedAffinity -8.23760605
REMARK CNNscore 0.288908601
REMARK CNNaffinity 6.98049736
REMARK  19 active torsions:
REMARK  status: ('A' for Active; 'I' for Inactive)
REMARK    1  A    between atoms: C3_3  and  C4_4 
REMARK    2  A    between atoms: C5_5  and  C6_6 
REMARK    3  A    between atoms: C7_8  and  O2_9 
REMARK    4  A    between atoms: C7_8  and  C8_10 
REMARK    5  A    between atoms: C8_10  and  C10_12 
REMARK       I    between atoms: C10_12  and  N1_14 
REMARK    6  A    between atoms: N1_14  and  C11_15 
REMARK    7  A    between atoms: C11_15  and  C12_16 
REMARK    8  A    between atoms: C13_17  and  C14_18 
REMARK    9  A    between atoms: C15_19  and  C17_21 
REMARK   10  A    between atoms: C17_21  and  O4_22 
REMARK   11  A    between atoms: C17_21  and  C19_24 
REMARK   12  A    between atoms: C19_24  and  C21_26 
REMARK   13  A    between atoms: C23_28  and  O5_29 
REMARK   14  A    between atoms: C24_30  and  C25_31 
REMARK   15  A    between atoms: C26_32  and  C27_33 
REMARK   16  A    between atoms: C28_34  and  C29_35 
REMARK   17  A    between atoms: C30_36  and  C31_37 
REMARK   18  A    between atoms: C31_37  and  O7_39 
REMARK   19  A    between atoms: C33_42  and  O9_43 
ROOT
HETATM    1  C12 UNL     1      -0.025  51.867 -21.539  1.00  0.00    -0.007 C 
HETATM    2  C13 UNL     1       0.017  52.457 -22.745  1.00  0.00    -0.002 C 
ENDROOT
BRANCH   2   3
HETATM    3  C14 UNL     1       0.966  52.052 -23.759  1.00  0.00     0.005 C 
HETATM    4  C15 UNL     1       0.885  52.253 -25.092  1.00  0.00    -0.055 C 
HETATM    5  C16 UNL     1       1.995  51.706 -25.960  1.00  0.00     0.046 C 
BRANCH   4   6
HETATM    6  C17 UNL     1      -0.234  53.026 -25.787  1.00  0.00     0.155 C 
BRANCH   6   7
HETATM    7  O4  UNL     1       0.289  53.755 -26.905  1.00  0.00    -0.386 OA
HETATM    8  C18 UNL     1      -0.722  54.206 -27.801  1.00  0.00     0.202 C 
ENDBRANCH   6   7
BRANCH   6   9
HETATM    9  C19 UNL     1      -1.420  52.116 -26.237  1.00  0.00     0.044 C 
HETATM   10  C20 UNL     1      -0.861  50.976 -27.115  1.00  0.00     0.015 C 
BRANCH   9  11
HETATM   11  C21 UNL     1      -2.257  51.514 -25.088  1.00  0.00     0.131 C 
HETATM   12  C22 UNL     1      -3.649  52.107 -24.930  1.00  0.00     0.067 C 
HETATM   13  C23 UNL     1      -4.378  50.975 -24.252  1.00  0.00     0.153 C 
HETATM   14  C24 UNL     1      -3.825  49.751 -24.997  1.00  0.00     0.173 C 
HETATM   15  O8  UNL     1      -2.451  50.091 -25.295  1.00  0.00    -0.374 OA
BRANCH  13  16
HETATM   16  O5  UNL     1      -5.783  51.126 -24.257  1.00  0.00    -0.393 OA
HETATM   17  H35 UNL     1      -5.990  51.936 -23.762  1.00  0.00     0.210 HD
ENDBRANCH  13  16
BRANCH  14  18
HETATM   18  C25 UNL     1      -4.412  49.283 -26.306  1.00  0.00     0.007 C 
HETATM   19  C26 UNL     1      -5.144  48.186 -26.552  1.00  0.00    -0.001 C 
BRANCH  19  20
HETATM   20  C27 UNL     1      -5.612  47.844 -27.878  1.00  0.00    -0.000 C 
HETATM   21  C28 UNL     1      -4.807  47.807 -28.950  1.00  0.00     0.000 C 
BRANCH  21  22
HETATM   22  C29 UNL     1      -5.300  47.502 -30.276  1.00  0.00     0.007 C 
HETATM   23  C30 UNL     1      -6.259  46.595 -30.502  1.00  0.00     0.081 C 
BRANCH  23  24
HETATM   24  C31 UNL     1      -6.683  46.318 -31.881  1.00  0.00     0.165 C 
HETATM   25  O6  UNL     1      -7.105  45.270 -32.334  1.00  0.00    -0.647 OA
BRANCH  24  26
HETATM   26  O7  UNL     1      -6.556  47.423 -32.631  1.00  0.00    -0.773 OA
HETATM   27  H43 UNL     1      -6.884  47.143 -33.512  1.00  0.00     0.167 HD
ENDBRANCH  24  26
ENDBRANCH  23  24
ENDBRANCH  21  22
ENDBRANCH  19  20
ENDBRANCH  14  18
ENDBRANCH   9  11
ENDBRANCH   6   9
ENDBRANCH   4   6
ENDBRANCH   2   3
BRANCH   1  28
HETATM   28  C11 UNL     1      -1.010  52.183 -20.460  1.00  0.00     0.149 C 
BRANCH  28  29
HETATM   29  N1  UNL     1      -0.328  52.111 -19.191  1.00  0.00    -0.357 N 
HETATM   30  C10 UNL     1      -0.078  50.909 -18.564  1.00  0.00     0.227 C 
HETATM   31  O3  UNL     1      -0.457  49.832 -19.017  1.00  0.00    -0.273 OA
HETATM   32  H14 UNL     1       0.192  52.929 -18.896  1.00  0.00     0.162 HD
BRANCH  30  33
HETATM   33  C8  UNL     1       0.750  51.022 -17.287  1.00  0.00     0.136 C 
HETATM   34  C9  UNL     1       1.176  52.472 -17.047  1.00  0.00     0.026 C 
BRANCH  33  35
HETATM   35  C7  UNL     1       0.022  50.373 -16.077  1.00  0.00     0.176 C 
HETATM   36  O1  UNL     1      -0.240  51.435 -15.151  1.00  0.00    -0.344 OA
HETATM   37  C6  UNL     1      -0.998  51.000 -14.025  1.00  0.00     0.158 C 
HETATM   38  C34 UNL     1      -2.480  50.743 -14.440  1.00  0.00     0.008 C 
HETATM   39  C33 UNL     1      -2.545  50.270 -15.924  1.00  0.00     0.134 C 
HETATM   40  C35 UNL     1      -3.033  49.619 -13.528  1.00  0.00     0.020 C 
HETATM   41  C36 UNL     1      -3.392  51.977 -14.243  1.00  0.00     0.020 C 
HETATM   42  C32 UNL     1      -1.267  49.584 -16.399  1.00  0.00     0.101 C 
BRANCH  37  43
HETATM   43  C5  UNL     1      -0.787  52.035 -12.950  1.00  0.00     0.006 C 
HETATM   44  C4  UNL     1      -0.598  51.754 -11.651  1.00  0.00    -0.002 C 
BRANCH  44  45
HETATM   45  C3  UNL     1      -0.379  52.774 -10.654  1.00  0.00    -0.005 C 
HETATM   46  C2  UNL     1      -0.638  54.072 -10.868  1.00  0.00    -0.031 C 
HETATM   47  C1  UNL     1      -0.418  55.138  -9.845  1.00  0.00     0.036 C 
ENDBRANCH  44  45
ENDBRANCH  37  43
BRANCH  39  48
HETATM   48  O9  UNL     1      -2.836  51.355 -16.809  1.00  0.00    -0.395 OA
HETATM   49  H47 UNL     1      -3.142  50.977 -17.652  1.00  0.00     0.210 HD
ENDBRANCH  39  48
BRANCH  35  50
HETATM   50  O2  UNL     1       0.949  49.470 -15.454  1.00  0.00    -0.364 OA
HETATM   51  H9  UNL     1       1.128  48.764 -16.108  1.00  0.00     0.213 HD
ENDBRANCH  35  50
ENDBRANCH  33  35
ENDBRANCH  30  33
ENDBRANCH  28  29
ENDBRANCH   1  28
TORSDOF 19
ENDMDL
MODEL 8
REMARK minimizedAffinity -8.68687057
REMARK CNNscore 0.285250783
REMARK CNNaffinity 6.93429899
REMARK  19 active torsions:
REMARK  status: ('A' for Active; 'I' for Inactive)
REMARK    1  A    between atoms: C3_3  and  C4_4 
REMARK    2  A    between atoms: C5_5  and  C6_6 
REMARK    3  A    between atoms: C7_8  and  O2_9 
REMARK    4  A    between atoms: C7_8  and  C8_10 
REMARK    5  A    between atoms: C8_10  and  C10_12 
REMARK       I    between atoms: C10_12  and  N1_14 
REMARK    6  A    between atoms: N1_14  and  C11_15 
REMARK    7  A    between atoms: C11_15  and  C12_16 
REMARK    8  A    between atoms: C13_17  and  C14_18 
REMARK    9  A    between atoms: C15_19  and  C17_21 
REMARK   10  A    between atoms: C17_21  and  O4_22 
REMARK   11  A    between atoms: C17_21  and  C19_24 
REMARK   12  A    between atoms: C19_24  and  C21_26 
REMARK   13  A    between atoms: C23_28  and  O5_29 
REMARK   14  A    between atoms: C24_30  and  C25_31 
REMARK   15  A    between atoms: C26_32  and  C27_33 
REMARK   16  A    between atoms: C28_34  and  C29_35 
REMARK   17  A    between atoms: C30_36  and  C31_37 
REMARK   18  A    between atoms: C31_37  and  O7_39 
REMARK   19  A    between atoms: C33_42  and  O9_43 
ROOT
HETATM    1  C12 UNL     1      -4.179  48.272 -27.162  1.00  0.00    -0.007 C 
HETATM    2  C13 UNL     1      -3.302  48.882 -26.349  1.00  0.00    -0.002 C 
ENDROOT
BRANCH   2   3
HETATM    3  C14 UNL     1      -3.028  48.389 -25.016  1.00  0.00     0.005 C 
HETATM    4  C15 UNL     1      -3.327  48.981 -23.840  1.00  0.00    -0.055 C 
HETATM    5  C16 UNL     1      -2.907  48.282 -22.568  1.00  0.00     0.046 C 
BRANCH   4   6
HETATM    6  C17 UNL     1      -4.092  50.296 -23.700  1.00  0.00     0.155 C 
BRANCH   6   7
HETATM    7  O4  UNL     1      -5.186  50.137 -22.787  1.00  0.00    -0.386 OA
HETATM    8  C18 UNL     1      -5.073  50.958 -21.629  1.00  0.00     0.202 C 
ENDBRANCH   6   7
BRANCH   6   9
HETATM    9  C19 UNL     1      -3.186  51.489 -23.260  1.00  0.00     0.044 C 
HETATM   10  C20 UNL     1      -2.823  51.310 -21.771  1.00  0.00     0.015 C 
BRANCH   9  11
HETATM   11  C21 UNL     1      -1.893  51.668 -24.084  1.00  0.00     0.131 C 
HETATM   12  C22 UNL     1      -1.465  53.113 -24.299  1.00  0.00     0.067 C 
HETATM   13  C23 UNL     1       0.017  52.952 -24.521  1.00  0.00     0.153 C 
HETATM   14  C24 UNL     1       0.379  51.884 -23.479  1.00  0.00     0.173 C 
HETATM   15  O8  UNL     1      -0.777  51.016 -23.424  1.00  0.00    -0.374 OA
BRANCH  13  16
HETATM   16  O5  UNL     1       0.733  54.168 -24.443  1.00  0.00    -0.393 OA
HETATM   17  H35 UNL     1       0.401  54.748 -25.147  1.00  0.00     0.210 HD
ENDBRANCH  13  16
BRANCH  14  18
HETATM   18  C25 UNL     1       0.679  52.240 -22.044  1.00  0.00     0.007 C 
HETATM   19  C26 UNL     1       1.025  53.430 -21.531  1.00  0.00    -0.001 C 
BRANCH  19  20
HETATM   20  C27 UNL     1       1.321  53.614 -20.126  1.00  0.00    -0.000 C 
HETATM   21  C28 UNL     1       0.866  52.792 -19.169  1.00  0.00     0.000 C 
BRANCH  21  22
HETATM   22  C29 UNL     1       1.139  53.014 -17.766  1.00  0.00     0.007 C 
HETATM   23  C30 UNL     1       1.136  52.026 -16.861  1.00  0.00     0.081 C 
BRANCH  23  24
HETATM   24  C31 UNL     1       1.391  52.337 -15.448  1.00  0.00     0.165 C 
HETATM   25  O6  UNL     1       0.579  52.416 -14.545  1.00  0.00    -0.647 OA
BRANCH  24  26
HETATM   26  O7  UNL     1       2.704  52.525 -15.249  1.00  0.00    -0.773 OA
HETATM   27  H43 UNL     1       2.770  52.699 -14.286  1.00  0.00     0.167 HD
ENDBRANCH  24  26
ENDBRANCH  23  24
ENDBRANCH  21  22
ENDBRANCH  19  20
ENDBRANCH  14  18
ENDBRANCH   9  11
ENDBRANCH   6   9
ENDBRANCH   4   6
ENDBRANCH   2   3
BRANCH   1  28
HETATM   28  C11 UNL     1      -4.476  48.679 -28.570  1.00  0.00     0.149 C 
BRANCH  28  29
HETATM   29  N1  UNL     1      -5.885  48.485 -28.809  1.00  0.00    -0.357 N 
HETATM   30  C10 UNL     1      -6.352  47.841 -29.935  1.00  0.00     0.227 C 
HETATM   31  O3  UNL     1      -5.608  47.433 -30.824  1.00  0.00    -0.273 OA
HETATM   32  H14 UNL     1      -6.510  48.595 -28.019  1.00  0.00     0.162 HD
BRANCH  30  33
HETATM   33  C8  UNL     1      -7.863  47.631 -29.962  1.00  0.00     0.136 C 
HETATM   34  C9  UNL     1      -8.593  48.910 -29.547  1.00  0.00     0.026 C 
BRANCH  33  35
HETATM   35  C7  UNL     1      -8.333  47.054 -31.326  1.00  0.00     0.176 C 
HETATM   36  O1  UNL     1      -7.954  45.672 -31.328  1.00  0.00    -0.344 OA
HETATM   37  C6  UNL     1      -8.413  44.984 -32.488  1.00  0.00     0.158 C 
HETATM   38  C34 UNL     1      -9.954  44.756 -32.406  1.00  0.00     0.008 C 
HETATM   39  C33 UNL     1     -10.624  45.917 -31.611  1.00  0.00     0.134 C 
HETATM   40  C35 UNL     1     -10.505  44.754 -33.854  1.00  0.00     0.020 C 
HETATM   41  C36 UNL     1     -10.338  43.398 -31.773  1.00  0.00     0.020 C 
HETATM   42  C32 UNL     1      -9.833  47.222 -31.658  1.00  0.00     0.101 C 
BRANCH  37  43
HETATM   43  C5  UNL     1      -7.571  43.739 -32.600  1.00  0.00     0.006 C 
HETATM   44  C4  UNL     1      -6.230  43.720 -32.533  1.00  0.00    -0.002 C 
BRANCH  44  45
HETATM   45  C3  UNL     1      -5.458  42.504 -32.624  1.00  0.00    -0.005 C 
HETATM   46  C2  UNL     1      -4.143  42.492 -32.886  1.00  0.00    -0.031 C 
HETATM   47  C1  UNL     1      -3.332  41.242 -32.982  1.00  0.00     0.036 C 
ENDBRANCH  44  45
ENDBRANCH  37  43
BRANCH  39  48
HETATM   48  O9  UNL     1     -10.836  45.562 -30.241  1.00  0.00    -0.395 OA
HETATM   49  H47 UNL     1     -11.491  46.179 -29.872  1.00  0.00     0.210 HD
ENDBRANCH  39  48
BRANCH  35  50
HETATM   50  O2  UNL     1      -7.577  47.714 -32.354  1.00  0.00    -0.364 OA
HETATM   51  H9  UNL     1      -7.836  48.658 -32.324  1.00  0.00     0.213 HD
ENDBRANCH  35  50
ENDBRANCH  33  35
ENDBRANCH  30  33
ENDBRANCH  28  29
ENDBRANCH   1  28
TORSDOF 19
ENDMDL
MODEL 9
REMARK minimizedAffinity -8.72872257
REMARK CNNscore 0.284979016
REMARK CNNaffinity 6.84053755
REMARK  19 active torsions:
REMARK  status: ('A' for Active; 'I' for Inactive)
REMARK    1  A    between atoms: C3_3  and  C4_4 
REMARK    2  A    between atoms: C5_5  and  C6_6 
REMARK    3  A    between atoms: C7_8  and  O2_9 
REMARK    4  A    between atoms: C7_8  and  C8_10 
REMARK    5  A    between atoms: C8_10  and  C10_12 
REMARK       I    between atoms: C10_12  and  N1_14 
REMARK    6  A    between atoms: N1_14  and  C11_15 
REMARK    7  A    between atoms: C11_15  and  C12_16 
REMARK    8  A    between atoms: C13_17  and  C14_18 
REMARK    9  A    between atoms: C15_19  and  C17_21 
REMARK   10  A    between atoms: C17_21  and  O4_22 
REMARK   11  A    between atoms: C17_21  and  C19_24 
REMARK   12  A    between atoms: C19_24  and  C21_26 
REMARK   13  A    between atoms: C23_28  and  O5_29 
REMARK   14  A    between atoms: C24_30  and  C25_31 
REMARK   15  A    between atoms: C26_32  and  C27_33 
REMARK   16  A    between atoms: C28_34  and  C29_35 
REMARK   17  A    between atoms: C30_36  and  C31_37 
REMARK   18  A    between atoms: C31_37  and  O7_39 
REMARK   19  A    between atoms: C33_42  and  O9_43 
ROOT
HETATM    1  C12 UNL     1      -6.920  47.465 -24.624  1.00  0.00    -0.007 C 
HETATM    2  C13 UNL     1      -8.099  47.219 -25.218  1.00  0.00    -0.002 C 
ENDROOT
BRANCH   2   3
HETATM    3  C14 UNL     1      -8.538  45.873 -25.513  1.00  0.00     0.005 C 
HETATM    4  C15 UNL     1      -8.894  45.364 -26.712  1.00  0.00    -0.055 C 
HETATM    5  C16 UNL     1      -9.352  43.926 -26.765  1.00  0.00     0.046 C 
BRANCH   4   6
HETATM    6  C17 UNL     1      -8.835  46.132 -28.032  1.00  0.00     0.155 C 
BRANCH   6   7
HETATM    7  O4  UNL     1      -9.506  47.392 -27.902  1.00  0.00    -0.386 OA
HETATM    8  C18 UNL     1      -8.659  48.506 -28.166  1.00  0.00     0.202 C 
ENDBRANCH   6   7
BRANCH   6   9
HETATM    9  C19 UNL     1      -7.378  46.342 -28.554  1.00  0.00     0.044 C 
HETATM   10  C20 UNL     1      -6.805  44.975 -28.981  1.00  0.00     0.015 C 
BRANCH   9  11
HETATM   11  C21 UNL     1      -7.239  47.342 -29.722  1.00  0.00     0.131 C 
HETATM   12  C22 UNL     1      -5.985  48.203 -29.683  1.00  0.00     0.067 C 
HETATM   13  C23 UNL     1      -5.817  48.548 -31.140  1.00  0.00     0.153 C 
HETATM   14  C24 UNL     1      -6.169  47.218 -31.823  1.00  0.00     0.173 C 
HETATM   15  O8  UNL     1      -7.199  46.638 -30.990  1.00  0.00    -0.374 OA
BRANCH  13  16
HETATM   16  O5  UNL     1      -4.549  49.091 -31.448  1.00  0.00    -0.393 OA
HETATM   17  H35 UNL     1      -4.457  49.918 -30.947  1.00  0.00     0.210 HD
ENDBRANCH  13  16
BRANCH  14  18
HETATM   18  C25 UNL     1      -5.147  46.124 -32.012  1.00  0.00     0.007 C 
HETATM   19  C26 UNL     1      -5.343  44.849 -32.380  1.00  0.00    -0.001 C 
BRANCH  19  20
HETATM   20  C27 UNL     1      -4.260  43.895 -32.485  1.00  0.00    -0.000 C 
HETATM   21  C28 UNL     1      -4.387  42.709 -33.098  1.00  0.00     0.000 C 
BRANCH  21  22
HETATM   22  C29 UNL     1      -3.304  41.751 -33.159  1.00  0.00     0.007 C 
HETATM   23  C30 UNL     1      -3.431  40.550 -33.738  1.00  0.00     0.081 C 
BRANCH  23  24
HETATM   24  C31 UNL     1      -2.294  39.619 -33.731  1.00  0.00     0.165 C 
HETATM   25  O6  UNL     1      -1.957  38.848 -34.610  1.00  0.00    -0.647 OA
BRANCH  24  26
HETATM   26  O7  UNL     1      -1.619  39.728 -32.577  1.00  0.00    -0.773 OA
HETATM   27  H43 UNL     1      -0.878  39.094 -32.681  1.00  0.00     0.167 HD
ENDBRANCH  24  26
ENDBRANCH  23  24
ENDBRANCH  21  22
ENDBRANCH  19  20
ENDBRANCH  14  18
ENDBRANCH   9  11
ENDBRANCH   6   9
ENDBRANCH   4   6
ENDBRANCH   2   3
BRANCH   1  28
HETATM   28  C11 UNL     1      -6.419  48.818 -24.233  1.00  0.00     0.149 C 
BRANCH  28  29
HETATM   29  N1  UNL     1      -5.234  49.102 -25.004  1.00  0.00    -0.357 N 
HETATM   30  C10 UNL     1      -3.967  48.918 -24.492  1.00  0.00     0.227 C 
HETATM   31  O3  UNL     1      -3.765  48.546 -23.338  1.00  0.00    -0.273 OA
HETATM   32  H14 UNL     1      -5.342  49.189 -26.008  1.00  0.00     0.162 HD
BRANCH  30  33
HETATM   33  C8  UNL     1      -2.839  49.165 -25.489  1.00  0.00     0.136 C 
HETATM   34  C9  UNL     1      -3.170  48.538 -26.845  1.00  0.00     0.026 C 
BRANCH  33  35
HETATM   35  C7  UNL     1      -2.469  50.672 -25.568  1.00  0.00     0.176 C 
HETATM   36  O1  UNL     1      -1.493  50.898 -24.543  1.00  0.00    -0.344 OA
HETATM   37  C6  UNL     1      -0.983  52.229 -24.561  1.00  0.00     0.158 C 
HETATM   38  C34 UNL     1      -0.027  52.423 -25.777  1.00  0.00     0.008 C 
HETATM   39  C33 UNL     1      -0.478  51.517 -26.962  1.00  0.00     0.134 C 
HETATM   40  C35 UNL     1      -0.121  53.908 -26.213  1.00  0.00     0.020 C 
HETATM   41  C36 UNL     1       1.456  52.143 -25.438  1.00  0.00     0.020 C 
HETATM   42  C32 UNL     1      -1.967  51.181 -26.937  1.00  0.00     0.101 C 
BRANCH  37  43
HETATM   43  C5  UNL     1      -0.375  52.464 -23.202  1.00  0.00     0.006 C 
HETATM   44  C4  UNL     1      -0.293  51.538 -22.235  1.00  0.00    -0.002 C 
BRANCH  44  45
HETATM   45  C3  UNL     1       0.315  51.796 -20.952  1.00  0.00    -0.005 C 
HETATM   46  C2  UNL     1      -0.397  52.017 -19.838  1.00  0.00    -0.031 C 
HETATM   47  C1  UNL     1       0.219  52.285 -18.503  1.00  0.00     0.036 C 
ENDBRANCH  44  45
ENDBRANCH  37  43
BRANCH  39  48
HETATM   48  O9  UNL     1       0.265  50.295 -27.001  1.00  0.00    -0.395 OA
HETATM   49  H47 UNL     1       0.156  49.909 -27.888  1.00  0.00     0.210 HD
ENDBRANCH  39  48
BRANCH  35  50
HETATM   50  O2  UNL     1      -3.645  51.421 -25.222  1.00  0.00    -0.364 OA
HETATM   51  H9  UNL     1      -4.304  51.238 -25.923  1.00  0.00     0.213 HD
ENDBRANCH  35  50
ENDBRANCH  33  35
ENDBRANCH  30  33
ENDBRANCH  28  29
ENDBRANCH   1  28
TORSDOF 19
ENDMDL
