MODEL 1
REMARK minimizedAffinity -8.41394329
REMARK CNNscore 0.395120442
REMARK CNNaffinity 7.1064353
REMARK  9 active torsions:
REMARK  status: ('A' for Active; 'I' for Inactive)
REMARK    1  A    between atoms: C3_3  and  O1_4 
REMARK    2  A    between atoms: N1_14  and  O2_16 
REMARK    3  A    between atoms: O2_16  and  C13_17 
REMARK    4  A    between atoms: C13_17  and  C14_18 
REMARK       I    between atoms: C14_18  and  N2_20 
REMARK    5  A    between atoms: N2_20  and  C15_21 
REMARK    6  A    between atoms: C15_21  and  C16_22 
REMARK    7  A    between atoms: C15_21  and  C18_26 
REMARK    8  A    between atoms: C16_22  and  C17_23 
REMARK    9  A    between atoms: C17_23  and  O5_25 
ROOT
HETATM    1  C1  UNL     1      -2.017   8.840  11.906  1.00  0.00     0.015 C 
HETATM    2  C2  UNL     1      -2.049   8.039  12.801  1.00  0.00    -0.078 C 
HETATM    3  C3  UNL     1      -2.069   7.047  13.899  1.00  0.00     0.128 C 
HETATM    4  C4  UNL     1      -2.060   5.632  13.317  1.00  0.00     0.052 C 
HETATM    5  C5  UNL     1      -3.513   5.400  12.927  1.00  0.00     0.010 C 
HETATM    6  C6  UNL     1      -4.359   6.089  14.020  1.00  0.00     0.002 C 
HETATM    7  C7  UNL     1      -5.608   6.809  13.459  1.00  0.00    -0.004 C 
HETATM    8  C8  UNL     1      -6.535   5.898  12.620  1.00  0.00     0.010 C 
HETATM    9  C9  UNL     1      -7.626   5.186  13.412  1.00  0.00     0.035 C 
HETATM   10  C10 UNL     1      -8.377   6.223  14.206  1.00  0.00    -0.069 C 
HETATM   11  C11 UNL     1      -9.635   6.549  13.861  1.00  0.00     0.030 C 
HETATM   12  C12 UNL     1     -10.302   7.755  14.434  1.00  0.00     0.032 C 
HETATM   13  N1  UNL     1     -11.543   8.091  14.265  1.00  0.00    -0.271 N 
ATOM     14  H1  UNL     1     -11.970   8.930  14.657  1.00  0.00     0.194 HD
HETATM   15  C25 UNL     1      -9.419   8.713  15.208  1.00  0.00     0.060 C 
HETATM   16  C26 UNL     1      -8.443   7.935  16.075  1.00  0.00     0.020 C 
HETATM   17  C27 UNL     1      -7.553   6.932  15.278  1.00  0.00    -0.016 C 
HETATM   18  C28 UNL     1      -7.070   5.896  16.324  1.00  0.00     0.020 C 
HETATM   19  C29 UNL     1      -6.372   7.662  14.533  1.00  0.00     0.002 C 
HETATM   20  C30 UNL     1      -5.414   8.410  15.489  1.00  0.00     0.007 C 
HETATM   21  C31 UNL     1      -3.977   8.465  14.977  1.00  0.00     0.014 C 
HETATM   22  C32 UNL     1      -3.375   7.053  14.769  1.00  0.00     0.003 C 
HETATM   23  C33 UNL     1      -3.076   6.450  16.173  1.00  0.00     0.020 C 
ENDROOT
BRANCH   3  24
HETATM   24  O1  UNL     1      -0.902   7.244  14.684  1.00  0.00    -0.377 OA
HETATM   25  H2  UNL     1      -0.889   8.183  14.934  1.00  0.00     0.211 HD
ENDBRANCH   3  24
BRANCH  13  26
HETATM   26  O2  UNL     1     -12.225   7.151  13.473  1.00  0.00    -0.271 OA
BRANCH  26  27
HETATM   27  C13 UNL     1     -12.872   6.210  14.317  1.00  0.00     0.303 C 
BRANCH  27  28
HETATM   28  C14 UNL     1     -14.310   6.642  14.597  1.00  0.00     0.244 C 
HETATM   29  O3  UNL     1     -14.795   6.751  15.720  1.00  0.00    -0.271 OA
HETATM   30  N2  UNL     1     -15.037   6.888  13.446  1.00  0.00    -0.354 N 
HETATM   31  H16 UNL     1     -14.585   6.725  12.546  1.00  0.00     0.162 HD
BRANCH  30  32
HETATM   32  C15 UNL     1     -16.475   7.157  13.454  1.00  0.00     0.098 C 
BRANCH  32  33
HETATM   33  C16 UNL     1     -16.765   8.580  12.942  1.00  0.00     0.135 C 
BRANCH  33  34
HETATM   34  C17 UNL     1     -15.841   8.991  11.828  1.00  0.00     0.141 C 
HETATM   35  O4  UNL     1     -14.701   9.415  11.923  1.00  0.00    -0.650 OA
BRANCH  34  36
HETATM   36  O5  UNL     1     -16.409   8.832  10.616  1.00  0.00    -0.776 OA
HETATM   37  H20 UNL     1     -15.705   9.091   9.986  1.00  0.00     0.167 HD
ENDBRANCH  34  36
ENDBRANCH  33  34
ENDBRANCH  32  33
BRANCH  32  38
HETATM   38  C18 UNL     1     -17.283   6.031  12.726  1.00  0.00     0.014 C 
HETATM   39  C19 UNL     1     -18.726   6.464  12.410  1.00  0.00     0.033 C 
HETATM   40  C20 UNL     1     -19.732   6.104  13.503  1.00  0.00     0.169 C 
HETATM   41  O6  UNL     1     -19.088   5.731  14.725  1.00  0.00    -0.381 OA
HETATM   42  C21 UNL     1     -18.255   4.560  14.626  1.00  0.00     0.054 C 
HETATM   43  C22 UNL     1     -19.128   3.295  14.570  1.00  0.00     0.045 C 
HETATM   44  C23 UNL     1     -17.438   4.498  15.927  1.00  0.00     0.045 C 
HETATM   45  C24 UNL     1     -17.319   4.648  13.403  1.00  0.00     0.044 C 
ENDBRANCH  32  38
ENDBRANCH  30  32
ENDBRANCH  27  28
ENDBRANCH  26  27
ENDBRANCH  13  26
TORSDOF 9
ENDMDL
MODEL 2
REMARK minimizedAffinity -8.93114185
REMARK CNNscore 0.329304069
REMARK CNNaffinity 5.96519423
REMARK  9 active torsions:
REMARK  status: ('A' for Active; 'I' for Inactive)
REMARK    1  A    between atoms: C3_3  and  O1_4 
REMARK    2  A    between atoms: N1_14  and  O2_16 
REMARK    3  A    between atoms: O2_16  and  C13_17 
REMARK    4  A    between atoms: C13_17  and  C14_18 
REMARK       I    between atoms: C14_18  and  N2_20 
REMARK    5  A    between atoms: N2_20  and  C15_21 
REMARK    6  A    between atoms: C15_21  and  C16_22 
REMARK    7  A    between atoms: C15_21  and  C18_26 
REMARK    8  A    between atoms: C16_22  and  C17_23 
REMARK    9  A    between atoms: C17_23  and  O5_25 
ROOT
HETATM    1  C1  UNL     1       0.381   8.471   9.308  1.00  0.00     0.015 C 
HETATM    2  C2  UNL     1       1.152   7.585   9.561  1.00  0.00    -0.078 C 
HETATM    3  C3  UNL     1       2.088   6.481   9.863  1.00  0.00     0.128 C 
HETATM    4  C4  UNL     1       1.458   5.533  10.886  1.00  0.00     0.052 C 
HETATM    5  C5  UNL     1       1.687   6.243  12.213  1.00  0.00     0.010 C 
HETATM    6  C6  UNL     1       3.076   6.909  12.103  1.00  0.00     0.002 C 
HETATM    7  C7  UNL     1       3.131   8.313  12.748  1.00  0.00    -0.004 C 
HETATM    8  C8  UNL     1       2.689   8.341  14.230  1.00  0.00     0.010 C 
HETATM    9  C9  UNL     1       3.809   8.122  15.241  1.00  0.00     0.035 C 
HETATM   10  C10 UNL     1       4.911   9.102  14.935  1.00  0.00    -0.069 C 
HETATM   11  C11 UNL     1       5.140  10.134  15.764  1.00  0.00     0.030 C 
HETATM   12  C12 UNL     1       6.018  11.269  15.357  1.00  0.00     0.032 C 
HETATM   13  N1  UNL     1       6.400  12.248  16.118  1.00  0.00    -0.271 N 
ATOM     14  H1  UNL     1       6.990  13.020  15.808  1.00  0.00     0.194 HD
HETATM   15  C25 UNL     1       6.423  11.321  13.898  1.00  0.00     0.060 C 
HETATM   16  C26 UNL     1       6.755   9.924  13.401  1.00  0.00     0.020 C 
HETATM   17  C27 UNL     1       5.595   8.898  13.584  1.00  0.00    -0.016 C 
HETATM   18  C28 UNL     1       6.274   7.505  13.557  1.00  0.00     0.020 C 
HETATM   19  C29 UNL     1       4.482   9.070  12.483  1.00  0.00     0.002 C 
HETATM   20  C30 UNL     1       5.006   8.861  11.044  1.00  0.00     0.007 C 
HETATM   21  C31 UNL     1       3.953   8.293  10.097  1.00  0.00     0.014 C 
HETATM   22  C32 UNL     1       3.418   6.918  10.572  1.00  0.00     0.003 C 
HETATM   23  C33 UNL     1       4.528   5.859  10.313  1.00  0.00     0.020 C 
ENDROOT
BRANCH   3  24
HETATM   24  O1  UNL     1       2.334   5.777   8.654  1.00  0.00    -0.377 OA
HETATM   25  H2  UNL     1       2.620   6.436   8.000  1.00  0.00     0.211 HD
ENDBRANCH   3  24
BRANCH  13  26
HETATM   26  O2  UNL     1       5.897  12.108  17.423  1.00  0.00    -0.271 OA
BRANCH  26  27
HETATM   27  C13 UNL     1       6.495  13.084  18.263  1.00  0.00     0.303 C 
BRANCH  27  28
HETATM   28  C14 UNL     1       6.900  12.466  19.600  1.00  0.00     0.244 C 
HETATM   29  O3  UNL     1       7.882  11.747  19.762  1.00  0.00    -0.271 OA
HETATM   30  N2  UNL     1       6.031  12.783  20.629  1.00  0.00    -0.354 N 
HETATM   31  H16 UNL     1       5.206  13.341  20.409  1.00  0.00     0.162 HD
BRANCH  30  32
HETATM   32  C15 UNL     1       6.120  12.181  21.958  1.00  0.00     0.098 C 
BRANCH  32  33
HETATM   33  C16 UNL     1       7.110  12.959  22.844  1.00  0.00     0.135 C 
BRANCH  33  34
HETATM   34  C17 UNL     1       8.314  12.139  23.220  1.00  0.00     0.141 C 
HETATM   35  O4  UNL     1       8.418  10.924  23.215  1.00  0.00    -0.650 OA
BRANCH  34  36
HETATM   36  O5  UNL     1       9.358  12.910  23.583  1.00  0.00    -0.776 OA
HETATM   37  H20 UNL     1      10.078  12.271  23.762  1.00  0.00     0.167 HD
ENDBRANCH  34  36
ENDBRANCH  33  34
ENDBRANCH  32  33
BRANCH  32  38
HETATM   38  C18 UNL     1       4.706  11.972  22.599  1.00  0.00     0.014 C 
HETATM   39  C19 UNL     1       4.602  10.634  23.353  1.00  0.00     0.033 C 
HETATM   40  C20 UNL     1       4.085   9.480  22.494  1.00  0.00     0.169 C 
HETATM   41  O6  UNL     1       4.107   9.796  21.100  1.00  0.00    -0.381 OA
HETATM   42  C21 UNL     1       3.266  10.904  20.726  1.00  0.00     0.054 C 
HETATM   43  C22 UNL     1       1.792  10.469  20.718  1.00  0.00     0.045 C 
HETATM   44  C23 UNL     1       3.646  11.269  19.282  1.00  0.00     0.045 C 
HETATM   45  C24 UNL     1       3.489  12.109  21.665  1.00  0.00     0.044 C 
ENDBRANCH  32  38
ENDBRANCH  30  32
ENDBRANCH  27  28
ENDBRANCH  26  27
ENDBRANCH  13  26
TORSDOF 9
ENDMDL
MODEL 3
REMARK minimizedAffinity -8.12550354
REMARK CNNscore 0.268961281
REMARK CNNaffinity 6.85522461
REMARK  9 active torsions:
REMARK  status: ('A' for Active; 'I' for Inactive)
REMARK    1  A    between atoms: C3_3  and  O1_4 
REMARK    2  A    between atoms: N1_14  and  O2_16 
REMARK    3  A    between atoms: O2_16  and  C13_17 
REMARK    4  A    between atoms: C13_17  and  C14_18 
REMARK       I    between atoms: C14_18  and  N2_20 
REMARK    5  A    between atoms: N2_20  and  C15_21 
REMARK    6  A    between atoms: C15_21  and  C16_22 
REMARK    7  A    between atoms: C15_21  and  C18_26 
REMARK    8  A    between atoms: C16_22  and  C17_23 
REMARK    9  A    between atoms: C17_23  and  O5_25 
ROOT
HETATM    1  C1  UNL     1      -2.096   8.459  12.384  1.00  0.00     0.015 C 
HETATM    2  C2  UNL     1      -2.285   7.588  13.189  1.00  0.00    -0.078 C 
HETATM    3  C3  UNL     1      -2.498   6.508  14.178  1.00  0.00     0.128 C 
HETATM    4  C4  UNL     1      -2.511   5.153  13.468  1.00  0.00     0.052 C 
HETATM    5  C5  UNL     1      -3.919   5.065  12.897  1.00  0.00     0.010 C 
HETATM    6  C6  UNL     1      -4.843   5.717  13.949  1.00  0.00     0.002 C 
HETATM    7  C7  UNL     1      -5.968   6.575  13.324  1.00  0.00    -0.004 C 
HETATM    8  C8  UNL     1      -6.846   5.812  12.303  1.00  0.00     0.010 C 
HETATM    9  C9  UNL     1      -8.066   5.117  12.896  1.00  0.00     0.035 C 
HETATM   10  C10 UNL     1      -8.838   6.134  13.696  1.00  0.00    -0.069 C 
HETATM   11  C11 UNL     1     -10.022   6.582  13.246  1.00  0.00     0.030 C 
HETATM   12  C12 UNL     1     -10.674   7.779  13.852  1.00  0.00     0.032 C 
HETATM   13  N1  UNL     1     -11.862   8.220  13.578  1.00  0.00    -0.271 N 
ATOM     14  H1  UNL     1     -12.278   9.052  13.999  1.00  0.00     0.194 HD
HETATM   15  C25 UNL     1      -9.830   8.597  14.808  1.00  0.00     0.060 C 
HETATM   16  C26 UNL     1      -9.015   7.675  15.701  1.00  0.00     0.020 C 
HETATM   17  C27 UNL     1      -8.103   6.683  14.917  1.00  0.00    -0.016 C 
HETATM   18  C28 UNL     1      -7.815   5.525  15.906  1.00  0.00     0.020 C 
HETATM   19  C29 UNL     1      -6.798   7.385  14.382  1.00  0.00     0.002 C 
HETATM   20  C30 UNL     1      -5.914   7.972  15.506  1.00  0.00     0.007 C 
HETATM   21  C31 UNL     1      -4.426   7.965  15.166  1.00  0.00     0.014 C 
HETATM   22  C32 UNL     1      -3.895   6.535  14.893  1.00  0.00     0.003 C 
HETATM   23  C33 UNL     1      -3.803   5.791  16.257  1.00  0.00     0.020 C 
ENDROOT
BRANCH   3  24
HETATM   24  O1  UNL     1      -1.422   6.548  15.104  1.00  0.00    -0.377 OA
HETATM   25  H2  UNL     1      -1.379   7.458  15.443  1.00  0.00     0.211 HD
ENDBRANCH   3  24
BRANCH  13  26
HETATM   26  O2  UNL     1     -12.505   7.407  12.629  1.00  0.00    -0.271 OA
BRANCH  26  27
HETATM   27  C13 UNL     1     -13.893   7.351  12.923  1.00  0.00     0.303 C 
BRANCH  27  28
HETATM   28  C14 UNL     1     -14.162   6.361  14.054  1.00  0.00     0.244 C 
HETATM   29  O3  UNL     1     -13.394   5.461  14.385  1.00  0.00    -0.271 OA
HETATM   30  N2  UNL     1     -15.383   6.563  14.673  1.00  0.00    -0.354 N 
HETATM   31  H16 UNL     1     -15.992   7.296  14.310  1.00  0.00     0.162 HD
BRANCH  30  32
HETATM   32  C15 UNL     1     -15.930   5.646  15.673  1.00  0.00     0.098 C 
BRANCH  32  33
HETATM   33  C16 UNL     1     -16.167   6.374  17.008  1.00  0.00     0.135 C 
BRANCH  33  34
HETATM   34  C17 UNL     1     -16.291   7.864  16.838  1.00  0.00     0.141 C 
HETATM   35  O4  UNL     1     -17.282   8.496  16.513  1.00  0.00    -0.650 OA
BRANCH  34  36
HETATM   36  O5  UNL     1     -15.134   8.502  17.104  1.00  0.00    -0.776 OA
HETATM   37  H20 UNL     1     -15.353   9.450  16.998  1.00  0.00     0.167 HD
ENDBRANCH  34  36
ENDBRANCH  33  34
ENDBRANCH  32  33
BRANCH  32  38
HETATM   38  C18 UNL     1     -17.177   4.869  15.130  1.00  0.00     0.014 C 
HETATM   39  C19 UNL     1     -18.140   4.457  16.257  1.00  0.00     0.033 C 
HETATM   40  C20 UNL     1     -17.862   3.067  16.829  1.00  0.00     0.169 C 
HETATM   41  O6  UNL     1     -16.582   2.567  16.429  1.00  0.00    -0.381 OA
HETATM   42  C21 UNL     1     -16.429   2.390  15.008  1.00  0.00     0.054 C 
HETATM   43  C22 UNL     1     -17.187   1.134  14.548  1.00  0.00     0.045 C 
HETATM   44  C23 UNL     1     -14.932   2.141  14.761  1.00  0.00     0.045 C 
HETATM   45  C24 UNL     1     -16.902   3.642  14.240  1.00  0.00     0.044 C 
ENDBRANCH  32  38
ENDBRANCH  30  32
ENDBRANCH  27  28
ENDBRANCH  26  27
ENDBRANCH  13  26
TORSDOF 9
ENDMDL
MODEL 4
REMARK minimizedAffinity -8.58005714
REMARK CNNscore 0.216080636
REMARK CNNaffinity 5.57399511
REMARK  9 active torsions:
REMARK  status: ('A' for Active; 'I' for Inactive)
REMARK    1  A    between atoms: C3_3  and  O1_4 
REMARK    2  A    between atoms: N1_14  and  O2_16 
REMARK    3  A    between atoms: O2_16  and  C13_17 
REMARK    4  A    between atoms: C13_17  and  C14_18 
REMARK       I    between atoms: C14_18  and  N2_20 
REMARK    5  A    between atoms: N2_20  and  C15_21 
REMARK    6  A    between atoms: C15_21  and  C16_22 
REMARK    7  A    between atoms: C15_21  and  C18_26 
REMARK    8  A    between atoms: C16_22  and  C17_23 
REMARK    9  A    between atoms: C17_23  and  O5_25 
ROOT
HETATM    1  C1  UNL     1       9.117  11.752  19.981  1.00  0.00     0.015 C 
HETATM    2  C2  UNL     1       8.657  12.340  20.922  1.00  0.00    -0.078 C 
HETATM    3  C3  UNL     1       8.108  13.063  22.091  1.00  0.00     0.128 C 
HETATM    4  C4  UNL     1       8.037  12.121  23.294  1.00  0.00     0.052 C 
HETATM    5  C5  UNL     1       6.764  11.325  23.045  1.00  0.00     0.010 C 
HETATM    6  C6  UNL     1       5.760  12.317  22.417  1.00  0.00     0.002 C 
HETATM    7  C7  UNL     1       4.909  11.689  21.289  1.00  0.00    -0.004 C 
HETATM    8  C8  UNL     1       4.140  10.417  21.717  1.00  0.00     0.010 C 
HETATM    9  C9  UNL     1       2.743  10.665  22.274  1.00  0.00     0.035 C 
HETATM   10  C10 UNL     1       1.987  11.505  21.278  1.00  0.00    -0.069 C 
HETATM   11  C11 UNL     1       0.985  10.962  20.565  1.00  0.00     0.030 C 
HETATM   12  C12 UNL     1       0.409  11.668  19.384  1.00  0.00     0.032 C 
HETATM   13  N1  UNL     1      -0.631  11.293  18.706  1.00  0.00    -0.271 N 
ATOM     14  H1  UNL     1      -0.995  11.788  17.892  1.00  0.00     0.194 HD
HETATM   15  C25 UNL     1       1.165  12.882  18.887  1.00  0.00     0.060 C 
HETATM   16  C26 UNL     1       1.657  13.707  20.065  1.00  0.00     0.020 C 
HETATM   17  C27 UNL     1       2.549  12.909  21.064  1.00  0.00    -0.016 C 
HETATM   18  C28 UNL     1       2.476  13.700  22.395  1.00  0.00     0.020 C 
HETATM   19  C29 UNL     1       4.018  12.732  20.524  1.00  0.00     0.002 C 
HETATM   20  C30 UNL     1       4.748  14.073  20.284  1.00  0.00     0.007 C 
HETATM   21  C31 UNL     1       6.257  13.982  20.496  1.00  0.00     0.014 C 
HETATM   22  C32 UNL     1       6.620  13.536  21.935  1.00  0.00     0.003 C 
HETATM   23  C33 UNL     1       6.346  14.735  22.889  1.00  0.00     0.020 C 
ENDROOT
BRANCH   3  24
HETATM   24  O1  UNL     1       8.985  14.142  22.384  1.00  0.00    -0.377 OA
HETATM   25  H2  UNL     1       9.093  14.646  21.561  1.00  0.00     0.211 HD
ENDBRANCH   3  24
BRANCH  13  26
HETATM   26  O2  UNL     1      -1.192  10.118  19.236  1.00  0.00    -0.271 OA
BRANCH  26  27
HETATM   27  C13 UNL     1      -2.503   9.950  18.717  1.00  0.00     0.303 C 
BRANCH  27  28
HETATM   28  C14 UNL     1      -2.450   9.559  17.241  1.00  0.00     0.244 C 
HETATM   29  O3  UNL     1      -2.762  10.303  16.316  1.00  0.00    -0.271 OA
HETATM   30  N2  UNL     1      -2.026   8.257  17.040  1.00  0.00    -0.354 N 
HETATM   31  H16 UNL     1      -1.835   7.680  17.859  1.00  0.00     0.162 HD
BRANCH  30  32
HETATM   32  C15 UNL     1      -2.047   7.607  15.730  1.00  0.00     0.098 C 
BRANCH  32  33
HETATM   33  C16 UNL     1      -0.627   7.190  15.306  1.00  0.00     0.135 C 
BRANCH  33  34
HETATM   34  C17 UNL     1       0.440   7.844  16.142  1.00  0.00     0.141 C 
HETATM   35  O4  UNL     1       0.506   9.014  16.482  1.00  0.00    -0.650 OA
BRANCH  34  36
HETATM   36  O5  UNL     1       1.388   6.969  16.529  1.00  0.00    -0.776 OA
HETATM   37  H20 UNL     1       1.991   7.500  17.089  1.00  0.00     0.167 HD
ENDBRANCH  34  36
ENDBRANCH  33  34
ENDBRANCH  32  33
BRANCH  32  38
HETATM   38  C18 UNL     1      -3.104   6.454  15.669  1.00  0.00     0.014 C 
HETATM   39  C19 UNL     1      -2.673   5.319  14.722  1.00  0.00     0.033 C 
HETATM   40  C20 UNL     1      -3.174   5.489  13.288  1.00  0.00     0.169 C 
HETATM   41  O6  UNL     1      -3.663   6.810  13.042  1.00  0.00    -0.381 OA
HETATM   42  C21 UNL     1      -4.797   7.184  13.846  1.00  0.00     0.054 C 
HETATM   43  C22 UNL     1      -6.068   6.496  13.323  1.00  0.00     0.045 C 
HETATM   44  C23 UNL     1      -4.982   8.699  13.656  1.00  0.00     0.045 C 
HETATM   45  C24 UNL     1      -4.554   6.853  15.334  1.00  0.00     0.044 C 
ENDBRANCH  32  38
ENDBRANCH  30  32
ENDBRANCH  27  28
ENDBRANCH  26  27
ENDBRANCH  13  26
TORSDOF 9
ENDMDL
MODEL 5
REMARK minimizedAffinity -9.96468258
REMARK CNNscore 0.1967576
REMARK CNNaffinity 6.69738913
REMARK  9 active torsions:
REMARK  status: ('A' for Active; 'I' for Inactive)
REMARK    1  A    between atoms: C3_3  and  O1_4 
REMARK    2  A    between atoms: N1_14  and  O2_16 
REMARK    3  A    between atoms: O2_16  and  C13_17 
REMARK    4  A    between atoms: C13_17  and  C14_18 
REMARK       I    between atoms: C14_18  and  N2_20 
REMARK    5  A    between atoms: N2_20  and  C15_21 
REMARK    6  A    between atoms: C15_21  and  C16_22 
REMARK    7  A    between atoms: C15_21  and  C18_26 
REMARK    8  A    between atoms: C16_22  and  C17_23 
REMARK    9  A    between atoms: C17_23  and  O5_25 
ROOT
HETATM    1  C1  UNL     1       1.949   8.080   7.965  1.00  0.00     0.015 C 
HETATM    2  C2  UNL     1       2.395   7.782   9.040  1.00  0.00    -0.078 C 
HETATM    3  C3  UNL     1       2.963   7.414  10.356  1.00  0.00     0.128 C 
HETATM    4  C4  UNL     1       3.468   5.970  10.315  1.00  0.00     0.052 C 
HETATM    5  C5  UNL     1       2.200   5.147  10.504  1.00  0.00     0.010 C 
HETATM    6  C6  UNL     1       1.329   5.936  11.506  1.00  0.00     0.002 C 
HETATM    7  C7  UNL     1      -0.177   5.908  11.157  1.00  0.00    -0.004 C 
HETATM    8  C8  UNL     1      -0.762   4.483  11.012  1.00  0.00     0.010 C 
HETATM    9  C9  UNL     1      -1.318   3.882  12.298  1.00  0.00     0.035 C 
HETATM   10  C10 UNL     1      -2.296   4.865  12.887  1.00  0.00    -0.069 C 
HETATM   11  C11 UNL     1      -3.612   4.595  12.866  1.00  0.00     0.030 C 
HETATM   12  C12 UNL     1      -4.620   5.651  13.175  1.00  0.00     0.032 C 
HETATM   13  N1  UNL     1      -5.898   5.471  13.302  1.00  0.00    -0.271 N 
ATOM     14  H1  UNL     1      -6.567   6.215  13.499  1.00  0.00     0.194 HD
HETATM   15  C25 UNL     1      -4.104   7.073  13.261  1.00  0.00     0.060 C 
HETATM   16  C26 UNL     1      -2.769   7.100  13.987  1.00  0.00     0.020 C 
HETATM   17  C27 UNL     1      -1.682   6.188  13.340  1.00  0.00    -0.016 C 
HETATM   18  C28 UNL     1      -0.653   5.918  14.467  1.00  0.00     0.020 C 
HETATM   19  C29 UNL     1      -1.046   6.853  12.061  1.00  0.00     0.002 C 
HETATM   20  C30 UNL     1      -0.347   8.200  12.355  1.00  0.00     0.007 C 
HETATM   21  C31 UNL     1       0.836   8.478  11.432  1.00  0.00     0.014 C 
HETATM   22  C32 UNL     1       1.929   7.385  11.536  1.00  0.00     0.003 C 
HETATM   23  C33 UNL     1       2.670   7.579  12.891  1.00  0.00     0.020 C 
ENDROOT
BRANCH   3  24
HETATM   24  O1  UNL     1       4.051   8.289  10.619  1.00  0.00    -0.377 OA
HETATM   25  H2  UNL     1       3.713   9.194  10.519  1.00  0.00     0.211 HD
ENDBRANCH   3  24
BRANCH  13  26
HETATM   26  O2  UNL     1      -6.244   4.119  13.131  1.00  0.00    -0.271 OA
BRANCH  26  27
HETATM   27  C13 UNL     1      -7.633   3.957  13.373  1.00  0.00     0.303 C 
BRANCH  27  28
HETATM   28  C14 UNL     1      -8.375   5.272  13.139  1.00  0.00     0.244 C 
HETATM   29  O3  UNL     1      -8.510   5.805  12.041  1.00  0.00    -0.271 OA
HETATM   30  N2  UNL     1      -8.874   5.828  14.304  1.00  0.00    -0.354 N 
HETATM   31  H16 UNL     1      -8.676   5.357  15.187  1.00  0.00     0.162 HD
BRANCH  30  32
HETATM   32  C15 UNL     1      -9.478   7.159  14.354  1.00  0.00     0.098 C 
BRANCH  32  33
HETATM   33  C16 UNL     1     -11.006   7.057  14.518  1.00  0.00     0.135 C 
BRANCH  33  34
HETATM   34  C17 UNL     1     -11.742   7.327  13.234  1.00  0.00     0.141 C 
HETATM   35  O4  UNL     1     -11.264   7.606  12.146  1.00  0.00    -0.650 OA
BRANCH  34  36
HETATM   36  O5  UNL     1     -13.077   7.219  13.383  1.00  0.00    -0.776 OA
HETATM   37  H20 UNL     1     -13.432   7.375  12.484  1.00  0.00     0.167 HD
ENDBRANCH  34  36
ENDBRANCH  33  34
ENDBRANCH  32  33
BRANCH  32  38
HETATM   38  C18 UNL     1      -8.775   8.078  15.409  1.00  0.00     0.014 C 
HETATM   39  C19 UNL     1      -9.292   7.824  16.837  1.00  0.00     0.033 C 
HETATM   40  C20 UNL     1     -10.463   8.720  17.238  1.00  0.00     0.169 C 
HETATM   41  O6  UNL     1     -11.045   9.381  16.111  1.00  0.00    -0.381 OA
HETATM   42  C21 UNL     1     -10.152  10.274  15.418  1.00  0.00     0.054 C 
HETATM   43  C22 UNL     1      -9.971  11.570  16.225  1.00  0.00     0.045 C 
HETATM   44  C23 UNL     1     -10.849  10.647  14.099  1.00  0.00     0.045 C 
HETATM   45  C24 UNL     1      -8.795   9.594  15.139  1.00  0.00     0.044 C 
ENDBRANCH  32  38
ENDBRANCH  30  32
ENDBRANCH  27  28
ENDBRANCH  26  27
ENDBRANCH  13  26
TORSDOF 9
ENDMDL
MODEL 6
REMARK minimizedAffinity -8.87245178
REMARK CNNscore 0.196468726
REMARK CNNaffinity 7.03359222
REMARK  9 active torsions:
REMARK  status: ('A' for Active; 'I' for Inactive)
REMARK    1  A    between atoms: C3_3  and  O1_4 
REMARK    2  A    between atoms: N1_14  and  O2_16 
REMARK    3  A    between atoms: O2_16  and  C13_17 
REMARK    4  A    between atoms: C13_17  and  C14_18 
REMARK       I    between atoms: C14_18  and  N2_20 
REMARK    5  A    between atoms: N2_20  and  C15_21 
REMARK    6  A    between atoms: C15_21  and  C16_22 
REMARK    7  A    between atoms: C15_21  and  C18_26 
REMARK    8  A    between atoms: C16_22  and  C17_23 
REMARK    9  A    between atoms: C17_23  and  O5_25 
ROOT
HETATM    1  C1  UNL     1      -7.434   3.656  15.883  1.00  0.00     0.015 C 
HETATM    2  C2  UNL     1      -7.386   4.397  14.938  1.00  0.00    -0.078 C 
HETATM    3  C3  UNL     1      -7.343   5.300  13.767  1.00  0.00     0.128 C 
HETATM    4  C4  UNL     1      -6.972   4.505  12.514  1.00  0.00     0.052 C 
HETATM    5  C5  UNL     1      -5.458   4.374  12.613  1.00  0.00     0.010 C 
HETATM    6  C6  UNL     1      -4.957   5.710  13.206  1.00  0.00     0.002 C 
HETATM    7  C7  UNL     1      -3.806   5.530  14.223  1.00  0.00    -0.004 C 
HETATM    8  C8  UNL     1      -2.591   4.752  13.666  1.00  0.00     0.010 C 
HETATM    9  C9  UNL     1      -1.521   5.615  13.007  1.00  0.00     0.035 C 
HETATM   10  C10 UNL     1      -1.133   6.699  13.979  1.00  0.00    -0.069 C 
HETATM   11  C11 UNL     1       0.071   6.666  14.574  1.00  0.00     0.030 C 
HETATM   12  C12 UNL     1       0.379   7.547  15.738  1.00  0.00     0.032 C 
HETATM   13  N1  UNL     1       1.537   7.682  16.306  1.00  0.00    -0.271 N 
ATOM     14  H1  UNL     1       1.716   8.282  17.111  1.00  0.00     0.194 HD
HETATM   15  C25 UNL     1      -0.793   8.279  16.361  1.00  0.00     0.060 C 
HETATM   16  C26 UNL     1      -1.718   8.799  15.273  1.00  0.00     0.020 C 
HETATM   17  C27 UNL     1      -2.246   7.690  14.312  1.00  0.00    -0.016 C 
HETATM   18  C28 UNL     1      -2.672   8.438  13.023  1.00  0.00     0.020 C 
HETATM   19  C29 UNL     1      -3.414   6.858  14.964  1.00  0.00     0.002 C 
HETATM   20  C30 UNL     1      -4.645   7.716  15.335  1.00  0.00     0.007 C 
HETATM   21  C31 UNL     1      -5.961   6.949  15.246  1.00  0.00     0.014 C 
HETATM   22  C32 UNL     1      -6.224   6.399  13.822  1.00  0.00     0.003 C 
HETATM   23  C33 UNL     1      -6.618   7.599  12.912  1.00  0.00     0.020 C 
ENDROOT
BRANCH   3  24
HETATM   24  O1  UNL     1      -8.637   5.863  13.605  1.00  0.00    -0.377 OA
HETATM   25  H2  UNL     1      -8.880   6.255  14.460  1.00  0.00     0.211 HD
ENDBRANCH   3  24
BRANCH  13  26
HETATM   26  O2  UNL     1       2.514   6.897  15.670  1.00  0.00    -0.271 OA
BRANCH  26  27
HETATM   27  C13 UNL     1       3.637   7.708  15.357  1.00  0.00     0.303 C 
BRANCH  27  28
HETATM   28  C14 UNL     1       3.450   8.381  13.999  1.00  0.00     0.244 C 
HETATM   29  O3  UNL     1       2.999   9.512  13.841  1.00  0.00    -0.271 OA
HETATM   30  N2  UNL     1       3.827   7.575  12.938  1.00  0.00    -0.354 N 
HETATM   31  H16 UNL     1       4.142   6.626  13.142  1.00  0.00     0.162 HD
BRANCH  30  32
HETATM   32  C15 UNL     1       3.591   7.937  11.541  1.00  0.00     0.098 C 
BRANCH  32  33
HETATM   33  C16 UNL     1       4.887   7.809  10.720  1.00  0.00     0.135 C 
BRANCH  33  34
HETATM   34  C17 UNL     1       6.003   7.167  11.499  1.00  0.00     0.141 C 
HETATM   35  O4  UNL     1       5.913   6.285  12.338  1.00  0.00    -0.650 OA
BRANCH  34  36
HETATM   36  O5  UNL     1       7.208   7.670  11.167  1.00  0.00    -0.776 OA
HETATM   37  H20 UNL     1       7.841   7.151  11.704  1.00  0.00     0.167 HD
ENDBRANCH  34  36
ENDBRANCH  33  34
ENDBRANCH  32  33
BRANCH  32  38
HETATM   38  C18 UNL     1       2.366   7.169  10.939  1.00  0.00     0.014 C 
HETATM   39  C19 UNL     1       2.687   5.689  10.663  1.00  0.00     0.033 C 
HETATM   40  C20 UNL     1       3.204   5.424   9.249  1.00  0.00     0.169 C 
HETATM   41  O6  UNL     1       3.585   6.629   8.580  1.00  0.00    -0.381 OA
HETATM   42  C21 UNL     1       2.510   7.566   8.381  1.00  0.00     0.054 C 
HETATM   43  C22 UNL     1       1.599   7.089   7.239  1.00  0.00     0.045 C 
HETATM   44  C23 UNL     1       3.161   8.884   7.932  1.00  0.00     0.045 C 
HETATM   45  C24 UNL     1       1.710   7.775   9.684  1.00  0.00     0.044 C 
ENDBRANCH  32  38
ENDBRANCH  30  32
ENDBRANCH  27  28
ENDBRANCH  26  27
ENDBRANCH  13  26
TORSDOF 9
ENDMDL
MODEL 7
REMARK minimizedAffinity -8.70371532
REMARK CNNscore 0.179178059
REMARK CNNaffinity 6.0089097
REMARK  9 active torsions:
REMARK  status: ('A' for Active; 'I' for Inactive)
REMARK    1  A    between atoms: C3_3  and  O1_4 
REMARK    2  A    between atoms: N1_14  and  O2_16 
REMARK    3  A    between atoms: O2_16  and  C13_17 
REMARK    4  A    between atoms: C13_17  and  C14_18 
REMARK       I    between atoms: C14_18  and  N2_20 
REMARK    5  A    between atoms: N2_20  and  C15_21 
REMARK    6  A    between atoms: C15_21  and  C16_22 
REMARK    7  A    between atoms: C15_21  and  C18_26 
REMARK    8  A    between atoms: C16_22  and  C17_23 
REMARK    9  A    between atoms: C17_23  and  O5_25 
ROOT
HETATM    1  C1  UNL     1       7.728  12.048  23.374  1.00  0.00     0.015 C 
HETATM    2  C2  UNL     1       8.124  12.836  22.558  1.00  0.00    -0.078 C 
HETATM    3  C3  UNL     1       8.608  13.822  21.566  1.00  0.00     0.128 C 
HETATM    4  C4  UNL     1       7.448  14.710  21.113  1.00  0.00     0.052 C 
HETATM    5  C5  UNL     1       6.728  13.853  20.080  1.00  0.00     0.010 C 
HETATM    6  C6  UNL     1       7.835  13.088  19.321  1.00  0.00     0.002 C 
HETATM    7  C7  UNL     1       7.449  11.626  18.996  1.00  0.00    -0.004 C 
HETATM    8  C8  UNL     1       6.125  11.485  18.209  1.00  0.00     0.010 C 
HETATM    9  C9  UNL     1       6.273  11.507  16.692  1.00  0.00     0.035 C 
HETATM   10  C10 UNL     1       7.300  10.473  16.309  1.00  0.00    -0.069 C 
HETATM   11  C11 UNL     1       6.916   9.346  15.684  1.00  0.00     0.030 C 
HETATM   12  C12 UNL     1       7.847   8.188  15.546  1.00  0.00     0.032 C 
HETATM   13  N1  UNL     1       7.623   7.109  14.862  1.00  0.00    -0.271 N 
ATOM     14  H1  UNL     1       8.272   6.325  14.797  1.00  0.00     0.194 HD
HETATM   15  C25 UNL     1       9.128   8.250  16.352  1.00  0.00     0.060 C 
HETATM   16  C26 UNL     1       9.700   9.658  16.312  1.00  0.00     0.020 C 
HETATM   17  C27 UNL     1       8.713  10.753  16.816  1.00  0.00    -0.016 C 
HETATM   18  C28 UNL     1       9.226  12.080  16.199  1.00  0.00     0.020 C 
HETATM   19  C29 UNL     1       8.631  10.788  18.389  1.00  0.00     0.002 C 
HETATM   20  C30 UNL     1       9.986  11.097  19.066  1.00  0.00     0.007 C 
HETATM   21  C31 UNL     1       9.840  11.844  20.389  1.00  0.00     0.014 C 
HETATM   22  C32 UNL     1       9.117  13.204  20.217  1.00  0.00     0.003 C 
HETATM   23  C33 UNL     1      10.107  14.187  19.527  1.00  0.00     0.020 C 
ENDROOT
BRANCH   3  24
HETATM   24  O1  UNL     1       9.599  14.621  22.197  1.00  0.00    -0.377 OA
HETATM   25  H2  UNL     1      10.254  14.009  22.571  1.00  0.00     0.211 HD
ENDBRANCH   3  24
BRANCH  13  26
HETATM   26  O2  UNL     1       6.372   7.158  14.222  1.00  0.00    -0.271 OA
BRANCH  26  27
HETATM   27  C13 UNL     1       6.563   7.407  12.838  1.00  0.00     0.303 C 
BRANCH  27  28
HETATM   28  C14 UNL     1       5.230   7.718  12.160  1.00  0.00     0.244 C 
HETATM   29  O3  UNL     1       4.838   8.850  11.890  1.00  0.00    -0.271 OA
HETATM   30  N2  UNL     1       4.482   6.586  11.889  1.00  0.00    -0.354 N 
HETATM   31  H16 UNL     1       4.848   5.683  12.191  1.00  0.00     0.162 HD
BRANCH  30  32
HETATM   32  C15 UNL     1       3.108   6.641  11.392  1.00  0.00     0.098 C 
BRANCH  32  33
HETATM   33  C16 UNL     1       2.104   6.526  12.554  1.00  0.00     0.135 C 
BRANCH  33  34
HETATM   34  C17 UNL     1       1.069   5.459  12.318  1.00  0.00     0.141 C 
HETATM   35  O4  UNL     1       0.023   5.289  12.923  1.00  0.00    -0.650 OA
BRANCH  34  36
HETATM   36  O5  UNL     1       1.406   4.644  11.299  1.00  0.00    -0.776 OA
HETATM   37  H20 UNL     1       0.647   4.030  11.223  1.00  0.00     0.167 HD
ENDBRANCH  34  36
ENDBRANCH  33  34
ENDBRANCH  32  33
BRANCH  32  38
HETATM   38  C18 UNL     1       2.875   7.875  10.457  1.00  0.00     0.014 C 
HETATM   39  C19 UNL     1       1.429   8.397  10.532  1.00  0.00     0.033 C 
HETATM   40  C20 UNL     1       0.494   7.776   9.495  1.00  0.00     0.169 C 
HETATM   41  O6  UNL     1       1.064   6.616   8.882  1.00  0.00    -0.381 OA
HETATM   42  C21 UNL     1       2.275   6.867   8.145  1.00  0.00     0.054 C 
HETATM   43  C22 UNL     1       1.947   7.549   6.807  1.00  0.00     0.045 C 
HETATM   44  C23 UNL     1       2.880   5.490   7.824  1.00  0.00     0.045 C 
HETATM   45  C24 UNL     1       3.264   7.711   8.975  1.00  0.00     0.044 C 
ENDBRANCH  32  38
ENDBRANCH  30  32
ENDBRANCH  27  28
ENDBRANCH  26  27
ENDBRANCH  13  26
TORSDOF 9
ENDMDL
MODEL 8
REMARK minimizedAffinity -7.13245678
REMARK CNNscore 0.173231527
REMARK CNNaffinity 4.75211954
REMARK  9 active torsions:
REMARK  status: ('A' for Active; 'I' for Inactive)
REMARK    1  A    between atoms: C3_3  and  O1_4 
REMARK    2  A    between atoms: N1_14  and  O2_16 
REMARK    3  A    between atoms: O2_16  and  C13_17 
REMARK    4  A    between atoms: C13_17  and  C14_18 
REMARK       I    between atoms: C14_18  and  N2_20 
REMARK    5  A    between atoms: N2_20  and  C15_21 
REMARK    6  A    between atoms: C15_21  and  C16_22 
REMARK    7  A    between atoms: C15_21  and  C18_26 
REMARK    8  A    between atoms: C16_22  and  C17_23 
REMARK    9  A    between atoms: C17_23  and  O5_25 
ROOT
HETATM    1  C1  UNL     1       7.253  18.970  21.168  1.00  0.00     0.015 C 
HETATM    2  C2  UNL     1       7.880  18.146  21.777  1.00  0.00    -0.078 C 
HETATM    3  C3  UNL     1       8.669  17.144  22.527  1.00  0.00     0.128 C 
HETATM    4  C4  UNL     1       9.772  16.578  21.630  1.00  0.00     0.052 C 
HETATM    5  C5  UNL     1       9.045  15.542  20.785  1.00  0.00     0.010 C 
HETATM    6  C6  UNL     1       8.003  14.889  21.720  1.00  0.00     0.002 C 
HETATM    7  C7  UNL     1       6.652  14.606  21.022  1.00  0.00    -0.004 C 
HETATM    8  C8  UNL     1       6.774  13.744  19.744  1.00  0.00     0.010 C 
HETATM    9  C9  UNL     1       6.672  12.240  19.970  1.00  0.00     0.035 C 
HETATM   10  C10 UNL     1       5.410  11.969  20.747  1.00  0.00    -0.069 C 
HETATM   11  C11 UNL     1       4.367  11.373  20.144  1.00  0.00     0.030 C 
HETATM   12  C12 UNL     1       3.021  11.345  20.785  1.00  0.00     0.032 C 
HETATM   13  N1  UNL     1       1.984  10.697  20.352  1.00  0.00    -0.271 N 
ATOM     14  H1  UNL     1       1.069  10.708  20.803  1.00  0.00     0.194 HD
HETATM   15  C25 UNL     1       2.833  12.227  22.003  1.00  0.00     0.060 C 
HETATM   16  C26 UNL     1       4.067  12.160  22.888  1.00  0.00     0.020 C 
HETATM   17  C27 UNL     1       5.387  12.552  22.158  1.00  0.00    -0.016 C 
HETATM   18  C28 UNL     1       6.522  11.910  22.997  1.00  0.00     0.020 C 
HETATM   19  C29 UNL     1       5.532  14.113  22.006  1.00  0.00     0.002 C 
HETATM   20  C30 UNL     1       5.559  14.860  23.359  1.00  0.00     0.007 C 
HETATM   21  C31 UNL     1       6.396  16.136  23.324  1.00  0.00     0.014 C 
HETATM   22  C32 UNL     1       7.873  15.858  22.947  1.00  0.00     0.003 C 
HETATM   23  C33 UNL     1       8.561  15.189  24.172  1.00  0.00     0.020 C 
ENDROOT
BRANCH   3  24
HETATM   24  O1  UNL     1       9.254  17.799  23.643  1.00  0.00    -0.377 OA
HETATM   25  H2  UNL     1       8.531  18.241  24.118  1.00  0.00     0.211 HD
ENDBRANCH   3  24
BRANCH  13  26
HETATM   26  O2  UNL     1       2.282   9.978  19.181  1.00  0.00    -0.271 OA
BRANCH  26  27
HETATM   27  C13 UNL     1       1.464  10.451  18.121  1.00  0.00     0.303 C 
BRANCH  27  28
HETATM   28  C14 UNL     1       1.703   9.631  16.854  1.00  0.00     0.244 C 
HETATM   29  O3  UNL     1       2.679   8.911  16.668  1.00  0.00    -0.271 OA
HETATM   30  N2  UNL     1       0.705   9.791  15.909  1.00  0.00    -0.354 N 
HETATM   31  H16 UNL     1      -0.050  10.447  16.110  1.00  0.00     0.162 HD
BRANCH  30  32
HETATM   32  C15 UNL     1       0.792   9.236  14.559  1.00  0.00     0.098 C 
BRANCH  32  33
HETATM   33  C16 UNL     1       2.244   8.852  14.220  1.00  0.00     0.135 C 
BRANCH  33  34
HETATM   34  C17 UNL     1       2.386   7.399  13.856  1.00  0.00     0.141 C 
HETATM   35  O4  UNL     1       2.514   6.920  12.741  1.00  0.00    -0.650 OA
BRANCH  34  36
HETATM   36  O5  UNL     1       2.372   6.601  14.942  1.00  0.00    -0.776 OA
HETATM   37  H20 UNL     1       2.510   5.702  14.581  1.00  0.00     0.167 HD
ENDBRANCH  34  36
ENDBRANCH  33  34
ENDBRANCH  32  33
BRANCH  32  38
HETATM   38  C18 UNL     1      -0.249   8.088  14.332  1.00  0.00     0.014 C 
HETATM   39  C19 UNL     1      -0.813   8.089  12.900  1.00  0.00     0.033 C 
HETATM   40  C20 UNL     1      -2.091   8.912  12.741  1.00  0.00     0.169 C 
HETATM   41  O6  UNL     1      -2.325   9.765  13.864  1.00  0.00    -0.381 OA
HETATM   42  C21 UNL     1      -2.519   9.070  15.110  1.00  0.00     0.054 C 
HETATM   43  C22 UNL     1      -3.922   8.443  15.153  1.00  0.00     0.045 C 
HETATM   44  C23 UNL     1      -2.457  10.136  16.216  1.00  0.00     0.045 C 
HETATM   45  C24 UNL     1      -1.423   8.004  15.325  1.00  0.00     0.044 C 
ENDBRANCH  32  38
ENDBRANCH  30  32
ENDBRANCH  27  28
ENDBRANCH  26  27
ENDBRANCH  13  26
TORSDOF 9
ENDMDL
MODEL 9
REMARK minimizedAffinity -7.62933111
REMARK CNNscore 0.17237474
REMARK CNNaffinity 5.25122309
REMARK  9 active torsions:
REMARK  status: ('A' for Active; 'I' for Inactive)
REMARK    1  A    between atoms: C3_3  and  O1_4 
REMARK    2  A    between atoms: N1_14  and  O2_16 
REMARK    3  A    between atoms: O2_16  and  C13_17 
REMARK    4  A    between atoms: C13_17  and  C14_18 
REMARK       I    between atoms: C14_18  and  N2_20 
REMARK    5  A    between atoms: N2_20  and  C15_21 
REMARK    6  A    between atoms: C15_21  and  C16_22 
REMARK    7  A    between atoms: C15_21  and  C18_26 
REMARK    8  A    between atoms: C16_22  and  C17_23 
REMARK    9  A    between atoms: C17_23  and  O5_25 
ROOT
HETATM    1  C1  UNL     1       7.434  16.816  22.502  1.00  0.00     0.015 C 
HETATM    2  C2  UNL     1       7.700  15.647  22.589  1.00  0.00    -0.078 C 
HETATM    3  C3  UNL     1       8.047  14.213  22.701  1.00  0.00     0.128 C 
HETATM    4  C4  UNL     1       8.989  13.819  21.562  1.00  0.00     0.052 C 
HETATM    5  C5  UNL     1       8.051  13.618  20.380  1.00  0.00     0.010 C 
HETATM    6  C6  UNL     1       6.769  12.981  20.962  1.00  0.00     0.002 C 
HETATM    7  C7  UNL     1       5.473  13.528  20.319  1.00  0.00    -0.004 C 
HETATM    8  C8  UNL     1       5.432  13.396  18.778  1.00  0.00     0.010 C 
HETATM    9  C9  UNL     1       4.829  12.096  18.258  1.00  0.00     0.035 C 
HETATM   10  C10 UNL     1       3.479  11.920  18.902  1.00  0.00    -0.069 C 
HETATM   11  C11 UNL     1       2.362  12.064  18.168  1.00  0.00     0.030 C 
HETATM   12  C12 UNL     1       1.023  12.177  18.817  1.00  0.00     0.032 C 
HETATM   13  N1  UNL     1      -0.120  12.197  18.205  1.00  0.00    -0.271 N 
ATOM     14  H1  UNL     1      -1.021  12.291  18.674  1.00  0.00     0.194 HD
HETATM   15  C25 UNL     1       1.014  12.375  20.319  1.00  0.00     0.060 C 
HETATM   16  C26 UNL     1       2.069  11.492  20.966  1.00  0.00     0.020 C 
HETATM   17  C27 UNL     1       3.509  11.726  20.417  1.00  0.00    -0.016 C 
HETATM   18  C28 UNL     1       4.290  10.430  20.753  1.00  0.00     0.020 C 
HETATM   19  C29 UNL     1       4.164  13.024  21.025  1.00  0.00     0.002 C 
HETATM   20  C30 UNL     1       4.301  12.976  22.564  1.00  0.00     0.007 C 
HETATM   21  C31 UNL     1       5.505  13.758  23.085  1.00  0.00     0.014 C 
HETATM   22  C32 UNL     1       6.842  13.227  22.509  1.00  0.00     0.003 C 
HETATM   23  C33 UNL     1       7.155  11.870  23.204  1.00  0.00     0.020 C 
ENDROOT
BRANCH   3  24
HETATM   24  O1  UNL     1       8.702  14.021  23.947  1.00  0.00    -0.377 OA
HETATM   25  H2  UNL     1       8.119  14.391  24.629  1.00  0.00     0.211 HD
ENDBRANCH   3  24
BRANCH  13  26
HETATM   26  O2  UNL     1       0.040  12.073  16.814  1.00  0.00    -0.271 OA
BRANCH  26  27
HETATM   27  C13 UNL     1      -0.446  10.806  16.398  1.00  0.00     0.303 C 
BRANCH  27  28
HETATM   28  C14 UNL     1       0.499  10.180  15.374  1.00  0.00     0.244 C 
HETATM   29  O3  UNL     1       1.557  10.684  15.008  1.00  0.00    -0.271 OA
HETATM   30  N2  UNL     1       0.034   8.977  14.872  1.00  0.00    -0.354 N 
HETATM   31  H16 UNL     1      -0.879   8.646  15.181  1.00  0.00     0.162 HD
BRANCH  30  32
HETATM   32  C15 UNL     1       0.684   8.272  13.767  1.00  0.00     0.098 C 
BRANCH  32  33
HETATM   33  C16 UNL     1       1.402   7.008  14.274  1.00  0.00     0.135 C 
BRANCH  33  34
HETATM   34  C17 UNL     1       2.247   7.275  15.490  1.00  0.00     0.141 C 
HETATM   35  O4  UNL     1       3.411   7.640  15.522  1.00  0.00    -0.650 OA
BRANCH  34  36
HETATM   36  O5  UNL     1       1.565   7.076  16.635  1.00  0.00    -0.776 OA
HETATM   37  H20 UNL     1       2.201   7.317  17.339  1.00  0.00     0.167 HD
ENDBRANCH  34  36
ENDBRANCH  33  34
ENDBRANCH  32  33
BRANCH  32  38
HETATM   38  C18 UNL     1      -0.303   8.021  12.577  1.00  0.00     0.014 C 
HETATM   39  C19 UNL     1      -1.333   9.155  12.427  1.00  0.00     0.033 C 
HETATM   40  C20 UNL     1      -2.630   8.916  13.198  1.00  0.00     0.169 C 
HETATM   41  O6  UNL     1      -2.504   7.855  14.149  1.00  0.00    -0.381 OA
HETATM   42  C21 UNL     1      -2.207   6.570  13.571  1.00  0.00     0.054 C 
HETATM   43  C22 UNL     1      -3.467   5.982  12.916  1.00  0.00     0.045 C 
HETATM   44  C23 UNL     1      -1.822   5.648  14.740  1.00  0.00     0.045 C 
HETATM   45  C24 UNL     1      -1.047   6.672  12.559  1.00  0.00     0.044 C 
ENDBRANCH  32  38
ENDBRANCH  30  32
ENDBRANCH  27  28
ENDBRANCH  26  27
ENDBRANCH  13  26
TORSDOF 9
ENDMDL
