MODEL 1
REMARK minimizedAffinity -8.60812378
REMARK CNNscore 0.37976867
REMARK CNNaffinity 7.3831706
REMARK  13 active torsions:
REMARK  status: ('A' for Active; 'I' for Inactive)
REMARK    1  A    between atoms: O1_2  and  C2_3 
REMARK    2  A    between atoms: C12_14  and  C13_15 
REMARK    3  A    between atoms: C13_15  and  C15_17 
REMARK    4  A    between atoms: C15_17  and  C16_18 
REMARK    5  A    between atoms: C17_19  and  C18_20 
REMARK    6  A    between atoms: C18_20  and  O3_23 
REMARK    7  A    between atoms: C29_32  and  O4_33 
REMARK    8  A    between atoms: O4_33  and  C30_34 
REMARK    9  A    between atoms: C31_36  and  C32_37 
REMARK   10  A    between atoms: C32_37  and  O6_38 
REMARK   11  A    between atoms: C33_39  and  O7_40 
REMARK   12  A    between atoms: C34_41  and  O8_42 
REMARK   13  A    between atoms: C35_43  and  O9_44 
ROOT
HETATM    1  C2  UNL     1      -5.370  48.575 -20.987  1.00  0.00     0.270 C 
HETATM    2  O2  UNL     1      -5.992  47.753 -19.965  1.00  0.00    -0.344 OA
HETATM    3  C3  UNL     1      -4.958  47.315 -19.056  1.00  0.00     0.095 C 
HETATM    4  C4  UNL     1      -4.865  48.439 -18.029  1.00  0.00     0.008 C 
HETATM    5  C5  UNL     1      -4.198  49.576 -18.275  1.00  0.00    -0.021 C 
HETATM    6  C6  UNL     1      -3.551  49.832 -19.618  1.00  0.00     0.030 C 
HETATM    7  C7  UNL     1      -3.841  48.663 -20.655  1.00  0.00     0.024 C 
HETATM    8  C8  UNL     1      -3.038  48.857 -21.972  1.00  0.00     0.016 C 
HETATM    9  C9  UNL     1      -1.583  49.351 -21.837  1.00  0.00     0.011 C 
HETATM   10  C10 UNL     1      -1.472  50.590 -20.932  1.00  0.00    -0.032 C 
HETATM   11  C11 UNL     1      -2.236  51.770 -21.617  1.00  0.00     0.016 C 
HETATM   12  C12 UNL     1      -0.040  51.088 -20.544  1.00  0.00    -0.002 C 
HETATM   13  C22 UNL     1      -0.321  51.898 -19.229  1.00  0.00     0.006 C 
HETATM   14  C23 UNL     1      -1.706  51.466 -18.708  1.00  0.00     0.011 C 
HETATM   15  C24 UNL     1      -2.035  50.196 -19.510  1.00  0.00    -0.029 C 
HETATM   16  C25 UNL     1      -1.227  49.055 -18.797  1.00  0.00     0.016 C 
HETATM   17  C26 UNL     1      -3.700  47.286 -19.955  1.00  0.00     0.039 C 
HETATM   18  C27 UNL     1      -3.663  46.088 -20.923  1.00  0.00     0.011 C 
HETATM   19  C28 UNL     1      -3.911  44.764 -20.217  1.00  0.00     0.033 C 
HETATM   20  C29 UNL     1      -5.226  44.770 -19.437  1.00  0.00     0.136 C 
HETATM   21  C36 UNL     1      -5.289  45.930 -18.396  1.00  0.00     0.014 C 
HETATM   22  C37 UNL     1      -6.701  45.948 -17.752  1.00  0.00     0.021 C 
HETATM   23  C38 UNL     1      -4.270  45.609 -17.266  1.00  0.00     0.021 C 
ENDROOT
BRANCH  20  24
HETATM   24  O4  UNL     1      -6.284  44.908 -20.389  1.00  0.00    -0.352 OA
BRANCH  24  25
HETATM   25  C30 UNL     1      -6.234  43.935 -21.440  1.00  0.00     0.292 C 
HETATM   26  O5  UNL     1      -6.814  44.500 -22.612  1.00  0.00    -0.348 OA
HETATM   27  C31 UNL     1      -8.186  44.164 -22.848  1.00  0.00     0.179 C 
HETATM   28  C33 UNL     1      -8.990  44.069 -21.541  1.00  0.00     0.180 C 
HETATM   29  C34 UNL     1      -8.410  42.986 -20.615  1.00  0.00     0.183 C 
HETATM   30  C35 UNL     1      -6.943  42.672 -20.921  1.00  0.00     0.204 C 
BRANCH  27  31
HETATM   31  C32 UNL     1      -8.781  45.224 -23.791  1.00  0.00     0.198 C 
BRANCH  31  32
HETATM   32  O6  UNL     1      -7.998  45.444 -24.955  1.00  0.00    -0.398 OA
HETATM   33  H50 UNL     1      -7.497  44.612 -25.110  1.00  0.00     0.209 HD
ENDBRANCH  31  32
ENDBRANCH  27  31
BRANCH  28  34
HETATM   34  O7  UNL     1     -10.365  43.770 -21.794  1.00  0.00    -0.390 OA
HETATM   35  H52 UNL     1     -10.810  43.829 -20.925  1.00  0.00     0.210 HD
ENDBRANCH  28  34
BRANCH  29  36
HETATM   36  O8  UNL     1      -8.553  43.428 -19.249  1.00  0.00    -0.390 OA
HETATM   37  H54 UNL     1      -7.965  44.207 -19.170  1.00  0.00     0.210 HD
ENDBRANCH  29  36
BRANCH  30  38
HETATM   38  O9  UNL     1      -6.838  41.615 -21.880  1.00  0.00    -0.388 OA
HETATM   39  H56 UNL     1      -7.305  40.841 -21.518  1.00  0.00     0.210 HD
ENDBRANCH  30  38
ENDBRANCH  24  25
ENDBRANCH  20  24
BRANCH   1  40
HETATM   40  O1  UNL     1      -5.966  49.859 -21.115  1.00  0.00    -0.365 OA
HETATM   41  C1  UNL     1      -6.617  50.022 -22.377  1.00  0.00     0.204 C 
ENDBRANCH   1  40
BRANCH  12  42
HETATM   42  C13 UNL     1       0.820  51.910 -21.548  1.00  0.00    -0.010 C 
HETATM   43  C14 UNL     1       1.525  53.094 -20.880  1.00  0.00     0.010 C 
BRANCH  42  44
HETATM   44  C15 UNL     1      -0.075  52.416 -22.714  1.00  0.00     0.031 C 
BRANCH  44  45
HETATM   45  C16 UNL     1       0.659  52.534 -24.024  1.00  0.00    -0.027 C 
HETATM   46  C17 UNL     1       0.170  52.065 -25.185  1.00  0.00     0.006 C 
BRANCH  46  47
HETATM   47  C18 UNL     1       0.810  52.105 -26.560  1.00  0.00     0.070 C 
HETATM   48  C19 UNL     1       2.251  51.570 -26.475  1.00  0.00     0.050 C 
HETATM   49  C20 UNL     1       0.052  51.277 -27.610  1.00  0.00     0.050 C 
BRANCH  47  50
HETATM   50  O3  UNL     1       0.768  53.451 -27.062  1.00  0.00    -0.382 OA
HETATM   51  C21 UNL     1      -0.382  53.842 -27.790  1.00  0.00     0.202 C 
ENDBRANCH  47  50
ENDBRANCH  46  47
ENDBRANCH  44  45
ENDBRANCH  42  44
ENDBRANCH  12  42
TORSDOF 13
ENDMDL
MODEL 2
REMARK minimizedAffinity -7.27358866
REMARK CNNscore 0.361327291
REMARK CNNaffinity 7.07536316
REMARK  13 active torsions:
REMARK  status: ('A' for Active; 'I' for Inactive)
REMARK    1  A    between atoms: O1_2  and  C2_3 
REMARK    2  A    between atoms: C12_14  and  C13_15 
REMARK    3  A    between atoms: C13_15  and  C15_17 
REMARK    4  A    between atoms: C15_17  and  C16_18 
REMARK    5  A    between atoms: C17_19  and  C18_20 
REMARK    6  A    between atoms: C18_20  and  O3_23 
REMARK    7  A    between atoms: C29_32  and  O4_33 
REMARK    8  A    between atoms: O4_33  and  C30_34 
REMARK    9  A    between atoms: C31_36  and  C32_37 
REMARK   10  A    between atoms: C32_37  and  O6_38 
REMARK   11  A    between atoms: C33_39  and  O7_40 
REMARK   12  A    between atoms: C34_41  and  O8_42 
REMARK   13  A    between atoms: C35_43  and  O9_44 
ROOT
HETATM    1  C2  UNL     1       2.017  54.788 -10.435  1.00  0.00     0.270 C 
HETATM    2  O2  UNL     1       0.727  54.225 -10.789  1.00  0.00    -0.344 OA
HETATM    3  C3  UNL     1       0.060  53.837  -9.567  1.00  0.00     0.095 C 
HETATM    4  C4  UNL     1      -0.665  55.102  -9.121  1.00  0.00     0.008 C 
HETATM    5  C5  UNL     1      -0.035  56.100  -8.486  1.00  0.00    -0.021 C 
HETATM    6  C6  UNL     1       1.455  56.052  -8.232  1.00  0.00     0.030 C 
HETATM    7  C7  UNL     1       2.130  54.762  -8.872  1.00  0.00     0.024 C 
HETATM    8  C8  UNL     1       3.626  54.641  -8.465  1.00  0.00     0.016 C 
HETATM    9  C9  UNL     1       3.983  54.987  -7.006  1.00  0.00     0.011 C 
HETATM   10  C10 UNL     1       3.399  56.342  -6.570  1.00  0.00    -0.032 C 
HETATM   11  C11 UNL     1       4.069  57.465  -7.427  1.00  0.00     0.016 C 
HETATM   12  C12 UNL     1       3.513  56.738  -5.061  1.00  0.00    -0.002 C 
HETATM   13  C22 UNL     1       2.353  57.785  -4.910  1.00  0.00     0.006 C 
HETATM   14  C23 UNL     1       1.407  57.604  -6.113  1.00  0.00     0.011 C 
HETATM   15  C24 UNL     1       1.829  56.259  -6.729  1.00  0.00    -0.029 C 
HETATM   16  C25 UNL     1       1.152  55.174  -5.821  1.00  0.00     0.016 C 
HETATM   17  C26 UNL     1       1.240  53.518  -8.619  1.00  0.00     0.039 C 
HETATM   18  C27 UNL     1       1.931  52.176  -8.928  1.00  0.00     0.011 C 
HETATM   19  C28 UNL     1       0.942  51.026  -9.043  1.00  0.00     0.033 C 
HETATM   20  C29 UNL     1      -0.145  51.309 -10.080  1.00  0.00     0.136 C 
HETATM   21  C36 UNL     1      -0.920  52.629  -9.778  1.00  0.00     0.014 C 
HETATM   22  C37 UNL     1      -1.901  52.911 -10.946  1.00  0.00     0.021 C 
HETATM   23  C38 UNL     1      -1.776  52.395  -8.501  1.00  0.00     0.021 C 
ENDROOT
BRANCH  20  24
HETATM   24  O4  UNL     1       0.497  51.400 -11.354  1.00  0.00    -0.352 OA
BRANCH  24  25
HETATM   25  C30 UNL     1       0.476  50.170 -12.090  1.00  0.00     0.292 C 
HETATM   26  O5  UNL     1       1.782  49.600 -12.064  1.00  0.00    -0.348 OA
HETATM   27  C31 UNL     1       2.596  49.862 -13.212  1.00  0.00     0.179 C 
HETATM   28  C33 UNL     1       2.367  51.275 -13.772  1.00  0.00     0.180 C 
HETATM   29  C34 UNL     1       0.901  51.467 -14.201  1.00  0.00     0.183 C 
HETATM   30  C35 UNL     1      -0.051  50.494 -13.499  1.00  0.00     0.204 C 
BRANCH  27  31
HETATM   31  C32 UNL     1       4.067  49.655 -12.812  1.00  0.00     0.198 C 
BRANCH  31  32
HETATM   32  O6  UNL     1       4.950  49.618 -13.924  1.00  0.00    -0.398 OA
HETATM   33  H50 UNL     1       4.515  50.133 -14.639  1.00  0.00     0.209 HD
ENDBRANCH  31  32
ENDBRANCH  27  31
BRANCH  28  34
HETATM   34  O7  UNL     1       3.211  51.535 -14.896  1.00  0.00    -0.390 OA
HETATM   35  H52 UNL     1       3.070  52.477 -15.117  1.00  0.00     0.210 HD
ENDBRANCH  28  34
BRANCH  29  36
HETATM   36  O8  UNL     1       0.518  52.830 -13.923  1.00  0.00    -0.390 OA
HETATM   37  H54 UNL     1       0.536  52.906 -12.946  1.00  0.00     0.210 HD
ENDBRANCH  29  36
BRANCH  30  38
HETATM   38  O9  UNL     1      -0.202  49.292 -14.261  1.00  0.00    -0.388 OA
HETATM   39  H56 UNL     1      -0.528  49.542 -15.143  1.00  0.00     0.210 HD
ENDBRANCH  30  38
ENDBRANCH  24  25
ENDBRANCH  20  24
BRANCH   1  40
HETATM   40  O1  UNL     1       2.227  56.090 -10.967  1.00  0.00    -0.365 OA
HETATM   41  C1  UNL     1       3.606  56.334 -11.251  1.00  0.00     0.204 C 
ENDBRANCH   1  40
BRANCH  12  42
HETATM   42  C13 UNL     1       4.850  57.278  -4.474  1.00  0.00    -0.010 C 
HETATM   43  C14 UNL     1       4.755  58.751  -4.065  1.00  0.00     0.010 C 
BRANCH  42  44
HETATM   44  C15 UNL     1       5.992  57.089  -5.511  1.00  0.00     0.031 C 
BRANCH  44  45
HETATM   45  C16 UNL     1       7.257  57.821  -5.148  1.00  0.00    -0.027 C 
HETATM   46  C17 UNL     1       8.444  57.207  -4.999  1.00  0.00     0.006 C 
BRANCH  46  47
HETATM   47  C18 UNL     1       9.780  57.821  -4.622  1.00  0.00     0.070 C 
HETATM   48  C19 UNL     1       9.834  59.279  -5.112  1.00  0.00     0.050 C 
HETATM   49  C20 UNL     1      10.049  57.814  -3.109  1.00  0.00     0.050 C 
BRANCH  47  50
HETATM   50  O3  UNL     1      10.839  57.028  -5.182  1.00  0.00    -0.382 OA
HETATM   51  C21 UNL     1      11.806  56.505  -4.290  1.00  0.00     0.202 C 
ENDBRANCH  47  50
ENDBRANCH  46  47
ENDBRANCH  44  45
ENDBRANCH  42  44
ENDBRANCH  12  42
TORSDOF 13
ENDMDL
MODEL 3
REMARK minimizedAffinity -8.85949707
REMARK CNNscore 0.358218491
REMARK CNNaffinity 7.18564749
REMARK  13 active torsions:
REMARK  status: ('A' for Active; 'I' for Inactive)
REMARK    1  A    between atoms: O1_2  and  C2_3 
REMARK    2  A    between atoms: C12_14  and  C13_15 
REMARK    3  A    between atoms: C13_15  and  C15_17 
REMARK    4  A    between atoms: C15_17  and  C16_18 
REMARK    5  A    between atoms: C17_19  and  C18_20 
REMARK    6  A    between atoms: C18_20  and  O3_23 
REMARK    7  A    between atoms: C29_32  and  O4_33 
REMARK    8  A    between atoms: O4_33  and  C30_34 
REMARK    9  A    between atoms: C31_36  and  C32_37 
REMARK   10  A    between atoms: C32_37  and  O6_38 
REMARK   11  A    between atoms: C33_39  and  O7_40 
REMARK   12  A    between atoms: C34_41  and  O8_42 
REMARK   13  A    between atoms: C35_43  and  O9_44 
ROOT
HETATM    1  C2  UNL     1      -1.674  49.096 -21.497  1.00  0.00     0.270 C 
HETATM    2  O2  UNL     1      -1.961  50.376 -22.117  1.00  0.00    -0.344 OA
HETATM    3  C3  UNL     1      -3.390  50.467 -22.311  1.00  0.00     0.095 C 
HETATM    4  C4  UNL     1      -3.908  51.039 -20.995  1.00  0.00     0.008 C 
HETATM    5  C5  UNL     1      -4.082  50.278 -19.905  1.00  0.00    -0.021 C 
HETATM    6  C6  UNL     1      -3.710  48.812 -19.903  1.00  0.00     0.030 C 
HETATM    7  C7  UNL     1      -3.042  48.363 -21.274  1.00  0.00     0.024 C 
HETATM    8  C8  UNL     1      -2.816  46.825 -21.320  1.00  0.00     0.016 C 
HETATM    9  C9  UNL     1      -3.937  45.937 -20.745  1.00  0.00     0.011 C 
HETATM   10  C10 UNL     1      -4.375  46.390 -19.342  1.00  0.00    -0.032 C 
HETATM   11  C11 UNL     1      -3.169  46.201 -18.364  1.00  0.00     0.016 C 
HETATM   12  C12 UNL     1      -5.634  45.708 -18.710  1.00  0.00    -0.002 C 
HETATM   13  C22 UNL     1      -6.093  46.779 -17.659  1.00  0.00     0.006 C 
HETATM   14  C23 UNL     1      -5.420  48.114 -18.035  1.00  0.00     0.011 C 
HETATM   15  C24 UNL     1      -4.883  47.881 -19.458  1.00  0.00    -0.029 C 
HETATM   16  C25 UNL     1      -6.133  48.059 -20.389  1.00  0.00     0.016 C 
HETATM   17  C26 UNL     1      -3.809  48.986 -22.468  1.00  0.00     0.039 C 
HETATM   18  C27 UNL     1      -3.441  48.385 -23.838  1.00  0.00     0.011 C 
HETATM   19  C28 UNL     1      -3.904  49.253 -24.997  1.00  0.00     0.033 C 
HETATM   20  C29 UNL     1      -3.371  50.683 -24.889  1.00  0.00     0.136 C 
HETATM   21  C36 UNL     1      -3.772  51.361 -23.542  1.00  0.00     0.014 C 
HETATM   22  C37 UNL     1      -3.078  52.747 -23.455  1.00  0.00     0.021 C 
HETATM   23  C38 UNL     1      -5.306  51.613 -23.576  1.00  0.00     0.021 C 
ENDROOT
BRANCH  20  24
HETATM   24  O4  UNL     1      -1.947  50.614 -24.998  1.00  0.00    -0.352 OA
BRANCH  24  25
HETATM   25  C30 UNL     1      -1.496  50.182 -26.287  1.00  0.00     0.292 C 
HETATM   26  O5  UNL     1      -0.074  50.098 -26.269  1.00  0.00    -0.348 OA
HETATM   27  C31 UNL     1       0.622  51.232 -26.798  1.00  0.00     0.179 C 
HETATM   28  C33 UNL     1      -0.092  52.553 -26.466  1.00  0.00     0.180 C 
HETATM   29  C34 UNL     1      -1.513  52.575 -27.056  1.00  0.00     0.183 C 
HETATM   30  C35 UNL     1      -2.064  51.170 -27.321  1.00  0.00     0.204 C 
BRANCH  27  31
HETATM   31  C32 UNL     1       2.054  51.218 -26.237  1.00  0.00     0.198 C 
BRANCH  31  32
HETATM   32  O6  UNL     1       3.043  51.494 -27.219  1.00  0.00    -0.398 OA
HETATM   33  H50 UNL     1       2.599  52.027 -27.915  1.00  0.00     0.209 HD
ENDBRANCH  31  32
ENDBRANCH  27  31
BRANCH  28  34
HETATM   34  O7  UNL     1       0.632  53.678 -26.970  1.00  0.00    -0.390 OA
HETATM   35  H52 UNL     1       0.162  54.466 -26.628  1.00  0.00     0.210 HD
ENDBRANCH  28  34
BRANCH  29  36
HETATM   36  O8  UNL     1      -2.376  53.287 -26.145  1.00  0.00    -0.390 OA
HETATM   37  H54 UNL     1      -2.415  52.728 -25.342  1.00  0.00     0.210 HD
ENDBRANCH  29  36
BRANCH  30  38
HETATM   38  O9  UNL     1      -1.743  50.740 -28.648  1.00  0.00    -0.388 OA
HETATM   39  H56 UNL     1      -2.111  51.394 -29.267  1.00  0.00     0.210 HD
ENDBRANCH  30  38
ENDBRANCH  24  25
ENDBRANCH  20  24
BRANCH   1  40
HETATM   40  O1  UNL     1      -0.923  49.209 -20.295  1.00  0.00    -0.365 OA
HETATM   41  C1  UNL     1      -0.301  50.490 -20.173  1.00  0.00     0.204 C 
ENDBRANCH   1  40
BRANCH  12  42
HETATM   42  C13 UNL     1      -5.540  44.289 -18.076  1.00  0.00    -0.010 C 
HETATM   43  C14 UNL     1      -5.069  44.331 -16.619  1.00  0.00     0.010 C 
BRANCH  42  44
HETATM   44  C15 UNL     1      -4.582  43.400 -18.917  1.00  0.00     0.031 C 
BRANCH  44  45
HETATM   45  C16 UNL     1      -3.681  42.533 -18.078  1.00  0.00    -0.027 C 
HETATM   46  C17 UNL     1      -2.547  41.984 -18.547  1.00  0.00     0.006 C 
BRANCH  46  47
HETATM   47  C18 UNL     1      -1.565  41.085 -17.817  1.00  0.00     0.070 C 
HETATM   48  C19 UNL     1      -1.194  41.716 -16.464  1.00  0.00     0.050 C 
HETATM   49  C20 UNL     1      -2.113  39.673 -17.553  1.00  0.00     0.050 C 
BRANCH  47  50
HETATM   50  O3  UNL     1      -0.410  40.875 -18.645  1.00  0.00    -0.382 OA
HETATM   51  C21 UNL     1       0.853  41.218 -18.105  1.00  0.00     0.202 C 
ENDBRANCH  47  50
ENDBRANCH  46  47
ENDBRANCH  44  45
ENDBRANCH  42  44
ENDBRANCH  12  42
TORSDOF 13
ENDMDL
MODEL 4
REMARK minimizedAffinity -7.80740118
REMARK CNNscore 0.356730312
REMARK CNNaffinity 7.08771515
REMARK  13 active torsions:
REMARK  status: ('A' for Active; 'I' for Inactive)
REMARK    1  A    between atoms: O1_2  and  C2_3 
REMARK    2  A    between atoms: C12_14  and  C13_15 
REMARK    3  A    between atoms: C13_15  and  C15_17 
REMARK    4  A    between atoms: C15_17  and  C16_18 
REMARK    5  A    between atoms: C17_19  and  C18_20 
REMARK    6  A    between atoms: C18_20  and  O3_23 
REMARK    7  A    between atoms: C29_32  and  O4_33 
REMARK    8  A    between atoms: O4_33  and  C30_34 
REMARK    9  A    between atoms: C31_36  and  C32_37 
REMARK   10  A    between atoms: C32_37  and  O6_38 
REMARK   11  A    between atoms: C33_39  and  O7_40 
REMARK   12  A    between atoms: C34_41  and  O8_42 
REMARK   13  A    between atoms: C35_43  and  O9_44 
ROOT
HETATM    1  C2  UNL     1      -6.206  47.314 -19.779  1.00  0.00     0.270 C 
HETATM    2  O2  UNL     1      -6.194  46.562 -18.538  1.00  0.00    -0.344 OA
HETATM    3  C3  UNL     1      -4.816  46.391 -18.135  1.00  0.00     0.095 C 
HETATM    4  C4  UNL     1      -4.507  47.645 -17.325  1.00  0.00     0.008 C 
HETATM    5  C5  UNL     1      -4.215  48.817 -17.907  1.00  0.00    -0.021 C 
HETATM    6  C6  UNL     1      -4.238  48.974 -19.411  1.00  0.00     0.030 C 
HETATM    7  C7  UNL     1      -4.719  47.647 -20.143  1.00  0.00     0.024 C 
HETATM    8  C8  UNL     1      -4.581  47.768 -21.688  1.00  0.00     0.016 C 
HETATM    9  C9  UNL     1      -3.314  48.463 -22.224  1.00  0.00     0.011 C 
HETATM   10  C10 UNL     1      -3.059  49.817 -21.538  1.00  0.00    -0.032 C 
HETATM   11  C11 UNL     1      -4.234  50.782 -21.903  1.00  0.00     0.016 C 
HETATM   12  C12 UNL     1      -1.708  50.548 -21.837  1.00  0.00    -0.002 C 
HETATM   13  C22 UNL     1      -1.559  51.482 -20.585  1.00  0.00     0.006 C 
HETATM   14  C23 UNL     1      -2.503  50.945 -19.492  1.00  0.00     0.011 C 
HETATM   15  C24 UNL     1      -2.904  49.546 -19.989  1.00  0.00    -0.029 C 
HETATM   16  C25 UNL     1      -1.686  48.629 -19.621  1.00  0.00     0.016 C 
HETATM   17  C26 UNL     1      -4.060  46.409 -19.485  1.00  0.00     0.039 C 
HETATM   18  C27 UNL     1      -4.214  45.107 -20.293  1.00  0.00     0.011 C 
HETATM   19  C28 UNL     1      -3.910  43.868 -19.465  1.00  0.00     0.033 C 
HETATM   20  C29 UNL     1      -4.763  43.805 -18.197  1.00  0.00     0.136 C 
HETATM   21  C36 UNL     1      -4.594  45.076 -17.308  1.00  0.00     0.014 C 
HETATM   22  C37 UNL     1      -5.592  44.993 -16.123  1.00  0.00     0.021 C 
HETATM   23  C38 UNL     1      -3.160  45.047 -16.708  1.00  0.00     0.021 C 
ENDROOT
BRANCH  20  24
HETATM   24  O4  UNL     1      -6.126  43.673 -18.609  1.00  0.00    -0.352 OA
BRANCH  24  25
HETATM   25  C30 UNL     1      -6.721  42.430 -18.214  1.00  0.00     0.292 C 
HETATM   26  O5  UNL     1      -5.847  41.368 -18.585  1.00  0.00    -0.348 OA
HETATM   27  C31 UNL     1      -6.155  40.715 -19.822  1.00  0.00     0.179 C 
HETATM   28  C33 UNL     1      -6.688  41.699 -20.876  1.00  0.00     0.180 C 
HETATM   29  C34 UNL     1      -7.978  42.383 -20.389  1.00  0.00     0.183 C 
HETATM   30  C35 UNL     1      -8.114  42.368 -18.864  1.00  0.00     0.204 C 
BRANCH  27  31
HETATM   31  C32 UNL     1      -4.883  40.006 -20.317  1.00  0.00     0.198 C 
BRANCH  31  32
HETATM   32  O6  UNL     1      -3.703  40.444 -19.658  1.00  0.00    -0.398 OA
HETATM   33  H50 UNL     1      -3.987  40.777 -18.778  1.00  0.00     0.209 HD
ENDBRANCH  31  32
ENDBRANCH  27  31
BRANCH  28  34
HETATM   34  O7  UNL     1      -6.957  41.040 -22.116  1.00  0.00    -0.390 OA
HETATM   35  H52 UNL     1      -7.192  41.751 -22.745  1.00  0.00     0.210 HD
ENDBRANCH  28  34
BRANCH  29  36
HETATM   36  O8  UNL     1      -7.990  43.739 -20.881  1.00  0.00    -0.390 OA
HETATM   37  H54 UNL     1      -7.248  44.183 -20.421  1.00  0.00     0.210 HD
ENDBRANCH  29  36
BRANCH  30  38
HETATM   38  O9  UNL     1      -8.814  41.199 -18.426  1.00  0.00    -0.388 OA
HETATM   39  H56 UNL     1      -9.683  41.195 -18.865  1.00  0.00     0.210 HD
ENDBRANCH  30  38
ENDBRANCH  24  25
ENDBRANCH  20  24
BRANCH   1  40
HETATM   40  O1  UNL     1      -7.019  48.479 -19.722  1.00  0.00    -0.365 OA
HETATM   41  C1  UNL     1      -7.935  48.438 -18.626  1.00  0.00     0.204 C 
ENDBRANCH   1  40
BRANCH  12  42
HETATM   42  C13 UNL     1      -1.502  51.334 -23.165  1.00  0.00    -0.010 C 
HETATM   43  C14 UNL     1      -2.518  52.467 -23.336  1.00  0.00     0.010 C 
BRANCH  42  44
HETATM   44  C15 UNL     1      -1.587  50.359 -24.371  1.00  0.00     0.031 C 
BRANCH  44  45
HETATM   45  C16 UNL     1      -0.968  50.907 -25.629  1.00  0.00    -0.027 C 
HETATM   46  C17 UNL     1       0.274  51.420 -25.674  1.00  0.00     0.006 C 
BRANCH  46  47
HETATM   47  C18 UNL     1       1.005  52.015 -26.864  1.00  0.00     0.070 C 
HETATM   48  C19 UNL     1       2.489  51.611 -26.814  1.00  0.00     0.050 C 
HETATM   49  C20 UNL     1       0.431  51.565 -28.217  1.00  0.00     0.050 C 
BRANCH  47  50
HETATM   50  O3  UNL     1       0.837  53.442 -26.856  1.00  0.00    -0.382 OA
HETATM   51  C21 UNL     1      -0.208  53.982 -27.644  1.00  0.00     0.202 C 
ENDBRANCH  47  50
ENDBRANCH  46  47
ENDBRANCH  44  45
ENDBRANCH  42  44
ENDBRANCH  12  42
TORSDOF 13
ENDMDL
MODEL 5
REMARK minimizedAffinity -8.82614613
REMARK CNNscore 0.345116407
REMARK CNNaffinity 7.35431337
REMARK  13 active torsions:
REMARK  status: ('A' for Active; 'I' for Inactive)
REMARK    1  A    between atoms: O1_2  and  C2_3 
REMARK    2  A    between atoms: C12_14  and  C13_15 
REMARK    3  A    between atoms: C13_15  and  C15_17 
REMARK    4  A    between atoms: C15_17  and  C16_18 
REMARK    5  A    between atoms: C17_19  and  C18_20 
REMARK    6  A    between atoms: C18_20  and  O3_23 
REMARK    7  A    between atoms: C29_32  and  O4_33 
REMARK    8  A    between atoms: O4_33  and  C30_34 
REMARK    9  A    between atoms: C31_36  and  C32_37 
REMARK   10  A    between atoms: C32_37  and  O6_38 
REMARK   11  A    between atoms: C33_39  and  O7_40 
REMARK   12  A    between atoms: C34_41  and  O8_42 
REMARK   13  A    between atoms: C35_43  and  O9_44 
ROOT
HETATM    1  C2  UNL     1      -7.113  49.364 -21.893  1.00  0.00     0.270 C 
HETATM    2  O2  UNL     1      -7.896  48.143 -21.933  1.00  0.00    -0.344 OA
HETATM    3  C3  UNL     1      -6.993  47.043 -22.186  1.00  0.00     0.095 C 
HETATM    4  C4  UNL     1      -6.508  46.633 -20.799  1.00  0.00     0.008 C 
HETATM    5  C5  UNL     1      -5.544  47.305 -20.153  1.00  0.00    -0.021 C 
HETATM    6  C6  UNL     1      -4.926  48.553 -20.742  1.00  0.00     0.030 C 
HETATM    7  C7  UNL     1      -5.612  48.970 -22.114  1.00  0.00     0.024 C 
HETATM    8  C8  UNL     1      -4.863  50.153 -22.790  1.00  0.00     0.016 C 
HETATM    9  C9  UNL     1      -3.322  50.124 -22.739  1.00  0.00     0.011 C 
HETATM   10  C10 UNL     1      -2.792  49.871 -21.317  1.00  0.00    -0.032 C 
HETATM   11  C11 UNL     1      -3.202  51.083 -20.417  1.00  0.00     0.016 C 
HETATM   12  C12 UNL     1      -1.257  49.622 -21.140  1.00  0.00    -0.002 C 
HETATM   13  C22 UNL     1      -1.208  48.848 -19.775  1.00  0.00     0.006 C 
HETATM   14  C23 UNL     1      -2.627  48.317 -19.493  1.00  0.00     0.011 C 
HETATM   15  C24 UNL     1      -3.368  48.483 -20.831  1.00  0.00    -0.029 C 
HETATM   16  C25 UNL     1      -2.903  47.261 -21.698  1.00  0.00     0.016 C 
HETATM   17  C26 UNL     1      -5.854  47.714 -22.990  1.00  0.00     0.039 C 
HETATM   18  C27 UNL     1      -6.233  48.026 -24.450  1.00  0.00     0.011 C 
HETATM   19  C28 UNL     1      -6.829  46.823 -25.166  1.00  0.00     0.033 C 
HETATM   20  C29 UNL     1      -8.036  46.254 -24.418  1.00  0.00     0.136 C 
HETATM   21  C36 UNL     1      -7.689  45.861 -22.949  1.00  0.00     0.014 C 
HETATM   22  C37 UNL     1      -8.991  45.427 -22.226  1.00  0.00     0.021 C 
HETATM   23  C38 UNL     1      -6.752  44.621 -22.998  1.00  0.00     0.021 C 
ENDROOT
BRANCH  20  24
HETATM   24  O4  UNL     1      -9.054  47.258 -24.429  1.00  0.00    -0.352 OA
BRANCH  24  25
HETATM   25  C30 UNL     1     -10.190  46.907 -25.229  1.00  0.00     0.292 C 
HETATM   26  O5  UNL     1      -9.739  46.174 -26.365  1.00  0.00    -0.348 OA
HETATM   27  C31 UNL     1      -9.572  46.934 -27.567  1.00  0.00     0.179 C 
HETATM   28  C33 UNL     1      -9.046  48.351 -27.285  1.00  0.00     0.180 C 
HETATM   29  C34 UNL     1     -10.019  49.132 -26.385  1.00  0.00     0.183 C 
HETATM   30  C35 UNL     1     -10.929  48.214 -25.565  1.00  0.00     0.204 C 
BRANCH  27  31
HETATM   31  C32 UNL     1      -8.618  46.161 -28.493  1.00  0.00     0.198 C 
BRANCH  31  32
HETATM   32  O6  UNL     1      -8.879  44.765 -28.528  1.00  0.00    -0.398 OA
HETATM   33  H50 UNL     1      -9.830  44.657 -28.302  1.00  0.00     0.209 HD
ENDBRANCH  31  32
ENDBRANCH  27  31
BRANCH  28  34
HETATM   34  O7  UNL     1      -8.850  49.086 -28.496  1.00  0.00    -0.390 OA
HETATM   35  H52 UNL     1      -8.424  49.925 -28.228  1.00  0.00     0.210 HD
ENDBRANCH  28  34
BRANCH  29  36
HETATM   36  O8  UNL     1      -9.249  49.985 -25.511  1.00  0.00    -0.390 OA
HETATM   37  H54 UNL     1      -8.757  49.372 -24.926  1.00  0.00     0.210 HD
ENDBRANCH  29  36
BRANCH  30  38
HETATM   38  O9  UNL     1     -12.139  47.931 -26.275  1.00  0.00    -0.388 OA
HETATM   39  H56 UNL     1     -12.569  48.782 -26.473  1.00  0.00     0.210 HD
ENDBRANCH  30  38
ENDBRANCH  24  25
ENDBRANCH  20  24
BRANCH   1  40
HETATM   40  O1  UNL     1      -7.301  50.113 -20.699  1.00  0.00    -0.365 OA
HETATM   41  C1  UNL     1      -6.290  49.832 -19.728  1.00  0.00     0.204 C 
ENDBRANCH   1  40
BRANCH  12  42
HETATM   42  C13 UNL     1      -0.247  50.807 -21.161  1.00  0.00    -0.010 C 
HETATM   43  C14 UNL     1      -0.093  51.467 -19.788  1.00  0.00     0.010 C 
BRANCH  42  44
HETATM   44  C15 UNL     1      -0.698  51.862 -22.209  1.00  0.00     0.031 C 
BRANCH  44  45
HETATM   45  C16 UNL     1       0.064  51.782 -23.505  1.00  0.00    -0.027 C 
HETATM   46  C17 UNL     1      -0.414  52.256 -24.669  1.00  0.00     0.006 C 
BRANCH  46  47
HETATM   47  C18 UNL     1       0.241  52.224 -26.038  1.00  0.00     0.070 C 
HETATM   48  C19 UNL     1      -0.086  50.893 -26.736  1.00  0.00     0.050 C 
HETATM   49  C20 UNL     1      -0.211  53.371 -26.956  1.00  0.00     0.050 C 
BRANCH  47  50
HETATM   50  O3  UNL     1       1.657  52.417 -25.889  1.00  0.00    -0.382 OA
HETATM   51  C21 UNL     1       2.515  51.500 -26.543  1.00  0.00     0.202 C 
ENDBRANCH  47  50
ENDBRANCH  46  47
ENDBRANCH  44  45
ENDBRANCH  42  44
ENDBRANCH  12  42
TORSDOF 13
ENDMDL
MODEL 6
REMARK minimizedAffinity -8.82518864
REMARK CNNscore 0.33583504
REMARK CNNaffinity 7.06074667
REMARK  13 active torsions:
REMARK  status: ('A' for Active; 'I' for Inactive)
REMARK    1  A    between atoms: O1_2  and  C2_3 
REMARK    2  A    between atoms: C12_14  and  C13_15 
REMARK    3  A    between atoms: C13_15  and  C15_17 
REMARK    4  A    between atoms: C15_17  and  C16_18 
REMARK    5  A    between atoms: C17_19  and  C18_20 
REMARK    6  A    between atoms: C18_20  and  O3_23 
REMARK    7  A    between atoms: C29_32  and  O4_33 
REMARK    8  A    between atoms: O4_33  and  C30_34 
REMARK    9  A    between atoms: C31_36  and  C32_37 
REMARK   10  A    between atoms: C32_37  and  O6_38 
REMARK   11  A    between atoms: C33_39  and  O7_40 
REMARK   12  A    between atoms: C34_41  and  O8_42 
REMARK   13  A    between atoms: C35_43  and  O9_44 
ROOT
HETATM    1  C2  UNL     1      -5.464  48.603 -21.051  1.00  0.00     0.270 C 
HETATM    2  O2  UNL     1      -6.086  47.799 -20.016  1.00  0.00    -0.344 OA
HETATM    3  C3  UNL     1      -5.049  47.366 -19.106  1.00  0.00     0.095 C 
HETATM    4  C4  UNL     1      -4.943  48.502 -18.095  1.00  0.00     0.008 C 
HETATM    5  C5  UNL     1      -4.270  49.632 -18.359  1.00  0.00    -0.021 C 
HETATM    6  C6  UNL     1      -3.629  49.867 -19.709  1.00  0.00     0.030 C 
HETATM    7  C7  UNL     1      -3.932  48.686 -20.729  1.00  0.00     0.024 C 
HETATM    8  C8  UNL     1      -3.135  48.858 -22.053  1.00  0.00     0.016 C 
HETATM    9  C9  UNL     1      -1.677  49.344 -21.933  1.00  0.00     0.011 C 
HETATM   10  C10 UNL     1      -1.552  50.594 -21.044  1.00  0.00    -0.032 C 
HETATM   11  C11 UNL     1      -2.313  51.770 -21.740  1.00  0.00     0.016 C 
HETATM   12  C12 UNL     1      -0.115  51.088 -20.671  1.00  0.00    -0.002 C 
HETATM   13  C22 UNL     1      -0.384  51.916 -19.365  1.00  0.00     0.006 C 
HETATM   14  C23 UNL     1      -1.768  51.500 -18.830  1.00  0.00     0.011 C 
HETATM   15  C24 UNL     1      -2.110  50.222 -19.614  1.00  0.00    -0.029 C 
HETATM   16  C25 UNL     1      -1.306  49.085 -18.891  1.00  0.00     0.016 C 
HETATM   17  C26 UNL     1      -3.796  47.318 -20.013  1.00  0.00     0.039 C 
HETATM   18  C27 UNL     1      -3.772  46.107 -20.964  1.00  0.00     0.011 C 
HETATM   19  C28 UNL     1      -4.025  44.793 -20.240  1.00  0.00     0.033 C 
HETATM   20  C29 UNL     1      -5.336  44.818 -19.453  1.00  0.00     0.136 C 
HETATM   21  C36 UNL     1      -5.385  45.992 -18.427  1.00  0.00     0.014 C 
HETATM   22  C37 UNL     1      -6.794  46.027 -17.776  1.00  0.00     0.021 C 
HETATM   23  C38 UNL     1      -4.362  45.679 -17.299  1.00  0.00     0.021 C 
ENDROOT
BRANCH  20  24
HETATM   24  O4  UNL     1      -6.398  44.951 -20.401  1.00  0.00    -0.352 OA
BRANCH  24  25
HETATM   25  C30 UNL     1      -7.521  44.108 -20.118  1.00  0.00     0.292 C 
HETATM   26  O5  UNL     1      -7.094  42.750 -20.155  1.00  0.00    -0.348 OA
HETATM   27  C31 UNL     1      -7.335  42.057 -21.385  1.00  0.00     0.179 C 
HETATM   28  C33 UNL     1      -7.155  42.972 -22.607  1.00  0.00     0.180 C 
HETATM   29  C34 UNL     1      -8.131  44.161 -22.555  1.00  0.00     0.183 C 
HETATM   30  C35 UNL     1      -8.620  44.460 -21.136  1.00  0.00     0.204 C 
BRANCH  27  31
HETATM   31  C32 UNL     1      -6.384  40.851 -21.448  1.00  0.00     0.198 C 
BRANCH  31  32
HETATM   32  O6  UNL     1      -5.269  40.969 -20.576  1.00  0.00    -0.398 OA
HETATM   33  H50 UNL     1      -5.553  41.562 -19.846  1.00  0.00     0.209 HD
ENDBRANCH  31  32
ENDBRANCH  27  31
BRANCH  28  34
HETATM   34  O7  UNL     1      -7.363  42.259 -23.829  1.00  0.00    -0.390 OA
HETATM   35  H52 UNL     1      -7.131  42.887 -24.542  1.00  0.00     0.210 HD
ENDBRANCH  28  34
BRANCH  29  36
HETATM   36  O8  UNL     1      -7.472  45.317 -23.113  1.00  0.00    -0.390 OA
HETATM   37  H54 UNL     1      -6.747  45.524 -22.487  1.00  0.00     0.210 HD
ENDBRANCH  29  36
BRANCH  30  38
HETATM   38  O9  UNL     1      -9.817  43.732 -20.846  1.00  0.00    -0.388 OA
HETATM   39  H56 UNL     1     -10.480  43.977 -21.515  1.00  0.00     0.210 HD
ENDBRANCH  30  38
ENDBRANCH  24  25
ENDBRANCH  20  24
BRANCH   1  40
HETATM   40  O1  UNL     1      -6.052  49.890 -21.192  1.00  0.00    -0.365 OA
HETATM   41  C1  UNL     1      -7.170  49.871 -22.084  1.00  0.00     0.204 C 
ENDBRANCH   1  40
BRANCH  12  42
HETATM   42  C13 UNL     1       0.744  51.891 -21.690  1.00  0.00    -0.010 C 
HETATM   43  C14 UNL     1       1.597  52.968 -21.013  1.00  0.00     0.010 C 
BRANCH  42  44
HETATM   44  C15 UNL     1      -0.179  52.541 -22.758  1.00  0.00     0.031 C 
BRANCH  44  45
HETATM   45  C16 UNL     1       0.003  51.964 -24.137  1.00  0.00    -0.027 C 
HETATM   46  C17 UNL     1       0.874  52.463 -25.032  1.00  0.00     0.006 C 
BRANCH  46  47
HETATM   47  C18 UNL     1       1.141  51.990 -26.449  1.00  0.00     0.070 C 
HETATM   48  C19 UNL     1       2.545  51.366 -26.530  1.00  0.00     0.050 C 
HETATM   49  C20 UNL     1       0.125  50.948 -26.945  1.00  0.00     0.050 C 
BRANCH  47  50
HETATM   50  O3  UNL     1       0.994  53.096 -27.354  1.00  0.00    -0.382 OA
HETATM   51  C21 UNL     1      -0.321  53.457 -27.738  1.00  0.00     0.202 C 
ENDBRANCH  47  50
ENDBRANCH  46  47
ENDBRANCH  44  45
ENDBRANCH  42  44
ENDBRANCH  12  42
TORSDOF 13
ENDMDL
MODEL 7
REMARK minimizedAffinity -7.41457462
REMARK CNNscore 0.226675436
REMARK CNNaffinity 6.72292471
REMARK  13 active torsions:
REMARK  status: ('A' for Active; 'I' for Inactive)
REMARK    1  A    between atoms: O1_2  and  C2_3 
REMARK    2  A    between atoms: C12_14  and  C13_15 
REMARK    3  A    between atoms: C13_15  and  C15_17 
REMARK    4  A    between atoms: C15_17  and  C16_18 
REMARK    5  A    between atoms: C17_19  and  C18_20 
REMARK    6  A    between atoms: C18_20  and  O3_23 
REMARK    7  A    between atoms: C29_32  and  O4_33 
REMARK    8  A    between atoms: O4_33  and  C30_34 
REMARK    9  A    between atoms: C31_36  and  C32_37 
REMARK   10  A    between atoms: C32_37  and  O6_38 
REMARK   11  A    between atoms: C33_39  and  O7_40 
REMARK   12  A    between atoms: C34_41  and  O8_42 
REMARK   13  A    between atoms: C35_43  and  O9_44 
ROOT
HETATM    1  C2  UNL     1      -5.581  45.472 -21.045  1.00  0.00     0.270 C 
HETATM    2  O2  UNL     1      -6.613  45.207 -20.061  1.00  0.00    -0.344 OA
HETATM    3  C3  UNL     1      -6.468  46.170 -18.993  1.00  0.00     0.095 C 
HETATM    4  C4  UNL     1      -7.285  47.370 -19.460  1.00  0.00     0.008 C 
HETATM    5  C5  UNL     1      -6.811  48.254 -20.350  1.00  0.00    -0.021 C 
HETATM    6  C6  UNL     1      -5.454  48.070 -20.992  1.00  0.00     0.030 C 
HETATM    7  C7  UNL     1      -4.760  46.711 -20.546  1.00  0.00     0.024 C 
HETATM    8  C8  UNL     1      -3.303  46.613 -21.080  1.00  0.00     0.016 C 
HETATM    9  C9  UNL     1      -2.454  47.900 -21.035  1.00  0.00     0.011 C 
HETATM   10  C10 UNL     1      -3.190  49.103 -21.648  1.00  0.00    -0.032 C 
HETATM   11  C11 UNL     1      -3.412  48.820 -23.171  1.00  0.00     0.016 C 
HETATM   12  C12 UNL     1      -2.535  50.517 -21.500  1.00  0.00    -0.002 C 
HETATM   13  C22 UNL     1      -3.771  51.469 -21.674  1.00  0.00     0.006 C 
HETATM   14  C23 UNL     1      -5.041  50.622 -21.458  1.00  0.00     0.011 C 
HETATM   15  C24 UNL     1      -4.525  49.316 -20.831  1.00  0.00    -0.029 C 
HETATM   16  C25 UNL     1      -4.298  49.663 -19.318  1.00  0.00     0.016 C 
HETATM   17  C26 UNL     1      -4.955  46.490 -19.024  1.00  0.00     0.039 C 
HETATM   18  C27 UNL     1      -4.077  45.372 -18.431  1.00  0.00     0.011 C 
HETATM   19  C28 UNL     1      -4.555  44.924 -17.058  1.00  0.00     0.033 C 
HETATM   20  C29 UNL     1      -6.021  44.488 -17.078  1.00  0.00     0.136 C 
HETATM   21  C36 UNL     1      -6.963  45.611 -17.612  1.00  0.00     0.014 C 
HETATM   22  C37 UNL     1      -8.402  45.043 -17.730  1.00  0.00     0.021 C 
HETATM   23  C38 UNL     1      -7.000  46.745 -16.549  1.00  0.00     0.021 C 
ENDROOT
BRANCH  20  24
HETATM   24  O4  UNL     1      -6.110  43.334 -17.917  1.00  0.00    -0.352 OA
BRANCH  24  25
HETATM   25  C30 UNL     1      -6.139  42.102 -17.188  1.00  0.00     0.292 C 
HETATM   26  O5  UNL     1      -4.804  41.750 -16.833  1.00  0.00    -0.348 OA
HETATM   27  C31 UNL     1      -4.159  40.812 -17.700  1.00  0.00     0.179 C 
HETATM   28  C33 UNL     1      -4.552  41.021 -19.172  1.00  0.00     0.180 C 
HETATM   29  C34 UNL     1      -6.069  40.851 -19.367  1.00  0.00     0.183 C 
HETATM   30  C35 UNL     1      -6.857  41.068 -18.072  1.00  0.00     0.204 C 
BRANCH  27  31
HETATM   31  C32 UNL     1      -2.639  40.949 -17.506  1.00  0.00     0.198 C 
BRANCH  31  32
HETATM   32  O6  UNL     1      -2.267  42.131 -16.811  1.00  0.00    -0.398 OA
HETATM   33  H50 UNL     1      -3.039  42.379 -16.258  1.00  0.00     0.209 HD
ENDBRANCH  31  32
ENDBRANCH  27  31
BRANCH  28  34
HETATM   34  O7  UNL     1      -3.873  40.101 -20.030  1.00  0.00    -0.390 OA
HETATM   35  H52 UNL     1      -4.104  40.372 -20.941  1.00  0.00     0.210 HD
ENDBRANCH  28  34
BRANCH  29  36
HETATM   36  O8  UNL     1      -6.506  41.779 -20.381  1.00  0.00    -0.390 OA
HETATM   37  H54 UNL     1      -6.372  42.667 -19.989  1.00  0.00     0.210 HD
ENDBRANCH  29  36
BRANCH  30  38
HETATM   38  O9  UNL     1      -7.020  39.835 -17.363  1.00  0.00    -0.388 OA
HETATM   39  H56 UNL     1      -7.469  39.210 -17.958  1.00  0.00     0.210 HD
ENDBRANCH  30  38
ENDBRANCH  24  25
ENDBRANCH  20  24
BRANCH   1  40
HETATM   40  O1  UNL     1      -6.091  45.661 -22.358  1.00  0.00    -0.365 OA
HETATM   41  C1  UNL     1      -7.404  45.116 -22.505  1.00  0.00     0.204 C 
ENDBRANCH   1  40
BRANCH  12  42
HETATM   42  C13 UNL     1      -1.349  50.949 -22.411  1.00  0.00    -0.010 C 
HETATM   43  C14 UNL     1      -0.054  51.158 -21.621  1.00  0.00     0.010 C 
BRANCH  42  44
HETATM   44  C15 UNL     1      -1.721  52.250 -23.174  1.00  0.00     0.031 C 
BRANCH  44  45
HETATM   45  C16 UNL     1      -0.725  52.622 -24.241  1.00  0.00    -0.027 C 
HETATM   46  C17 UNL     1      -0.458  51.841 -25.302  1.00  0.00     0.006 C 
BRANCH  46  47
HETATM   47  C18 UNL     1       0.526  52.090 -26.431  1.00  0.00     0.070 C 
HETATM   48  C19 UNL     1       1.894  51.487 -26.066  1.00  0.00     0.050 C 
HETATM   49  C20 UNL     1       0.079  51.490 -27.773  1.00  0.00     0.050 C 
BRANCH  47  50
HETATM   50  O3  UNL     1       0.614  53.503 -26.678  1.00  0.00    -0.382 OA
HETATM   51  C21 UNL     1      -0.234  54.047 -27.673  1.00  0.00     0.202 C 
ENDBRANCH  47  50
ENDBRANCH  46  47
ENDBRANCH  44  45
ENDBRANCH  42  44
ENDBRANCH  12  42
TORSDOF 13
ENDMDL
MODEL 8
REMARK minimizedAffinity -8.01963902
REMARK CNNscore 0.219351009
REMARK CNNaffinity 6.71811056
REMARK  13 active torsions:
REMARK  status: ('A' for Active; 'I' for Inactive)
REMARK    1  A    between atoms: O1_2  and  C2_3 
REMARK    2  A    between atoms: C12_14  and  C13_15 
REMARK    3  A    between atoms: C13_15  and  C15_17 
REMARK    4  A    between atoms: C15_17  and  C16_18 
REMARK    5  A    between atoms: C17_19  and  C18_20 
REMARK    6  A    between atoms: C18_20  and  O3_23 
REMARK    7  A    between atoms: C29_32  and  O4_33 
REMARK    8  A    between atoms: O4_33  and  C30_34 
REMARK    9  A    between atoms: C31_36  and  C32_37 
REMARK   10  A    between atoms: C32_37  and  O6_38 
REMARK   11  A    between atoms: C33_39  and  O7_40 
REMARK   12  A    between atoms: C34_41  and  O8_42 
REMARK   13  A    between atoms: C35_43  and  O9_44 
ROOT
HETATM    1  C2  UNL     1      -3.793  47.684 -19.647  1.00  0.00     0.270 C 
HETATM    2  O2  UNL     1      -3.574  47.791 -21.077  1.00  0.00    -0.344 OA
HETATM    3  C3  UNL     1      -2.942  49.065 -21.336  1.00  0.00     0.095 C 
HETATM    4  C4  UNL     1      -1.452  48.781 -21.175  1.00  0.00     0.008 C 
HETATM    5  C5  UNL     1      -0.866  48.710 -19.971  1.00  0.00    -0.021 C 
HETATM    6  C6  UNL     1      -1.669  48.846 -18.697  1.00  0.00     0.030 C 
HETATM    7  C7  UNL     1      -3.227  48.986 -18.984  1.00  0.00     0.024 C 
HETATM    8  C8  UNL     1      -4.021  49.289 -17.682  1.00  0.00     0.016 C 
HETATM    9  C9  UNL     1      -3.383  50.282 -16.690  1.00  0.00     0.011 C 
HETATM   10  C10 UNL     1      -1.918  49.931 -16.377  1.00  0.00    -0.032 C 
HETATM   11  C11 UNL     1      -1.890  48.551 -15.640  1.00  0.00     0.016 C 
HETATM   12  C12 UNL     1      -1.081  50.954 -15.539  1.00  0.00    -0.002 C 
HETATM   13  C22 UNL     1       0.389  50.576 -15.937  1.00  0.00     0.006 C 
HETATM   14  C23 UNL     1       0.318  49.744 -17.233  1.00  0.00     0.011 C 
HETATM   15  C24 UNL     1      -1.119  49.951 -17.739  1.00  0.00    -0.029 C 
HETATM   16  C25 UNL     1      -1.095  51.352 -18.444  1.00  0.00     0.016 C 
HETATM   17  C26 UNL     1      -3.462  49.947 -20.177  1.00  0.00     0.039 C 
HETATM   18  C27 UNL     1      -4.927  50.390 -20.351  1.00  0.00     0.011 C 
HETATM   19  C28 UNL     1      -5.191  51.000 -21.719  1.00  0.00     0.033 C 
HETATM   20  C29 UNL     1      -4.788  50.056 -22.853  1.00  0.00     0.136 C 
HETATM   21  C36 UNL     1      -3.292  49.627 -22.760  1.00  0.00     0.014 C 
HETATM   22  C37 UNL     1      -3.006  48.569 -23.858  1.00  0.00     0.021 C 
HETATM   23  C38 UNL     1      -2.419  50.874 -23.080  1.00  0.00     0.021 C 
ENDROOT
BRANCH  20  24
HETATM   24  O4  UNL     1      -5.634  48.907 -22.770  1.00  0.00    -0.352 OA
BRANCH  24  25
HETATM   25  C30 UNL     1      -7.028  49.217 -22.884  1.00  0.00     0.292 C 
HETATM   26  O5  UNL     1      -7.775  48.223 -22.188  1.00  0.00    -0.348 OA
HETATM   27  C31 UNL     1      -8.307  47.168 -22.996  1.00  0.00     0.179 C 
HETATM   28  C33 UNL     1      -7.353  46.779 -24.138  1.00  0.00     0.180 C 
HETATM   29  C34 UNL     1      -7.089  47.976 -25.068  1.00  0.00     0.183 C 
HETATM   30  C35 UNL     1      -7.348  49.322 -24.385  1.00  0.00     0.204 C 
BRANCH  27  31
HETATM   31  C32 UNL     1      -8.598  45.966 -22.082  1.00  0.00     0.198 C 
BRANCH  31  32
HETATM   32  O6  UNL     1      -9.567  45.076 -22.618  1.00  0.00    -0.398 OA
HETATM   33  H50 UNL     1      -9.531  45.184 -23.594  1.00  0.00     0.209 HD
ENDBRANCH  31  32
ENDBRANCH  27  31
BRANCH  28  34
HETATM   34  O7  UNL     1      -7.880  45.700 -24.915  1.00  0.00    -0.390 OA
HETATM   35  H52 UNL     1      -7.170  45.459 -25.543  1.00  0.00     0.210 HD
ENDBRANCH  28  34
BRANCH  29  36
HETATM   36  O8  UNL     1      -5.725  47.903 -25.532  1.00  0.00    -0.390 OA
HETATM   37  H54 UNL     1      -5.176  48.045 -24.732  1.00  0.00     0.210 HD
ENDBRANCH  29  36
BRANCH  30  38
HETATM   38  O9  UNL     1      -8.704  49.737 -24.576  1.00  0.00    -0.388 OA
HETATM   39  H56 UNL     1      -8.866  49.782 -25.535  1.00  0.00     0.210 HD
ENDBRANCH  30  38
ENDBRANCH  24  25
ENDBRANCH  20  24
BRANCH   1  40
HETATM   40  O1  UNL     1      -3.236  46.506 -19.079  1.00  0.00    -0.365 OA
HETATM   41  C1  UNL     1      -3.927  45.329 -19.503  1.00  0.00     0.204 C 
ENDBRANCH   1  40
BRANCH  12  42
HETATM   42  C13 UNL     1      -1.248  51.049 -13.994  1.00  0.00    -0.010 C 
HETATM   43  C14 UNL     1      -2.517  51.804 -13.590  1.00  0.00     0.010 C 
BRANCH  42  44
HETATM   44  C15 UNL     1      -0.001  51.738 -13.373  1.00  0.00     0.031 C 
BRANCH  44  45
HETATM   45  C16 UNL     1      -0.343  52.736 -12.298  1.00  0.00    -0.027 C 
HETATM   46  C17 UNL     1      -1.426  52.625 -11.510  1.00  0.00     0.006 C 
BRANCH  46  47
HETATM   47  C18 UNL     1      -1.888  53.563 -10.409  1.00  0.00     0.070 C 
HETATM   48  C19 UNL     1      -0.969  54.796 -10.361  1.00  0.00     0.050 C 
HETATM   49  C20 UNL     1      -3.335  54.050 -10.592  1.00  0.00     0.050 C 
BRANCH  47  50
HETATM   50  O3  UNL     1      -1.900  52.855  -9.159  1.00  0.00    -0.382 OA
HETATM   51  C21 UNL     1      -1.884  51.440  -9.208  1.00  0.00     0.202 C 
ENDBRANCH  47  50
ENDBRANCH  46  47
ENDBRANCH  44  45
ENDBRANCH  42  44
ENDBRANCH  12  42
TORSDOF 13
ENDMDL
MODEL 9
REMARK minimizedAffinity -8.61813354
REMARK CNNscore 0.210731938
REMARK CNNaffinity 6.76059198
REMARK  13 active torsions:
REMARK  status: ('A' for Active; 'I' for Inactive)
REMARK    1  A    between atoms: O1_2  and  C2_3 
REMARK    2  A    between atoms: C12_14  and  C13_15 
REMARK    3  A    between atoms: C13_15  and  C15_17 
REMARK    4  A    between atoms: C15_17  and  C16_18 
REMARK    5  A    between atoms: C17_19  and  C18_20 
REMARK    6  A    between atoms: C18_20  and  O3_23 
REMARK    7  A    between atoms: C29_32  and  O4_33 
REMARK    8  A    between atoms: O4_33  and  C30_34 
REMARK    9  A    between atoms: C31_36  and  C32_37 
REMARK   10  A    between atoms: C32_37  and  O6_38 
REMARK   11  A    between atoms: C33_39  and  O7_40 
REMARK   12  A    between atoms: C34_41  and  O8_42 
REMARK   13  A    between atoms: C35_43  and  O9_44 
ROOT
HETATM    1  C2  UNL     1      -1.637  49.197 -21.516  1.00  0.00     0.270 C 
HETATM    2  O2  UNL     1      -1.977  50.462 -22.140  1.00  0.00    -0.344 OA
HETATM    3  C3  UNL     1      -3.409  50.492 -22.332  1.00  0.00     0.095 C 
HETATM    4  C4  UNL     1      -3.949  51.048 -21.018  1.00  0.00     0.008 C 
HETATM    5  C5  UNL     1      -4.090  50.284 -19.925  1.00  0.00    -0.021 C 
HETATM    6  C6  UNL     1      -3.657  48.835 -19.918  1.00  0.00     0.030 C 
HETATM    7  C7  UNL     1      -2.972  48.409 -21.288  1.00  0.00     0.024 C 
HETATM    8  C8  UNL     1      -2.683  46.881 -21.330  1.00  0.00     0.016 C 
HETATM    9  C9  UNL     1      -3.765  45.949 -20.750  1.00  0.00     0.011 C 
HETATM   10  C10 UNL     1      -4.221  46.389 -19.348  1.00  0.00    -0.032 C 
HETATM   11  C11 UNL     1      -3.007  46.254 -18.371  1.00  0.00     0.016 C 
HETATM   12  C12 UNL     1      -5.449  45.658 -18.712  1.00  0.00    -0.002 C 
HETATM   13  C22 UNL     1      -5.952  46.712 -17.665  1.00  0.00     0.006 C 
HETATM   14  C23 UNL     1      -5.335  48.073 -18.046  1.00  0.00     0.011 C 
HETATM   15  C24 UNL     1      -4.790  47.858 -19.468  1.00  0.00    -0.029 C 
HETATM   16  C25 UNL     1      -6.048  47.980 -20.399  1.00  0.00     0.016 C 
HETATM   17  C26 UNL     1      -3.766  48.995 -22.484  1.00  0.00     0.039 C 
HETATM   18  C27 UNL     1      -3.375  48.405 -23.852  1.00  0.00     0.011 C 
HETATM   19  C28 UNL     1      -3.875  49.250 -25.013  1.00  0.00     0.033 C 
HETATM   20  C29 UNL     1      -3.401  50.700 -24.911  1.00  0.00     0.136 C 
HETATM   21  C36 UNL     1      -3.828  51.366 -23.566  1.00  0.00     0.014 C 
HETATM   22  C37 UNL     1      -3.193  52.780 -23.485  1.00  0.00     0.021 C 
HETATM   23  C38 UNL     1      -5.372  51.554 -23.599  1.00  0.00     0.021 C 
ENDROOT
BRANCH  20  24
HETATM   24  O4  UNL     1      -1.976  50.691 -25.021  1.00  0.00    -0.352 OA
BRANCH  24  25
HETATM   25  C30 UNL     1      -1.508  50.235 -26.297  1.00  0.00     0.292 C 
HETATM   26  O5  UNL     1      -0.085  50.168 -26.263  1.00  0.00    -0.348 OA
HETATM   27  C31 UNL     1       0.603  51.298 -26.811  1.00  0.00     0.179 C 
HETATM   28  C33 UNL     1      -0.129  52.618 -26.515  1.00  0.00     0.180 C 
HETATM   29  C34 UNL     1      -1.545  52.610 -27.118  1.00  0.00     0.183 C 
HETATM   30  C35 UNL     1      -2.077  51.194 -27.357  1.00  0.00     0.204 C 
BRANCH  27  31
HETATM   31  C32 UNL     1       2.029  51.314 -26.237  1.00  0.00     0.198 C 
BRANCH  31  32
HETATM   32  O6  UNL     1       2.968  51.960 -27.085  1.00  0.00    -0.398 OA
HETATM   33  H50 UNL     1       2.455  52.600 -27.627  1.00  0.00     0.209 HD
ENDBRANCH  31  32
ENDBRANCH  27  31
BRANCH  28  34
HETATM   34  O7  UNL     1       0.586  53.740 -27.036  1.00  0.00    -0.390 OA
HETATM   35  H52 UNL     1       0.105  54.530 -26.717  1.00  0.00     0.210 HD
ENDBRANCH  28  34
BRANCH  29  36
HETATM   36  O8  UNL     1      -2.424  53.332 -26.231  1.00  0.00    -0.390 OA
HETATM   37  H54 UNL     1      -2.465  52.790 -25.416  1.00  0.00     0.210 HD
ENDBRANCH  29  36
BRANCH  30  38
HETATM   38  O9  UNL     1      -1.739  50.738 -28.671  1.00  0.00    -0.388 OA
HETATM   39  H56 UNL     1      -2.109  51.374 -29.308  1.00  0.00     0.210 HD
ENDBRANCH  30  38
ENDBRANCH  24  25
ENDBRANCH  20  24
BRANCH   1  40
HETATM   40  O1  UNL     1      -0.890  49.345 -20.315  1.00  0.00    -0.365 OA
HETATM   41  C1  UNL     1      -0.285  50.637 -20.218  1.00  0.00     0.204 C 
ENDBRANCH   1  40
BRANCH  12  42
HETATM   42  C13 UNL     1      -5.297  44.246 -18.073  1.00  0.00    -0.010 C 
HETATM   43  C14 UNL     1      -3.952  44.070 -17.362  1.00  0.00     0.010 C 
BRANCH  42  44
HETATM   44  C15 UNL     1      -5.465  43.154 -19.166  1.00  0.00     0.031 C 
BRANCH  44  45
HETATM   45  C16 UNL     1      -6.581  43.445 -20.135  1.00  0.00    -0.027 C 
HETATM   46  C17 UNL     1      -6.453  43.304 -21.466  1.00  0.00     0.006 C 
BRANCH  46  47
HETATM   47  C18 UNL     1      -7.486  43.577 -22.544  1.00  0.00     0.070 C 
HETATM   48  C19 UNL     1      -8.883  43.184 -22.032  1.00  0.00     0.050 C 
HETATM   49  C20 UNL     1      -7.533  45.049 -22.984  1.00  0.00     0.050 C 
BRANCH  47  50
HETATM   50  O3  UNL     1      -7.129  42.855 -23.734  1.00  0.00    -0.382 OA
HETATM   51  C21 UNL     1      -7.889  43.103 -24.903  1.00  0.00     0.202 C 
ENDBRANCH  47  50
ENDBRANCH  46  47
ENDBRANCH  44  45
ENDBRANCH  42  44
ENDBRANCH  12  42
TORSDOF 13
ENDMDL
