MODEL 1
REMARK minimizedAffinity -8.48585987
REMARK CNNscore 0.541522741
REMARK CNNaffinity 7.48504972
REMARK  11 active torsions:
REMARK  status: ('A' for Active; 'I' for Inactive)
REMARK    1  A    between atoms: C3_3  and  O1_4 
REMARK    2  A    between atoms: N1_14  and  O2_16 
REMARK    3  A    between atoms: O2_16  and  C13_17 
REMARK    4  A    between atoms: C13_17  and  C14_18 
REMARK       I    between atoms: C14_18  and  N2_20 
REMARK    5  A    between atoms: N2_20  and  C15_21 
REMARK    6  A    between atoms: C15_21  and  C16_22 
REMARK    7  A    between atoms: C15_21  and  C19_27 
REMARK    8  A    between atoms: C16_22  and  O5_24 
REMARK    9  A    between atoms: O5_24  and  C17_25 
REMARK   10  A    between atoms: C19_27  and  O6_28 
REMARK   11  A    between atoms: C19_27  and  C20_29 
ROOT
HETATM    1  C1  UNL     1       1.753  43.390 -13.602  1.00  0.00     0.015 C 
HETATM    2  C2  UNL     1       2.061  44.529 -13.368  1.00  0.00    -0.078 C 
HETATM    3  C3  UNL     1       2.462  45.929 -13.088  1.00  0.00     0.128 C 
HETATM    4  C4  UNL     1       2.796  46.629 -14.406  1.00  0.00     0.052 C 
HETATM    5  C5  UNL     1       1.460  47.149 -14.935  1.00  0.00     0.010 C 
HETATM    6  C6  UNL     1       0.478  47.174 -13.742  1.00  0.00     0.002 C 
HETATM    7  C7  UNL     1      -0.323  48.485 -13.593  1.00  0.00    -0.004 C 
HETATM    8  C8  UNL     1      -1.312  48.677 -14.753  1.00  0.00     0.010 C 
HETATM    9  C9  UNL     1      -1.751  50.123 -14.904  1.00  0.00     0.035 C 
HETATM   10  C10 UNL     1      -0.518  50.898 -15.268  1.00  0.00    -0.069 C 
HETATM   11  C11 UNL     1      -0.376  51.380 -16.517  1.00  0.00     0.030 C 
HETATM   12  C12 UNL     1       0.887  52.033 -16.967  1.00  0.00     0.032 C 
HETATM   13  N1  UNL     1       1.157  52.422 -18.175  1.00  0.00    -0.271 N 
ATOM     14  H1  UNL     1       2.054  52.815 -18.458  1.00  0.00     0.194 HD
HETATM   15  C26 UNL     1       1.959  52.259 -15.926  1.00  0.00     0.060 C 
HETATM   16  C27 UNL     1       1.941  51.161 -14.870  1.00  0.00     0.020 C 
HETATM   17  C28 UNL     1       0.556  50.980 -14.188  1.00  0.00    -0.016 C 
HETATM   18  C29 UNL     1       0.257  52.251 -13.345  1.00  0.00     0.020 C 
HETATM   19  C30 UNL     1       0.524  49.736 -13.193  1.00  0.00     0.002 C 
HETATM   20  C31 UNL     1       1.899  49.349 -12.606  1.00  0.00     0.007 C 
HETATM   21  C32 UNL     1       1.829  48.093 -11.746  1.00  0.00     0.014 C 
HETATM   22  C33 UNL     1       1.318  46.812 -12.482  1.00  0.00     0.003 C 
HETATM   23  C34 UNL     1       0.471  46.033 -11.451  1.00  0.00     0.020 C 
ENDROOT
BRANCH   3  24
HETATM   24  O1  UNL     1       3.611  45.892 -12.256  1.00  0.00    -0.377 OA
HETATM   25  H2  UNL     1       3.389  45.329 -11.495  1.00  0.00     0.211 HD
ENDBRANCH   3  24
BRANCH  13  26
HETATM   26  O2  UNL     1       0.071  52.241 -19.048  1.00  0.00    -0.271 OA
BRANCH  26  27
HETATM   27  C13 UNL     1       0.155  53.201 -20.096  1.00  0.00     0.303 C 
BRANCH  27  28
HETATM   28  C14 UNL     1       0.341  52.513 -21.443  1.00  0.00     0.244 C 
HETATM   29  O3  UNL     1       1.441  52.186 -21.895  1.00  0.00    -0.271 OA
HETATM   30  N2  UNL     1      -0.825  52.245 -22.125  1.00  0.00    -0.343 N 
HETATM   31  H16 UNL     1      -1.675  52.750 -21.893  1.00  0.00     0.163 HD
BRANCH  30  32
HETATM   32  C15 UNL     1      -0.787  51.683 -23.487  1.00  0.00     0.217 C 
BRANCH  32  33
HETATM   33  C16 UNL     1      -1.996  50.762 -23.627  1.00  0.00     0.284 C 
HETATM   34  O4  UNL     1      -2.645  50.318 -22.683  1.00  0.00    -0.263 OA
BRANCH  33  35
HETATM   35  O5  UNL     1      -2.222  50.450 -24.935  1.00  0.00    -0.320 OA
BRANCH  35  36
HETATM   36  C17 UNL     1      -3.178  49.403 -25.164  1.00  0.00     0.174 C 
HETATM   37  C18 UNL     1      -2.725  48.524 -26.318  1.00  0.00     0.034 C 
ENDBRANCH  35  36
ENDBRANCH  33  35
ENDBRANCH  32  33
BRANCH  32  38
HETATM   38  C19 UNL     1      -0.773  52.796 -24.556  1.00  0.00     0.183 C 
BRANCH  38  39
HETATM   39  O6  UNL     1      -2.108  53.162 -24.939  1.00  0.00    -0.388 OA
HETATM   40  H24 UNL     1      -2.027  53.795 -25.671  1.00  0.00     0.210 HD
ENDBRANCH  38  39
BRANCH  38  41
HETATM   41  C20 UNL     1       0.064  52.479 -25.778  1.00  0.00    -0.027 A 
HETATM   42  C21 UNL     1       1.295  51.829 -25.617  1.00  0.00     0.010 A 
HETATM   43  C22 UNL     1       2.079  51.502 -26.725  1.00  0.00     0.001 A 
HETATM   44  C23 UNL     1       1.633  51.815 -28.007  1.00  0.00     0.000 A 
HETATM   45  C24 UNL     1       0.415  52.477 -28.181  1.00  0.00     0.001 A 
HETATM   46  C25 UNL     1      -0.369  52.804 -27.075  1.00  0.00     0.010 A 
ENDBRANCH  38  41
ENDBRANCH  32  38
ENDBRANCH  30  32
ENDBRANCH  27  28
ENDBRANCH  26  27
ENDBRANCH  13  26
TORSDOF 11
ENDMDL
MODEL 2
REMARK minimizedAffinity -7.85695744
REMARK CNNscore 0.291852832
REMARK CNNaffinity 5.45053625
REMARK  11 active torsions:
REMARK  status: ('A' for Active; 'I' for Inactive)
REMARK    1  A    between atoms: C3_3  and  O1_4 
REMARK    2  A    between atoms: N1_14  and  O2_16 
REMARK    3  A    between atoms: O2_16  and  C13_17 
REMARK    4  A    between atoms: C13_17  and  C14_18 
REMARK       I    between atoms: C14_18  and  N2_20 
REMARK    5  A    between atoms: N2_20  and  C15_21 
REMARK    6  A    between atoms: C15_21  and  C16_22 
REMARK    7  A    between atoms: C15_21  and  C19_27 
REMARK    8  A    between atoms: C16_22  and  O5_24 
REMARK    9  A    between atoms: O5_24  and  C17_25 
REMARK   10  A    between atoms: C19_27  and  O6_28 
REMARK   11  A    between atoms: C19_27  and  C20_29 
ROOT
HETATM    1  C1  UNL     1      -3.912  52.280 -23.480  1.00  0.00     0.015 C 
HETATM    2  C2  UNL     1      -4.231  51.291 -22.876  1.00  0.00    -0.078 C 
HETATM    3  C3  UNL     1      -4.626  50.083 -22.110  1.00  0.00     0.128 C 
HETATM    4  C4  UNL     1      -6.067  50.247 -21.623  1.00  0.00     0.052 C 
HETATM    5  C5  UNL     1      -6.940  49.763 -22.780  1.00  0.00     0.010 C 
HETATM    6  C6  UNL     1      -6.041  48.906 -23.700  1.00  0.00     0.002 C 
HETATM    7  C7  UNL     1      -6.651  47.552 -24.118  1.00  0.00    -0.004 C 
HETATM    8  C8  UNL     1      -7.867  47.741 -25.039  1.00  0.00     0.010 C 
HETATM    9  C9  UNL     1      -8.759  46.512 -25.078  1.00  0.00     0.035 C 
HETATM   10  C10 UNL     1      -9.304  46.347 -23.689  1.00  0.00    -0.069 C 
HETATM   11  C11 UNL     1     -10.601  46.611 -23.444  1.00  0.00     0.030 C 
HETATM   12  C12 UNL     1     -11.156  46.598 -22.060  1.00  0.00     0.032 C 
HETATM   13  N1  UNL     1     -12.357  46.949 -21.717  1.00  0.00    -0.271 N 
ATOM     14  H1  UNL     1     -12.685  46.980 -20.751  1.00  0.00     0.194 HD
HETATM   15  C26 UNL     1     -10.239  46.142 -20.950  1.00  0.00     0.060 C 
HETATM   16  C27 UNL     1      -8.791  46.516 -21.243  1.00  0.00     0.020 C 
HETATM   17  C28 UNL     1      -8.281  45.992 -22.615  1.00  0.00    -0.016 C 
HETATM   18  C29 UNL     1      -8.213  44.440 -22.549  1.00  0.00     0.020 C 
HETATM   19  C30 UNL     1      -6.817  46.515 -22.962  1.00  0.00     0.002 C 
HETATM   20  C31 UNL     1      -5.954  46.868 -21.730  1.00  0.00     0.007 C 
HETATM   21  C32 UNL     1      -4.605  47.459 -22.119  1.00  0.00     0.014 C 
HETATM   22  C33 UNL     1      -4.674  48.771 -22.966  1.00  0.00     0.003 C 
HETATM   23  C34 UNL     1      -3.505  48.696 -23.973  1.00  0.00     0.020 C 
ENDROOT
BRANCH   3  24
HETATM   24  O1  UNL     1      -3.751  49.969 -20.999  1.00  0.00    -0.377 OA
HETATM   25  H2  UNL     1      -2.845  49.999 -21.351  1.00  0.00     0.211 HD
ENDBRANCH   3  24
BRANCH  13  26
HETATM   26  O2  UNL     1     -13.153  47.280 -22.825  1.00  0.00    -0.271 OA
BRANCH  26  27
HETATM   27  C13 UNL     1     -14.508  46.952 -22.536  1.00  0.00     0.303 C 
BRANCH  27  28
HETATM   28  C14 UNL     1     -15.375  47.096 -23.781  1.00  0.00     0.244 C 
HETATM   29  O3  UNL     1     -15.259  48.020 -24.589  1.00  0.00    -0.271 OA
HETATM   30  N2  UNL     1     -16.296  46.089 -23.968  1.00  0.00    -0.343 N 
HETATM   31  H16 UNL     1     -16.573  45.505 -23.185  1.00  0.00     0.163 HD
BRANCH  30  32
HETATM   32  C15 UNL     1     -17.272  46.159 -25.071  1.00  0.00     0.217 C 
BRANCH  32  33
HETATM   33  C16 UNL     1     -17.093  44.895 -25.909  1.00  0.00     0.284 C 
HETATM   34  O4  UNL     1     -17.938  44.012 -26.023  1.00  0.00    -0.263 OA
BRANCH  33  35
HETATM   35  O5  UNL     1     -15.848  44.852 -26.463  1.00  0.00    -0.320 OA
BRANCH  35  36
HETATM   36  C17 UNL     1     -15.797  45.060 -27.883  1.00  0.00     0.174 C 
HETATM   37  C18 UNL     1     -14.482  44.540 -28.441  1.00  0.00     0.034 C 
ENDBRANCH  35  36
ENDBRANCH  33  35
ENDBRANCH  32  33
BRANCH  32  38
HETATM   38  C19 UNL     1     -18.713  46.309 -24.539  1.00  0.00     0.183 C 
BRANCH  38  39
HETATM   39  O6  UNL     1     -19.181  47.659 -24.688  1.00  0.00    -0.388 OA
HETATM   40  H24 UNL     1     -20.050  47.704 -24.255  1.00  0.00     0.210 HD
ENDBRANCH  38  39
BRANCH  38  41
HETATM   41  C20 UNL     1     -18.906  45.832 -23.114  1.00  0.00    -0.027 A 
HETATM   42  C21 UNL     1     -19.400  44.541 -22.884  1.00  0.00     0.010 A 
HETATM   43  C22 UNL     1     -19.568  44.064 -21.582  1.00  0.00     0.001 A 
HETATM   44  C23 UNL     1     -19.234  44.872 -20.498  1.00  0.00     0.000 A 
HETATM   45  C24 UNL     1     -18.755  46.167 -20.714  1.00  0.00     0.001 A 
HETATM   46  C25 UNL     1     -18.587  46.645 -22.012  1.00  0.00     0.010 A 
ENDBRANCH  38  41
ENDBRANCH  32  38
ENDBRANCH  30  32
ENDBRANCH  27  28
ENDBRANCH  26  27
ENDBRANCH  13  26
TORSDOF 11
ENDMDL
MODEL 3
REMARK minimizedAffinity -8.10046387
REMARK CNNscore 0.244995669
REMARK CNNaffinity 5.60045576
REMARK  11 active torsions:
REMARK  status: ('A' for Active; 'I' for Inactive)
REMARK    1  A    between atoms: C3_3  and  O1_4 
REMARK    2  A    between atoms: N1_14  and  O2_16 
REMARK    3  A    between atoms: O2_16  and  C13_17 
REMARK    4  A    between atoms: C13_17  and  C14_18 
REMARK       I    between atoms: C14_18  and  N2_20 
REMARK    5  A    between atoms: N2_20  and  C15_21 
REMARK    6  A    between atoms: C15_21  and  C16_22 
REMARK    7  A    between atoms: C15_21  and  C19_27 
REMARK    8  A    between atoms: C16_22  and  O5_24 
REMARK    9  A    between atoms: O5_24  and  C17_25 
REMARK   10  A    between atoms: C19_27  and  O6_28 
REMARK   11  A    between atoms: C19_27  and  C20_29 
ROOT
HETATM    1  C1  UNL     1      -4.347  52.061 -23.467  1.00  0.00     0.015 C 
HETATM    2  C2  UNL     1      -4.833  51.079 -22.971  1.00  0.00    -0.078 C 
HETATM    3  C3  UNL     1      -5.439  49.880 -22.339  1.00  0.00     0.128 C 
HETATM    4  C4  UNL     1      -6.957  50.062 -22.273  1.00  0.00     0.052 C 
HETATM    5  C5  UNL     1      -7.479  49.578 -23.625  1.00  0.00     0.010 C 
HETATM    6  C6  UNL     1      -6.370  48.705 -24.255  1.00  0.00     0.002 C 
HETATM    7  C7  UNL     1      -6.854  47.355 -24.820  1.00  0.00    -0.004 C 
HETATM    8  C8  UNL     1      -7.764  47.549 -26.044  1.00  0.00     0.010 C 
HETATM    9  C9  UNL     1      -8.624  46.328 -26.324  1.00  0.00     0.035 C 
HETATM   10  C10 UNL     1      -9.535  46.179 -25.141  1.00  0.00    -0.069 C 
HETATM   11  C11 UNL     1     -10.847  46.457 -25.267  1.00  0.00     0.030 C 
HETATM   12  C12 UNL     1     -11.765  46.460 -24.091  1.00  0.00     0.032 C 
HETATM   13  N1  UNL     1     -13.009  46.825 -24.097  1.00  0.00    -0.271 N 
ATOM     14  H1  UNL     1     -13.593  46.866 -23.261  1.00  0.00     0.194 HD
HETATM   15  C26 UNL     1     -11.197  46.003 -22.768  1.00  0.00     0.060 C 
HETATM   16  C27 UNL     1      -9.721  46.361 -22.649  1.00  0.00     0.020 C 
HETATM   17  C28 UNL     1      -8.856  45.821 -23.822  1.00  0.00    -0.016 C 
HETATM   18  C29 UNL     1      -8.826  44.270 -23.734  1.00  0.00     0.020 C 
HETATM   19  C30 UNL     1      -7.347  46.328 -23.751  1.00  0.00     0.002 C 
HETATM   20  C31 UNL     1      -6.856  46.682 -22.330  1.00  0.00     0.007 C 
HETATM   21  C32 UNL     1      -5.445  47.257 -22.331  1.00  0.00     0.014 C 
HETATM   22  C33 UNL     1      -5.262  48.563 -23.169  1.00  0.00     0.003 C 
HETATM   23  C34 UNL     1      -3.860  48.469 -23.811  1.00  0.00     0.020 C 
ENDROOT
BRANCH   3  24
HETATM   24  O1  UNL     1      -4.908  49.766 -21.028  1.00  0.00    -0.377 OA
HETATM   25  H2  UNL     1      -3.940  49.785 -21.115  1.00  0.00     0.211 HD
ENDBRANCH   3  24
BRANCH  13  26
HETATM   26  O2  UNL     1     -13.462  47.156 -25.385  1.00  0.00    -0.271 OA
BRANCH  26  27
HETATM   27  C13 UNL     1     -14.322  46.122 -25.853  1.00  0.00     0.303 C 
BRANCH  27  28
HETATM   28  C14 UNL     1     -15.494  45.922 -24.899  1.00  0.00     0.244 C 
HETATM   29  O3  UNL     1     -15.564  44.992 -24.093  1.00  0.00    -0.271 OA
HETATM   30  N2  UNL     1     -16.476  46.885 -24.975  1.00  0.00    -0.343 N 
HETATM   31  H16 UNL     1     -16.551  47.467 -25.803  1.00  0.00     0.163 HD
BRANCH  30  32
HETATM   32  C15 UNL     1     -17.716  46.756 -24.188  1.00  0.00     0.217 C 
BRANCH  32  33
HETATM   33  C16 UNL     1     -18.831  46.389 -25.165  1.00  0.00     0.284 C 
HETATM   34  O4  UNL     1     -20.029  46.521 -24.934  1.00  0.00    -0.263 OA
BRANCH  33  35
HETATM   35  O5  UNL     1     -18.319  45.839 -26.303  1.00  0.00    -0.320 OA
BRANCH  35  36
HETATM   36  C17 UNL     1     -18.904  44.591 -26.703  1.00  0.00     0.174 C 
HETATM   37  C18 UNL     1     -18.035  43.433 -26.241  1.00  0.00     0.034 C 
ENDBRANCH  35  36
ENDBRANCH  33  35
ENDBRANCH  32  33
BRANCH  32  38
HETATM   38  C19 UNL     1     -17.561  45.714 -23.060  1.00  0.00     0.183 C 
BRANCH  38  39
HETATM   39  O6  UNL     1     -18.533  44.664 -23.189  1.00  0.00    -0.388 OA
HETATM   40  H24 UNL     1     -18.440  44.098 -22.405  1.00  0.00     0.210 HD
ENDBRANCH  38  39
BRANCH  38  41
HETATM   41  C20 UNL     1     -17.590  46.298 -21.662  1.00  0.00    -0.027 A 
HETATM   42  C21 UNL     1     -16.386  46.465 -20.965  1.00  0.00     0.010 A 
HETATM   43  C22 UNL     1     -16.376  47.022 -19.684  1.00  0.00     0.001 A 
HETATM   44  C23 UNL     1     -17.571  47.424 -19.093  1.00  0.00     0.000 A 
HETATM   45  C24 UNL     1     -18.780  47.249 -19.772  1.00  0.00     0.001 A 
HETATM   46  C25 UNL     1     -18.791  46.693 -21.050  1.00  0.00     0.010 A 
ENDBRANCH  38  41
ENDBRANCH  32  38
ENDBRANCH  30  32
ENDBRANCH  27  28
ENDBRANCH  26  27
ENDBRANCH  13  26
TORSDOF 11
ENDMDL
MODEL 4
REMARK minimizedAffinity -9.18894482
REMARK CNNscore 0.235709071
REMARK CNNaffinity 6.43869019
REMARK  11 active torsions:
REMARK  status: ('A' for Active; 'I' for Inactive)
REMARK    1  A    between atoms: C3_3  and  O1_4 
REMARK    2  A    between atoms: N1_14  and  O2_16 
REMARK    3  A    between atoms: O2_16  and  C13_17 
REMARK    4  A    between atoms: C13_17  and  C14_18 
REMARK       I    between atoms: C14_18  and  N2_20 
REMARK    5  A    between atoms: N2_20  and  C15_21 
REMARK    6  A    between atoms: C15_21  and  C16_22 
REMARK    7  A    between atoms: C15_21  and  C19_27 
REMARK    8  A    between atoms: C16_22  and  O5_24 
REMARK    9  A    between atoms: O5_24  and  C17_25 
REMARK   10  A    between atoms: C19_27  and  O6_28 
REMARK   11  A    between atoms: C19_27  and  C20_29 
ROOT
HETATM    1  C1  UNL     1       0.074  51.732 -13.867  1.00  0.00     0.015 C 
HETATM    2  C2  UNL     1      -0.722  50.967 -14.343  1.00  0.00    -0.078 C 
HETATM    3  C3  UNL     1      -1.722  50.032 -14.916  1.00  0.00     0.128 C 
HETATM    4  C4  UNL     1      -2.739  50.828 -15.738  1.00  0.00     0.052 C 
HETATM    5  C5  UNL     1      -2.114  50.966 -17.125  1.00  0.00     0.010 C 
HETATM    6  C6  UNL     1      -1.015  49.885 -17.239  1.00  0.00     0.002 C 
HETATM    7  C7  UNL     1      -1.053  49.061 -18.542  1.00  0.00    -0.004 C 
HETATM    8  C8  UNL     1      -0.703  49.923 -19.766  1.00  0.00     0.010 C 
HETATM    9  C9  UNL     1      -1.185  49.303 -21.066  1.00  0.00     0.035 C 
HETATM   10  C10 UNL     1      -2.684  49.274 -20.985  1.00  0.00    -0.069 C 
HETATM   11  C11 UNL     1      -3.411  50.112 -21.748  1.00  0.00     0.030 C 
HETATM   12  C12 UNL     1      -4.891  50.221 -21.602  1.00  0.00     0.032 C 
HETATM   13  N1  UNL     1      -5.656  51.076 -22.208  1.00  0.00    -0.271 N 
ATOM     14  H1  UNL     1      -6.659  51.157 -22.042  1.00  0.00     0.194 HD
HETATM   15  C26 UNL     1      -5.568  49.254 -20.659  1.00  0.00     0.060 C 
HETATM   16  C27 UNL     1      -4.658  48.899 -19.489  1.00  0.00     0.020 C 
HETATM   17  C28 UNL     1      -3.273  48.347 -19.927  1.00  0.00    -0.016 C 
HETATM   18  C29 UNL     1      -3.490  46.965 -20.605  1.00  0.00     0.020 C 
HETATM   19  C30 UNL     1      -2.290  48.118 -18.694  1.00  0.00     0.002 C 
HETATM   20  C31 UNL     1      -3.001  47.864 -17.346  1.00  0.00     0.007 C 
HETATM   21  C32 UNL     1      -2.020  47.756 -16.185  1.00  0.00     0.014 C 
HETATM   22  C33 UNL     1      -1.127  49.017 -15.951  1.00  0.00     0.003 C 
HETATM   23  C34 UNL     1       0.257  48.489 -15.512  1.00  0.00     0.020 C 
ENDROOT
BRANCH   3  24
HETATM   24  O1  UNL     1      -2.376  49.382 -13.838  1.00  0.00    -0.377 OA
HETATM   25  H2  UNL     1      -1.679  49.002 -13.275  1.00  0.00     0.211 HD
ENDBRANCH   3  24
BRANCH  13  26
HETATM   26  O2  UNL     1      -4.946  51.876 -23.119  1.00  0.00    -0.271 OA
BRANCH  26  27
HETATM   27  C13 UNL     1      -4.267  51.032 -24.044  1.00  0.00     0.303 C 
BRANCH  27  28
HETATM   28  C14 UNL     1      -2.986  51.694 -24.536  1.00  0.00     0.244 C 
HETATM   29  O3  UNL     1      -2.944  52.831 -25.009  1.00  0.00    -0.271 OA
HETATM   30  N2  UNL     1      -1.845  50.935 -24.386  1.00  0.00    -0.343 N 
HETATM   31  H16 UNL     1      -1.919  49.930 -24.265  1.00  0.00     0.163 HD
BRANCH  30  32
HETATM   32  C15 UNL     1      -0.555  51.407 -24.919  1.00  0.00     0.217 C 
BRANCH  32  33
HETATM   33  C16 UNL     1      -0.539  51.081 -26.410  1.00  0.00     0.284 C 
HETATM   34  O4  UNL     1      -1.517  50.706 -27.050  1.00  0.00    -0.263 OA
BRANCH  33  35
HETATM   35  O5  UNL     1       0.719  51.204 -26.922  1.00  0.00    -0.320 OA
BRANCH  35  36
HETATM   36  C17 UNL     1       0.788  51.534 -28.318  1.00  0.00     0.174 C 
HETATM   37  C18 UNL     1       0.205  52.917 -28.558  1.00  0.00     0.034 C 
ENDBRANCH  35  36
ENDBRANCH  33  35
ENDBRANCH  32  33
BRANCH  32  38
HETATM   38  C19 UNL     1      -0.349  52.911 -24.646  1.00  0.00     0.183 C 
BRANCH  38  39
HETATM   39  O6  UNL     1       0.470  53.514 -25.662  1.00  0.00    -0.388 OA
HETATM   40  H24 UNL     1       0.633  54.430 -25.384  1.00  0.00     0.210 HD
ENDBRANCH  38  39
BRANCH  38  41
HETATM   41  C20 UNL     1       0.192  53.229 -23.267  1.00  0.00    -0.027 A 
HETATM   42  C21 UNL     1       1.155  54.237 -23.125  1.00  0.00     0.010 A 
HETATM   43  C22 UNL     1       1.657  54.570 -21.864  1.00  0.00     0.001 A 
HETATM   44  C23 UNL     1       1.193  53.902 -20.734  1.00  0.00     0.000 A 
HETATM   45  C24 UNL     1       0.244  52.884 -20.865  1.00  0.00     0.001 A 
HETATM   46  C25 UNL     1      -0.258  52.551 -22.122  1.00  0.00     0.010 A 
ENDBRANCH  38  41
ENDBRANCH  32  38
ENDBRANCH  30  32
ENDBRANCH  27  28
ENDBRANCH  26  27
ENDBRANCH  13  26
TORSDOF 11
ENDMDL
MODEL 5
REMARK minimizedAffinity -9.05928612
REMARK CNNscore 0.226088062
REMARK CNNaffinity 6.30056572
REMARK  11 active torsions:
REMARK  status: ('A' for Active; 'I' for Inactive)
REMARK    1  A    between atoms: C3_3  and  O1_4 
REMARK    2  A    between atoms: N1_14  and  O2_16 
REMARK    3  A    between atoms: O2_16  and  C13_17 
REMARK    4  A    between atoms: C13_17  and  C14_18 
REMARK       I    between atoms: C14_18  and  N2_20 
REMARK    5  A    between atoms: N2_20  and  C15_21 
REMARK    6  A    between atoms: C15_21  and  C16_22 
REMARK    7  A    between atoms: C15_21  and  C19_27 
REMARK    8  A    between atoms: C16_22  and  O5_24 
REMARK    9  A    between atoms: O5_24  and  C17_25 
REMARK   10  A    between atoms: C19_27  and  O6_28 
REMARK   11  A    between atoms: C19_27  and  C20_29 
ROOT
HETATM    1  C1  UNL     1      -0.067  54.226 -27.421  1.00  0.00     0.015 C 
HETATM    2  C2  UNL     1      -0.238  53.118 -26.986  1.00  0.00    -0.078 C 
HETATM    3  C3  UNL     1      -0.425  51.747 -26.449  1.00  0.00     0.128 C 
HETATM    4  C4  UNL     1       0.155  51.679 -25.035  1.00  0.00     0.052 C 
HETATM    5  C5  UNL     1      -0.967  52.161 -24.116  1.00  0.00     0.010 C 
HETATM    6  C6  UNL     1      -2.286  52.047 -24.912  1.00  0.00     0.002 C 
HETATM    7  C7  UNL     1      -3.443  51.369 -24.150  1.00  0.00    -0.004 C 
HETATM    8  C8  UNL     1      -3.921  52.228 -22.969  1.00  0.00     0.010 C 
HETATM    9  C9  UNL     1      -4.690  51.418 -21.939  1.00  0.00     0.035 C 
HETATM   10  C10 UNL     1      -3.715  50.427 -21.373  1.00  0.00    -0.069 C 
HETATM   11  C11 UNL     1      -3.261  50.580 -20.114  1.00  0.00     0.030 C 
HETATM   12  C12 UNL     1      -2.188  49.708 -19.556  1.00  0.00     0.032 C 
HETATM   13  N1  UNL     1      -1.611  49.852 -18.403  1.00  0.00    -0.271 N 
ATOM     14  H1  UNL     1      -0.841  49.268 -18.076  1.00  0.00     0.194 HD
HETATM   15  C26 UNL     1      -1.721  48.552 -20.409  1.00  0.00     0.060 C 
HETATM   16  C27 UNL     1      -1.803  48.893 -21.891  1.00  0.00     0.020 C 
HETATM   17  C28 UNL     1      -3.216  49.361 -22.342  1.00  0.00    -0.016 C 
HETATM   18  C29 UNL     1      -4.189  48.154 -22.228  1.00  0.00     0.020 C 
HETATM   19  C30 UNL     1      -3.242  49.847 -23.859  1.00  0.00     0.002 C 
HETATM   20  C31 UNL     1      -2.149  49.220 -24.752  1.00  0.00     0.007 C 
HETATM   21  C32 UNL     1      -2.154  49.795 -26.163  1.00  0.00     0.014 C 
HETATM   22  C33 UNL     1      -1.924  51.338 -26.251  1.00  0.00     0.003 C 
HETATM   23  C34 UNL     1      -2.817  51.841 -27.408  1.00  0.00     0.020 C 
ENDROOT
BRANCH   3  24
HETATM   24  O1  UNL     1       0.271  50.850 -27.300  1.00  0.00    -0.377 OA
HETATM   25  H2  UNL     1      -0.041  51.023 -28.205  1.00  0.00     0.211 HD
ENDBRANCH   3  24
BRANCH  13  26
HETATM   26  O2  UNL     1      -2.168  50.903 -17.655  1.00  0.00    -0.271 OA
BRANCH  26  27
HETATM   27  C13 UNL     1      -3.143  50.372 -16.764  1.00  0.00     0.303 C 
BRANCH  27  28
HETATM   28  C14 UNL     1      -2.840  50.779 -15.328  1.00  0.00     0.244 C 
HETATM   29  O3  UNL     1      -3.373  51.738 -14.765  1.00  0.00    -0.271 OA
HETATM   30  N2  UNL     1      -1.936  49.972 -14.673  1.00  0.00    -0.343 N 
HETATM   31  H16 UNL     1      -1.309  49.378 -15.206  1.00  0.00     0.163 HD
BRANCH  30  32
HETATM   32  C15 UNL     1      -1.469  50.313 -13.317  1.00  0.00     0.217 C 
BRANCH  32  33
HETATM   33  C16 UNL     1      -0.876  51.719 -13.388  1.00  0.00     0.284 C 
HETATM   34  O4  UNL     1      -0.750  52.469 -12.424  1.00  0.00    -0.263 OA
BRANCH  33  35
HETATM   35  O5  UNL     1      -0.564  52.051 -14.673  1.00  0.00    -0.320 OA
BRANCH  35  36
HETATM   36  C17 UNL     1       0.795  51.800 -15.062  1.00  0.00     0.174 C 
HETATM   37  C18 UNL     1       1.702  51.828 -13.842  1.00  0.00     0.034 C 
ENDBRANCH  35  36
ENDBRANCH  33  35
ENDBRANCH  32  33
BRANCH  32  38
HETATM   38  C19 UNL     1      -2.612  50.212 -12.285  1.00  0.00     0.183 C 
BRANCH  38  39
HETATM   39  O6  UNL     1      -3.819  49.728 -12.897  1.00  0.00    -0.388 OA
HETATM   40  H24 UNL     1      -4.514  49.774 -12.220  1.00  0.00     0.210 HD
ENDBRANCH  38  39
BRANCH  38  41
HETATM   41  C20 UNL     1      -2.879  51.492 -11.520  1.00  0.00    -0.027 A 
HETATM   42  C21 UNL     1      -2.277  51.680 -10.269  1.00  0.00     0.010 A 
HETATM   43  C22 UNL     1      -2.484  52.859  -9.549  1.00  0.00     0.001 A 
HETATM   44  C23 UNL     1      -3.290  53.863 -10.078  1.00  0.00     0.000 A 
HETATM   45  C24 UNL     1      -3.909  53.681 -11.318  1.00  0.00     0.001 A 
HETATM   46  C25 UNL     1      -3.703  52.505 -12.038  1.00  0.00     0.010 A 
ENDBRANCH  38  41
ENDBRANCH  32  38
ENDBRANCH  30  32
ENDBRANCH  27  28
ENDBRANCH  26  27
ENDBRANCH  13  26
TORSDOF 11
ENDMDL
MODEL 6
REMARK minimizedAffinity -10.127491
REMARK CNNscore 0.223890543
REMARK CNNaffinity 7.36369514
REMARK  11 active torsions:
REMARK  status: ('A' for Active; 'I' for Inactive)
REMARK    1  A    between atoms: C3_3  and  O1_4 
REMARK    2  A    between atoms: N1_14  and  O2_16 
REMARK    3  A    between atoms: O2_16  and  C13_17 
REMARK    4  A    between atoms: C13_17  and  C14_18 
REMARK       I    between atoms: C14_18  and  N2_20 
REMARK    5  A    between atoms: N2_20  and  C15_21 
REMARK    6  A    between atoms: C15_21  and  C16_22 
REMARK    7  A    between atoms: C15_21  and  C19_27 
REMARK    8  A    between atoms: C16_22  and  O5_24 
REMARK    9  A    between atoms: O5_24  and  C17_25 
REMARK   10  A    between atoms: C19_27  and  O6_28 
REMARK   11  A    between atoms: C19_27  and  C20_29 
ROOT
HETATM    1  C1  UNL     1       0.126  54.167 -26.611  1.00  0.00     0.015 C 
HETATM    2  C2  UNL     1      -0.228  53.027 -26.467  1.00  0.00    -0.078 C 
HETATM    3  C3  UNL     1      -0.642  51.613 -26.285  1.00  0.00     0.128 C 
HETATM    4  C4  UNL     1      -0.381  51.196 -24.837  1.00  0.00     0.052 C 
HETATM    5  C5  UNL     1      -1.626  51.630 -24.064  1.00  0.00     0.010 C 
HETATM    6  C6  UNL     1      -2.753  51.843 -25.100  1.00  0.00     0.002 C 
HETATM    7  C7  UNL     1      -4.099  51.184 -24.734  1.00  0.00    -0.004 C 
HETATM    8  C8  UNL     1      -4.739  51.850 -23.506  1.00  0.00     0.010 C 
HETATM    9  C9  UNL     1      -5.775  50.960 -22.841  1.00  0.00     0.035 C 
HETATM   10  C10 UNL     1      -5.030  49.762 -22.330  1.00  0.00    -0.069 C 
HETATM   11  C11 UNL     1      -4.841  49.606 -21.006  1.00  0.00     0.030 C 
HETATM   12  C12 UNL     1      -3.989  48.511 -20.458  1.00  0.00     0.032 C 
HETATM   13  N1  UNL     1      -3.659  48.352 -19.214  1.00  0.00    -0.271 N 
ATOM     14  H1  UNL     1      -3.028  47.621 -18.883  1.00  0.00     0.194 HD
HETATM   15  C26 UNL     1      -3.455  47.493 -21.438  1.00  0.00     0.060 C 
HETATM   16  C27 UNL     1      -3.192  48.126 -22.800  1.00  0.00     0.020 C 
HETATM   17  C28 UNL     1      -4.432  48.849 -23.396  1.00  0.00    -0.016 C 
HETATM   18  C29 UNL     1      -5.508  47.779 -23.732  1.00  0.00     0.020 C 
HETATM   19  C30 UNL     1      -4.096  49.622 -24.749  1.00  0.00     0.002 C 
HETATM   20  C31 UNL     1      -2.897  49.046 -25.534  1.00  0.00     0.007 C 
HETATM   21  C32 UNL     1      -2.554  49.881 -26.762  1.00  0.00     0.014 C 
HETATM   22  C33 UNL     1      -2.179  51.369 -26.468  1.00  0.00     0.003 C 
HETATM   23  C34 UNL     1      -2.760  52.198 -27.634  1.00  0.00     0.020 C 
ENDROOT
BRANCH   3  24
HETATM   24  O1  UNL     1       0.138  50.817 -27.164  1.00  0.00    -0.377 OA
HETATM   25  H2  UNL     1       0.040  51.202 -28.052  1.00  0.00     0.211 HD
ENDBRANCH   3  24
BRANCH  13  26
HETATM   26  O2  UNL     1      -4.268  49.300 -18.375  1.00  0.00    -0.271 OA
BRANCH  26  27
HETATM   27  C13 UNL     1      -3.369  49.630 -17.321  1.00  0.00     0.303 C 
BRANCH  27  28
HETATM   28  C14 UNL     1      -2.313  50.618 -17.803  1.00  0.00     0.244 C 
HETATM   29  O3  UNL     1      -2.557  51.795 -18.078  1.00  0.00    -0.271 OA
HETATM   30  N2  UNL     1      -1.035  50.110 -17.884  1.00  0.00    -0.343 N 
HETATM   31  H16 UNL     1      -0.892  49.106 -17.930  1.00  0.00     0.163 HD
BRANCH  30  32
HETATM   32  C15 UNL     1       0.062  50.923 -18.439  1.00  0.00     0.217 C 
BRANCH  32  33
HETATM   33  C16 UNL     1      -0.335  51.300 -19.864  1.00  0.00     0.284 C 
HETATM   34  O4  UNL     1      -0.837  50.525 -20.673  1.00  0.00    -0.263 OA
BRANCH  33  35
HETATM   35  O5  UNL     1      -0.002  52.594 -20.136  1.00  0.00    -0.320 OA
BRANCH  35  36
HETATM   36  C17 UNL     1       0.413  52.853 -21.486  1.00  0.00     0.174 C 
HETATM   37  C18 UNL     1       1.435  53.979 -21.511  1.00  0.00     0.034 C 
ENDBRANCH  35  36
ENDBRANCH  33  35
ENDBRANCH  32  33
BRANCH  32  38
HETATM   38  C19 UNL     1       0.343  52.162 -17.563  1.00  0.00     0.183 C 
BRANCH  38  39
HETATM   39  O6  UNL     1       0.528  53.336 -18.371  1.00  0.00    -0.388 OA
HETATM   40  H24 UNL     1       0.788  54.052 -17.770  1.00  0.00     0.210 HD
ENDBRANCH  38  39
BRANCH  38  41
HETATM   41  C20 UNL     1       1.497  51.995 -16.595  1.00  0.00    -0.027 A 
HETATM   42  C21 UNL     1       1.357  51.126 -15.506  1.00  0.00     0.010 A 
HETATM   43  C22 UNL     1       2.411  50.932 -14.609  1.00  0.00     0.001 A 
HETATM   44  C23 UNL     1       3.617  51.601 -14.800  1.00  0.00     0.000 A 
HETATM   45  C24 UNL     1       3.764  52.483 -15.874  1.00  0.00     0.001 A 
HETATM   46  C25 UNL     1       2.713  52.677 -16.770  1.00  0.00     0.010 A 
ENDBRANCH  38  41
ENDBRANCH  32  38
ENDBRANCH  30  32
ENDBRANCH  27  28
ENDBRANCH  26  27
ENDBRANCH  13  26
TORSDOF 11
ENDMDL
MODEL 7
REMARK minimizedAffinity -7.67026138
REMARK CNNscore 0.218112111
REMARK CNNaffinity 5.6711688
REMARK  11 active torsions:
REMARK  status: ('A' for Active; 'I' for Inactive)
REMARK    1  A    between atoms: C3_3  and  O1_4 
REMARK    2  A    between atoms: N1_14  and  O2_16 
REMARK    3  A    between atoms: O2_16  and  C13_17 
REMARK    4  A    between atoms: C13_17  and  C14_18 
REMARK       I    between atoms: C14_18  and  N2_20 
REMARK    5  A    between atoms: N2_20  and  C15_21 
REMARK    6  A    between atoms: C15_21  and  C16_22 
REMARK    7  A    between atoms: C15_21  and  C19_27 
REMARK    8  A    between atoms: C16_22  and  O5_24 
REMARK    9  A    between atoms: O5_24  and  C17_25 
REMARK   10  A    between atoms: C19_27  and  O6_28 
REMARK   11  A    between atoms: C19_27  and  C20_29 
ROOT
HETATM    1  C1  UNL     1      -0.463  50.168 -18.357  1.00  0.00     0.015 C 
HETATM    2  C2  UNL     1      -0.904  49.493 -19.249  1.00  0.00    -0.078 C 
HETATM    3  C3  UNL     1      -1.438  48.642 -20.341  1.00  0.00     0.128 C 
HETATM    4  C4  UNL     1      -2.468  47.670 -19.761  1.00  0.00     0.052 C 
HETATM    5  C5  UNL     1      -3.788  48.440 -19.755  1.00  0.00     0.010 C 
HETATM    6  C6  UNL     1      -3.628  49.624 -20.736  1.00  0.00     0.002 C 
HETATM    7  C7  UNL     1      -4.795  49.802 -21.729  1.00  0.00    -0.004 C 
HETATM    8  C8  UNL     1      -6.087  50.226 -21.011  1.00  0.00     0.010 C 
HETATM    9  C9  UNL     1      -7.327  49.948 -21.843  1.00  0.00     0.035 C 
HETATM   10  C10 UNL     1      -7.400  48.457 -21.999  1.00  0.00    -0.069 C 
HETATM   11  C11 UNL     1      -8.349  47.762 -21.342  1.00  0.00     0.030 C 
HETATM   12  C12 UNL     1      -8.377  46.271 -21.351  1.00  0.00     0.032 C 
HETATM   13  N1  UNL     1      -9.176  45.519 -20.661  1.00  0.00    -0.271 N 
ATOM     14  H1  UNL     1      -9.130  44.500 -20.650  1.00  0.00     0.194 HD
HETATM   15  C26 UNL     1      -7.380  45.565 -22.240  1.00  0.00     0.060 C 
HETATM   16  C27 UNL     1      -6.082  46.356 -22.348  1.00  0.00     0.020 C 
HETATM   17  C28 UNL     1      -6.287  47.821 -22.825  1.00  0.00    -0.016 C 
HETATM   18  C29 UNL     1      -6.777  47.791 -24.300  1.00  0.00     0.020 C 
HETATM   19  C30 UNL     1      -4.937  48.668 -22.793  1.00  0.00     0.002 C 
HETATM   20  C31 UNL     1      -3.650  47.826 -22.927  1.00  0.00     0.007 C 
HETATM   21  C32 UNL     1      -2.389  48.669 -22.786  1.00  0.00     0.014 C 
HETATM   22  C33 UNL     1      -2.246  49.429 -21.428  1.00  0.00     0.003 C 
HETATM   23  C34 UNL     1      -1.593  50.789 -21.762  1.00  0.00     0.020 C 
ENDROOT
BRANCH   3  24
HETATM   24  O1  UNL     1      -0.352  47.918 -20.897  1.00  0.00    -0.377 OA
HETATM   25  H2  UNL     1       0.330  48.571 -21.132  1.00  0.00     0.211 HD
ENDBRANCH   3  24
BRANCH  13  26
HETATM   26  O2  UNL     1     -10.114  46.267 -19.929  1.00  0.00    -0.271 OA
BRANCH  26  27
HETATM   27  C13 UNL     1     -10.856  45.387 -19.091  1.00  0.00     0.303 C 
BRANCH  27  28
HETATM   28  C14 UNL     1     -12.275  45.906 -18.888  1.00  0.00     0.244 C 
HETATM   29  O3  UNL     1     -12.887  45.812 -17.822  1.00  0.00    -0.271 OA
HETATM   30  N2  UNL     1     -12.830  46.527 -19.985  1.00  0.00    -0.343 N 
HETATM   31  H16 UNL     1     -12.448  46.357 -20.910  1.00  0.00     0.163 HD
BRANCH  30  32
HETATM   32  C15 UNL     1     -14.233  46.978 -19.962  1.00  0.00     0.217 C 
BRANCH  32  33
HETATM   33  C16 UNL     1     -14.218  48.475 -19.664  1.00  0.00     0.284 C 
HETATM   34  O4  UNL     1     -13.598  49.308 -20.319  1.00  0.00    -0.263 OA
BRANCH  33  35
HETATM   35  O5  UNL     1     -14.936  48.754 -18.539  1.00  0.00    -0.320 OA
BRANCH  35  36
HETATM   36  C17 UNL     1     -14.975  50.138 -18.159  1.00  0.00     0.174 C 
HETATM   37  C18 UNL     1     -16.254  50.435 -17.393  1.00  0.00     0.034 C 
ENDBRANCH  35  36
ENDBRANCH  33  35
ENDBRANCH  32  33
BRANCH  32  38
HETATM   38  C19 UNL     1     -14.950  46.653 -21.289  1.00  0.00     0.183 C 
BRANCH  38  39
HETATM   39  O6  UNL     1     -14.725  47.684 -22.265  1.00  0.00    -0.388 OA
HETATM   40  H24 UNL     1     -15.272  47.464 -23.036  1.00  0.00     0.210 HD
ENDBRANCH  38  39
BRANCH  38  41
HETATM   41  C20 UNL     1     -16.432  46.369 -21.146  1.00  0.00    -0.027 A 
HETATM   42  C21 UNL     1     -17.222  46.258 -22.298  1.00  0.00     0.010 A 
HETATM   43  C22 UNL     1     -18.586  45.974 -22.201  1.00  0.00     0.001 A 
HETATM   44  C23 UNL     1     -19.169  45.790 -20.950  1.00  0.00     0.000 A 
HETATM   45  C24 UNL     1     -18.395  45.913 -19.793  1.00  0.00     0.001 A 
HETATM   46  C25 UNL     1     -17.033  46.196 -19.888  1.00  0.00     0.010 A 
ENDBRANCH  38  41
ENDBRANCH  32  38
ENDBRANCH  30  32
ENDBRANCH  27  28
ENDBRANCH  26  27
ENDBRANCH  13  26
TORSDOF 11
ENDMDL
MODEL 8
REMARK minimizedAffinity -9.20255089
REMARK CNNscore 0.214290619
REMARK CNNaffinity 6.08231306
REMARK  11 active torsions:
REMARK  status: ('A' for Active; 'I' for Inactive)
REMARK    1  A    between atoms: C3_3  and  O1_4 
REMARK    2  A    between atoms: N1_14  and  O2_16 
REMARK    3  A    between atoms: O2_16  and  C13_17 
REMARK    4  A    between atoms: C13_17  and  C14_18 
REMARK       I    between atoms: C14_18  and  N2_20 
REMARK    5  A    between atoms: N2_20  and  C15_21 
REMARK    6  A    between atoms: C15_21  and  C16_22 
REMARK    7  A    between atoms: C15_21  and  C19_27 
REMARK    8  A    between atoms: C16_22  and  O5_24 
REMARK    9  A    between atoms: O5_24  and  C17_25 
REMARK   10  A    between atoms: C19_27  and  O6_28 
REMARK   11  A    between atoms: C19_27  and  C20_29 
ROOT
HETATM    1  C1  UNL     1       1.314  51.457 -26.109  1.00  0.00     0.015 C 
HETATM    2  C2  UNL     1       0.293  51.787 -25.566  1.00  0.00    -0.078 C 
HETATM    3  C3  UNL     1      -0.973  52.205 -24.915  1.00  0.00     0.128 C 
HETATM    4  C4  UNL     1      -2.150  51.544 -25.636  1.00  0.00     0.052 C 
HETATM    5  C5  UNL     1      -2.301  50.171 -24.983  1.00  0.00     0.010 C 
HETATM    6  C6  UNL     1      -1.566  50.230 -23.625  1.00  0.00     0.002 C 
HETATM    7  C7  UNL     1      -2.367  49.669 -22.432  1.00  0.00    -0.004 C 
HETATM    8  C8  UNL     1      -2.573  48.151 -22.554  1.00  0.00     0.010 C 
HETATM    9  C9  UNL     1      -3.724  47.654 -21.697  1.00  0.00     0.035 C 
HETATM   10  C10 UNL     1      -4.964  48.293 -22.250  1.00  0.00    -0.069 C 
HETATM   11  C11 UNL     1      -5.858  47.546 -22.924  1.00  0.00     0.030 C 
HETATM   12  C12 UNL     1      -7.032  48.157 -23.612  1.00  0.00     0.032 C 
HETATM   13  N1  UNL     1      -7.876  47.537 -24.375  1.00  0.00    -0.271 N 
ATOM     14  H1  UNL     1      -8.637  47.999 -24.874  1.00  0.00     0.194 HD
HETATM   15  C26 UNL     1      -7.260  49.637 -23.410  1.00  0.00     0.060 C 
HETATM   16  C27 UNL     1      -5.940  50.379 -23.237  1.00  0.00     0.020 C 
HETATM   17  C28 UNL     1      -5.054  49.808 -22.094  1.00  0.00    -0.016 C 
HETATM   18  C29 UNL     1      -5.766  50.084 -20.740  1.00  0.00     0.020 C 
HETATM   19  C30 UNL     1      -3.623  50.505 -22.026  1.00  0.00     0.002 C 
HETATM   20  C31 UNL     1      -3.581  51.940 -22.597  1.00  0.00     0.007 C 
HETATM   21  C32 UNL     1      -2.172  52.520 -22.603  1.00  0.00     0.014 C 
HETATM   22  C33 UNL     1      -1.125  51.712 -23.436  1.00  0.00     0.003 C 
HETATM   23  C34 UNL     1       0.207  51.803 -22.658  1.00  0.00     0.020 C 
ENDROOT
BRANCH   3  24
HETATM   24  O1  UNL     1      -1.071  53.616 -25.026  1.00  0.00    -0.377 OA
HETATM   25  H2  UNL     1      -0.244  53.984 -24.671  1.00  0.00     0.211 HD
ENDBRANCH   3  24
BRANCH  13  26
HETATM   26  O2  UNL     1      -7.626  46.156 -24.437  1.00  0.00    -0.271 OA
BRANCH  26  27
HETATM   27  C13 UNL     1      -8.558  45.555 -25.330  1.00  0.00     0.303 C 
BRANCH  27  28
HETATM   28  C14 UNL     1      -8.748  46.418 -26.571  1.00  0.00     0.244 C 
HETATM   29  O3  UNL     1      -7.815  46.914 -27.205  1.00  0.00    -0.271 OA
HETATM   30  N2  UNL     1     -10.057  46.587 -26.967  1.00  0.00    -0.343 N 
HETATM   31  H16 UNL     1     -10.810  46.421 -26.306  1.00  0.00     0.163 HD
BRANCH  30  32
HETATM   32  C15 UNL     1     -10.394  47.486 -28.085  1.00  0.00     0.217 C 
BRANCH  32  33
HETATM   33  C16 UNL     1     -10.324  46.655 -29.364  1.00  0.00     0.284 C 
HETATM   34  O4  UNL     1     -10.536  45.447 -29.421  1.00  0.00    -0.263 OA
BRANCH  33  35
HETATM   35  O5  UNL     1      -9.937  47.423 -30.422  1.00  0.00    -0.320 OA
BRANCH  35  36
HETATM   36  C17 UNL     1      -8.677  48.095 -30.269  1.00  0.00     0.174 C 
HETATM   37  C18 UNL     1      -8.774  49.516 -30.799  1.00  0.00     0.034 C 
ENDBRANCH  35  36
ENDBRANCH  33  35
ENDBRANCH  32  33
BRANCH  32  38
HETATM   38  C19 UNL     1     -11.778  48.139 -27.886  1.00  0.00     0.183 C 
BRANCH  38  39
HETATM   39  O6  UNL     1     -11.749  49.093 -26.812  1.00  0.00    -0.388 OA
HETATM   40  H24 UNL     1     -12.663  49.396 -26.682  1.00  0.00     0.210 HD
ENDBRANCH  38  39
BRANCH  38  41
HETATM   41  C20 UNL     1     -12.912  47.154 -27.694  1.00  0.00    -0.027 A 
HETATM   42  C21 UNL     1     -13.399  46.912 -26.402  1.00  0.00     0.010 A 
HETATM   43  C22 UNL     1     -14.459  46.027 -26.194  1.00  0.00     0.001 A 
HETATM   44  C23 UNL     1     -15.048  45.383 -27.278  1.00  0.00     0.000 A 
HETATM   45  C24 UNL     1     -14.562  45.604 -28.570  1.00  0.00     0.001 A 
HETATM   46  C25 UNL     1     -13.504  46.486 -28.780  1.00  0.00     0.010 A 
ENDBRANCH  38  41
ENDBRANCH  32  38
ENDBRANCH  30  32
ENDBRANCH  27  28
ENDBRANCH  26  27
ENDBRANCH  13  26
TORSDOF 11
ENDMDL
MODEL 9
REMARK minimizedAffinity -8.48828316
REMARK CNNscore 0.212443486
REMARK CNNaffinity 6.26754999
REMARK  11 active torsions:
REMARK  status: ('A' for Active; 'I' for Inactive)
REMARK    1  A    between atoms: C3_3  and  O1_4 
REMARK    2  A    between atoms: N1_14  and  O2_16 
REMARK    3  A    between atoms: O2_16  and  C13_17 
REMARK    4  A    between atoms: C13_17  and  C14_18 
REMARK       I    between atoms: C14_18  and  N2_20 
REMARK    5  A    between atoms: N2_20  and  C15_21 
REMARK    6  A    between atoms: C15_21  and  C16_22 
REMARK    7  A    between atoms: C15_21  and  C19_27 
REMARK    8  A    between atoms: C16_22  and  O5_24 
REMARK    9  A    between atoms: O5_24  and  C17_25 
REMARK   10  A    between atoms: C19_27  and  O6_28 
REMARK   11  A    between atoms: C19_27  and  C20_29 
ROOT
HETATM    1  C1  UNL     1      -0.076  54.539 -27.382  1.00  0.00     0.015 C 
HETATM    2  C2  UNL     1      -0.204  53.433 -26.929  1.00  0.00    -0.078 C 
HETATM    3  C3  UNL     1      -0.337  52.065 -26.369  1.00  0.00     0.128 C 
HETATM    4  C4  UNL     1       0.192  52.056 -24.934  1.00  0.00     0.052 C 
HETATM    5  C5  UNL     1      -0.989  52.494 -24.068  1.00  0.00     0.010 C 
HETATM    6  C6  UNL     1      -2.269  52.292 -24.909  1.00  0.00     0.002 C 
HETATM    7  C7  UNL     1      -3.416  51.567 -24.175  1.00  0.00    -0.004 C 
HETATM    8  C8  UNL     1      -3.984  52.422 -23.031  1.00  0.00     0.010 C 
HETATM    9  C9  UNL     1      -4.747  51.592 -22.013  1.00  0.00     0.035 C 
HETATM   10  C10 UNL     1      -3.741  50.668 -21.390  1.00  0.00    -0.069 C 
HETATM   11  C11 UNL     1      -3.344  50.870 -20.119  1.00  0.00     0.030 C 
HETATM   12  C12 UNL     1      -2.248  50.068 -19.503  1.00  0.00     0.032 C 
HETATM   13  N1  UNL     1      -1.724  50.266 -18.333  1.00  0.00    -0.271 N 
ATOM     14  H1  UNL     1      -0.937  49.731 -17.966  1.00  0.00     0.194 HD
HETATM   15  C26 UNL     1      -1.688  48.923 -20.313  1.00  0.00     0.060 C 
HETATM   16  C27 UNL     1      -1.732  49.230 -21.805  1.00  0.00     0.020 C 
HETATM   17  C28 UNL     1      -3.150  49.611 -22.317  1.00  0.00    -0.016 C 
HETATM   18  C29 UNL     1      -4.060  48.355 -22.212  1.00  0.00     0.020 C 
HETATM   19  C30 UNL     1      -3.145  50.065 -23.844  1.00  0.00     0.002 C 
HETATM   20  C31 UNL     1      -1.987  49.481 -24.683  1.00  0.00     0.007 C 
HETATM   21  C32 UNL     1      -1.969  50.027 -26.105  1.00  0.00     0.014 C 
HETATM   22  C33 UNL     1      -1.819  51.578 -26.218  1.00  0.00     0.003 C 
HETATM   23  C34 UNL     1      -2.693  52.008 -27.417  1.00  0.00     0.020 C 
ENDROOT
BRANCH   3  24
HETATM   24  O1  UNL     1       0.437  51.190 -27.174  1.00  0.00    -0.377 OA
HETATM   25  H2  UNL     1       0.151  51.327 -28.094  1.00  0.00     0.211 HD
ENDBRANCH   3  24
BRANCH  13  26
HETATM   26  O2  UNL     1      -2.364  51.300 -17.630  1.00  0.00    -0.271 OA
BRANCH  26  27
HETATM   27  C13 UNL     1      -3.121  50.735 -16.564  1.00  0.00     0.303 C 
BRANCH  27  28
HETATM   28  C14 UNL     1      -2.248  50.529 -15.332  1.00  0.00     0.244 C 
HETATM   29  O3  UNL     1      -1.035  50.748 -15.313  1.00  0.00    -0.271 OA
HETATM   30  N2  UNL     1      -2.921  50.102 -14.208  1.00  0.00    -0.343 N 
HETATM   31  H16 UNL     1      -3.833  49.666 -14.299  1.00  0.00     0.163 HD
BRANCH  30  32
HETATM   32  C15 UNL     1      -2.184  49.758 -12.978  1.00  0.00     0.217 C 
BRANCH  32  33
HETATM   33  C16 UNL     1      -1.353  48.515 -13.286  1.00  0.00     0.284 C 
HETATM   34  O4  UNL     1      -0.126  48.478 -13.276  1.00  0.00    -0.263 OA
BRANCH  33  35
HETATM   35  O5  UNL     1      -2.155  47.468 -13.633  1.00  0.00    -0.320 OA
BRANCH  35  36
HETATM   36  C17 UNL     1      -1.720  46.179 -13.174  1.00  0.00     0.174 C 
HETATM   37  C18 UNL     1      -1.467  45.260 -14.359  1.00  0.00     0.034 C 
ENDBRANCH  35  36
ENDBRANCH  33  35
ENDBRANCH  32  33
BRANCH  32  38
HETATM   38  C19 UNL     1      -1.315  50.937 -12.494  1.00  0.00     0.183 C 
BRANCH  38  39
HETATM   39  O6  UNL     1      -0.226  50.476 -11.677  1.00  0.00    -0.388 OA
HETATM   40  H24 UNL     1       0.222  51.267 -11.335  1.00  0.00     0.210 HD
ENDBRANCH  38  39
BRANCH  38  41
HETATM   41  C20 UNL     1      -2.085  52.033 -11.786  1.00  0.00    -0.027 A 
HETATM   42  C21 UNL     1      -3.486  51.989 -11.775  1.00  0.00     0.010 A 
HETATM   43  C22 UNL     1      -4.224  52.971 -11.111  1.00  0.00     0.001 A 
HETATM   44  C23 UNL     1      -3.567  54.001 -10.444  1.00  0.00     0.000 A 
HETATM   45  C24 UNL     1      -2.171  54.065 -10.460  1.00  0.00     0.001 A 
HETATM   46  C25 UNL     1      -1.432  53.086 -11.122  1.00  0.00     0.010 A 
ENDBRANCH  38  41
ENDBRANCH  32  38
ENDBRANCH  30  32
ENDBRANCH  27  28
ENDBRANCH  26  27
ENDBRANCH  13  26
TORSDOF 11
ENDMDL
