MODEL 1
REMARK minimizedAffinity -7.67991877
REMARK  8 active torsions:
REMARK  status: ('A' for Active; 'I' for Inactive)
REMARK    1  A    between atoms: O1_2  and  C2_3 
REMARK    2  A    between atoms: C3_6  and  N2_7 
REMARK    3  A    between atoms: N5_15  and  C7_16 
REMARK    4  A    between atoms: C9_18  and  N6_19 
REMARK    5  A    between atoms: N6_19  and  N7_21 
REMARK    6  A    between atoms: N7_21  and  N8_22 
REMARK    7  A    between atoms: C10_25  and  C11_26 
REMARK    8  A    between atoms: C11_26  and  O2_27 
ROOT
HETATM    1  C2  UNL     1      -7.645   5.672  13.709  1.00  0.00     0.175 A 
HETATM    2  N1  UNL     1      -8.368   4.557  13.426  1.00  0.00    -0.311 N 
ATOM      3  H1  UNL     1      -9.376   4.536  13.582  1.00  0.00     0.170 HD
HETATM    4  C3  UNL     1      -7.729   3.483  12.940  1.00  0.00     0.158 A 
HETATM    5  N3  UNL     1      -6.421   3.378  12.666  1.00  0.00    -0.317 N 
ATOM      6  H3  UNL     1      -5.987   2.538  12.281  1.00  0.00     0.170 HD
HETATM    7  C4  UNL     1      -5.746   4.502  12.955  1.00  0.00     0.144 A 
HETATM    8  C5  UNL     1      -6.269   5.677  13.471  1.00  0.00     0.129 A 
HETATM    9  N4  UNL     1      -5.278   6.618  13.646  1.00  0.00    -0.346 N 
ATOM     10  H4  UNL     1      -5.377   7.565  14.012  1.00  0.00     0.167 HD
HETATM   11  C6  UNL     1      -4.175   6.028  13.238  1.00  0.00     0.188 A 
HETATM   12  N5  UNL     1      -4.404   4.743  12.819  1.00  0.00    -0.300 N 
ENDROOT
BRANCH  12  13
HETATM   13  C7  UNL     1      -3.385   3.833  12.348  1.00  0.00     0.233 C 
HETATM   14  C8  UNL     1      -3.305   3.673  10.838  1.00  0.00     0.084 C 
HETATM   15  C9  UNL     1      -1.868   3.239  10.648  1.00  0.00     0.149 C 
HETATM   16  C10 UNL     1      -1.138   4.010  11.757  1.00  0.00     0.172 C 
HETATM   17  O3  UNL     1      -2.095   4.280  12.801  1.00  0.00    -0.357 OA
BRANCH  15  18
HETATM   18  N6  UNL     1      -1.797   1.785  10.897  1.00  0.00    -0.245 N 
ATOM     19  H6  UNL     1      -2.259   1.347  11.694  1.00  0.00     0.197 HD
BRANCH  18  20
HETATM   20  N7  UNL     1      -1.136   1.128  10.068  1.00  0.00    -0.248 NA
BRANCH  20  21
HETATM   21  N8  UNL     1      -0.531   0.527   9.315  1.00  0.00    -0.261 N 
ATOM     22  H82 UNL     1      -0.978   0.989  10.107  1.00  0.00     0.193 HD
ATOM     23  H81 UNL     1       0.010  -0.010   8.636  1.00  0.00     0.193 HD
ENDBRANCH  20  21
ENDBRANCH  18  20
ENDBRANCH  15  18
BRANCH  16  24
HETATM   24  C11 UNL     1      -0.552   5.335  11.262  1.00  0.00     0.198 C 
BRANCH  24  25
HETATM   25  O2  UNL     1       0.704   5.111  10.632  1.00  0.00    -0.398 OA
HETATM   26  H14 UNL     1       1.069   5.986  10.408  1.00  0.00     0.209 HD
ENDBRANCH  24  25
ENDBRANCH  16  24
ENDBRANCH  12  13
BRANCH   4  27
HETATM   27  N2  UNL     1      -8.515   2.384  12.650  1.00  0.00    -0.274 NA
HETATM   28  H4  UNL     1      -8.094   1.845  11.908  1.00  0.00     0.127 HD
HETATM   29  H5  UNL     1      -9.471   2.683  12.518  1.00  0.00     0.127 HD
ENDBRANCH   4  27
BRANCH   1  30
HETATM   30  O1  UNL     1      -8.267   6.795  14.221  1.00  0.00    -0.339 OA
HETATM   31  C1  UNL     1      -9.668   6.819  13.976  1.00  0.00     0.211 C 
ENDBRANCH   1  30
TORSDOF 8
ENDMDL
MODEL 2
REMARK minimizedAffinity -7.56966734
REMARK  8 active torsions:
REMARK  status: ('A' for Active; 'I' for Inactive)
REMARK    1  A    between atoms: O1_2  and  C2_3 
REMARK    2  A    between atoms: C3_6  and  N2_7 
REMARK    3  A    between atoms: N5_15  and  C7_16 
REMARK    4  A    between atoms: C9_18  and  N6_19 
REMARK    5  A    between atoms: N6_19  and  N7_21 
REMARK    6  A    between atoms: N7_21  and  N8_22 
REMARK    7  A    between atoms: C10_25  and  C11_26 
REMARK    8  A    between atoms: C11_26  and  O2_27 
ROOT
HETATM    1  C2  UNL     1      -3.155   2.587  11.777  1.00  0.00     0.175 A 
HETATM    2  N1  UNL     1      -4.002   1.647  11.282  1.00  0.00    -0.311 N 
ATOM      3  H1  UNL     1      -3.642   0.793  10.855  1.00  0.00     0.170 HD
HETATM    4  C3  UNL     1      -5.323   1.865  11.366  1.00  0.00     0.158 A 
HETATM    5  N3  UNL     1      -5.933   2.923  11.918  1.00  0.00    -0.317 N 
ATOM      6  H3  UNL     1      -6.947   3.033  11.969  1.00  0.00     0.170 HD
HETATM    7  C4  UNL     1      -5.059   3.824  12.398  1.00  0.00     0.144 A 
HETATM    8  C5  UNL     1      -3.677   3.738  12.370  1.00  0.00     0.129 A 
HETATM    9  N4  UNL     1      -3.106   4.851  12.949  1.00  0.00    -0.346 N 
ATOM     10  H4  UNL     1      -2.113   5.053  13.060  1.00  0.00     0.167 HD
HETATM   11  C6  UNL     1      -4.123   5.595  13.327  1.00  0.00     0.188 A 
HETATM   12  N5  UNL     1      -5.327   5.021  13.007  1.00  0.00    -0.300 N 
ENDROOT
BRANCH  12  13
HETATM   13  C7  UNL     1      -6.619   5.615  13.264  1.00  0.00     0.233 C 
HETATM   14  C8  UNL     1      -7.425   4.961  14.375  1.00  0.00     0.084 C 
HETATM   15  C9  UNL     1      -8.325   6.096  14.814  1.00  0.00     0.149 C 
HETATM   16  C10 UNL     1      -7.426   7.326  14.624  1.00  0.00     0.172 C 
HETATM   17  O3  UNL     1      -6.451   7.000  13.613  1.00  0.00    -0.357 OA
BRANCH  15  18
HETATM   18  N6  UNL     1      -9.474   6.147  13.887  1.00  0.00    -0.245 N 
ATOM     19  H6  UNL     1      -9.374   5.975  12.887  1.00  0.00     0.197 HD
BRANCH  18  20
HETATM   20  N7  UNL     1     -10.574   6.414  14.408  1.00  0.00    -0.248 NA
BRANCH  20  21
HETATM   21  N8  UNL     1     -11.581   6.659  14.881  1.00  0.00    -0.261 N 
ATOM     22  H82 UNL     1     -10.759   6.463  14.310  1.00  0.00     0.193 HD
ATOM     23  H81 UNL     1     -12.482   6.878  15.308  1.00  0.00     0.193 HD
ENDBRANCH  20  21
ENDBRANCH  18  20
ENDBRANCH  15  18
BRANCH  16  24
HETATM   24  C11 UNL     1      -6.698   7.725  15.911  1.00  0.00     0.198 C 
BRANCH  24  25
HETATM   25  O2  UNL     1      -7.272   7.055  17.027  1.00  0.00    -0.398 OA
HETATM   26  H14 UNL     1      -6.830   7.400  17.823  1.00  0.00     0.209 HD
ENDBRANCH  24  25
ENDBRANCH  16  24
ENDBRANCH  12  13
BRANCH   4  27
HETATM   27  N2  UNL     1      -6.139   0.868  10.866  1.00  0.00    -0.274 NA
HETATM   28  H4  UNL     1      -7.023   0.871  11.353  1.00  0.00     0.127 HD
HETATM   29  H5  UNL     1      -5.627  -0.003  10.845  1.00  0.00     0.127 HD
ENDBRANCH   4  27
BRANCH   1  30
HETATM   30  O1  UNL     1      -1.787   2.402  11.699  1.00  0.00    -0.339 OA
HETATM   31  C1  UNL     1      -1.413   1.372  10.793  1.00  0.00     0.211 C 
ENDBRANCH   1  30
TORSDOF 8
ENDMDL
MODEL 3
REMARK minimizedAffinity -7.52249289
REMARK  8 active torsions:
REMARK  status: ('A' for Active; 'I' for Inactive)
REMARK    1  A    between atoms: O1_2  and  C2_3 
REMARK    2  A    between atoms: C3_6  and  N2_7 
REMARK    3  A    between atoms: N5_15  and  C7_16 
REMARK    4  A    between atoms: C9_18  and  N6_19 
REMARK    5  A    between atoms: N6_19  and  N7_21 
REMARK    6  A    between atoms: N7_21  and  N8_22 
REMARK    7  A    between atoms: C10_25  and  C11_26 
REMARK    8  A    between atoms: C11_26  and  O2_27 
ROOT
HETATM    1  C2  UNL     1      -2.582   2.051  11.424  1.00  0.00     0.175 A 
HETATM    2  N1  UNL     1      -1.766   3.083  11.765  1.00  0.00    -0.311 N 
ATOM      3  H1  UNL     1      -0.755   3.005  11.658  1.00  0.00     0.170 HD
HETATM    4  C3  UNL     1      -2.318   4.207  12.246  1.00  0.00     0.158 A 
HETATM    5  N3  UNL     1      -3.624   4.456  12.418  1.00  0.00    -0.317 N 
ATOM      6  H3  UNL     1      -3.992   5.338  12.775  1.00  0.00     0.170 HD
HETATM    7  C4  UNL     1      -4.393   3.413  12.065  1.00  0.00     0.144 A 
HETATM    8  C5  UNL     1      -3.964   2.193  11.568  1.00  0.00     0.129 A 
HETATM    9  N4  UNL     1      -5.035   1.361  11.322  1.00  0.00    -0.346 N 
ATOM     10  H4  UNL     1      -5.011   0.408  10.960  1.00  0.00     0.167 HD
HETATM   11  C6  UNL     1      -6.094   2.064  11.659  1.00  0.00     0.188 A 
HETATM   12  N5  UNL     1      -5.758   3.310  12.123  1.00  0.00    -0.300 N 
ENDROOT
BRANCH  12  13
HETATM   13  C7  UNL     1      -6.701   4.296  12.599  1.00  0.00     0.233 C 
HETATM   14  C8  UNL     1      -7.485   3.900  13.839  1.00  0.00     0.084 C 
HETATM   15  C9  UNL     1      -7.848   5.250  14.421  1.00  0.00     0.149 C 
HETATM   16  C10 UNL     1      -6.623   6.104  14.067  1.00  0.00     0.172 C 
HETATM   17  O3  UNL     1      -6.006   5.519  12.902  1.00  0.00    -0.357 OA
BRANCH  15  18
HETATM   18  N6  UNL     1      -9.045   5.743  13.710  1.00  0.00    -0.245 N 
ATOM     19  H6  UNL     1      -9.158   5.643  12.701  1.00  0.00     0.197 HD
BRANCH  18  20
HETATM   20  N7  UNL     1      -9.908   6.290  14.424  1.00  0.00    -0.248 NA
BRANCH  20  21
HETATM   21  N8  UNL     1     -10.699   6.789  15.074  1.00  0.00    -0.261 N 
ATOM     22  H82 UNL     1     -10.107   6.348  14.370  1.00  0.00     0.193 HD
ATOM     23  H81 UNL     1     -11.405   7.237  15.659  1.00  0.00     0.193 HD
ENDBRANCH  20  21
ENDBRANCH  18  20
ENDBRANCH  15  18
BRANCH  16  24
HETATM   24  C11 UNL     1      -5.597   6.158  15.203  1.00  0.00     0.198 C 
BRANCH  24  25
HETATM   25  O2  UNL     1      -6.055   7.020  16.238  1.00  0.00    -0.398 OA
HETATM   26  H14 UNL     1      -5.338   7.081  16.893  1.00  0.00     0.209 HD
ENDBRANCH  24  25
ENDBRANCH  16  24
ENDBRANCH  12  13
BRANCH   4  27
HETATM   27  N2  UNL     1      -1.444   5.231  12.557  1.00  0.00    -0.274 NA
HETATM   28  H4  UNL     1      -1.908   6.122  12.457  1.00  0.00     0.127 HD
HETATM   29  H5  UNL     1      -0.582   5.101  12.046  1.00  0.00     0.127 HD
ENDBRANCH   4  27
BRANCH   1  30
HETATM   30  O1  UNL     1      -2.049   0.874  10.934  1.00  0.00    -0.339 OA
HETATM   31  C1  UNL     1      -0.648   0.948  10.704  1.00  0.00     0.211 C 
ENDBRANCH   1  30
TORSDOF 8
ENDMDL
MODEL 4
REMARK minimizedAffinity -7.41482878
REMARK  8 active torsions:
REMARK  status: ('A' for Active; 'I' for Inactive)
REMARK    1  A    between atoms: O1_2  and  C2_3 
REMARK    2  A    between atoms: C3_6  and  N2_7 
REMARK    3  A    between atoms: N5_15  and  C7_16 
REMARK    4  A    between atoms: C9_18  and  N6_19 
REMARK    5  A    between atoms: N6_19  and  N7_21 
REMARK    6  A    between atoms: N7_21  and  N8_22 
REMARK    7  A    between atoms: C10_25  and  C11_26 
REMARK    8  A    between atoms: C11_26  and  O2_27 
ROOT
HETATM    1  C2  UNL     1      -6.130  -8.934  11.062  1.00  0.00     0.175 A 
HETATM    2  N1  UNL     1      -4.965  -8.830  11.753  1.00  0.00    -0.311 N 
ATOM      3  H1  UNL     1      -4.940  -8.381  12.669  1.00  0.00     0.170 HD
HETATM    4  C3  UNL     1      -3.847  -9.330  11.206  1.00  0.00     0.158 A 
HETATM    5  N3  UNL     1      -3.736  -9.963  10.030  1.00  0.00    -0.317 N 
ATOM      6  H3  UNL     1      -2.859 -10.339   9.667  1.00  0.00     0.170 HD
HETATM    7  C4  UNL     1      -4.910 -10.048   9.383  1.00  0.00     0.144 A 
HETATM    8  C5  UNL     1      -6.136  -9.568   9.818  1.00  0.00     0.129 A 
HETATM    9  N4  UNL     1      -7.120  -9.829   8.889  1.00  0.00    -0.346 N 
ATOM     10  H4  UNL     1      -8.109  -9.586   8.946  1.00  0.00     0.167 HD
HETATM   11  C6  UNL     1      -6.505 -10.460   7.912  1.00  0.00     0.188 A 
HETATM   12  N5  UNL     1      -5.164 -10.608   8.159  1.00  0.00    -0.300 N 
ENDROOT
BRANCH  12  13
HETATM   13  C7  UNL     1      -4.222 -11.230   7.258  1.00  0.00     0.233 C 
HETATM   14  C8  UNL     1      -4.760 -11.547   5.872  1.00  0.00     0.084 C 
HETATM   15  C9  UNL     1      -3.495 -11.560   5.042  1.00  0.00     0.149 C 
HETATM   16  C10 UNL     1      -2.643 -10.476   5.718  1.00  0.00     0.172 C 
HETATM   17  O3  UNL     1      -3.080 -10.370   7.088  1.00  0.00    -0.357 OA
BRANCH  15  18
HETATM   18  N6  UNL     1      -2.864 -12.886   5.199  1.00  0.00    -0.245 N 
ATOM     19  H6  UNL     1      -3.218 -13.716   4.724  1.00  0.00     0.197 HD
BRANCH  18  20
HETATM   20  N7  UNL     1      -1.871 -12.923   5.952  1.00  0.00    -0.248 NA
BRANCH  20  21
HETATM   21  N8  UNL     1      -0.961 -12.959   6.636  1.00  0.00    -0.261 N 
ATOM     22  H82 UNL     1      -1.667 -12.968   5.900  1.00  0.00     0.193 HD
ATOM     23  H81 UNL     1      -0.148 -12.989   7.252  1.00  0.00     0.193 HD
ENDBRANCH  20  21
ENDBRANCH  18  20
ENDBRANCH  15  18
BRANCH  16  24
HETATM   24  C11 UNL     1      -2.788  -9.109   5.041  1.00  0.00     0.198 C 
BRANCH  24  25
HETATM   25  O2  UNL     1      -2.492  -8.070   5.967  1.00  0.00    -0.398 OA
HETATM   26  H14 UNL     1      -2.674  -7.227   5.514  1.00  0.00     0.209 HD
ENDBRANCH  24  25
ENDBRANCH  16  24
ENDBRANCH  12  13
BRANCH   4  27
HETATM   27  N2  UNL     1      -2.695  -9.216  11.961  1.00  0.00    -0.274 NA
HETATM   28  H4  UNL     1      -2.059  -9.968  11.735  1.00  0.00     0.127 HD
HETATM   29  H5  UNL     1      -2.943  -9.099  12.934  1.00  0.00     0.127 HD
ENDBRANCH   4  27
BRANCH   1  30
HETATM   30  O1  UNL     1      -7.300  -8.422  11.588  1.00  0.00    -0.339 OA
HETATM   31  C1  UNL     1      -8.371  -9.359  11.588  1.00  0.00     0.211 C 
ENDBRANCH   1  30
TORSDOF 8
ENDMDL
MODEL 5
REMARK minimizedAffinity -7.35933876
REMARK  8 active torsions:
REMARK  status: ('A' for Active; 'I' for Inactive)
REMARK    1  A    between atoms: O1_2  and  C2_3 
REMARK    2  A    between atoms: C3_6  and  N2_7 
REMARK    3  A    between atoms: N5_15  and  C7_16 
REMARK    4  A    between atoms: C9_18  and  N6_19 
REMARK    5  A    between atoms: N6_19  and  N7_21 
REMARK    6  A    between atoms: N7_21  and  N8_22 
REMARK    7  A    between atoms: C10_25  and  C11_26 
REMARK    8  A    between atoms: C11_26  and  O2_27 
ROOT
HETATM    1  C2  UNL     1      -7.526  -8.766  11.607  1.00  0.00     0.175 A 
HETATM    2  N1  UNL     1      -8.491  -8.493  10.691  1.00  0.00    -0.311 N 
ATOM      3  H1  UNL     1      -9.430  -8.224  10.988  1.00  0.00     0.170 HD
HETATM    4  C3  UNL     1      -8.186  -8.584   9.389  1.00  0.00     0.158 A 
HETATM    5  N3  UNL     1      -6.996  -8.902   8.859  1.00  0.00    -0.317 N 
ATOM      6  H3  UNL     1      -6.813  -8.942   7.856  1.00  0.00     0.170 HD
HETATM    7  C4  UNL     1      -6.071  -9.159   9.798  1.00  0.00     0.144 A 
HETATM    8  C5  UNL     1      -6.247  -9.117  11.172  1.00  0.00     0.129 A 
HETATM    9  N4  UNL     1      -5.078  -9.448  11.824  1.00  0.00    -0.346 N 
ATOM     10  H4  UNL     1      -4.922  -9.500  12.831  1.00  0.00     0.167 HD
HETATM   11  C6  UNL     1      -4.209  -9.680  10.865  1.00  0.00     0.188 A 
HETATM   12  N5  UNL     1      -4.764  -9.529   9.620  1.00  0.00    -0.300 N 
ENDROOT
BRANCH  12  13
HETATM   13  C7  UNL     1      -4.068  -9.749   8.373  1.00  0.00     0.233 C 
HETATM   14  C8  UNL     1      -4.120 -11.172   7.843  1.00  0.00     0.084 C 
HETATM   15  C9  UNL     1      -3.910 -10.959   6.359  1.00  0.00     0.149 C 
HETATM   16  C10 UNL     1      -4.619  -9.620   6.112  1.00  0.00     0.172 C 
HETATM   17  O3  UNL     1      -4.619  -8.892   7.357  1.00  0.00    -0.357 OA
BRANCH  15  18
HETATM   18  N6  UNL     1      -2.459 -10.827   6.122  1.00  0.00    -0.245 N 
ATOM     19  H6  UNL     1      -2.049  -9.990   5.708  1.00  0.00     0.197 HD
BRANCH  18  20
HETATM   20  N7  UNL     1      -1.767 -11.808   6.459  1.00  0.00    -0.248 NA
BRANCH  20  21
HETATM   21  N8  UNL     1      -1.135 -12.705   6.765  1.00  0.00    -0.261 N 
ATOM     22  H82 UNL     1      -1.735 -11.991   6.351  1.00  0.00     0.193 HD
ATOM     23  H81 UNL     1      -0.569 -13.507   7.041  1.00  0.00     0.193 HD
ENDBRANCH  20  21
ENDBRANCH  18  20
ENDBRANCH  15  18
BRANCH  16  24
HETATM   24  C11 UNL     1      -6.064  -9.800   5.639  1.00  0.00     0.198 C 
BRANCH  24  25
HETATM   25  O2  UNL     1      -6.857  -8.693   6.051  1.00  0.00    -0.398 OA
HETATM   26  H14 UNL     1      -7.776  -8.893   5.796  1.00  0.00     0.209 HD
ENDBRANCH  24  25
ENDBRANCH  16  24
ENDBRANCH  12  13
BRANCH   4  27
HETATM   27  N2  UNL     1      -9.199  -8.275   8.501  1.00  0.00    -0.274 NA
HETATM   28  H4  UNL     1      -8.806  -7.923   7.640  1.00  0.00     0.127 HD
HETATM   29  H5  UNL     1      -9.885  -7.696   8.965  1.00  0.00     0.127 HD
ENDBRANCH   4  27
BRANCH   1  30
HETATM   30  O1  UNL     1      -7.806  -8.692  12.959  1.00  0.00    -0.339 OA
HETATM   31  C1  UNL     1      -8.296  -9.915  13.496  1.00  0.00     0.211 C 
ENDBRANCH   1  30
TORSDOF 8
ENDMDL
MODEL 6
REMARK minimizedAffinity -7.35875654
REMARK  8 active torsions:
REMARK  status: ('A' for Active; 'I' for Inactive)
REMARK    1  A    between atoms: O1_2  and  C2_3 
REMARK    2  A    between atoms: C3_6  and  N2_7 
REMARK    3  A    between atoms: N5_15  and  C7_16 
REMARK    4  A    between atoms: C9_18  and  N6_19 
REMARK    5  A    between atoms: N6_19  and  N7_21 
REMARK    6  A    between atoms: N7_21  and  N8_22 
REMARK    7  A    between atoms: C10_25  and  C11_26 
REMARK    8  A    between atoms: C11_26  and  O2_27 
ROOT
HETATM    1  C2  UNL     1      -5.856  -9.396  11.306  1.00  0.00     0.175 A 
HETATM    2  N1  UNL     1      -4.593  -9.213  11.771  1.00  0.00    -0.311 N 
ATOM      3  H1  UNL     1      -4.425  -9.003  12.755  1.00  0.00     0.170 HD
HETATM    4  C3  UNL     1      -3.570  -9.316  10.910  1.00  0.00     0.158 A 
HETATM    5  N3  UNL     1      -3.640  -9.609   9.604  1.00  0.00    -0.317 N 
ATOM      6  H3  UNL     1      -2.825  -9.689   8.994  1.00  0.00     0.170 HD
HETATM    7  C4  UNL     1      -4.905  -9.785   9.187  1.00  0.00     0.144 A 
HETATM    8  C5  UNL     1      -6.054  -9.699   9.957  1.00  0.00     0.129 A 
HETATM    9  N4  UNL     1      -7.175  -9.934   9.190  1.00  0.00    -0.346 N 
ATOM     10  H4  UNL     1      -8.148  -9.930   9.494  1.00  0.00     0.167 HD
HETATM   11  C6  UNL     1      -6.714 -10.165   7.979  1.00  0.00     0.188 A 
HETATM   12  N5  UNL     1      -5.347 -10.077   7.924  1.00  0.00    -0.300 N 
ENDROOT
BRANCH  12  13
HETATM   13  C7  UNL     1      -4.557 -10.246   6.726  1.00  0.00     0.233 C 
HETATM   14  C8  UNL     1      -3.136  -9.710   6.805  1.00  0.00     0.084 C 
HETATM   15  C9  UNL     1      -2.430 -10.549   5.761  1.00  0.00     0.149 C 
HETATM   16  C10 UNL     1      -3.151 -11.899   5.877  1.00  0.00     0.172 C 
HETATM   17  O3  UNL     1      -4.470 -11.644   6.400  1.00  0.00    -0.357 OA
BRANCH  15  18
HETATM   18  N6  UNL     1      -2.684  -9.938   4.441  1.00  0.00    -0.245 N 
ATOM     19  H6  UNL     1      -3.398  -9.223   4.301  1.00  0.00     0.197 HD
BRANCH  18  20
HETATM   20  N7  UNL     1      -1.969 -10.355   3.509  1.00  0.00    -0.248 NA
BRANCH  20  21
HETATM   21  N8  UNL     1      -1.315 -10.732   2.657  1.00  0.00    -0.261 N 
ATOM     22  H82 UNL     1      -1.813 -10.250   3.405  1.00  0.00     0.193 HD
ATOM     23  H81 UNL     1      -0.730 -11.073   1.894  1.00  0.00     0.193 HD
ENDBRANCH  20  21
ENDBRANCH  18  20
ENDBRANCH  15  18
BRANCH  16  24
HETATM   24  C11 UNL     1      -2.424 -12.874   6.807  1.00  0.00     0.198 C 
BRANCH  24  25
HETATM   25  O2  UNL     1      -1.029 -12.597   6.815  1.00  0.00    -0.398 OA
HETATM   26  H14 UNL     1      -0.606 -13.288   7.355  1.00  0.00     0.209 HD
ENDBRANCH  24  25
ENDBRANCH  16  24
ENDBRANCH  12  13
BRANCH   4  27
HETATM   27  N2  UNL     1      -2.306  -9.142  11.440  1.00  0.00    -0.274 NA
HETATM   28  H4  UNL     1      -1.631  -9.662  10.900  1.00  0.00     0.127 HD
HETATM   29  H5  UNL     1      -2.334  -9.318  12.435  1.00  0.00     0.127 HD
ENDBRANCH   4  27
BRANCH   1  30
HETATM   30  O1  UNL     1      -6.936  -9.289  12.161  1.00  0.00    -0.339 OA
HETATM   31  C1  UNL     1      -7.224 -10.498  12.852  1.00  0.00     0.211 C 
ENDBRANCH   1  30
TORSDOF 8
ENDMDL
MODEL 7
REMARK minimizedAffinity -7.28733397
REMARK  8 active torsions:
REMARK  status: ('A' for Active; 'I' for Inactive)
REMARK    1  A    between atoms: O1_2  and  C2_3 
REMARK    2  A    between atoms: C3_6  and  N2_7 
REMARK    3  A    between atoms: N5_15  and  C7_16 
REMARK    4  A    between atoms: C9_18  and  N6_19 
REMARK    5  A    between atoms: N6_19  and  N7_21 
REMARK    6  A    between atoms: N7_21  and  N8_22 
REMARK    7  A    between atoms: C10_25  and  C11_26 
REMARK    8  A    between atoms: C11_26  and  O2_27 
ROOT
HETATM    1  C2  UNL     1      -4.510   2.978  11.218  1.00  0.00     0.175 A 
HETATM    2  N1  UNL     1      -3.356   2.485  10.697  1.00  0.00    -0.311 N 
ATOM      3  H1  UNL     1      -3.376   1.777   9.962  1.00  0.00     0.170 HD
HETATM    4  C3  UNL     1      -2.189   2.948  11.168  1.00  0.00     0.158 A 
HETATM    5  N3  UNL     1      -2.013   3.887  12.109  1.00  0.00    -0.317 N 
ATOM      6  H3  UNL     1      -1.098   4.214  12.421  1.00  0.00     0.170 HD
HETATM    7  C4  UNL     1      -3.178   4.349  12.593  1.00  0.00     0.144 A 
HETATM    8  C5  UNL     1      -4.451   3.957  12.212  1.00  0.00     0.129 A 
HETATM    9  N4  UNL     1      -5.409   4.642  12.928  1.00  0.00    -0.346 N 
ATOM     10  H4  UNL     1      -6.422   4.551  12.857  1.00  0.00     0.167 HD
HETATM   11  C6  UNL     1      -4.729   5.439  13.725  1.00  0.00     0.188 A 
HETATM   12  N5  UNL     1      -3.375   5.292  13.567  1.00  0.00    -0.300 N 
ENDROOT
BRANCH  12  13
HETATM   13  C7  UNL     1      -2.373   6.005  14.324  1.00  0.00     0.233 C 
HETATM   14  C8  UNL     1      -0.943   5.532  14.116  1.00  0.00     0.084 C 
HETATM   15  C9  UNL     1      -0.151   6.771  14.475  1.00  0.00     0.149 C 
HETATM   16  C10 UNL     1      -1.064   7.903  13.984  1.00  0.00     0.172 C 
HETATM   17  O3  UNL     1      -2.416   7.402  13.984  1.00  0.00    -0.357 OA
BRANCH  15  18
HETATM   18  N6  UNL     1      -0.019   6.814  15.945  1.00  0.00    -0.245 N 
ATOM     19  H6  UNL     1      -0.801   6.611  16.568  1.00  0.00     0.197 HD
BRANCH  18  20
HETATM   20  N7  UNL     1       1.112   7.116  16.376  1.00  0.00    -0.248 NA
BRANCH  20  21
HETATM   21  N8  UNL     1       2.143   7.391  16.772  1.00  0.00    -0.261 N 
ATOM     22  H82 UNL     1       1.171   7.149  16.579  1.00  0.00     0.193 HD
ATOM     23  H81 UNL     1       3.068   7.638  17.124  1.00  0.00     0.193 HD
ENDBRANCH  20  21
ENDBRANCH  18  20
ENDBRANCH  15  18
BRANCH  16  24
HETATM   24  C11 UNL     1      -0.706   8.375  12.572  1.00  0.00     0.198 C 
BRANCH  24  25
HETATM   25  O2  UNL     1      -1.334   9.622  12.297  1.00  0.00    -0.398 OA
HETATM   26  H14 UNL     1      -1.141   9.837  11.367  1.00  0.00     0.209 HD
ENDBRANCH  24  25
ENDBRANCH  16  24
ENDBRANCH  12  13
BRANCH   4  27
HETATM   27  N2  UNL     1      -1.047   2.428  10.588  1.00  0.00    -0.274 NA
HETATM   28  H4  UNL     1      -0.298   3.103  10.637  1.00  0.00     0.127 HD
HETATM   29  H5  UNL     1      -1.275   2.057   9.676  1.00  0.00     0.127 HD
ENDBRANCH   4  27
BRANCH   1  30
HETATM   30  O1  UNL     1      -5.732   2.518  10.764  1.00  0.00    -0.339 OA
HETATM   31  C1  UNL     1      -6.078   1.241  11.286  1.00  0.00     0.211 C 
ENDBRANCH   1  30
TORSDOF 8
ENDMDL
MODEL 8
REMARK minimizedAffinity -7.11972237
REMARK  8 active torsions:
REMARK  status: ('A' for Active; 'I' for Inactive)
REMARK    1  A    between atoms: O1_2  and  C2_3 
REMARK    2  A    between atoms: C3_6  and  N2_7 
REMARK    3  A    between atoms: N5_15  and  C7_16 
REMARK    4  A    between atoms: C9_18  and  N6_19 
REMARK    5  A    between atoms: N6_19  and  N7_21 
REMARK    6  A    between atoms: N7_21  and  N8_22 
REMARK    7  A    between atoms: C10_25  and  C11_26 
REMARK    8  A    between atoms: C11_26  and  O2_27 
ROOT
HETATM    1  C2  UNL     1      -3.507   3.087  11.880  1.00  0.00     0.175 A 
HETATM    2  N1  UNL     1      -2.913   2.041  11.247  1.00  0.00    -0.311 N 
ATOM      3  H1  UNL     1      -3.441   1.195  11.030  1.00  0.00     0.170 HD
HETATM    4  C3  UNL     1      -1.618   2.144  10.914  1.00  0.00     0.158 A 
HETATM    5  N3  UNL     1      -0.814   3.197  11.115  1.00  0.00    -0.317 N 
ATOM      6  H3  UNL     1       0.165   3.227  10.827  1.00  0.00     0.170 HD
HETATM    7  C4  UNL     1      -1.441   4.208  11.738  1.00  0.00     0.144 A 
HETATM    8  C5  UNL     1      -2.764   4.237  12.150  1.00  0.00     0.129 A 
HETATM    9  N4  UNL     1      -3.058   5.437  12.762  1.00  0.00    -0.346 N 
ATOM     10  H4  UNL     1      -3.950   5.728  13.162  1.00  0.00     0.167 HD
HETATM   11  C6  UNL     1      -1.937   6.125  12.715  1.00  0.00     0.188 A 
HETATM   12  N5  UNL     1      -0.926   5.420  12.114  1.00  0.00    -0.300 N 
ENDROOT
BRANCH  12  13
HETATM   13  C7  UNL     1       0.427   5.897  11.947  1.00  0.00     0.233 C 
HETATM   14  C8  UNL     1       1.267   5.129  10.940  1.00  0.00     0.084 C 
HETATM   15  C9  UNL     1       2.292   6.166  10.534  1.00  0.00     0.149 C 
HETATM   16  C10 UNL     1       1.484   7.471  10.592  1.00  0.00     0.172 C 
HETATM   17  O3  UNL     1       0.404   7.273  11.527  1.00  0.00    -0.357 OA
BRANCH  15  18
HETATM   18  N6  UNL     1       3.359   6.173  11.556  1.00  0.00    -0.245 N 
ATOM     19  H6  UNL     1       3.167   6.354  12.541  1.00  0.00     0.197 HD
BRANCH  18  20
HETATM   20  N7  UNL     1       4.509   5.942  11.134  1.00  0.00    -0.248 NA
BRANCH  20  21
HETATM   21  N8  UNL     1       5.561   5.735  10.750  1.00  0.00    -0.261 N 
ATOM     22  H82 UNL     1       4.689   6.053  11.173  1.00  0.00     0.193 HD
ATOM     23  H81 UNL     1       6.502   5.546  10.405  1.00  0.00     0.193 HD
ENDBRANCH  20  21
ENDBRANCH  18  20
ENDBRANCH  15  18
BRANCH  16  24
HETATM   24  C11 UNL     1       0.902   7.861   9.231  1.00  0.00     0.198 C 
BRANCH  24  25
HETATM   25  O2  UNL     1      -0.076   8.882   9.390  1.00  0.00    -0.398 OA
HETATM   26  H14 UNL     1      -0.469   9.037   8.512  1.00  0.00     0.209 HD
ENDBRANCH  24  25
ENDBRANCH  16  24
ENDBRANCH  12  13
BRANCH   4  27
HETATM   27  N2  UNL     1      -1.070   1.060  10.254  1.00  0.00    -0.274 NA
HETATM   28  H4  UNL     1      -0.314   1.365   9.660  1.00  0.00     0.127 HD
HETATM   29  H5  UNL     1      -1.810   0.524   9.820  1.00  0.00     0.127 HD
ENDBRANCH   4  27
BRANCH   1  30
HETATM   30  O1  UNL     1      -4.837   3.014  12.248  1.00  0.00    -0.339 OA
HETATM   31  C1  UNL     1      -5.720   2.921  11.137  1.00  0.00     0.211 C 
ENDBRANCH   1  30
TORSDOF 8
ENDMDL
MODEL 9
REMARK minimizedAffinity -7.10781431
REMARK  8 active torsions:
REMARK  status: ('A' for Active; 'I' for Inactive)
REMARK    1  A    between atoms: O1_2  and  C2_3 
REMARK    2  A    between atoms: C3_6  and  N2_7 
REMARK    3  A    between atoms: N5_15  and  C7_16 
REMARK    4  A    between atoms: C9_18  and  N6_19 
REMARK    5  A    between atoms: N6_19  and  N7_21 
REMARK    6  A    between atoms: N7_21  and  N8_22 
REMARK    7  A    between atoms: C10_25  and  C11_26 
REMARK    8  A    between atoms: C11_26  and  O2_27 
ROOT
HETATM    1  C2  UNL     1      -6.166   4.789  13.134  1.00  0.00     0.175 A 
HETATM    2  N1  UNL     1      -6.497   5.585  14.185  1.00  0.00    -0.311 N 
ATOM      3  H1  UNL     1      -7.475   5.751  14.425  1.00  0.00     0.170 HD
HETATM    4  C3  UNL     1      -5.512   6.149  14.899  1.00  0.00     0.158 A 
HETATM    5  N3  UNL     1      -4.193   6.000  14.713  1.00  0.00    -0.317 N 
ATOM      6  H3  UNL     1      -3.483   6.443  15.298  1.00  0.00     0.170 HD
HETATM    7  C4  UNL     1      -3.911   5.204  13.669  1.00  0.00     0.144 A 
HETATM    8  C5  UNL     1      -4.820   4.568  12.839  1.00  0.00     0.129 A 
HETATM    9  N4  UNL     1      -4.168   3.837  11.869  1.00  0.00    -0.346 N 
ATOM     10  H4  UNL     1      -4.586   3.276  11.127  1.00  0.00     0.167 HD
HETATM   11  C6  UNL     1      -2.887   4.021  12.110  1.00  0.00     0.188 A 
HETATM   12  N5  UNL     1      -2.680   4.849  13.183  1.00  0.00    -0.300 N 
ENDROOT
BRANCH  12  13
HETATM   13  C7  UNL     1      -1.384   5.263  13.668  1.00  0.00     0.233 C 
HETATM   14  C8  UNL     1      -0.795   6.486  12.984  1.00  0.00     0.084 C 
HETATM   15  C9  UNL     1       0.141   7.018  14.048  1.00  0.00     0.149 C 
HETATM   16  C10 UNL     1      -0.608   6.683  15.346  1.00  0.00     0.172 C 
HETATM   17  O3  UNL     1      -1.467   5.557  15.074  1.00  0.00    -0.357 OA
BRANCH  15  18
HETATM   18  N6  UNL     1       1.401   6.252  13.966  1.00  0.00    -0.245 N 
ATOM     19  H6  UNL     1       1.563   5.546  13.247  1.00  0.00     0.197 HD
BRANCH  18  20
HETATM   20  N7  UNL     1       2.254   6.526  14.833  1.00  0.00    -0.248 NA
BRANCH  20  21
HETATM   21  N8  UNL     1       3.031   6.775  15.628  1.00  0.00    -0.261 N 
ATOM     22  H82 UNL     1       2.227   6.539  15.046  1.00  0.00     0.193 HD
ATOM     23  H81 UNL     1       3.729   6.999  16.337  1.00  0.00     0.193 HD
ENDBRANCH  20  21
ENDBRANCH  18  20
ENDBRANCH  15  18
BRANCH  16  24
HETATM   24  C11 UNL     1      -1.460   7.852  15.850  1.00  0.00     0.198 C 
BRANCH  24  25
HETATM   25  O2  UNL     1      -2.571   7.364  16.593  1.00  0.00    -0.398 OA
HETATM   26  H14 UNL     1      -3.119   8.136  16.821  1.00  0.00     0.209 HD
ENDBRANCH  24  25
ENDBRANCH  16  24
ENDBRANCH  12  13
BRANCH   4  27
HETATM   27  N2  UNL     1      -5.904   6.931  15.969  1.00  0.00    -0.274 NA
HETATM   28  H4  UNL     1      -5.190   6.924  16.681  1.00  0.00     0.127 HD
HETATM   29  H5  UNL     1      -6.839   6.668  16.250  1.00  0.00     0.127 HD
ENDBRANCH   4  27
BRANCH   1  30
HETATM   30  O1  UNL     1      -7.154   4.199  12.369  1.00  0.00    -0.339 OA
HETATM   31  C1  UNL     1      -7.606   2.959  12.898  1.00  0.00     0.211 C 
ENDBRANCH   1  30
TORSDOF 8
ENDMDL
