MODEL 1
REMARK minimizedAffinity -7.96803188
REMARK CNNscore 0.607078135
REMARK CNNaffinity 5.49583054
REMARK  12 active torsions:
REMARK  status: ('A' for Active; 'I' for Inactive)
REMARK    1  A    between atoms: C2_2  and  O1_3 
REMARK    2  A    between atoms: C2_2  and  C3_4 
REMARK    3  A    between atoms: C4_5  and  C5_6 
REMARK    4  A    between atoms: C5_6  and  O2_7 
REMARK    5  A    between atoms: C8_10  and  O3_11 
REMARK    6  A    between atoms: O3_11  and  C9_12 
REMARK    7  A    between atoms: C10_14  and  C11_15 
REMARK    8  A    between atoms: C11_15  and  O5_16 
REMARK    9  A    between atoms: C12_17  and  O6_18 
REMARK   10  A    between atoms: C13_19  and  O7_20 
REMARK   11  A    between atoms: C14_21  and  O8_22 
REMARK   12  A    between atoms: C15_23  and  O9_24 
ROOT
HETATM    1  C5  UNL     1      -6.426   5.637  13.759  1.00  0.00     0.088 C 
HETATM    2  C6  UNL     1      -4.935   5.537  14.195  1.00  0.00     0.052 C 
HETATM    3  C7  UNL     1      -4.012   4.926  13.124  1.00  0.00     0.016 C 
HETATM    4  C8  UNL     1      -4.384   6.938  14.568  1.00  0.00     0.160 C 
HETATM    5  C15 UNL     1      -5.446   7.855  15.224  1.00  0.00     0.148 C 
HETATM    6  C16 UNL     1      -6.529   7.049  15.936  1.00  0.00     0.046 C 
HETATM    7  C17 UNL     1      -7.315   6.082  15.002  1.00  0.00    -0.010 C 
HETATM    8  C18 UNL     1      -8.610   6.792  14.538  1.00  0.00     0.018 C 
HETATM    9  C19 UNL     1      -7.750   4.885  15.888  1.00  0.00     0.018 C 
ENDROOT
BRANCH   4  10
HETATM   10  O3  UNL     1      -3.290   6.758  15.491  1.00  0.00    -0.350 OA
BRANCH  10  11
HETATM   11  C9  UNL     1      -2.079   7.362  15.015  1.00  0.00     0.292 C 
HETATM   12  O4  UNL     1      -1.245   6.340  14.469  1.00  0.00    -0.348 OA
HETATM   13  C10 UNL     1       0.008   6.841  13.992  1.00  0.00     0.179 C 
HETATM   14  C12 UNL     1       0.806   7.460  15.149  1.00  0.00     0.180 C 
HETATM   15  C13 UNL     1      -0.018   8.578  15.790  1.00  0.00     0.183 C 
HETATM   16  C14 UNL     1      -1.398   8.069  16.207  1.00  0.00     0.204 C 
BRANCH  13  17
HETATM   17  C11 UNL     1       0.789   5.693  13.337  1.00  0.00     0.198 C 
BRANCH  17  18
HETATM   18  O5  UNL     1       1.963   6.155  12.675  1.00  0.00    -0.398 OA
HETATM   19  H18 UNL     1       2.394   6.802  13.275  1.00  0.00     0.209 HD
ENDBRANCH  17  18
ENDBRANCH  13  17
BRANCH  14  20
HETATM   20  O6  UNL     1       2.057   7.991  14.693  1.00  0.00    -0.390 OA
HETATM   21  H20 UNL     1       2.382   8.543  15.436  1.00  0.00     0.210 HD
ENDBRANCH  14  20
BRANCH  15  22
HETATM   22  O7  UNL     1       0.695   9.092  16.925  1.00  0.00    -0.390 OA
HETATM   23  H22 UNL     1       0.035   9.604  17.438  1.00  0.00     0.210 HD
ENDBRANCH  15  22
BRANCH  16  24
HETATM   24  O8  UNL     1      -2.155   9.190  16.703  1.00  0.00    -0.388 OA
HETATM   25  H24 UNL     1      -2.634   9.594  15.950  1.00  0.00     0.210 HD
ENDBRANCH  16  24
ENDBRANCH  10  11
ENDBRANCH   4  10
BRANCH   5  26
HETATM   26  O9  UNL     1      -4.826   8.731  16.181  1.00  0.00    -0.393 OA
HETATM   27  H26 UNL     1      -4.492   8.132  16.881  1.00  0.00     0.210 HD
ENDBRANCH   5  26
BRANCH   1  28
HETATM   28  C4  UNL     1      -6.915   4.335  13.136  1.00  0.00     0.010 C 
HETATM   29  C3  UNL     1      -6.270   3.529  12.272  1.00  0.00     0.003 C 
BRANCH  29  30
HETATM   30  C2  UNL     1      -6.833   2.241  11.747  1.00  0.00     0.136 C 
HETATM   31  C1  UNL     1      -5.728   1.255  11.397  1.00  0.00     0.043 C 
BRANCH  30  32
HETATM   32  O1  UNL     1      -7.642   1.689  12.779  1.00  0.00    -0.392 OA
HETATM   33  H5  UNL     1      -8.056   0.885  12.421  1.00  0.00     0.210 HD
ENDBRANCH  30  32
ENDBRANCH  29  30
ENDBRANCH   1  28
BRANCH   1  34
HETATM   34  O2  UNL     1      -6.467   6.673  12.766  1.00  0.00    -0.385 OA
HETATM   35  H8  UNL     1      -7.346   6.659  12.352  1.00  0.00     0.211 HD
ENDBRANCH   1  34
TORSDOF 12
ENDMDL
MODEL 2
REMARK minimizedAffinity -5.9805851
REMARK CNNscore 0.58862263
REMARK CNNaffinity 4.72241926
REMARK  12 active torsions:
REMARK  status: ('A' for Active; 'I' for Inactive)
REMARK    1  A    between atoms: C2_2  and  O1_3 
REMARK    2  A    between atoms: C2_2  and  C3_4 
REMARK    3  A    between atoms: C4_5  and  C5_6 
REMARK    4  A    between atoms: C5_6  and  O2_7 
REMARK    5  A    between atoms: C8_10  and  O3_11 
REMARK    6  A    between atoms: O3_11  and  C9_12 
REMARK    7  A    between atoms: C10_14  and  C11_15 
REMARK    8  A    between atoms: C11_15  and  O5_16 
REMARK    9  A    between atoms: C12_17  and  O6_18 
REMARK   10  A    between atoms: C13_19  and  O7_20 
REMARK   11  A    between atoms: C14_21  and  O8_22 
REMARK   12  A    between atoms: C15_23  and  O9_24 
ROOT
HETATM    1  C5  UNL     1     -14.278   3.515  25.691  1.00  0.00     0.088 C 
HETATM    2  C6  UNL     1     -13.875   4.510  26.818  1.00  0.00     0.052 C 
HETATM    3  C7  UNL     1     -14.707   5.806  26.831  1.00  0.00     0.016 C 
HETATM    4  C8  UNL     1     -14.003   3.835  28.208  1.00  0.00     0.160 C 
HETATM    5  C15 UNL     1     -13.660   2.325  28.187  1.00  0.00     0.148 C 
HETATM    6  C16 UNL     1     -12.691   1.980  27.059  1.00  0.00     0.046 C 
HETATM    7  C17 UNL     1     -13.229   2.319  25.637  1.00  0.00    -0.010 C 
HETATM    8  C18 UNL     1     -13.867   1.042  25.037  1.00  0.00     0.018 C 
HETATM    9  C19 UNL     1     -11.985   2.650  24.773  1.00  0.00     0.018 C 
ENDROOT
BRANCH   4  10
HETATM   10  O3  UNL     1     -13.104   4.505  29.116  1.00  0.00    -0.350 OA
BRANCH  10  11
HETATM   11  C9  UNL     1     -13.696   4.714  30.405  1.00  0.00     0.292 C 
HETATM   12  O4  UNL     1     -13.419   3.577  31.223  1.00  0.00    -0.348 OA
HETATM   13  C10 UNL     1     -13.998   3.677  32.529  1.00  0.00     0.179 C 
HETATM   14  C12 UNL     1     -15.529   3.755  32.424  1.00  0.00     0.180 C 
HETATM   15  C13 UNL     1     -15.915   4.959  31.563  1.00  0.00     0.183 C 
HETATM   16  C14 UNL     1     -15.215   4.908  30.206  1.00  0.00     0.204 C 
BRANCH  13  17
HETATM   17  C11 UNL     1     -13.565   2.464  33.363  1.00  0.00     0.198 C 
BRANCH  17  18
HETATM   18  O5  UNL     1     -12.791   2.844  34.497  1.00  0.00    -0.398 OA
HETATM   19  H18 UNL     1     -13.238   3.620  34.900  1.00  0.00     0.209 HD
ENDBRANCH  17  18
ENDBRANCH  13  17
BRANCH  14  20
HETATM   20  O6  UNL     1     -16.132   3.880  33.718  1.00  0.00    -0.390 OA
HETATM   21  H20 UNL     1     -17.061   4.139  33.539  1.00  0.00     0.210 HD
ENDBRANCH  14  20
BRANCH  15  22
HETATM   22  O7  UNL     1     -17.341   4.976  31.396  1.00  0.00    -0.390 OA
HETATM   23  H22 UNL     1     -17.510   5.588  30.650  1.00  0.00     0.210 HD
ENDBRANCH  15  22
BRANCH  16  24
HETATM   24  O8  UNL     1     -15.539   6.117  29.492  1.00  0.00    -0.388 OA
HETATM   25  H24 UNL     1     -14.863   6.792  29.710  1.00  0.00     0.210 HD
ENDBRANCH  16  24
ENDBRANCH  10  11
ENDBRANCH   4  10
BRANCH   5  26
HETATM   26  O9  UNL     1     -13.065   1.931  29.435  1.00  0.00    -0.393 OA
HETATM   27  H26 UNL     1     -12.216   2.418  29.466  1.00  0.00     0.210 HD
ENDBRANCH   5  26
BRANCH   1  28
HETATM   28  C4  UNL     1     -14.420   4.219  24.347  1.00  0.00     0.010 C 
HETATM   29  C3  UNL     1     -13.660   5.205  23.836  1.00  0.00     0.003 C 
BRANCH  29  30
HETATM   30  C2  UNL     1     -13.865   5.804  22.476  1.00  0.00     0.136 C 
HETATM   31  C1  UNL     1     -14.683   4.883  21.583  1.00  0.00     0.043 C 
BRANCH  30  32
HETATM   32  O1  UNL     1     -14.573   7.024  22.662  1.00  0.00    -0.392 OA
HETATM   33  H5  UNL     1     -14.655   7.445  21.788  1.00  0.00     0.210 HD
ENDBRANCH  30  32
ENDBRANCH  29  30
ENDBRANCH   1  28
BRANCH   1  34
HETATM   34  O2  UNL     1     -15.557   2.991  26.080  1.00  0.00    -0.385 OA
HETATM   35  H8  UNL     1     -15.919   2.491  25.330  1.00  0.00     0.211 HD
ENDBRANCH   1  34
TORSDOF 12
ENDMDL
MODEL 3
REMARK minimizedAffinity -6.6549058
REMARK CNNscore 0.535836518
REMARK CNNaffinity 5.00647688
REMARK  12 active torsions:
REMARK  status: ('A' for Active; 'I' for Inactive)
REMARK    1  A    between atoms: C2_2  and  O1_3 
REMARK    2  A    between atoms: C2_2  and  C3_4 
REMARK    3  A    between atoms: C4_5  and  C5_6 
REMARK    4  A    between atoms: C5_6  and  O2_7 
REMARK    5  A    between atoms: C8_10  and  O3_11 
REMARK    6  A    between atoms: O3_11  and  C9_12 
REMARK    7  A    between atoms: C10_14  and  C11_15 
REMARK    8  A    between atoms: C11_15  and  O5_16 
REMARK    9  A    between atoms: C12_17  and  O6_18 
REMARK   10  A    between atoms: C13_19  and  O7_20 
REMARK   11  A    between atoms: C14_21  and  O8_22 
REMARK   12  A    between atoms: C15_23  and  O9_24 
ROOT
HETATM    1  C5  UNL     1       2.369   7.730  11.764  1.00  0.00     0.088 C 
HETATM    2  C6  UNL     1       3.478   8.635  12.376  1.00  0.00     0.052 C 
HETATM    3  C7  UNL     1       3.051   9.358  13.667  1.00  0.00     0.016 C 
HETATM    4  C8  UNL     1       4.749   7.802  12.683  1.00  0.00     0.160 C 
HETATM    5  C15 UNL     1       4.990   6.660  11.665  1.00  0.00     0.148 C 
HETATM    6  C16 UNL     1       4.379   6.976  10.302  1.00  0.00     0.046 C 
HETATM    7  C17 UNL     1       2.839   7.202  10.338  1.00  0.00    -0.010 C 
HETATM    8  C18 UNL     1       2.138   5.870   9.975  1.00  0.00     0.018 C 
HETATM    9  C19 UNL     1       2.523   8.202   9.195  1.00  0.00     0.018 C 
ENDROOT
BRANCH   4  10
HETATM   10  O3  UNL     1       5.885   8.692  12.661  1.00  0.00    -0.350 OA
BRANCH  10  11
HETATM   11  C9  UNL     1       6.238   9.146  13.975  1.00  0.00     0.292 C 
HETATM   12  O4  UNL     1       6.963  10.369  13.855  1.00  0.00    -0.348 OA
HETATM   13  C10 UNL     1       7.390  10.890  15.118  1.00  0.00     0.179 C 
HETATM   14  C12 UNL     1       8.345   9.902  15.803  1.00  0.00     0.180 C 
HETATM   15  C13 UNL     1       7.639   8.556  15.979  1.00  0.00     0.183 C 
HETATM   16  C14 UNL     1       7.092   8.048  14.645  1.00  0.00     0.204 C 
BRANCH  13  17
HETATM   17  C11 UNL     1       8.069  12.248  14.896  1.00  0.00     0.198 C 
BRANCH  17  18
HETATM   18  O5  UNL     1       9.488  12.132  14.838  1.00  0.00    -0.398 OA
HETATM   19  H18 UNL     1       9.688  11.351  14.276  1.00  0.00     0.209 HD
ENDBRANCH  17  18
ENDBRANCH  13  17
BRANCH  14  20
HETATM   20  O6  UNL     1       8.768  10.390  17.082  1.00  0.00    -0.390 OA
HETATM   21  H20 UNL     1       9.182   9.617  17.522  1.00  0.00     0.210 HD
ENDBRANCH  14  20
BRANCH  15  22
HETATM   22  O7  UNL     1       8.565   7.612  16.538  1.00  0.00    -0.390 OA
HETATM   23  H22 UNL     1       8.161   6.732  16.393  1.00  0.00     0.210 HD
ENDBRANCH  15  22
BRANCH  16  24
HETATM   24  O8  UNL     1       6.352   6.837  14.900  1.00  0.00    -0.388 OA
HETATM   25  H24 UNL     1       5.421   7.080  15.083  1.00  0.00     0.210 HD
ENDBRANCH  16  24
ENDBRANCH  10  11
ENDBRANCH   4  10
BRANCH   5  26
HETATM   26  O9  UNL     1       6.400   6.436  11.491  1.00  0.00    -0.393 OA
HETATM   27  H26 UNL     1       6.730   7.261  11.080  1.00  0.00     0.210 HD
ENDBRANCH   5  26
BRANCH   1  28
HETATM   28  C4  UNL     1       1.029   8.452  11.701  1.00  0.00     0.010 C 
HETATM   29  C3  UNL     1      -0.167   8.036  12.159  1.00  0.00     0.003 C 
BRANCH  29  30
HETATM   30  C2  UNL     1      -1.426   8.849  12.079  1.00  0.00     0.136 C 
HETATM   31  C1  UNL     1      -2.593   8.128  12.736  1.00  0.00     0.043 C 
BRANCH  30  32
HETATM   32  O1  UNL     1      -1.178  10.067  12.772  1.00  0.00    -0.392 OA
HETATM   33  H5  UNL     1      -1.971  10.621  12.670  1.00  0.00     0.210 HD
ENDBRANCH  30  32
ENDBRANCH  29  30
ENDBRANCH   1  28
BRANCH   1  34
HETATM   34  O2  UNL     1       2.252   6.610  12.656  1.00  0.00    -0.385 OA
HETATM   35  H8  UNL     1       1.464   6.103  12.402  1.00  0.00     0.211 HD
ENDBRANCH   1  34
TORSDOF 12
ENDMDL
MODEL 4
REMARK minimizedAffinity -7.97453737
REMARK CNNscore 0.470800549
REMARK CNNaffinity 4.77228355
REMARK  12 active torsions:
REMARK  status: ('A' for Active; 'I' for Inactive)
REMARK    1  A    between atoms: C2_2  and  O1_3 
REMARK    2  A    between atoms: C2_2  and  C3_4 
REMARK    3  A    between atoms: C4_5  and  C5_6 
REMARK    4  A    between atoms: C5_6  and  O2_7 
REMARK    5  A    between atoms: C8_10  and  O3_11 
REMARK    6  A    between atoms: O3_11  and  C9_12 
REMARK    7  A    between atoms: C10_14  and  C11_15 
REMARK    8  A    between atoms: C11_15  and  O5_16 
REMARK    9  A    between atoms: C12_17  and  O6_18 
REMARK   10  A    between atoms: C13_19  and  O7_20 
REMARK   11  A    between atoms: C14_21  and  O8_22 
REMARK   12  A    between atoms: C15_23  and  O9_24 
ROOT
HETATM    1  C5  UNL     1      -2.239   7.163  13.369  1.00  0.00     0.088 C 
HETATM    2  C6  UNL     1      -1.622   7.538  11.990  1.00  0.00     0.052 C 
HETATM    3  C7  UNL     1      -1.390   9.048  11.801  1.00  0.00     0.016 C 
HETATM    4  C8  UNL     1      -0.269   6.808  11.785  1.00  0.00     0.160 C 
HETATM    5  C15 UNL     1      -0.234   5.398  12.425  1.00  0.00     0.148 C 
HETATM    6  C16 UNL     1      -1.629   4.785  12.523  1.00  0.00     0.046 C 
HETATM    7  C17 UNL     1      -2.628   5.620  13.377  1.00  0.00    -0.010 C 
HETATM    8  C18 UNL     1      -2.636   5.052  14.818  1.00  0.00     0.018 C 
HETATM    9  C19 UNL     1      -4.034   5.353  12.780  1.00  0.00     0.018 C 
ENDROOT
BRANCH   4  10
HETATM   10  O3  UNL     1      -0.038   6.682  10.367  1.00  0.00    -0.350 OA
BRANCH  10  11
HETATM   11  C9  UNL     1       1.341   6.878  10.026  1.00  0.00     0.292 C 
HETATM   12  O4  UNL     1       1.956   5.600   9.862  1.00  0.00    -0.348 OA
HETATM   13  C10 UNL     1       3.349   5.689   9.548  1.00  0.00     0.179 C 
HETATM   14  C12 UNL     1       4.107   6.373  10.695  1.00  0.00     0.180 C 
HETATM   15  C13 UNL     1       3.513   7.763  10.935  1.00  0.00     0.183 C 
HETATM   16  C14 UNL     1       2.005   7.679  11.167  1.00  0.00     0.204 C 
BRANCH  13  17
HETATM   17  C11 UNL     1       3.896   4.277   9.293  1.00  0.00     0.198 C 
BRANCH  17  18
HETATM   18  O5  UNL     1       3.109   3.276   9.932  1.00  0.00    -0.398 OA
HETATM   19  H18 UNL     1       2.168   3.507   9.771  1.00  0.00     0.209 HD
ENDBRANCH  17  18
ENDBRANCH  13  17
BRANCH  14  20
HETATM   20  O6  UNL     1       5.504   6.496  10.396  1.00  0.00    -0.390 OA
HETATM   21  H20 UNL     1       5.850   7.123  11.066  1.00  0.00     0.210 HD
ENDBRANCH  14  20
BRANCH  15  22
HETATM   22  O7  UNL     1       4.166   8.362  12.065  1.00  0.00    -0.390 OA
HETATM   23  H22 UNL     1       3.594   9.111  12.331  1.00  0.00     0.210 HD
ENDBRANCH  15  22
BRANCH  16  24
HETATM   24  O8  UNL     1       1.497   9.023  11.280  1.00  0.00    -0.388 OA
HETATM   25  H24 UNL     1       1.248   9.333  10.384  1.00  0.00     0.210 HD
ENDBRANCH  16  24
ENDBRANCH  10  11
ENDBRANCH   4  10
BRANCH   5  26
HETATM   26  O9  UNL     1       0.597   4.519  11.649  1.00  0.00    -0.393 OA
HETATM   27  H26 UNL     1       0.131   4.433  10.792  1.00  0.00     0.210 HD
ENDBRANCH   5  26
BRANCH   1  28
HETATM   28  C4  UNL     1      -3.422   8.059  13.715  1.00  0.00     0.010 C 
HETATM   29  C3  UNL     1      -4.614   7.706  14.232  1.00  0.00     0.003 C 
BRANCH  29  30
HETATM   30  C2  UNL     1      -5.703   8.680  14.574  1.00  0.00     0.136 C 
HETATM   31  C1  UNL     1      -6.687   8.084  15.569  1.00  0.00     0.043 C 
BRANCH  30  32
HETATM   32  O1  UNL     1      -5.075   9.815  15.159  1.00  0.00    -0.392 OA
HETATM   33  H5  UNL     1      -5.772  10.474  15.326  1.00  0.00     0.210 HD
ENDBRANCH  30  32
ENDBRANCH  29  30
ENDBRANCH   1  28
BRANCH   1  34
HETATM   34  O2  UNL     1      -1.194   7.382  14.330  1.00  0.00    -0.385 OA
HETATM   35  H8  UNL     1      -1.581   7.316  15.218  1.00  0.00     0.211 HD
ENDBRANCH   1  34
TORSDOF 12
ENDMDL
MODEL 5
REMARK minimizedAffinity -6.03088999
REMARK CNNscore 0.453252405
REMARK CNNaffinity 4.14008331
REMARK  12 active torsions:
REMARK  status: ('A' for Active; 'I' for Inactive)
REMARK    1  A    between atoms: C2_2  and  O1_3 
REMARK    2  A    between atoms: C2_2  and  C3_4 
REMARK    3  A    between atoms: C4_5  and  C5_6 
REMARK    4  A    between atoms: C5_6  and  O2_7 
REMARK    5  A    between atoms: C8_10  and  O3_11 
REMARK    6  A    between atoms: O3_11  and  C9_12 
REMARK    7  A    between atoms: C10_14  and  C11_15 
REMARK    8  A    between atoms: C11_15  and  O5_16 
REMARK    9  A    between atoms: C12_17  and  O6_18 
REMARK   10  A    between atoms: C13_19  and  O7_20 
REMARK   11  A    between atoms: C14_21  and  O8_22 
REMARK   12  A    between atoms: C15_23  and  O9_24 
ROOT
HETATM    1  C5  UNL     1      -3.828 -11.803   4.256  1.00  0.00     0.088 C 
HETATM    2  C6  UNL     1      -4.352 -11.688   5.717  1.00  0.00     0.052 C 
HETATM    3  C7  UNL     1      -3.248 -11.792   6.785  1.00  0.00     0.016 C 
HETATM    4  C8  UNL     1      -5.102 -10.346   5.919  1.00  0.00     0.160 C 
HETATM    5  C15 UNL     1      -5.867  -9.878   4.657  1.00  0.00     0.148 C 
HETATM    6  C16 UNL     1      -6.266 -11.054   3.768  1.00  0.00     0.046 C 
HETATM    7  C17 UNL     1      -5.060 -11.894   3.253  1.00  0.00    -0.010 C 
HETATM    8  C18 UNL     1      -4.674 -11.385   1.843  1.00  0.00     0.018 C 
HETATM    9  C19 UNL     1      -5.587 -13.343   3.079  1.00  0.00     0.018 C 
ENDROOT
BRANCH   4  10
HETATM   10  O3  UNL     1      -6.043 -10.516   6.999  1.00  0.00    -0.350 OA
BRANCH  10  11
HETATM   11  C9  UNL     1      -5.892  -9.510   8.009  1.00  0.00     0.292 C 
HETATM   12  O4  UNL     1      -4.972  -9.985   8.991  1.00  0.00    -0.348 OA
HETATM   13  C10 UNL     1      -4.776  -9.059  10.065  1.00  0.00     0.179 C 
HETATM   14  C12 UNL     1      -6.099  -8.825  10.810  1.00  0.00     0.180 C 
HETATM   15  C13 UNL     1      -7.147  -8.304   9.825  1.00  0.00     0.183 C 
HETATM   16  C14 UNL     1      -7.283  -9.240   8.625  1.00  0.00     0.204 C 
BRANCH  13  17
HETATM   17  C11 UNL     1      -3.702  -9.610  11.012  1.00  0.00     0.198 C 
BRANCH  17  18
HETATM   18  O5  UNL     1      -2.543  -8.782  11.046  1.00  0.00    -0.398 OA
HETATM   19  H18 UNL     1      -2.858  -7.853  11.099  1.00  0.00     0.209 HD
ENDBRANCH  17  18
ENDBRANCH  13  17
BRANCH  14  20
HETATM   20  O6  UNL     1      -5.935  -7.881  11.876  1.00  0.00    -0.390 OA
HETATM   21  H20 UNL     1      -6.848  -7.638  12.139  1.00  0.00     0.210 HD
ENDBRANCH  14  20
BRANCH  15  22
HETATM   22  O7  UNL     1      -8.404  -8.171  10.507  1.00  0.00    -0.390 OA
HETATM   23  H22 UNL     1      -9.078  -8.090   9.801  1.00  0.00     0.210 HD
ENDBRANCH  15  22
BRANCH  16  24
HETATM   24  O8  UNL     1      -8.203  -8.639   7.693  1.00  0.00    -0.388 OA
HETATM   25  H24 UNL     1      -7.691  -8.075   7.077  1.00  0.00     0.210 HD
ENDBRANCH  16  24
ENDBRANCH  10  11
ENDBRANCH   4  10
BRANCH   5  26
HETATM   26  O9  UNL     1      -7.058  -9.166   5.031  1.00  0.00    -0.393 OA
HETATM   27  H26 UNL     1      -7.617  -9.837   5.474  1.00  0.00     0.210 HD
ENDBRANCH   5  26
BRANCH   1  28
HETATM   28  C4  UNL     1      -2.866 -12.975   4.097  1.00  0.00     0.010 C 
HETATM   29  C3  UNL     1      -1.645 -12.983   3.530  1.00  0.00     0.003 C 
BRANCH  29  30
HETATM   30  C2  UNL     1      -0.759 -14.192   3.461  1.00  0.00     0.136 C 
HETATM   31  C1  UNL     1      -1.254 -15.181   2.417  1.00  0.00     0.043 C 
BRANCH  30  32
HETATM   32  O1  UNL     1       0.538 -13.736   3.096  1.00  0.00    -0.392 OA
HETATM   33  H5  UNL     1       1.129 -14.509   3.110  1.00  0.00     0.210 HD
ENDBRANCH  30  32
ENDBRANCH  29  30
ENDBRANCH   1  28
BRANCH   1  34
HETATM   34  O2  UNL     1      -3.117 -10.581   4.005  1.00  0.00    -0.385 OA
HETATM   35  H8  UNL     1      -2.637 -10.677   3.166  1.00  0.00     0.211 HD
ENDBRANCH   1  34
TORSDOF 12
ENDMDL
MODEL 6
REMARK minimizedAffinity -6.55778646
REMARK CNNscore 0.449378967
REMARK CNNaffinity 4.42871618
REMARK  12 active torsions:
REMARK  status: ('A' for Active; 'I' for Inactive)
REMARK    1  A    between atoms: C2_2  and  O1_3 
REMARK    2  A    between atoms: C2_2  and  C3_4 
REMARK    3  A    between atoms: C4_5  and  C5_6 
REMARK    4  A    between atoms: C5_6  and  O2_7 
REMARK    5  A    between atoms: C8_10  and  O3_11 
REMARK    6  A    between atoms: O3_11  and  C9_12 
REMARK    7  A    between atoms: C10_14  and  C11_15 
REMARK    8  A    between atoms: C11_15  and  O5_16 
REMARK    9  A    between atoms: C12_17  and  O6_18 
REMARK   10  A    between atoms: C13_19  and  O7_20 
REMARK   11  A    between atoms: C14_21  and  O8_22 
REMARK   12  A    between atoms: C15_23  and  O9_24 
ROOT
HETATM    1  C5  UNL     1       1.582   7.340  12.415  1.00  0.00     0.088 C 
HETATM    2  C6  UNL     1       2.615   8.487  12.224  1.00  0.00     0.052 C 
HETATM    3  C7  UNL     1       2.695   9.460  13.415  1.00  0.00     0.016 C 
HETATM    4  C8  UNL     1       4.031   7.906  11.975  1.00  0.00     0.160 C 
HETATM    5  C15 UNL     1       4.013   6.578  11.178  1.00  0.00     0.148 C 
HETATM    6  C16 UNL     1       2.782   6.471  10.283  1.00  0.00     0.046 C 
HETATM    7  C17 UNL     1       1.431   6.526  11.056  1.00  0.00    -0.010 C 
HETATM    8  C18 UNL     1       0.958   5.076  11.322  1.00  0.00     0.018 C 
HETATM    9  C19 UNL     1       0.404   7.164  10.085  1.00  0.00     0.018 C 
ENDROOT
BRANCH   4  10
HETATM   10  O3  UNL     1       4.794   8.883  11.237  1.00  0.00    -0.350 OA
BRANCH  10  11
HETATM   11  C9  UNL     1       5.976   9.287  11.940  1.00  0.00     0.292 C 
HETATM   12  O4  UNL     1       6.180   8.397  13.038  1.00  0.00    -0.348 OA
HETATM   13  C10 UNL     1       7.326   8.737  13.825  1.00  0.00     0.179 C 
HETATM   14  C12 UNL     1       7.148  10.132  14.444  1.00  0.00     0.180 C 
HETATM   15  C13 UNL     1       6.930  11.155  13.328  1.00  0.00     0.183 C 
HETATM   16  C14 UNL     1       5.770  10.739  12.423  1.00  0.00     0.204 C 
BRANCH  13  17
HETATM   17  C11 UNL     1       7.519   7.673  14.914  1.00  0.00     0.198 C 
BRANCH  17  18
HETATM   18  O5  UNL     1       6.814   7.997  16.109  1.00  0.00    -0.398 OA
HETATM   19  H18 UNL     1       5.924   8.311  15.839  1.00  0.00     0.209 HD
ENDBRANCH  17  18
ENDBRANCH  13  17
BRANCH  14  20
HETATM   20  O6  UNL     1       8.294  10.507  15.219  1.00  0.00    -0.390 OA
HETATM   21  H20 UNL     1       8.183  11.468  15.383  1.00  0.00     0.210 HD
ENDBRANCH  14  20
BRANCH  15  22
HETATM   22  O7  UNL     1       6.676  12.441  13.916  1.00  0.00    -0.390 OA
HETATM   23  H22 UNL     1       6.297  12.987  13.196  1.00  0.00     0.210 HD
ENDBRANCH  15  22
BRANCH  16  24
HETATM   24  O8  UNL     1       5.690  11.686  11.340  1.00  0.00    -0.388 OA
HETATM   25  H24 UNL     1       6.255  11.363  10.608  1.00  0.00     0.210 HD
ENDBRANCH  16  24
ENDBRANCH  10  11
ENDBRANCH   4  10
BRANCH   5  26
HETATM   26  O9  UNL     1       5.187   6.476  10.353  1.00  0.00    -0.393 OA
HETATM   27  H26 UNL     1       5.093   7.203   9.703  1.00  0.00     0.210 HD
ENDBRANCH   5  26
BRANCH   1  28
HETATM   28  C4  UNL     1       0.246   7.869  12.923  1.00  0.00     0.010 C 
HETATM   29  C3  UNL     1      -0.247   9.119  12.831  1.00  0.00     0.003 C 
BRANCH  29  30
HETATM   30  C2  UNL     1      -1.601   9.526  13.333  1.00  0.00     0.136 C 
HETATM   31  C1  UNL     1      -1.941   8.824  14.640  1.00  0.00     0.043 C 
BRANCH  30  32
HETATM   32  O1  UNL     1      -1.557  10.930  13.554  1.00  0.00    -0.392 OA
HETATM   33  H5  UNL     1      -2.451  11.207  13.822  1.00  0.00     0.210 HD
ENDBRANCH  30  32
ENDBRANCH  29  30
ENDBRANCH   1  28
BRANCH   1  34
HETATM   34  O2  UNL     1       2.148   6.475  13.412  1.00  0.00    -0.385 OA
HETATM   35  H8  UNL     1       1.468   5.836  13.680  1.00  0.00     0.211 HD
ENDBRANCH   1  34
TORSDOF 12
ENDMDL
MODEL 7
REMARK minimizedAffinity -6.32831955
REMARK CNNscore 0.438704729
REMARK CNNaffinity 4.53942537
REMARK  12 active torsions:
REMARK  status: ('A' for Active; 'I' for Inactive)
REMARK    1  A    between atoms: C2_2  and  O1_3 
REMARK    2  A    between atoms: C2_2  and  C3_4 
REMARK    3  A    between atoms: C4_5  and  C5_6 
REMARK    4  A    between atoms: C5_6  and  O2_7 
REMARK    5  A    between atoms: C8_10  and  O3_11 
REMARK    6  A    between atoms: O3_11  and  C9_12 
REMARK    7  A    between atoms: C10_14  and  C11_15 
REMARK    8  A    between atoms: C11_15  and  O5_16 
REMARK    9  A    between atoms: C12_17  and  O6_18 
REMARK   10  A    between atoms: C13_19  and  O7_20 
REMARK   11  A    between atoms: C14_21  and  O8_22 
REMARK   12  A    between atoms: C15_23  and  O9_24 
ROOT
HETATM    1  C5  UNL     1      -4.156   6.997  14.755  1.00  0.00     0.088 C 
HETATM    2  C6  UNL     1      -4.303   8.537  14.928  1.00  0.00     0.052 C 
HETATM    3  C7  UNL     1      -5.749   9.001  15.182  1.00  0.00     0.016 C 
HETATM    4  C8  UNL     1      -3.418   9.038  16.099  1.00  0.00     0.160 C 
HETATM    5  C15 UNL     1      -2.096   8.245  16.246  1.00  0.00     0.148 C 
HETATM    6  C16 UNL     1      -1.646   7.642  14.918  1.00  0.00     0.046 C 
HETATM    7  C17 UNL     1      -2.673   6.652  14.293  1.00  0.00    -0.010 C 
HETATM    8  C18 UNL     1      -2.280   5.212  14.704  1.00  0.00     0.018 C 
HETATM    9  C19 UNL     1      -2.486   6.748  12.756  1.00  0.00     0.018 C 
ENDROOT
BRANCH   4  10
HETATM   10  O3  UNL     1      -3.105  10.426  15.862  1.00  0.00    -0.350 OA
BRANCH  10  11
HETATM   11  C9  UNL     1      -3.783  11.295  16.779  1.00  0.00     0.292 C 
HETATM   12  O4  UNL     1      -4.516  12.265  16.031  1.00  0.00    -0.348 OA
HETATM   13  C10 UNL     1      -5.208  13.203  16.862  1.00  0.00     0.179 C 
HETATM   14  C12 UNL     1      -4.204  13.999  17.710  1.00  0.00     0.180 C 
HETATM   15  C13 UNL     1      -3.376  13.029  18.555  1.00  0.00     0.183 C 
HETATM   16  C14 UNL     1      -2.720  11.963  17.678  1.00  0.00     0.204 C 
BRANCH  13  17
HETATM   17  C11 UNL     1      -6.042  14.137  15.976  1.00  0.00     0.198 C 
BRANCH  17  18
HETATM   18  O5  UNL     1      -5.580  14.149  14.628  1.00  0.00    -0.398 OA
HETATM   19  H18 UNL     1      -5.403  13.215  14.379  1.00  0.00     0.209 HD
ENDBRANCH  17  18
ENDBRANCH  13  17
BRANCH  14  20
HETATM   20  O6  UNL     1      -4.874  14.930  18.570  1.00  0.00    -0.390 OA
HETATM   21  H20 UNL     1      -4.188  15.221  19.208  1.00  0.00     0.210 HD
ENDBRANCH  14  20
BRANCH  15  22
HETATM   22  O7  UNL     1      -2.382  13.771  19.278  1.00  0.00    -0.390 OA
HETATM   23  H22 UNL     1      -1.733  13.106  19.588  1.00  0.00     0.210 HD
ENDBRANCH  15  22
BRANCH  16  24
HETATM   24  O8  UNL     1      -2.047  11.028  18.544  1.00  0.00    -0.388 OA
HETATM   25  H24 UNL     1      -2.678  10.316  18.775  1.00  0.00     0.210 HD
ENDBRANCH  16  24
ENDBRANCH  10  11
ENDBRANCH   4  10
BRANCH   5  26
HETATM   26  O9  UNL     1      -1.051   9.104  16.733  1.00  0.00    -0.393 OA
HETATM   27  H26 UNL     1      -0.916   9.757  16.016  1.00  0.00     0.210 HD
ENDBRANCH   5  26
BRANCH   1  28
HETATM   28  C4  UNL     1      -5.204   6.439  13.800  1.00  0.00     0.010 C 
HETATM   29  C3  UNL     1      -5.962   5.335  13.943  1.00  0.00     0.003 C 
BRANCH  29  30
HETATM   30  C2  UNL     1      -6.999   4.894  12.952  1.00  0.00     0.136 C 
HETATM   31  C1  UNL     1      -7.660   3.594  13.384  1.00  0.00     0.043 C 
BRANCH  30  32
HETATM   32  O1  UNL     1      -7.981   5.922  12.894  1.00  0.00    -0.392 OA
HETATM   33  H5  UNL     1      -8.622   5.668  12.208  1.00  0.00     0.210 HD
ENDBRANCH  30  32
ENDBRANCH  29  30
ENDBRANCH   1  28
BRANCH   1  34
HETATM   34  O2  UNL     1      -4.375   6.442  16.061  1.00  0.00    -0.385 OA
HETATM   35  H8  UNL     1      -4.453   5.478  15.971  1.00  0.00     0.211 HD
ENDBRANCH   1  34
TORSDOF 12
ENDMDL
MODEL 8
REMARK minimizedAffinity -6.41295242
REMARK CNNscore 0.435835898
REMARK CNNaffinity 3.84977913
REMARK  12 active torsions:
REMARK  status: ('A' for Active; 'I' for Inactive)
REMARK    1  A    between atoms: C2_2  and  O1_3 
REMARK    2  A    between atoms: C2_2  and  C3_4 
REMARK    3  A    between atoms: C4_5  and  C5_6 
REMARK    4  A    between atoms: C5_6  and  O2_7 
REMARK    5  A    between atoms: C8_10  and  O3_11 
REMARK    6  A    between atoms: O3_11  and  C9_12 
REMARK    7  A    between atoms: C10_14  and  C11_15 
REMARK    8  A    between atoms: C11_15  and  O5_16 
REMARK    9  A    between atoms: C12_17  and  O6_18 
REMARK   10  A    between atoms: C13_19  and  O7_20 
REMARK   11  A    between atoms: C14_21  and  O8_22 
REMARK   12  A    between atoms: C15_23  and  O9_24 
ROOT
HETATM    1  C5  UNL     1       2.474  13.742  -3.592  1.00  0.00     0.088 C 
HETATM    2  C6  UNL     1       2.012  14.388  -2.253  1.00  0.00     0.052 C 
HETATM    3  C7  UNL     1       0.523  14.161  -1.932  1.00  0.00     0.016 C 
HETATM    4  C8  UNL     1       2.854  13.843  -1.070  1.00  0.00     0.160 C 
HETATM    5  C15 UNL     1       4.323  13.541  -1.455  1.00  0.00     0.148 C 
HETATM    6  C16 UNL     1       4.791  14.404  -2.624  1.00  0.00     0.046 C 
HETATM    7  C17 UNL     1       3.958  14.211  -3.926  1.00  0.00    -0.010 C 
HETATM    8  C18 UNL     1       4.682  13.179  -4.825  1.00  0.00     0.018 C 
HETATM    9  C19 UNL     1       4.004  15.570  -4.673  1.00  0.00     0.018 C 
ENDROOT
BRANCH   4  10
HETATM   10  O3  UNL     1       2.841  14.831  -0.019  1.00  0.00    -0.350 OA
BRANCH  10  11
HETATM   11  C9  UNL     1       2.715  14.235   1.279  1.00  0.00     0.292 C 
HETATM   12  O4  UNL     1       1.334  13.968   1.525  1.00  0.00    -0.348 OA
HETATM   13  C10 UNL     1       1.099  13.396   2.816  1.00  0.00     0.179 C 
HETATM   14  C12 UNL     1       1.539  14.375   3.916  1.00  0.00     0.180 C 
HETATM   15  C13 UNL     1       3.020  14.710   3.730  1.00  0.00     0.183 C 
HETATM   16  C14 UNL     1       3.291  15.224   2.316  1.00  0.00     0.204 C 
BRANCH  13  17
HETATM   17  C11 UNL     1      -0.391  13.054   2.949  1.00  0.00     0.198 C 
BRANCH  17  18
HETATM   18  O5  UNL     1      -0.664  11.705   2.581  1.00  0.00    -0.398 OA
HETATM   19  H18 UNL     1       0.036  11.150   2.990  1.00  0.00     0.209 HD
ENDBRANCH  17  18
ENDBRANCH  13  17
BRANCH  14  20
HETATM   20  O6  UNL     1       1.336  13.816   5.220  1.00  0.00    -0.390 OA
HETATM   21  H20 UNL     1       1.836  14.403   5.826  1.00  0.00     0.210 HD
ENDBRANCH  14  20
BRANCH  15  22
HETATM   22  O7  UNL     1       3.403  15.692   4.706  1.00  0.00    -0.390 OA
HETATM   23  H22 UNL     1       4.256  16.055   4.391  1.00  0.00     0.210 HD
ENDBRANCH  15  22
BRANCH  16  24
HETATM   24  O8  UNL     1       4.712  15.419   2.178  1.00  0.00    -0.388 OA
HETATM   25  H24 UNL     1       5.105  14.585   1.850  1.00  0.00     0.210 HD
ENDBRANCH  16  24
ENDBRANCH  10  11
ENDBRANCH   4  10
BRANCH   5  26
HETATM   26  O9  UNL     1       5.191  13.782  -0.335  1.00  0.00    -0.393 OA
HETATM   27  H26 UNL     1       5.128  14.746  -0.178  1.00  0.00     0.210 HD
ENDBRANCH   5  26
BRANCH   1  28
HETATM   28  C4  UNL     1       1.503  14.049  -4.726  1.00  0.00     0.010 C 
HETATM   29  C3  UNL     1       0.414  13.353  -5.104  1.00  0.00     0.003 C 
BRANCH  29  30
HETATM   30  C2  UNL     1      -0.502  13.768  -6.218  1.00  0.00     0.136 C 
HETATM   31  C1  UNL     1       0.279  14.139  -7.469  1.00  0.00     0.043 C 
BRANCH  30  32
HETATM   32  O1  UNL     1      -1.341  12.655  -6.503  1.00  0.00    -0.392 OA
HETATM   33  H5  UNL     1      -1.976  12.940  -7.182  1.00  0.00     0.210 HD
ENDBRANCH  30  32
ENDBRANCH  29  30
ENDBRANCH   1  28
BRANCH   1  34
HETATM   34  O2  UNL     1       2.478  12.327  -3.354  1.00  0.00    -0.385 OA
HETATM   35  H8  UNL     1       2.603  11.877  -4.206  1.00  0.00     0.211 HD
ENDBRANCH   1  34
TORSDOF 12
ENDMDL
MODEL 9
REMARK minimizedAffinity -6.74090195
REMARK CNNscore 0.430873483
REMARK CNNaffinity 4.41709852
REMARK  12 active torsions:
REMARK  status: ('A' for Active; 'I' for Inactive)
REMARK    1  A    between atoms: C2_2  and  O1_3 
REMARK    2  A    between atoms: C2_2  and  C3_4 
REMARK    3  A    between atoms: C4_5  and  C5_6 
REMARK    4  A    between atoms: C5_6  and  O2_7 
REMARK    5  A    between atoms: C8_10  and  O3_11 
REMARK    6  A    between atoms: O3_11  and  C9_12 
REMARK    7  A    between atoms: C10_14  and  C11_15 
REMARK    8  A    between atoms: C11_15  and  O5_16 
REMARK    9  A    between atoms: C12_17  and  O6_18 
REMARK   10  A    between atoms: C13_19  and  O7_20 
REMARK   11  A    between atoms: C14_21  and  O8_22 
REMARK   12  A    between atoms: C15_23  and  O9_24 
ROOT
HETATM    1  C5  UNL     1      -3.177 -12.121   3.679  1.00  0.00     0.088 C 
HETATM    2  C6  UNL     1      -4.414 -12.168   4.622  1.00  0.00     0.052 C 
HETATM    3  C7  UNL     1      -4.682 -13.557   5.230  1.00  0.00     0.016 C 
HETATM    4  C8  UNL     1      -4.251 -11.151   5.782  1.00  0.00     0.160 C 
HETATM    5  C15 UNL     1      -3.496  -9.865   5.364  1.00  0.00     0.148 C 
HETATM    6  C16 UNL     1      -3.653  -9.575   3.874  1.00  0.00     0.046 C 
HETATM    7  C17 UNL     1      -3.117 -10.708   2.949  1.00  0.00    -0.010 C 
HETATM    8  C18 UNL     1      -1.668 -10.356   2.530  1.00  0.00     0.018 C 
HETATM    9  C19 UNL     1      -3.982 -10.660   1.662  1.00  0.00     0.018 C 
ENDROOT
BRANCH   4  10
HETATM   10  O3  UNL     1      -5.567 -10.788   6.248  1.00  0.00    -0.350 OA
BRANCH  10  11
HETATM   11  C9  UNL     1      -5.517  -9.811   7.296  1.00  0.00     0.292 C 
HETATM   12  O4  UNL     1      -5.166 -10.466   8.514  1.00  0.00    -0.348 OA
HETATM   13  C10 UNL     1      -5.118  -9.574   9.633  1.00  0.00     0.179 C 
HETATM   14  C12 UNL     1      -6.503  -8.955   9.874  1.00  0.00     0.180 C 
HETATM   15  C13 UNL     1      -6.956  -8.221   8.611  1.00  0.00     0.183 C 
HETATM   16  C14 UNL     1      -6.907  -9.146   7.395  1.00  0.00     0.204 C 
BRANCH  13  17
HETATM   17  C11 UNL     1      -4.638 -10.347  10.869  1.00  0.00     0.198 C 
BRANCH  17  18
HETATM   18  O5  UNL     1      -3.941  -9.507  11.786  1.00  0.00    -0.398 OA
HETATM   19  H18 UNL     1      -4.457  -8.675  11.860  1.00  0.00     0.209 HD
ENDBRANCH  17  18
ENDBRANCH  13  17
BRANCH  14  20
HETATM   20  O6  UNL     1      -6.478  -8.039  10.976  1.00  0.00    -0.390 OA
HETATM   21  H20 UNL     1      -7.324  -7.545  10.912  1.00  0.00     0.210 HD
ENDBRANCH  14  20
BRANCH  15  22
HETATM   22  O7  UNL     1      -8.287  -7.721   8.812  1.00  0.00    -0.390 OA
HETATM   23  H22 UNL     1      -8.620  -7.496   7.919  1.00  0.00     0.210 HD
ENDBRANCH  15  22
BRANCH  16  24
HETATM   24  O8  UNL     1      -7.242  -8.366   6.229  1.00  0.00    -0.388 OA
HETATM   25  H24 UNL     1      -6.414  -7.993   5.862  1.00  0.00     0.210 HD
ENDBRANCH  16  24
ENDBRANCH  10  11
ENDBRANCH   4  10
BRANCH   5  26
HETATM   26  O9  UNL     1      -3.989  -8.735   6.103  1.00  0.00    -0.393 OA
HETATM   27  H26 UNL     1      -4.916  -8.633   5.805  1.00  0.00     0.210 HD
ENDBRANCH   5  26
BRANCH   1  28
HETATM   28  C4  UNL     1      -3.180 -13.281   2.692  1.00  0.00     0.010 C 
HETATM   29  C3  UNL     1      -2.138 -13.819   2.030  1.00  0.00     0.003 C 
BRANCH  29  30
HETATM   30  C2  UNL     1      -2.248 -14.995   1.104  1.00  0.00     0.136 C 
HETATM   31  C1  UNL     1      -2.476 -16.286   1.875  1.00  0.00     0.043 C 
BRANCH  30  32
HETATM   32  O1  UNL     1      -3.364 -14.752   0.256  1.00  0.00    -0.392 OA
HETATM   33  H5  UNL     1      -3.401 -15.483  -0.385  1.00  0.00     0.210 HD
ENDBRANCH  30  32
ENDBRANCH  29  30
ENDBRANCH   1  28
BRANCH   1  34
HETATM   34  O2  UNL     1      -2.034 -12.246   4.539  1.00  0.00    -0.385 OA
HETATM   35  H8  UNL     1      -1.250 -12.383   3.983  1.00  0.00     0.211 HD
ENDBRANCH   1  34
TORSDOF 12
ENDMDL
