MODEL 1
REMARK minimizedAffinity -8.75889206
REMARK  7 active torsions:
REMARK  status: ('A' for Active; 'I' for Inactive)
REMARK    1  A    between atoms: C2_2  and  C4_4 
REMARK    2  A    between atoms: C7_7  and  O1_9 
REMARK    3  A    between atoms: C9_10  and  C10_11 
REMARK    4  A    between atoms: C11_12  and  C12_13 
REMARK    5  A    between atoms: C14_15  and  C15_16 
REMARK    6  A    between atoms: C24_26  and  C26_28 
REMARK    7  A    between atoms: C29_32  and  O4_34 
ROOT
HETATM    1  C15 UNL     1       0.065   6.041  10.969  1.00  0.00     0.149 C 
HETATM    2  C16 UNL     1       1.356   5.802  11.752  1.00  0.00     0.054 C 
HETATM    3  C17 UNL     1       2.316   6.915  11.284  1.00  0.00     0.050 C 
HETATM    4  C18 UNL     1       1.259   8.040  11.123  1.00  0.00     0.272 C 
HETATM    5  O2  UNL     1       0.870   8.658  12.346  1.00  0.00    -0.360 OA
HETATM    6  C19 UNL     1       1.684   9.750  12.723  1.00  0.00     0.171 C 
HETATM    7  C20 UNL     1       2.799   9.306  13.654  1.00  0.00     0.027 C 
HETATM    8  C21 UNL     1       3.049   7.801  13.682  1.00  0.00     0.012 C 
HETATM    9  C22 UNL     1       3.461   7.145  12.345  1.00  0.00     0.032 C 
HETATM   10  C23 UNL     1       4.731   7.805  11.764  1.00  0.00    -0.066 C 
HETATM   11  C24 UNL     1       5.979   7.669  12.279  1.00  0.00    -0.021 C 
HETATM   12  C25 UNL     1       7.210   8.327  11.721  1.00  0.00     0.052 C 
HETATM   13  C27 UNL     1       4.480   8.602  10.508  1.00  0.00     0.038 C 
HETATM   14  C28 UNL     1       3.871   7.749   9.398  1.00  0.00     0.042 C 
HETATM   15  C29 UNL     1       2.996   6.570   9.890  1.00  0.00     0.067 C 
HETATM   16  C30 UNL     1       3.840   5.275   9.923  1.00  0.00     0.047 C 
HETATM   17  O5  UNL     1       0.067   7.425  10.610  1.00  0.00    -0.351 OA
ENDROOT
BRANCH   1  18
HETATM   18  C14 UNL     1      -1.173   5.671  11.750  1.00  0.00     0.011 C 
HETATM   19  C12 UNL     1      -1.755   4.459  11.883  1.00  0.00    -0.064 C 
HETATM   20  C13 UNL     1      -1.176   3.197  11.296  1.00  0.00     0.048 C 
BRANCH  19  21
HETATM   21  C11 UNL     1      -2.992   4.358  12.662  1.00  0.00     0.003 C 
HETATM   22  C10 UNL     1      -3.529   5.324  13.426  1.00  0.00    -0.018 C 
BRANCH  22  23
HETATM   23  C9  UNL     1      -4.799   5.282  14.269  1.00  0.00     0.050 C 
HETATM   24  C4  UNL     1      -6.151   5.238  13.494  1.00  0.00     0.024 C 
HETATM   25  C5  UNL     1      -6.457   6.727  13.261  1.00  0.00     0.013 C 
HETATM   26  C6  UNL     1      -5.909   7.483  14.471  1.00  0.00     0.039 C 
HETATM   27  C7  UNL     1      -4.970   6.515  15.211  1.00  0.00     0.062 C 
HETATM   28  C8  UNL     1      -3.680   7.204  15.660  1.00  0.00     0.046 C 
BRANCH  24  29
HETATM   29  C2  UNL     1      -7.236   4.420  14.201  1.00  0.00    -0.088 C 
HETATM   30  C1  UNL     1      -7.887   4.788  15.318  1.00  0.00     0.014 C 
HETATM   31  C3  UNL     1      -7.590   3.117  13.526  1.00  0.00     0.043 C 
ENDBRANCH  24  29
BRANCH  27  32
HETATM   32  O1  UNL     1      -5.618   6.070  16.414  1.00  0.00    -0.390 OA
HETATM   33  H14 UNL     1      -5.822   6.852  16.953  1.00  0.00     0.210 HD
ENDBRANCH  27  32
ENDBRANCH  22  23
ENDBRANCH  19  21
ENDBRANCH   1  18
BRANCH  15  34
HETATM   34  O4  UNL     1       2.017   6.342   8.870  1.00  0.00    -0.389 OA
HETATM   35  H44 UNL     1       2.474   6.162   8.031  1.00  0.00     0.210 HD
ENDBRANCH  15  34
BRANCH  11  36
HETATM   36  C26 UNL     1       6.266   6.830  13.483  1.00  0.00     0.265 C 
HETATM   37  O3  UNL     1       6.978   7.187  14.412  1.00  0.00    -0.302 OA
ENDBRANCH  11  36
TORSDOF 7
ENDMDL
MODEL 2
REMARK minimizedAffinity -8.48765945
REMARK  7 active torsions:
REMARK  status: ('A' for Active; 'I' for Inactive)
REMARK    1  A    between atoms: C2_2  and  C4_4 
REMARK    2  A    between atoms: C7_7  and  O1_9 
REMARK    3  A    between atoms: C9_10  and  C10_11 
REMARK    4  A    between atoms: C11_12  and  C12_13 
REMARK    5  A    between atoms: C14_15  and  C15_16 
REMARK    6  A    between atoms: C24_26  and  C26_28 
REMARK    7  A    between atoms: C29_32  and  O4_34 
ROOT
HETATM    1  C15 UNL     1       1.563   8.514  13.712  1.00  0.00     0.149 C 
HETATM    2  C16 UNL     1       2.011   7.211  13.052  1.00  0.00     0.054 C 
HETATM    3  C17 UNL     1       2.149   7.552  11.554  1.00  0.00     0.050 C 
HETATM    4  C18 UNL     1       2.683   8.999  11.723  1.00  0.00     0.272 C 
HETATM    5  O2  UNL     1       4.070   9.077  12.041  1.00  0.00    -0.360 OA
HETATM    6  C19 UNL     1       4.918   9.109  10.911  1.00  0.00     0.171 C 
HETATM    7  C20 UNL     1       5.392   7.714  10.543  1.00  0.00     0.027 C 
HETATM    8  C21 UNL     1       4.595   6.578  11.178  1.00  0.00     0.012 C 
HETATM    9  C22 UNL     1       3.090   6.513  10.830  1.00  0.00     0.032 C 
HETATM   10  C23 UNL     1       2.870   6.423   9.304  1.00  0.00    -0.066 C 
HETATM   11  C24 UNL     1       3.150   5.334   8.544  1.00  0.00    -0.021 C 
HETATM   12  C25 UNL     1       2.951   5.257   7.056  1.00  0.00     0.052 C 
HETATM   13  C27 UNL     1       2.255   7.664   8.706  1.00  0.00     0.038 C 
HETATM   14  C28 UNL     1       0.903   7.995   9.335  1.00  0.00     0.042 C 
HETATM   15  C29 UNL     1       0.745   7.548  10.810  1.00  0.00     0.067 C 
HETATM   16  C30 UNL     1       0.025   6.182  10.863  1.00  0.00     0.047 C 
HETATM   17  O5  UNL     1       2.001   9.569  12.851  1.00  0.00    -0.351 OA
ENDROOT
BRANCH   1  18
HETATM   18  C14 UNL     1       2.105   8.680  15.112  1.00  0.00     0.011 C 
HETATM   19  C12 UNL     1       1.776   9.607  16.039  1.00  0.00    -0.064 C 
HETATM   20  C13 UNL     1       0.693  10.634  15.830  1.00  0.00     0.048 C 
BRANCH  19  21
HETATM   21  C11 UNL     1       2.481   9.594  17.324  1.00  0.00     0.003 C 
HETATM   22  C10 UNL     1       2.211  10.373  18.384  1.00  0.00    -0.018 C 
BRANCH  22  23
HETATM   23  C9  UNL     1       2.908  10.420  19.739  1.00  0.00     0.050 C 
HETATM   24  C4  UNL     1       2.001  10.656  20.984  1.00  0.00     0.024 C 
HETATM   25  C5  UNL     1       1.928  12.189  21.065  1.00  0.00     0.013 C 
HETATM   26  C6  UNL     1       3.272  12.721  20.570  1.00  0.00     0.039 C 
HETATM   27  C7  UNL     1       3.976  11.552  19.858  1.00  0.00     0.062 C 
HETATM   28  C8  UNL     1       4.636  11.996  18.551  1.00  0.00     0.046 C 
BRANCH  24  29
HETATM   29  C2  UNL     1       2.486   9.928  22.242  1.00  0.00    -0.088 C 
HETATM   30  C1  UNL     1       2.527   8.594  22.403  1.00  0.00     0.014 C 
HETATM   31  C3  UNL     1       2.982  10.829  23.347  1.00  0.00     0.043 C 
ENDBRANCH  24  29
BRANCH  27  32
HETATM   32  O1  UNL     1       5.041  11.074  20.695  1.00  0.00    -0.390 OA
HETATM   33  H14 UNL     1       5.651  11.813  20.858  1.00  0.00     0.210 HD
ENDBRANCH  27  32
ENDBRANCH  22  23
ENDBRANCH  19  21
ENDBRANCH   1  18
BRANCH  15  34
HETATM   34  O4  UNL     1      -0.172   8.469  11.412  1.00  0.00    -0.389 OA
HETATM   35  H44 UNL     1      -1.006   8.455  10.911  1.00  0.00     0.210 HD
ENDBRANCH  15  34
BRANCH  11  36
HETATM   36  C26 UNL     1       3.697   4.068   9.122  1.00  0.00     0.265 C 
HETATM   37  O3  UNL     1       4.774   3.582   8.806  1.00  0.00    -0.302 OA
ENDBRANCH  11  36
TORSDOF 7
ENDMDL
MODEL 3
REMARK minimizedAffinity -8.48284721
REMARK  7 active torsions:
REMARK  status: ('A' for Active; 'I' for Inactive)
REMARK    1  A    between atoms: C2_2  and  C4_4 
REMARK    2  A    between atoms: C7_7  and  O1_9 
REMARK    3  A    between atoms: C9_10  and  C10_11 
REMARK    4  A    between atoms: C11_12  and  C12_13 
REMARK    5  A    between atoms: C14_15  and  C15_16 
REMARK    6  A    between atoms: C24_26  and  C26_28 
REMARK    7  A    between atoms: C29_32  and  O4_34 
ROOT
HETATM    1  C15 UNL     1       2.795   7.583  11.669  1.00  0.00     0.149 C 
HETATM    2  C16 UNL     1       4.017   7.147  12.476  1.00  0.00     0.054 C 
HETATM    3  C17 UNL     1       4.980   8.350  12.419  1.00  0.00     0.050 C 
HETATM    4  C18 UNL     1       3.909   9.471  12.470  1.00  0.00     0.272 C 
HETATM    5  O2  UNL     1       3.394   9.730  13.773  1.00  0.00    -0.360 OA
HETATM    6  C19 UNL     1       4.137  10.682  14.507  1.00  0.00     0.171 C 
HETATM    7  C20 UNL     1       5.177  10.007  15.382  1.00  0.00     0.027 C 
HETATM    8  C21 UNL     1       5.470   8.552  15.025  1.00  0.00     0.012 C 
HETATM    9  C22 UNL     1       6.019   8.289  13.605  1.00  0.00     0.032 C 
HETATM   10  C23 UNL     1       7.315   9.088  13.347  1.00  0.00    -0.066 C 
HETATM   11  C24 UNL     1       8.516   8.823  13.921  1.00  0.00    -0.021 C 
HETATM   12  C25 UNL     1       9.771   9.614  13.680  1.00  0.00     0.052 C 
HETATM   13  C27 UNL     1       7.152  10.196  12.336  1.00  0.00     0.038 C 
HETATM   14  C28 UNL     1       6.671   9.675  10.984  1.00  0.00     0.042 C 
HETATM   15  C29 UNL     1       5.792   8.401  11.054  1.00  0.00     0.067 C 
HETATM   16  C30 UNL     1       6.669   7.151  10.814  1.00  0.00     0.047 C 
HETATM   17  O5  UNL     1       2.785   9.013  11.700  1.00  0.00    -0.351 OA
ENDROOT
BRANCH   1  18
HETATM   18  C14 UNL     1       1.504   7.009  12.200  1.00  0.00     0.011 C 
HETATM   19  C12 UNL     1       0.303   6.923  11.586  1.00  0.00    -0.064 C 
HETATM   20  C13 UNL     1       0.076   7.346  10.157  1.00  0.00     0.048 C 
BRANCH  19  21
HETATM   21  C11 UNL     1      -0.827   6.361  12.332  1.00  0.00     0.003 C 
HETATM   22  C10 UNL     1      -1.755   7.058  13.008  1.00  0.00    -0.018 C 
BRANCH  22  23
HETATM   23  C9  UNL     1      -2.943   6.540  13.812  1.00  0.00     0.050 C 
HETATM   24  C4  UNL     1      -4.354   6.745  13.183  1.00  0.00     0.024 C 
HETATM   25  C5  UNL     1      -4.743   8.149  13.675  1.00  0.00     0.013 C 
HETATM   26  C6  UNL     1      -4.125   8.316  15.062  1.00  0.00     0.039 C 
HETATM   27  C7  UNL     1      -3.083   7.195  15.221  1.00  0.00     0.062 C 
HETATM   28  C8  UNL     1      -1.790   7.706  15.859  1.00  0.00     0.046 C 
BRANCH  24  29
HETATM   29  C2  UNL     1      -5.336   5.613  13.500  1.00  0.00    -0.088 C 
HETATM   30  C1  UNL     1      -6.477   5.743  14.200  1.00  0.00     0.014 C 
HETATM   31  C3  UNL     1      -4.964   4.268  12.924  1.00  0.00     0.043 C 
ENDBRANCH  24  29
BRANCH  27  32
HETATM   32  O1  UNL     1      -3.603   6.205  16.123  1.00  0.00    -0.390 OA
HETATM   33  H14 UNL     1      -3.792   6.640  16.972  1.00  0.00     0.210 HD
ENDBRANCH  27  32
ENDBRANCH  22  23
ENDBRANCH  19  21
ENDBRANCH   1  18
BRANCH  15  34
HETATM   34  O4  UNL     1       4.915   8.455   9.923  1.00  0.00    -0.389 OA
HETATM   35  H44 UNL     1       5.450   8.513   9.113  1.00  0.00     0.210 HD
ENDBRANCH  15  34
BRANCH  11  36
HETATM   36  C26 UNL     1       8.720   7.689  14.874  1.00  0.00     0.265 C 
HETATM   37  O3  UNL     1       9.509   7.715  15.809  1.00  0.00    -0.302 OA
ENDBRANCH  11  36
TORSDOF 7
ENDMDL
MODEL 4
REMARK minimizedAffinity -8.31990528
REMARK  7 active torsions:
REMARK  status: ('A' for Active; 'I' for Inactive)
REMARK    1  A    between atoms: C2_2  and  C4_4 
REMARK    2  A    between atoms: C7_7  and  O1_9 
REMARK    3  A    between atoms: C9_10  and  C10_11 
REMARK    4  A    between atoms: C11_12  and  C12_13 
REMARK    5  A    between atoms: C14_15  and  C15_16 
REMARK    6  A    between atoms: C24_26  and  C26_28 
REMARK    7  A    between atoms: C29_32  and  O4_34 
ROOT
HETATM    1  C15 UNL     1      -1.609   8.673  14.550  1.00  0.00     0.149 C 
HETATM    2  C16 UNL     1      -0.999   8.763  15.949  1.00  0.00     0.054 C 
HETATM    3  C17 UNL     1      -0.859  10.274  16.224  1.00  0.00     0.050 C 
HETATM    4  C18 UNL     1      -2.153  10.734  15.502  1.00  0.00     0.272 C 
HETATM    5  O2  UNL     1      -3.346  10.537  16.255  1.00  0.00    -0.360 OA
HETATM    6  C19 UNL     1      -3.675  11.617  17.105  1.00  0.00     0.171 C 
HETATM    7  C20 UNL     1      -3.118  11.403  18.502  1.00  0.00     0.027 C 
HETATM    8  C21 UNL     1      -2.042  10.326  18.606  1.00  0.00     0.012 C 
HETATM    9  C22 UNL     1      -0.759  10.551  17.775  1.00  0.00     0.032 C 
HETATM   10  C23 UNL     1      -0.089  11.897  18.130  1.00  0.00    -0.066 C 
HETATM   11  C24 UNL     1       0.554  12.157  19.297  1.00  0.00    -0.021 C 
HETATM   12  C25 UNL     1       1.190  13.473  19.646  1.00  0.00     0.052 C 
HETATM   13  C27 UNL     1      -0.163  12.921  17.025  1.00  0.00     0.038 C 
HETATM   14  C28 UNL     1       0.487  12.424  15.736  1.00  0.00     0.042 C 
HETATM   15  C29 UNL     1       0.430  10.890  15.529  1.00  0.00     0.067 C 
HETATM   16  C30 UNL     1       1.752  10.252  16.011  1.00  0.00     0.047 C 
HETATM   17  O5  UNL     1      -2.298   9.908  14.335  1.00  0.00    -0.351 OA
ENDROOT
BRANCH   1  18
HETATM   18  C14 UNL     1      -2.530   7.489  14.386  1.00  0.00     0.011 C 
HETATM   19  C12 UNL     1      -2.521   6.541  13.422  1.00  0.00    -0.064 C 
HETATM   20  C13 UNL     1      -1.475   6.477  12.339  1.00  0.00     0.048 C 
BRANCH  19  21
HETATM   21  C11 UNL     1      -3.558   5.506  13.448  1.00  0.00     0.003 C 
HETATM   22  C10 UNL     1      -4.863   5.696  13.707  1.00  0.00    -0.018 C 
BRANCH  22  23
HETATM   23  C9  UNL     1      -5.987   4.668  13.763  1.00  0.00     0.050 C 
HETATM   24  C4  UNL     1      -6.696   4.334  12.416  1.00  0.00     0.024 C 
HETATM   25  C5  UNL     1      -7.795   5.405  12.336  1.00  0.00     0.013 C 
HETATM   26  C6  UNL     1      -8.241   5.686  13.770  1.00  0.00     0.039 C 
HETATM   27  C7  UNL     1      -7.170   5.079  14.694  1.00  0.00     0.062 C 
HETATM   28  C8  UNL     1      -6.822   6.014  15.853  1.00  0.00     0.046 C 
BRANCH  24  29
HETATM   29  C2  UNL     1      -7.153   2.875  12.309  1.00  0.00    -0.088 C 
HETATM   30  C1  UNL     1      -8.392   2.426  12.571  1.00  0.00     0.014 C 
HETATM   31  C3  UNL     1      -6.095   1.911  11.831  1.00  0.00     0.043 C 
ENDBRANCH  24  29
BRANCH  27  32
HETATM   32  O1  UNL     1      -7.700   3.886  15.295  1.00  0.00    -0.390 OA
HETATM   33  H14 UNL     1      -8.502   4.127  15.788  1.00  0.00     0.210 HD
ENDBRANCH  27  32
ENDBRANCH  22  23
ENDBRANCH  19  21
ENDBRANCH   1  18
BRANCH  15  34
HETATM   34  O4  UNL     1       0.416  10.676  14.113  1.00  0.00    -0.389 OA
HETATM   35  H44 UNL     1       1.205  11.091  13.724  1.00  0.00     0.210 HD
ENDBRANCH  15  34
BRANCH  11  36
HETATM   36  C26 UNL     1       0.701  11.137  20.380  1.00  0.00     0.265 C 
HETATM   37  O3  UNL     1       1.514  10.223  20.354  1.00  0.00    -0.302 OA
ENDBRANCH  11  36
TORSDOF 7
ENDMDL
MODEL 5
REMARK minimizedAffinity -8.28761864
REMARK  7 active torsions:
REMARK  status: ('A' for Active; 'I' for Inactive)
REMARK    1  A    between atoms: C2_2  and  C4_4 
REMARK    2  A    between atoms: C7_7  and  O1_9 
REMARK    3  A    between atoms: C9_10  and  C10_11 
REMARK    4  A    between atoms: C11_12  and  C12_13 
REMARK    5  A    between atoms: C14_15  and  C15_16 
REMARK    6  A    between atoms: C24_26  and  C26_28 
REMARK    7  A    between atoms: C29_32  and  O4_34 
ROOT
HETATM    1  C15 UNL     1      -0.475   7.043  14.625  1.00  0.00     0.149 C 
HETATM    2  C16 UNL     1       0.201   8.354  14.224  1.00  0.00     0.054 C 
HETATM    3  C17 UNL     1       1.709   8.030  14.194  1.00  0.00     0.050 C 
HETATM    4  C18 UNL     1       1.594   6.582  13.650  1.00  0.00     0.272 C 
HETATM    5  O2  UNL     1       1.377   6.499  12.245  1.00  0.00    -0.360 OA
HETATM    6  C19 UNL     1       2.565   6.480  11.479  1.00  0.00     0.171 C 
HETATM    7  C20 UNL     1       2.950   7.879  11.031  1.00  0.00     0.027 C 
HETATM    8  C21 UNL     1       2.247   9.008  11.780  1.00  0.00     0.012 C 
HETATM    9  C22 UNL     1       2.486   9.077  13.305  1.00  0.00     0.032 C 
HETATM   10  C23 UNL     1       3.991   9.184  13.633  1.00  0.00    -0.066 C 
HETATM   11  C24 UNL     1       4.756  10.282  13.407  1.00  0.00    -0.021 C 
HETATM   12  C25 UNL     1       6.225  10.377  13.712  1.00  0.00     0.052 C 
HETATM   13  C27 UNL     1       4.557   7.951  14.291  1.00  0.00     0.038 C 
HETATM   14  C28 UNL     1       3.838   7.613  15.595  1.00  0.00     0.042 C 
HETATM   15  C29 UNL     1       2.351   8.043  15.647  1.00  0.00     0.067 C 
HETATM   16  C30 UNL     1       2.230   9.409  16.360  1.00  0.00     0.047 C 
HETATM   17  O5  UNL     1       0.427   5.999  14.251  1.00  0.00    -0.351 OA
ENDROOT
BRANCH   1  18
HETATM   18  C14 UNL     1      -1.830   6.861  13.986  1.00  0.00     0.011 C 
HETATM   19  C12 UNL     1      -3.024   7.351  14.386  1.00  0.00    -0.064 C 
HETATM   20  C13 UNL     1      -3.183   8.276  15.566  1.00  0.00     0.048 C 
BRANCH  19  21
HETATM   21  C11 UNL     1      -4.221   6.994  13.619  1.00  0.00     0.003 C 
HETATM   22  C10 UNL     1      -5.062   5.981  13.888  1.00  0.00    -0.018 C 
BRANCH  22  23
HETATM   23  C9  UNL     1      -6.311   5.548  13.128  1.00  0.00     0.050 C 
HETATM   24  C4  UNL     1      -7.670   5.696  13.877  1.00  0.00     0.024 C 
HETATM   25  C5  UNL     1      -7.781   4.369  14.644  1.00  0.00     0.013 C 
HETATM   26  C6  UNL     1      -7.117   3.301  13.776  1.00  0.00     0.039 C 
HETATM   27  C7  UNL     1      -6.301   4.045  12.705  1.00  0.00     0.062 C 
HETATM   28  C8  UNL     1      -4.924   3.413  12.496  1.00  0.00     0.046 C 
BRANCH  24  29
HETATM   29  C2  UNL     1      -8.841   6.053  12.955  1.00  0.00    -0.088 C 
HETATM   30  C1  UNL     1      -8.852   5.912  11.619  1.00  0.00     0.014 C 
HETATM   31  C3  UNL     1     -10.072   6.566  13.662  1.00  0.00     0.043 C 
ENDBRANCH  24  29
BRANCH  27  32
HETATM   32  O1  UNL     1      -6.981   3.933  11.444  1.00  0.00    -0.390 OA
HETATM   33  H14 UNL     1      -7.070   2.989  11.233  1.00  0.00     0.210 HD
ENDBRANCH  27  32
ENDBRANCH  22  23
ENDBRANCH  19  21
ENDBRANCH   1  18
BRANCH  15  34
HETATM   34  O4  UNL     1       1.695   7.116  16.520  1.00  0.00    -0.389 OA
HETATM   35  H44 UNL     1       2.135   7.136  17.387  1.00  0.00     0.210 HD
ENDBRANCH  15  34
BRANCH  11  36
HETATM   36  C26 UNL     1       4.205  11.541  12.819  1.00  0.00     0.265 C 
HETATM   37  O3  UNL     1       4.816  12.256  12.036  1.00  0.00    -0.302 OA
ENDBRANCH  11  36
TORSDOF 7
ENDMDL
MODEL 6
REMARK minimizedAffinity -8.17379284
REMARK  7 active torsions:
REMARK  status: ('A' for Active; 'I' for Inactive)
REMARK    1  A    between atoms: C2_2  and  C4_4 
REMARK    2  A    between atoms: C7_7  and  O1_9 
REMARK    3  A    between atoms: C9_10  and  C10_11 
REMARK    4  A    between atoms: C11_12  and  C12_13 
REMARK    5  A    between atoms: C14_15  and  C15_16 
REMARK    6  A    between atoms: C24_26  and  C26_28 
REMARK    7  A    between atoms: C29_32  and  O4_34 
ROOT
HETATM    1  C15 UNL     1      -1.212   7.329  14.331  1.00  0.00     0.149 C 
HETATM    2  C16 UNL     1      -0.614   7.727  15.680  1.00  0.00     0.054 C 
HETATM    3  C17 UNL     1       0.355   8.883  15.358  1.00  0.00     0.050 C 
HETATM    4  C18 UNL     1      -0.482   9.543  14.232  1.00  0.00     0.272 C 
HETATM    5  O2  UNL     1      -1.558  10.352  14.700  1.00  0.00    -0.360 OA
HETATM    6  C19 UNL     1      -1.201  11.697  14.949  1.00  0.00     0.171 C 
HETATM    7  C20 UNL     1      -0.816  11.900  16.403  1.00  0.00     0.027 C 
HETATM    8  C21 UNL     1      -0.523  10.616  17.175  1.00  0.00     0.012 C 
HETATM    9  C22 UNL     1       0.641   9.746  16.648  1.00  0.00     0.032 C 
HETATM   10  C23 UNL     1       1.959  10.549  16.588  1.00  0.00    -0.066 C 
HETATM   11  C24 UNL     1       2.673  10.947  17.671  1.00  0.00    -0.021 C 
HETATM   12  C25 UNL     1       3.946  11.744  17.609  1.00  0.00     0.052 C 
HETATM   13  C27 UNL     1       2.436  10.825  15.184  1.00  0.00     0.038 C 
HETATM   14  C28 UNL     1       2.657   9.541  14.389  1.00  0.00     0.042 C 
HETATM   15  C29 UNL     1       1.746   8.357  14.799  1.00  0.00     0.067 C 
HETATM   16  C30 UNL     1       2.500   7.441  15.790  1.00  0.00     0.047 C 
HETATM   17  O5  UNL     1      -1.100   8.480  13.490  1.00  0.00    -0.351 OA
ENDROOT
BRANCH   1  18
HETATM   18  C14 UNL     1      -2.643   6.858  14.439  1.00  0.00     0.011 C 
HETATM   19  C12 UNL     1      -3.295   5.961  13.667  1.00  0.00    -0.064 C 
HETATM   20  C13 UNL     1      -2.628   5.187  12.559  1.00  0.00     0.048 C 
BRANCH  19  21
HETATM   21  C11 UNL     1      -4.712   5.701  13.941  1.00  0.00     0.003 C 
HETATM   22  C10 UNL     1      -5.718   5.780  13.054  1.00  0.00    -0.018 C 
BRANCH  22  23
HETATM   23  C9  UNL     1      -7.207   5.537  13.272  1.00  0.00     0.050 C 
HETATM   24  C4  UNL     1      -7.892   6.364  14.402  1.00  0.00     0.024 C 
HETATM   25  C5  UNL     1      -7.654   5.496  15.648  1.00  0.00     0.013 C 
HETATM   26  C6  UNL     1      -7.681   4.041  15.183  1.00  0.00     0.039 C 
HETATM   27  C7  UNL     1      -7.555   4.063  13.650  1.00  0.00     0.062 C 
HETATM   28  C8  UNL     1      -6.589   2.991  13.142  1.00  0.00     0.046 C 
BRANCH  24  29
HETATM   29  C2  UNL     1      -9.346   6.735  14.094  1.00  0.00    -0.088 C 
HETATM   30  C1  UNL     1     -10.273   7.075  15.006  1.00  0.00     0.014 C 
HETATM   31  C3  UNL     1      -9.704   6.739  12.628  1.00  0.00     0.043 C 
ENDBRANCH  24  29
BRANCH  27  32
HETATM   32  O1  UNL     1      -8.833   3.746  13.076  1.00  0.00    -0.390 OA
HETATM   33  H14 UNL     1      -9.100   2.869  13.399  1.00  0.00     0.210 HD
ENDBRANCH  27  32
ENDBRANCH  22  23
ENDBRANCH  19  21
ENDBRANCH   1  18
BRANCH  15  34
HETATM   34  O4  UNL     1       1.572   7.558  13.624  1.00  0.00    -0.389 OA
HETATM   35  H44 UNL     1       2.446   7.281  13.299  1.00  0.00     0.210 HD
ENDBRANCH  15  34
BRANCH  11  36
HETATM   36  C26 UNL     1       2.258  10.627  19.072  1.00  0.00     0.265 C 
HETATM   37  O3  UNL     1       2.584   9.609  19.666  1.00  0.00    -0.302 OA
ENDBRANCH  11  36
TORSDOF 7
ENDMDL
MODEL 7
REMARK minimizedAffinity -8.14217758
REMARK  7 active torsions:
REMARK  status: ('A' for Active; 'I' for Inactive)
REMARK    1  A    between atoms: C2_2  and  C4_4 
REMARK    2  A    between atoms: C7_7  and  O1_9 
REMARK    3  A    between atoms: C9_10  and  C10_11 
REMARK    4  A    between atoms: C11_12  and  C12_13 
REMARK    5  A    between atoms: C14_15  and  C15_16 
REMARK    6  A    between atoms: C24_26  and  C26_28 
REMARK    7  A    between atoms: C29_32  and  O4_34 
ROOT
HETATM    1  C15 UNL     1      -9.812   6.284  13.673  1.00  0.00     0.149 C 
HETATM    2  C16 UNL     1     -10.546   7.451  13.015  1.00  0.00     0.054 C 
HETATM    3  C17 UNL     1     -11.544   7.945  14.083  1.00  0.00     0.050 C 
HETATM    4  C18 UNL     1     -10.648   7.703  15.326  1.00  0.00     0.272 C 
HETATM    5  O2  UNL     1      -9.662   8.709  15.541  1.00  0.00    -0.360 OA
HETATM    6  C19 UNL     1     -10.111   9.797  16.324  1.00  0.00     0.171 C 
HETATM    7  C20 UNL     1     -10.632  10.923  15.448  1.00  0.00     0.027 C 
HETATM    8  C21 UNL     1     -10.922  10.529  14.002  1.00  0.00     0.012 C 
HETATM    9  C22 UNL     1     -11.987   9.430  13.788  1.00  0.00     0.032 C 
HETATM   10  C23 UNL     1     -13.336   9.823  14.430  1.00  0.00    -0.066 C 
HETATM   11  C24 UNL     1     -14.162  10.794  13.963  1.00  0.00    -0.021 C 
HETATM   12  C25 UNL     1     -15.465  11.185  14.601  1.00  0.00     0.052 C 
HETATM   13  C27 UNL     1     -13.703   8.985  15.629  1.00  0.00     0.038 C 
HETATM   14  C28 UNL     1     -13.785   7.500  15.289  1.00  0.00     0.042 C 
HETATM   15  C29 UNL     1     -12.851   7.043  14.140  1.00  0.00     0.067 C 
HETATM   16  C30 UNL     1     -13.639   7.017  12.811  1.00  0.00     0.047 C 
HETATM   17  O5  UNL     1      -9.912   6.494  15.084  1.00  0.00    -0.351 OA
ENDROOT
BRANCH   1  18
HETATM   18  C14 UNL     1      -8.374   6.169  13.230  1.00  0.00     0.011 C 
HETATM   19  C12 UNL     1      -7.621   5.056  13.088  1.00  0.00    -0.064 C 
HETATM   20  C13 UNL     1      -8.162   3.663  13.289  1.00  0.00     0.048 C 
BRANCH  19  21
HETATM   21  C11 UNL     1      -6.219   5.204  12.686  1.00  0.00     0.003 C 
HETATM   22  C10 UNL     1      -5.276   5.899  13.343  1.00  0.00    -0.018 C 
BRANCH  22  23
HETATM   23  C9  UNL     1      -3.810   6.104  12.976  1.00  0.00     0.050 C 
HETATM   24  C4  UNL     1      -2.802   5.041  13.507  1.00  0.00     0.024 C 
HETATM   25  C5  UNL     1      -2.440   5.581  14.899  1.00  0.00     0.013 C 
HETATM   26  C6  UNL     1      -2.478   7.106  14.803  1.00  0.00     0.039 C 
HETATM   27  C7  UNL     1      -3.214   7.450  13.496  1.00  0.00     0.062 C 
HETATM   28  C8  UNL     1      -4.206   8.598  13.686  1.00  0.00     0.046 C 
BRANCH  24  29
HETATM   29  C2  UNL     1      -1.633   4.775  12.552  1.00  0.00    -0.088 C 
HETATM   30  C1  UNL     1      -1.747   4.408  11.264  1.00  0.00     0.014 C 
HETATM   31  C3  UNL     1      -0.263   4.993  13.148  1.00  0.00     0.043 C 
ENDBRANCH  24  29
BRANCH  27  32
HETATM   32  O1  UNL     1      -2.253   7.913  12.533  1.00  0.00    -0.390 OA
HETATM   33  H14 UNL     1      -1.805   8.691  12.905  1.00  0.00     0.210 HD
ENDBRANCH  27  32
ENDBRANCH  22  23
ENDBRANCH  19  21
ENDBRANCH   1  18
BRANCH  15  34
HETATM   34  O4  UNL     1     -12.532   5.672  14.402  1.00  0.00    -0.389 OA
HETATM   35  H44 UNL     1     -13.359   5.162  14.456  1.00  0.00     0.210 HD
ENDBRANCH  15  34
BRANCH  11  36
HETATM   36  C26 UNL     1     -13.854  11.592  12.737  1.00  0.00     0.265 C 
HETATM   37  O3  UNL     1     -14.551  12.510  12.325  1.00  0.00    -0.302 OA
ENDBRANCH  11  36
TORSDOF 7
ENDMDL
MODEL 8
REMARK minimizedAffinity -8.07639122
REMARK  7 active torsions:
REMARK  status: ('A' for Active; 'I' for Inactive)
REMARK    1  A    between atoms: C2_2  and  C4_4 
REMARK    2  A    between atoms: C7_7  and  O1_9 
REMARK    3  A    between atoms: C9_10  and  C10_11 
REMARK    4  A    between atoms: C11_12  and  C12_13 
REMARK    5  A    between atoms: C14_15  and  C15_16 
REMARK    6  A    between atoms: C24_26  and  C26_28 
REMARK    7  A    between atoms: C29_32  and  O4_34 
ROOT
HETATM    1  C15 UNL     1      -2.665  10.538  14.718  1.00  0.00     0.149 C 
HETATM    2  C16 UNL     1      -1.774  10.744  15.942  1.00  0.00     0.054 C 
HETATM    3  C17 UNL     1      -1.852  12.255  16.240  1.00  0.00     0.050 C 
HETATM    4  C18 UNL     1      -3.340  12.462  15.853  1.00  0.00     0.272 C 
HETATM    5  O2  UNL     1      -4.268  12.046  16.851  1.00  0.00    -0.360 OA
HETATM    6  C19 UNL     1      -4.583  13.047  17.797  1.00  0.00     0.171 C 
HETATM    7  C20 UNL     1      -3.687  12.946  19.019  1.00  0.00     0.027 C 
HETATM    8  C21 UNL     1      -2.438  12.090  18.829  1.00  0.00     0.012 C 
HETATM    9  C22 UNL     1      -1.447  12.550  17.736  1.00  0.00     0.032 C 
HETATM   10  C23 UNL     1      -0.970  13.998  17.984  1.00  0.00    -0.066 C 
HETATM   11  C24 UNL     1      -0.132  14.377  18.982  1.00  0.00    -0.021 C 
HETATM   12  C25 UNL     1       0.315  15.791  19.231  1.00  0.00     0.052 C 
HETATM   13  C27 UNL     1      -1.486  14.988  16.969  1.00  0.00     0.038 C 
HETATM   14  C28 UNL     1      -1.074  14.618  15.546  1.00  0.00     0.042 C 
HETATM   15  C29 UNL     1      -0.896  13.100  15.294  1.00  0.00     0.067 C 
HETATM   16  C30 UNL     1       0.596  12.723  15.434  1.00  0.00     0.047 C 
HETATM   17  O5  UNL     1      -3.599  11.620  14.718  1.00  0.00    -0.351 OA
ENDROOT
BRANCH   1  18
HETATM   18  C14 UNL     1      -3.366   9.201  14.720  1.00  0.00     0.011 C 
HETATM   19  C12 UNL     1      -3.029   8.073  15.383  1.00  0.00    -0.064 C 
HETATM   20  C13 UNL     1      -1.870   7.996  16.344  1.00  0.00     0.048 C 
BRANCH  19  21
HETATM   21  C11 UNL     1      -3.848   6.873  15.187  1.00  0.00     0.003 C 
HETATM   22  C10 UNL     1      -5.161   6.847  14.906  1.00  0.00    -0.018 C 
BRANCH  22  23
HETATM   23  C9  UNL     1      -6.072   5.642  14.703  1.00  0.00     0.050 C 
HETATM   24  C4  UNL     1      -6.450   5.291  13.232  1.00  0.00     0.024 C 
HETATM   25  C5  UNL     1      -7.691   6.163  12.984  1.00  0.00     0.013 C 
HETATM   26  C6  UNL     1      -8.436   6.258  14.314  1.00  0.00     0.039 C 
HETATM   27  C7  UNL     1      -7.460   5.777  15.403  1.00  0.00     0.062 C 
HETATM   28  C8  UNL     1      -7.505   6.671  16.644  1.00  0.00     0.046 C 
BRANCH  24  29
HETATM   29  C2  UNL     1      -6.609   3.787  12.982  1.00  0.00    -0.088 C 
HETATM   30  C1  UNL     1      -7.662   3.042  13.359  1.00  0.00     0.014 C 
HETATM   31  C3  UNL     1      -5.478   3.148  12.214  1.00  0.00     0.043 C 
ENDBRANCH  24  29
BRANCH  27  32
HETATM   32  O1  UNL     1      -7.867   4.471  15.844  1.00  0.00    -0.390 OA
HETATM   33  H14 UNL     1      -8.776   4.536  16.182  1.00  0.00     0.210 HD
ENDBRANCH  27  32
ENDBRANCH  22  23
ENDBRANCH  19  21
ENDBRANCH   1  18
BRANCH  15  34
HETATM   34  O4  UNL     1      -1.200  12.884  13.911  1.00  0.00    -0.389 OA
HETATM   35  H44 UNL     1      -0.612  13.439  13.370  1.00  0.00     0.210 HD
ENDBRANCH  15  34
BRANCH  11  36
HETATM   36  C26 UNL     1       0.447  13.406  19.961  1.00  0.00     0.265 C 
HETATM   37  O3  UNL     1       1.155  13.727  20.905  1.00  0.00    -0.302 OA
ENDBRANCH  11  36
TORSDOF 7
ENDMDL
MODEL 9
REMARK minimizedAffinity -8.06418991
REMARK  7 active torsions:
REMARK  status: ('A' for Active; 'I' for Inactive)
REMARK    1  A    between atoms: C2_2  and  C4_4 
REMARK    2  A    between atoms: C7_7  and  O1_9 
REMARK    3  A    between atoms: C9_10  and  C10_11 
REMARK    4  A    between atoms: C11_12  and  C12_13 
REMARK    5  A    between atoms: C14_15  and  C15_16 
REMARK    6  A    between atoms: C24_26  and  C26_28 
REMARK    7  A    between atoms: C29_32  and  O4_34 
ROOT
HETATM    1  C15 UNL     1      -4.934   7.425  15.762  1.00  0.00     0.149 C 
HETATM    2  C16 UNL     1      -4.144   8.010  14.591  1.00  0.00     0.054 C 
HETATM    3  C17 UNL     1      -2.769   7.313  14.652  1.00  0.00     0.050 C 
HETATM    4  C18 UNL     1      -3.268   5.921  15.123  1.00  0.00     0.272 C 
HETATM    5  O2  UNL     1      -3.818   5.114  14.086  1.00  0.00    -0.360 OA
HETATM    6  C19 UNL     1      -2.865   4.322  13.406  1.00  0.00     0.171 C 
HETATM    7  C20 UNL     1      -2.349   5.030  12.166  1.00  0.00     0.027 C 
HETATM    8  C21 UNL     1      -2.641   6.527  12.115  1.00  0.00     0.012 C 
HETATM    9  C22 UNL     1      -2.045   7.386  13.253  1.00  0.00     0.032 C 
HETATM   10  C23 UNL     1      -0.510   7.226  13.331  1.00  0.00    -0.066 C 
HETATM   11  C24 UNL     1       0.367   7.722  12.421  1.00  0.00    -0.021 C 
HETATM   12  C25 UNL     1       1.858   7.550  12.492  1.00  0.00     0.052 C 
HETATM   13  C27 UNL     1      -0.039   6.494  14.562  1.00  0.00     0.038 C 
HETATM   14  C28 UNL     1      -0.483   7.187  15.848  1.00  0.00     0.042 C 
HETATM   15  C29 UNL     1      -1.815   7.972  15.738  1.00  0.00     0.067 C 
HETATM   16  C30 UNL     1      -1.516   9.464  15.468  1.00  0.00     0.047 C 
HETATM   17  O5  UNL     1      -4.348   6.151  16.041  1.00  0.00    -0.351 OA
ENDROOT
BRANCH   1  18
HETATM   18  C14 UNL     1      -6.411   7.306  15.473  1.00  0.00     0.011 C 
HETATM   19  C12 UNL     1      -7.017   6.853  14.354  1.00  0.00    -0.064 C 
HETATM   20  C13 UNL     1      -6.262   6.292  13.176  1.00  0.00     0.048 C 
BRANCH  19  21
HETATM   21  C11 UNL     1      -8.481   6.878  14.291  1.00  0.00     0.003 C 
HETATM   22  C10 UNL     1      -9.294   7.640  15.041  1.00  0.00    -0.018 C 
BRANCH  22  23
HETATM   23  C9  UNL     1     -10.817   7.706  15.037  1.00  0.00     0.050 C 
HETATM   24  C4  UNL     1     -11.513   7.709  13.642  1.00  0.00     0.024 C 
HETATM   25  C5  UNL     1     -11.533   9.201  13.276  1.00  0.00     0.013 C 
HETATM   26  C6  UNL     1     -11.696   9.973  14.585  1.00  0.00     0.039 C 
HETATM   27  C7  UNL     1     -11.394   8.983  15.724  1.00  0.00     0.062 C 
HETATM   28  C8  UNL     1     -10.524   9.614  16.812  1.00  0.00     0.046 C 
BRANCH  24  29
HETATM   29  C2  UNL     1     -12.862   6.983  13.629  1.00  0.00    -0.088 C 
HETATM   30  C1  UNL     1     -13.154   5.868  14.321  1.00  0.00     0.014 C 
HETATM   31  C3  UNL     1     -13.927   7.635  12.781  1.00  0.00     0.043 C 
ENDBRANCH  24  29
BRANCH  27  32
HETATM   32  O1  UNL     1     -12.630   8.625  16.365  1.00  0.00    -0.390 OA
HETATM   33  H14 UNL     1     -13.043   9.439  16.699  1.00  0.00     0.210 HD
ENDBRANCH  27  32
ENDBRANCH  22  23
ENDBRANCH  19  21
ENDBRANCH   1  18
BRANCH  15  34
HETATM   34  O4  UNL     1      -2.405   7.947  17.042  1.00  0.00    -0.389 OA
HETATM   35  H44 UNL     1      -1.779   8.333  17.678  1.00  0.00     0.210 HD
ENDBRANCH  15  34
BRANCH  11  36
HETATM   36  C26 UNL     1      -0.070   8.510  11.228  1.00  0.00     0.265 C 
HETATM   37  O3  UNL     1      -0.074   8.074  10.085  1.00  0.00    -0.302 OA
ENDBRANCH  11  36
TORSDOF 7
ENDMDL
