MODEL 1
REMARK minimizedAffinity -6.86314106
REMARK CNNscore 0.643012226
REMARK CNNaffinity 6.65008593
REMARK  11 active torsions:
REMARK  status: ('A' for Active; 'I' for Inactive)
REMARK    1  A    between atoms: C2_2  and  O1_3 
REMARK    2  A    between atoms: O1_3  and  C3_4 
REMARK    3  A    between atoms: C3_4  and  C4_6 
REMARK    4  A    between atoms: C5_7  and  C6_8 
REMARK    5  A    between atoms: C10_13  and  C11_14 
REMARK    6  A    between atoms: C11_14  and  O4_15 
REMARK    7  A    between atoms: C13_18  and  C14_19 
REMARK    8  A    between atoms: C25_32  and  C26_33 
REMARK    9  A    between atoms: C26_33  and  O7_34 
REMARK   10  A    between atoms: C33_42  and  O9_44 
REMARK   11  A    between atoms: C36_46  and  O10_47 
ROOT
HETATM    1  C4  UNL     1      -9.401  44.061 -22.572  1.00  0.00     0.165 C 
HETATM    2  C5  UNL     1      -9.896  43.831 -23.806  1.00  0.00     0.053 C 
HETATM    3  C7  UNL     1      -9.838  44.933 -24.779  1.00  0.00    -0.002 C 
HETATM    4  C8  UNL     1     -10.841  45.233 -25.652  1.00  0.00    -0.066 C 
HETATM    5  C9  UNL     1     -10.964  46.564 -26.395  1.00  0.00     0.049 C 
HETATM    6  C10 UNL     1     -12.387  47.138 -26.303  1.00  0.00     0.084 C 
HETATM    7  C12 UNL     1     -13.405  46.158 -26.873  1.00  0.00     0.142 C 
HETATM    8  O5  UNL     1     -14.564  46.516 -27.100  1.00  0.00    -0.297 OA
HETATM    9  C13 UNL     1     -12.901  44.741 -27.128  1.00  0.00     0.092 C 
HETATM   10  C22 UNL     1     -12.031  44.312 -25.929  1.00  0.00     0.052 C 
HETATM   11  C23 UNL     1      -8.654  45.830 -24.580  1.00  0.00     0.044 C 
HETATM   12  C24 UNL     1      -8.283  46.047 -23.225  1.00  0.00     0.101 C 
HETATM   13  O6  UNL     1      -8.875  45.309 -22.215  1.00  0.00    -0.302 OA
HETATM   14  C25 UNL     1      -7.268  46.944 -22.860  1.00  0.00     0.034 C 
HETATM   15  C27 UNL     1      -6.582  47.541 -23.902  1.00  0.00     0.090 C 
HETATM   16  O8  UNL     1      -5.508  48.405 -23.730  1.00  0.00    -0.341 OA
HETATM   17  C28 UNL     1      -4.860  48.273 -25.013  1.00  0.00     0.175 C 
HETATM   18  C29 UNL     1      -5.986  48.181 -26.055  1.00  0.00     0.079 C 
HETATM   19  C30 UNL     1      -5.413  47.828 -27.387  1.00  0.00    -0.019 C 
HETATM   20  C31 UNL     1      -4.154  48.178 -27.709  1.00  0.00    -0.027 C 
HETATM   21  C32 UNL     1      -3.203  48.902 -26.768  1.00  0.00     0.067 C 
HETATM   22  C33 UNL     1      -3.846  49.352 -25.423  1.00  0.00     0.085 C 
HETATM   23  C34 UNL     1      -2.779  49.551 -24.348  1.00  0.00     0.049 C 
HETATM   24  C35 UNL     1      -6.860  47.281 -25.253  1.00  0.00     0.021 C 
HETATM   25  C36 UNL     1      -7.865  46.395 -25.601  1.00  0.00     0.091 C 
ENDROOT
BRANCH   2  26
HETATM   26  C6  UNL     1     -10.459  42.501 -24.121  1.00  0.00     0.273 C 
HETATM   27  O3  UNL     1     -11.546  42.139 -23.691  1.00  0.00    -0.301 OA
ENDBRANCH   2  26
BRANCH   1  28
HETATM   28  C3  UNL     1      -9.350  42.999 -21.525  1.00  0.00     0.318 C 
HETATM   29  O2  UNL     1      -8.747  41.941 -21.632  1.00  0.00    -0.257 OA
BRANCH  28  30
HETATM   30  O1  UNL     1     -10.028  43.420 -20.427  1.00  0.00    -0.316 OA
BRANCH  30  31
HETATM   31  C2  UNL     1     -10.897  42.433 -19.856  1.00  0.00     0.175 C 
HETATM   32  C1  UNL     1     -12.281  42.625 -20.449  1.00  0.00     0.034 C 
ENDBRANCH  30  31
ENDBRANCH  28  30
ENDBRANCH   1  28
BRANCH  25  33
HETATM   33  O10 UNL     1      -8.081  46.127 -26.924  1.00  0.00    -0.354 OA
HETATM   34  C37 UNL     1      -8.568  47.289 -27.599  1.00  0.00     0.210 C 
ENDBRANCH  25  33
BRANCH   6  35
HETATM   35  C11 UNL     1     -12.506  48.483 -27.017  1.00  0.00     0.176 C 
BRANCH  35  36
HETATM   36  O4  UNL     1     -11.453  49.359 -26.619  1.00  0.00    -0.400 OA
HETATM   37  H12 UNL     1     -11.439  50.093 -27.260  1.00  0.00     0.209 HD
ENDBRANCH  35  36
ENDBRANCH   6  35
BRANCH   9  38
HETATM   38  C14 UNL     1     -13.990  43.713 -27.403  1.00  0.00    -0.046 A 
HETATM   39  C15 UNL     1     -13.896  42.399 -26.924  1.00  0.00     0.010 A 
HETATM   40  C16 UNL     1     -14.875  41.440 -27.208  1.00  0.00     0.031 A 
HETATM   41  C17 UNL     1     -15.960  41.835 -27.996  1.00  0.00     0.042 A 
HETATM   42  N1  UNL     1     -17.050  41.117 -28.432  1.00  0.00    -0.365 N 
HETATM   43  C20 UNL     1     -16.096  43.130 -28.493  1.00  0.00    -0.008 A 
HETATM   44  C18 UNL     1     -17.870  41.914 -29.189  1.00  0.00     0.089 A 
HETATM   45  H16 UNL     1     -17.217  40.143 -28.220  1.00  0.00     0.165 HD
HETATM   46  C19 UNL     1     -17.305  43.167 -29.244  1.00  0.00     0.030 A 
HETATM   47  C21 UNL     1     -15.097  44.078 -28.195  1.00  0.00     0.021 A 
ENDBRANCH   9  38
BRANCH  14  48
HETATM   48  C26 UNL     1      -6.882  47.202 -21.436  1.00  0.00     0.208 C 
BRANCH  48  49
HETATM   49  O7  UNL     1      -5.511  46.867 -21.244  1.00  0.00    -0.396 OA
HETATM   50  H24 UNL     1      -5.010  47.444 -21.849  1.00  0.00     0.209 HD
ENDBRANCH  48  49
ENDBRANCH  14  48
BRANCH  22  51
HETATM   51  O9  UNL     1      -4.476  50.629 -25.598  1.00  0.00    -0.387 OA
HETATM   52  H34 UNL     1      -4.899  50.648 -26.474  1.00  0.00     0.210 HD
ENDBRANCH  22  51
TORSDOF 11
ENDMDL
MODEL 2
REMARK minimizedAffinity -9.19677639
REMARK CNNscore 0.610590935
REMARK CNNaffinity 7.37404633
REMARK  11 active torsions:
REMARK  status: ('A' for Active; 'I' for Inactive)
REMARK    1  A    between atoms: C2_2  and  O1_3 
REMARK    2  A    between atoms: O1_3  and  C3_4 
REMARK    3  A    between atoms: C3_4  and  C4_6 
REMARK    4  A    between atoms: C5_7  and  C6_8 
REMARK    5  A    between atoms: C10_13  and  C11_14 
REMARK    6  A    between atoms: C11_14  and  O4_15 
REMARK    7  A    between atoms: C13_18  and  C14_19 
REMARK    8  A    between atoms: C25_32  and  C26_33 
REMARK    9  A    between atoms: C26_33  and  O7_34 
REMARK   10  A    between atoms: C33_42  and  O9_44 
REMARK   11  A    between atoms: C36_46  and  O10_47 
ROOT
HETATM    1  C4  UNL     1       0.071  52.172 -20.441  1.00  0.00     0.165 C 
HETATM    2  C5  UNL     1      -1.192  51.745 -20.653  1.00  0.00     0.053 C 
HETATM    3  C7  UNL     1      -1.780  50.837 -19.656  1.00  0.00    -0.002 C 
HETATM    4  C8  UNL     1      -2.556  49.761 -19.969  1.00  0.00    -0.066 C 
HETATM    5  C9  UNL     1      -2.862  48.613 -19.006  1.00  0.00     0.049 C 
HETATM    6  C10 UNL     1      -2.651  47.242 -19.669  1.00  0.00     0.084 C 
HETATM    7  C12 UNL     1      -3.529  47.097 -20.906  1.00  0.00     0.142 C 
HETATM    8  O5  UNL     1      -3.677  45.996 -21.445  1.00  0.00    -0.297 OA
HETATM    9  C13 UNL     1      -4.185  48.375 -21.416  1.00  0.00     0.092 C 
HETATM   10  C22 UNL     1      -3.142  49.511 -21.360  1.00  0.00     0.052 C 
HETATM   11  C23 UNL     1      -1.274  51.084 -18.267  1.00  0.00     0.044 C 
HETATM   12  C24 UNL     1       0.094  51.456 -18.180  1.00  0.00     0.101 C 
HETATM   13  O6  UNL     1       0.809  51.748 -19.329  1.00  0.00    -0.302 OA
HETATM   14  C25 UNL     1       0.752  51.616 -16.952  1.00  0.00     0.034 C 
HETATM   15  C27 UNL     1      -0.034  51.481 -15.821  1.00  0.00     0.090 C 
HETATM   16  O8  UNL     1       0.432  51.669 -14.527  1.00  0.00    -0.341 OA
HETATM   17  C28 UNL     1      -0.806  51.963 -13.845  1.00  0.00     0.175 C 
HETATM   18  C29 UNL     1      -1.866  51.038 -14.463  1.00  0.00     0.079 C 
HETATM   19  C30 UNL     1      -3.221  51.422 -13.969  1.00  0.00    -0.019 C 
HETATM   20  C31 UNL     1      -3.375  51.997 -12.762  1.00  0.00    -0.027 C 
HETATM   21  C32 UNL     1      -2.225  52.344 -11.829  1.00  0.00     0.067 C 
HETATM   22  C33 UNL     1      -0.830  51.847 -12.313  1.00  0.00     0.085 C 
HETATM   23  C34 UNL     1       0.292  52.663 -11.674  1.00  0.00     0.049 C 
HETATM   24  C35 UNL     1      -1.409  51.205 -15.870  1.00  0.00     0.021 C 
HETATM   25  C36 UNL     1      -2.046  51.046 -17.089  1.00  0.00     0.091 C 
ENDROOT
BRANCH   2  26
HETATM   26  C6  UNL     1      -1.917  52.208 -21.855  1.00  0.00     0.273 C 
HETATM   27  O3  UNL     1      -3.133  52.111 -21.955  1.00  0.00    -0.301 OA
ENDBRANCH   2  26
BRANCH   1  28
HETATM   28  C3  UNL     1       0.745  53.143 -21.351  1.00  0.00     0.318 C 
HETATM   29  O2  UNL     1       1.013  54.301 -21.063  1.00  0.00    -0.257 OA
BRANCH  28  30
HETATM   30  O1  UNL     1       1.059  52.521 -22.516  1.00  0.00    -0.316 OA
BRANCH  30  31
HETATM   31  C2  UNL     1       0.834  53.314 -23.688  1.00  0.00     0.175 C 
HETATM   32  C1  UNL     1       0.599  52.374 -24.855  1.00  0.00     0.034 C 
ENDBRANCH  30  31
ENDBRANCH  28  30
ENDBRANCH   1  28
BRANCH  25  33
HETATM   33  O10 UNL     1      -3.394  50.823 -17.105  1.00  0.00    -0.354 OA
HETATM   34  C37 UNL     1      -3.685  49.472 -16.741  1.00  0.00     0.210 C 
ENDBRANCH  25  33
BRANCH   6  35
HETATM   35  C11 UNL     1      -2.925  46.093 -18.700  1.00  0.00     0.176 C 
BRANCH  35  36
HETATM   36  O4  UNL     1      -2.328  46.351 -17.431  1.00  0.00    -0.400 OA
HETATM   37  H12 UNL     1      -2.720  45.720 -16.801  1.00  0.00     0.209 HD
ENDBRANCH  35  36
ENDBRANCH   6  35
BRANCH   9  38
HETATM   38  C14 UNL     1      -4.799  48.271 -22.805  1.00  0.00    -0.046 A 
HETATM   39  C15 UNL     1      -6.144  47.922 -22.988  1.00  0.00     0.010 A 
HETATM   40  C16 UNL     1      -6.703  47.786 -24.264  1.00  0.00     0.031 A 
HETATM   41  C17 UNL     1      -5.868  48.009 -25.363  1.00  0.00     0.042 A 
HETATM   42  N1  UNL     1      -6.139  47.944 -26.711  1.00  0.00    -0.365 N 
HETATM   43  C20 UNL     1      -4.526  48.360 -25.230  1.00  0.00    -0.008 A 
HETATM   44  C18 UNL     1      -5.011  48.240 -27.435  1.00  0.00     0.089 A 
HETATM   45  H16 UNL     1      -7.040  47.711 -27.105  1.00  0.00     0.165 HD
HETATM   46  C19 UNL     1      -3.997  48.503 -26.543  1.00  0.00     0.030 A 
HETATM   47  C21 UNL     1      -3.986  48.490 -23.935  1.00  0.00     0.021 A 
ENDBRANCH   9  38
BRANCH  14  48
HETATM   48  C26 UNL     1       2.199  51.985 -16.844  1.00  0.00     0.208 C 
BRANCH  48  49
HETATM   49  O7  UNL     1       2.319  53.346 -16.443  1.00  0.00    -0.396 OA
HETATM   50  H24 UNL     1       1.880  53.404 -15.574  1.00  0.00     0.209 HD
ENDBRANCH  48  49
ENDBRANCH  14  48
BRANCH  22  51
HETATM   51  O9  UNL     1      -0.630  50.493 -11.882  1.00  0.00    -0.387 OA
HETATM   52  H34 UNL     1      -1.474  50.015 -11.965  1.00  0.00     0.210 HD
ENDBRANCH  22  51
TORSDOF 11
ENDMDL
MODEL 3
REMARK minimizedAffinity -7.18993282
REMARK CNNscore 0.578601599
REMARK CNNaffinity 7.34397125
REMARK  11 active torsions:
REMARK  status: ('A' for Active; 'I' for Inactive)
REMARK    1  A    between atoms: C2_2  and  O1_3 
REMARK    2  A    between atoms: O1_3  and  C3_4 
REMARK    3  A    between atoms: C3_4  and  C4_6 
REMARK    4  A    between atoms: C5_7  and  C6_8 
REMARK    5  A    between atoms: C10_13  and  C11_14 
REMARK    6  A    between atoms: C11_14  and  O4_15 
REMARK    7  A    between atoms: C13_18  and  C14_19 
REMARK    8  A    between atoms: C25_32  and  C26_33 
REMARK    9  A    between atoms: C26_33  and  O7_34 
REMARK   10  A    between atoms: C33_42  and  O9_44 
REMARK   11  A    between atoms: C36_46  and  O10_47 
ROOT
HETATM    1  C4  UNL     1      -0.079  51.655 -16.590  1.00  0.00     0.165 C 
HETATM    2  C5  UNL     1       0.183  51.614 -15.267  1.00  0.00     0.053 C 
HETATM    3  C7  UNL     1      -0.814  50.975 -14.395  1.00  0.00    -0.002 C 
HETATM    4  C8  UNL     1      -1.175  51.455 -13.170  1.00  0.00    -0.066 C 
HETATM    5  C9  UNL     1      -2.442  51.038 -12.424  1.00  0.00     0.049 C 
HETATM    6  C10 UNL     1      -3.213  52.255 -11.886  1.00  0.00     0.084 C 
HETATM    7  C12 UNL     1      -2.338  53.081 -10.952  1.00  0.00     0.142 C 
HETATM    8  O5  UNL     1      -2.833  53.962 -10.243  1.00  0.00    -0.297 OA
HETATM    9  C13 UNL     1      -0.849  52.751 -10.962  1.00  0.00     0.092 C 
HETATM   10  C22 UNL     1      -0.407  52.549 -12.426  1.00  0.00     0.052 C 
HETATM   11  C23 UNL     1      -1.552  49.858 -15.067  1.00  0.00     0.044 C 
HETATM   12  C24 UNL     1      -1.830  50.062 -16.446  1.00  0.00     0.101 C 
HETATM   13  O6  UNL     1      -1.268  51.135 -17.116  1.00  0.00    -0.302 OA
HETATM   14  C25 UNL     1      -2.606  49.166 -17.196  1.00  0.00     0.034 C 
HETATM   15  C27 UNL     1      -3.012  48.019 -16.539  1.00  0.00     0.090 C 
HETATM   16  O8  UNL     1      -3.731  46.994 -17.140  1.00  0.00    -0.341 OA
HETATM   17  C28 UNL     1      -3.403  45.896 -16.262  1.00  0.00     0.175 C 
HETATM   18  C29 UNL     1      -3.380  46.477 -14.839  1.00  0.00     0.079 C 
HETATM   19  C30 UNL     1      -2.840  45.462 -13.888  1.00  0.00    -0.019 C 
HETATM   20  C31 UNL     1      -2.985  44.146 -14.132  1.00  0.00    -0.027 C 
HETATM   21  C32 UNL     1      -3.648  43.577 -15.377  1.00  0.00     0.067 C 
HETATM   22  C33 UNL     1      -4.294  44.645 -16.309  1.00  0.00     0.085 C 
HETATM   23  C34 UNL     1      -4.433  44.114 -17.734  1.00  0.00     0.049 C 
HETATM   24  C35 UNL     1      -2.680  47.740 -15.204  1.00  0.00     0.021 C 
HETATM   25  C36 UNL     1      -1.916  48.633 -14.473  1.00  0.00     0.091 C 
ENDROOT
BRANCH   2  26
HETATM   26  C6  UNL     1       1.444  52.198 -14.764  1.00  0.00     0.273 C 
HETATM   27  O3  UNL     1       2.327  51.507 -14.273  1.00  0.00    -0.301 OA
ENDBRANCH   2  26
BRANCH   1  28
HETATM   28  C3  UNL     1       0.888  52.221 -17.576  1.00  0.00     0.318 C 
HETATM   29  O2  UNL     1       1.989  52.671 -17.295  1.00  0.00    -0.257 OA
BRANCH  28  30
HETATM   30  O1  UNL     1       0.372  52.104 -18.826  1.00  0.00    -0.316 OA
BRANCH  30  31
HETATM   31  C2  UNL     1       0.075  53.354 -19.461  1.00  0.00     0.175 C 
HETATM   32  C1  UNL     1       1.126  53.601 -20.528  1.00  0.00     0.034 C 
ENDBRANCH  30  31
ENDBRANCH  28  30
ENDBRANCH   1  28
BRANCH  25  33
HETATM   33  O10 UNL     1      -1.569  48.311 -13.191  1.00  0.00    -0.354 OA
HETATM   34  C37 UNL     1      -0.245  47.776 -13.148  1.00  0.00     0.210 C 
ENDBRANCH  25  33
BRANCH   6  35
HETATM   35  C11 UNL     1      -4.497  51.843 -11.167  1.00  0.00     0.176 C 
BRANCH  35  36
HETATM   36  O4  UNL     1      -4.213  51.407  -9.840  1.00  0.00    -0.400 OA
HETATM   37  H12 UNL     1      -5.062  51.383  -9.363  1.00  0.00     0.209 HD
ENDBRANCH  35  36
ENDBRANCH   6  35
BRANCH   9  38
HETATM   38  C14 UNL     1       0.038  53.772 -10.264  1.00  0.00    -0.046 A 
HETATM   39  C15 UNL     1      -0.352  54.388  -9.067  1.00  0.00     0.010 A 
HETATM   40  C16 UNL     1       0.443  55.356  -8.443  1.00  0.00     0.031 A 
HETATM   41  C17 UNL     1       1.651  55.697  -9.058  1.00  0.00     0.042 A 
HETATM   42  N1  UNL     1       2.615  56.604  -8.681  1.00  0.00    -0.365 N 
HETATM   43  C20 UNL     1       2.081  55.111 -10.247  1.00  0.00    -0.008 A 
HETATM   44  C18 UNL     1       3.640  56.611  -9.593  1.00  0.00     0.089 A 
HETATM   45  H16 UNL     1       2.569  57.178  -7.850  1.00  0.00     0.165 HD
HETATM   46  C19 UNL     1       3.337  55.696 -10.574  1.00  0.00     0.030 A 
HETATM   47  C21 UNL     1       1.263  54.139 -10.857  1.00  0.00     0.021 A 
ENDBRANCH   9  38
BRANCH  14  48
HETATM   48  C26 UNL     1      -2.927  49.379 -18.643  1.00  0.00     0.208 C 
BRANCH  48  49
HETATM   49  O7  UNL     1      -4.336  49.321 -18.835  1.00  0.00    -0.396 OA
HETATM   50  H24 UNL     1      -4.708  50.038 -18.288  1.00  0.00     0.209 HD
ENDBRANCH  48  49
ENDBRANCH  14  48
BRANCH  22  51
HETATM   51  O9  UNL     1      -5.626  44.928 -15.859  1.00  0.00    -0.387 OA
HETATM   52  H34 UNL     1      -5.629  44.934 -14.885  1.00  0.00     0.210 HD
ENDBRANCH  22  51
TORSDOF 11
ENDMDL
MODEL 4
REMARK minimizedAffinity -7.40949106
REMARK CNNscore 0.517055929
REMARK CNNaffinity 6.82634163
REMARK  11 active torsions:
REMARK  status: ('A' for Active; 'I' for Inactive)
REMARK    1  A    between atoms: C2_2  and  O1_3 
REMARK    2  A    between atoms: O1_3  and  C3_4 
REMARK    3  A    between atoms: C3_4  and  C4_6 
REMARK    4  A    between atoms: C5_7  and  C6_8 
REMARK    5  A    between atoms: C10_13  and  C11_14 
REMARK    6  A    between atoms: C11_14  and  O4_15 
REMARK    7  A    between atoms: C13_18  and  C14_19 
REMARK    8  A    between atoms: C25_32  and  C26_33 
REMARK    9  A    between atoms: C26_33  and  O7_34 
REMARK   10  A    between atoms: C33_42  and  O9_44 
REMARK   11  A    between atoms: C36_46  and  O10_47 
ROOT
HETATM    1  C4  UNL     1       0.749  52.344 -13.351  1.00  0.00     0.165 C 
HETATM    2  C5  UNL     1       1.451  52.253 -12.202  1.00  0.00     0.053 C 
HETATM    3  C7  UNL     1       0.699  52.317 -10.939  1.00  0.00    -0.002 C 
HETATM    4  C8  UNL     1       1.123  52.992  -9.833  1.00  0.00    -0.066 C 
HETATM    5  C9  UNL     1       0.216  53.381  -8.665  1.00  0.00     0.049 C 
HETATM    6  C10 UNL     1       0.405  54.853  -8.262  1.00  0.00     0.084 C 
HETATM    7  C12 UNL     1       1.853  55.128  -7.877  1.00  0.00     0.142 C 
HETATM    8  O5  UNL     1       2.163  56.180  -7.312  1.00  0.00    -0.297 OA
HETATM    9  C13 UNL     1       2.860  54.042  -8.239  1.00  0.00     0.092 C 
HETATM   10  C22 UNL     1       2.541  53.538  -9.662  1.00  0.00     0.052 C 
HETATM   11  C23 UNL     1      -0.680  51.740 -11.047  1.00  0.00     0.044 C 
HETATM   12  C24 UNL     1      -1.336  51.973 -12.286  1.00  0.00     0.101 C 
HETATM   13  O6  UNL     1      -0.639  52.522 -13.349  1.00  0.00    -0.302 OA
HETATM   14  C25 UNL     1      -2.669  51.597 -12.512  1.00  0.00     0.034 C 
HETATM   15  C27 UNL     1      -3.284  50.900 -11.487  1.00  0.00     0.090 C 
HETATM   16  O8  UNL     1      -4.575  50.395 -11.560  1.00  0.00    -0.341 OA
HETATM   17  C28 UNL     1      -4.504  49.354 -10.562  1.00  0.00     0.175 C 
HETATM   18  C29 UNL     1      -3.654  49.919  -9.413  1.00  0.00     0.079 C 
HETATM   19  C30 UNL     1      -3.348  48.838  -8.432  1.00  0.00    -0.019 C 
HETATM   20  C31 UNL     1      -4.189  47.800  -8.269  1.00  0.00    -0.027 C 
HETATM   21  C32 UNL     1      -5.468  47.604  -9.069  1.00  0.00     0.067 C 
HETATM   22  C33 UNL     1      -5.824  48.789 -10.015  1.00  0.00     0.085 C 
HETATM   23  C34 UNL     1      -6.743  48.329 -11.144  1.00  0.00     0.049 C 
HETATM   24  C35 UNL     1      -2.638  50.572 -10.286  1.00  0.00     0.021 C 
HETATM   25  C36 UNL     1      -1.324  50.950 -10.073  1.00  0.00     0.091 C 
ENDROOT
BRANCH   2  26
HETATM   26  C6  UNL     1       2.918  52.087 -12.264  1.00  0.00     0.273 C 
HETATM   27  O3  UNL     1       3.491  51.167 -11.696  1.00  0.00    -0.301 OA
ENDBRANCH   2  26
BRANCH   1  28
HETATM   28  C3  UNL     1       1.398  52.229 -14.690  1.00  0.00     0.318 C 
HETATM   29  O2  UNL     1       0.915  52.633 -15.738  1.00  0.00    -0.257 OA
BRANCH  28  30
HETATM   30  O1  UNL     1       2.621  51.659 -14.547  1.00  0.00    -0.316 OA
BRANCH  30  31
HETATM   31  C2  UNL     1       3.389  51.596 -15.755  1.00  0.00     0.175 C 
HETATM   32  C1  UNL     1       4.074  52.937 -15.948  1.00  0.00     0.034 C 
ENDBRANCH  30  31
ENDBRANCH  28  30
ENDBRANCH   1  28
BRANCH  25  33
HETATM   33  O10 UNL     1      -0.707  50.575  -8.912  1.00  0.00    -0.354 OA
HETATM   34  C37 UNL     1       0.101  49.416  -9.125  1.00  0.00     0.210 C 
ENDBRANCH  25  33
BRANCH   6  35
HETATM   35  C11 UNL     1      -0.522  55.253  -7.116  1.00  0.00     0.176 C 
BRANCH  35  36
HETATM   36  O4  UNL     1      -0.475  56.662  -6.898  1.00  0.00    -0.400 OA
HETATM   37  H12 UNL     1      -1.237  56.886  -6.334  1.00  0.00     0.209 HD
ENDBRANCH  35  36
ENDBRANCH   6  35
BRANCH   9  38
HETATM   38  C14 UNL     1       4.320  54.459  -8.127  1.00  0.00    -0.046 A 
HETATM   39  C15 UNL     1       5.169  54.470  -9.243  1.00  0.00     0.010 A 
HETATM   40  C16 UNL     1       6.521  54.814  -9.137  1.00  0.00     0.031 A 
HETATM   41  C17 UNL     1       7.007  55.146  -7.869  1.00  0.00     0.042 A 
HETATM   42  N1  UNL     1       8.273  55.514  -7.471  1.00  0.00    -0.365 N 
HETATM   43  C20 UNL     1       6.202  55.150  -6.732  1.00  0.00    -0.008 A 
HETATM   44  C18 UNL     1       8.294  55.749  -6.120  1.00  0.00     0.089 A 
HETATM   45  H16 UNL     1       9.067  55.597  -8.091  1.00  0.00     0.165 HD
HETATM   46  C19 UNL     1       7.025  55.532  -5.635  1.00  0.00     0.030 A 
HETATM   47  C21 UNL     1       4.843  54.800  -6.863  1.00  0.00     0.021 A 
ENDBRANCH   9  38
BRANCH  14  48
HETATM   48  C26 UNL     1      -3.381  51.857 -13.803  1.00  0.00     0.208 C 
BRANCH  48  49
HETATM   49  O7  UNL     1      -3.859  53.198 -13.826  1.00  0.00    -0.396 OA
HETATM   50  H24 UNL     1      -3.067  53.762 -13.747  1.00  0.00     0.209 HD
ENDBRANCH  48  49
ENDBRANCH  14  48
BRANCH  22  51
HETATM   51  O9  UNL     1      -6.560  49.779  -9.283  1.00  0.00    -0.387 OA
HETATM   52  H34 UNL     1      -6.181  49.848  -8.389  1.00  0.00     0.210 HD
ENDBRANCH  22  51
TORSDOF 11
ENDMDL
MODEL 5
REMARK minimizedAffinity -7.3750701
REMARK CNNscore 0.515757143
REMARK CNNaffinity 6.86511374
REMARK  11 active torsions:
REMARK  status: ('A' for Active; 'I' for Inactive)
REMARK    1  A    between atoms: C2_2  and  O1_3 
REMARK    2  A    between atoms: O1_3  and  C3_4 
REMARK    3  A    between atoms: C3_4  and  C4_6 
REMARK    4  A    between atoms: C5_7  and  C6_8 
REMARK    5  A    between atoms: C10_13  and  C11_14 
REMARK    6  A    between atoms: C11_14  and  O4_15 
REMARK    7  A    between atoms: C13_18  and  C14_19 
REMARK    8  A    between atoms: C25_32  and  C26_33 
REMARK    9  A    between atoms: C26_33  and  O7_34 
REMARK   10  A    between atoms: C33_42  and  O9_44 
REMARK   11  A    between atoms: C36_46  and  O10_47 
ROOT
HETATM    1  C4  UNL     1      -0.699  50.593 -14.056  1.00  0.00     0.165 C 
HETATM    2  C5  UNL     1      -1.791  50.874 -13.314  1.00  0.00     0.053 C 
HETATM    3  C7  UNL     1      -1.599  51.080 -11.870  1.00  0.00    -0.002 C 
HETATM    4  C8  UNL     1      -2.449  50.610 -10.913  1.00  0.00    -0.066 C 
HETATM    5  C9  UNL     1      -2.090  50.486  -9.432  1.00  0.00     0.049 C 
HETATM    6  C10 UNL     1      -2.481  49.111  -8.865  1.00  0.00     0.084 C 
HETATM    7  C12 UNL     1      -3.973  48.859  -9.035  1.00  0.00     0.142 C 
HETATM    8  O5  UNL     1      -4.523  47.922  -8.449  1.00  0.00    -0.297 OA
HETATM    9  C13 UNL     1      -4.714  49.817  -9.963  1.00  0.00     0.092 C 
HETATM   10  C22 UNL     1      -3.842  50.053 -11.213  1.00  0.00     0.052 C 
HETATM   11  C23 UNL     1      -0.266  51.678 -11.535  1.00  0.00     0.044 C 
HETATM   12  C24 UNL     1       0.814  51.239 -12.348  1.00  0.00     0.101 C 
HETATM   13  O6  UNL     1       0.568  50.472 -13.474  1.00  0.00    -0.302 OA
HETATM   14  C25 UNL     1       2.142  51.616 -12.099  1.00  0.00     0.034 C 
HETATM   15  C27 UNL     1       2.333  52.518 -11.068  1.00  0.00     0.090 C 
HETATM   16  O8  UNL     1       3.568  53.049 -10.722  1.00  0.00    -0.341 OA
HETATM   17  C28 UNL     1       3.153  54.257 -10.049  1.00  0.00     0.175 C 
HETATM   18  C29 UNL     1       1.898  53.888  -9.242  1.00  0.00     0.079 C 
HETATM   19  C30 UNL     1       1.274  55.124  -8.684  1.00  0.00    -0.019 C 
HETATM   20  C31 UNL     1       2.025  56.205  -8.404  1.00  0.00    -0.027 C 
HETATM   21  C32 UNL     1       3.522  56.295  -8.659  1.00  0.00     0.067 C 
HETATM   22  C33 UNL     1       4.173  54.966  -9.145  1.00  0.00     0.085 C 
HETATM   23  C34 UNL     1       5.480  55.239  -9.888  1.00  0.00     0.049 C 
HETATM   24  C35 UNL     1       1.281  53.044 -10.303  1.00  0.00     0.021 C 
HETATM   25  C36 UNL     1      -0.026  52.662 -10.556  1.00  0.00     0.091 C 
ENDROOT
BRANCH   2  26
HETATM   26  C6  UNL     1      -3.109  50.968 -13.978  1.00  0.00     0.273 C 
HETATM   27  O3  UNL     1      -3.532  52.023 -14.430  1.00  0.00    -0.301 OA
ENDBRANCH   2  26
BRANCH   1  28
HETATM   28  C3  UNL     1      -0.765  50.427 -15.537  1.00  0.00     0.318 C 
HETATM   29  O2  UNL     1      -0.323  51.226 -16.350  1.00  0.00    -0.257 OA
BRANCH  28  30
HETATM   30  O1  UNL     1      -1.340  49.232 -15.829  1.00  0.00    -0.316 OA
BRANCH  30  31
HETATM   31  C2  UNL     1      -0.572  48.093 -15.420  1.00  0.00     0.175 C 
HETATM   32  C1  UNL     1      -1.525  47.073 -14.824  1.00  0.00     0.034 C 
ENDBRANCH  30  31
ENDBRANCH  28  30
ENDBRANCH   1  28
BRANCH  25  33
HETATM   33  O10 UNL     1      -1.033  53.227  -9.824  1.00  0.00    -0.354 OA
HETATM   34  C37 UNL     1      -1.614  54.323 -10.533  1.00  0.00     0.210 C 
ENDBRANCH  25  33
BRANCH   6  35
HETATM   35  C11 UNL     1      -2.095  48.972  -7.394  1.00  0.00     0.176 C 
BRANCH  35  36
HETATM   36  O4  UNL     1      -1.889  50.254  -6.803  1.00  0.00    -0.400 OA
HETATM   37  H12 UNL     1      -1.878  50.122  -5.838  1.00  0.00     0.209 HD
ENDBRANCH  35  36
ENDBRANCH   6  35
BRANCH   9  38
HETATM   38  C14 UNL     1      -6.116  49.373 -10.356  1.00  0.00    -0.046 A 
HETATM   39  C15 UNL     1      -7.256  49.915  -9.745  1.00  0.00     0.010 A 
HETATM   40  C16 UNL     1      -8.545  49.482 -10.075  1.00  0.00     0.031 A 
HETATM   41  C17 UNL     1      -8.664  48.479 -11.042  1.00  0.00     0.042 A 
HETATM   42  N1  UNL     1      -9.785  47.866 -11.552  1.00  0.00    -0.365 N 
HETATM   43  C20 UNL     1      -7.560  47.912 -11.676  1.00  0.00    -0.008 A 
HETATM   44  C18 UNL     1      -9.427  46.929 -12.488  1.00  0.00     0.089 A 
HETATM   45  H16 UNL     1     -10.733  48.081 -11.274  1.00  0.00     0.165 HD
HETATM   46  C19 UNL     1      -8.055  46.936 -12.587  1.00  0.00     0.030 A 
HETATM   47  C21 UNL     1      -6.272  48.364 -11.327  1.00  0.00     0.021 A 
ENDBRANCH   9  38
BRANCH  14  48
HETATM   48  C26 UNL     1       3.293  51.143 -12.932  1.00  0.00     0.208 C 
BRANCH  48  49
HETATM   49  O7  UNL     1       3.122  51.580 -14.277  1.00  0.00    -0.396 OA
HETATM   50  H24 UNL     1       3.099  52.554 -14.238  1.00  0.00     0.209 HD
ENDBRANCH  48  49
ENDBRANCH  14  48
BRANCH  22  51
HETATM   51  O9  UNL     1       4.522  54.162  -8.010  1.00  0.00    -0.387 OA
HETATM   52  H34 UNL     1       3.820  54.250  -7.341  1.00  0.00     0.210 HD
ENDBRANCH  22  51
TORSDOF 11
ENDMDL
MODEL 6
REMARK minimizedAffinity -9.12870693
REMARK CNNscore 0.498310506
REMARK CNNaffinity 7.31251478
REMARK  11 active torsions:
REMARK  status: ('A' for Active; 'I' for Inactive)
REMARK    1  A    between atoms: C2_2  and  O1_3 
REMARK    2  A    between atoms: O1_3  and  C3_4 
REMARK    3  A    between atoms: C3_4  and  C4_6 
REMARK    4  A    between atoms: C5_7  and  C6_8 
REMARK    5  A    between atoms: C10_13  and  C11_14 
REMARK    6  A    between atoms: C11_14  and  O4_15 
REMARK    7  A    between atoms: C13_18  and  C14_19 
REMARK    8  A    between atoms: C25_32  and  C26_33 
REMARK    9  A    between atoms: C26_33  and  O7_34 
REMARK   10  A    between atoms: C33_42  and  O9_44 
REMARK   11  A    between atoms: C36_46  and  O10_47 
ROOT
HETATM    1  C4  UNL     1      -6.933  47.753 -27.405  1.00  0.00     0.165 C 
HETATM    2  C5  UNL     1      -5.687  47.958 -26.931  1.00  0.00     0.053 C 
HETATM    3  C7  UNL     1      -5.553  48.386 -25.530  1.00  0.00    -0.002 C 
HETATM    4  C8  UNL     1      -4.662  49.325 -25.101  1.00  0.00    -0.066 C 
HETATM    5  C9  UNL     1      -4.753  50.044 -23.755  1.00  0.00     0.049 C 
HETATM    6  C10 UNL     1      -4.576  51.564 -23.907  1.00  0.00     0.084 C 
HETATM    7  C12 UNL     1      -3.235  51.891 -24.553  1.00  0.00     0.142 C 
HETATM    8  O5  UNL     1      -2.805  53.049 -24.556  1.00  0.00    -0.297 OA
HETATM    9  C13 UNL     1      -2.490  50.719 -25.182  1.00  0.00     0.092 C 
HETATM   10  C22 UNL     1      -3.508  49.856 -25.955  1.00  0.00     0.052 C 
HETATM   11  C23 UNL     1      -6.632  47.842 -24.644  1.00  0.00     0.044 C 
HETATM   12  C24 UNL     1      -7.916  47.748 -25.246  1.00  0.00     0.101 C 
HETATM   13  O6  UNL     1      -8.063  47.966 -26.606  1.00  0.00    -0.302 OA
HETATM   14  C25 UNL     1      -9.057  47.364 -24.526  1.00  0.00     0.034 C 
HETATM   15  C27 UNL     1      -8.846  46.991 -23.211  1.00  0.00     0.090 C 
HETATM   16  O8  UNL     1      -9.845  46.523 -22.368  1.00  0.00    -0.341 OA
HETATM   17  C28 UNL     1      -9.054  45.792 -21.406  1.00  0.00     0.175 C 
HETATM   18  C29 UNL     1      -7.782  46.624 -21.177  1.00  0.00     0.079 C 
HETATM   19  C30 UNL     1      -6.808  45.843 -20.361  1.00  0.00    -0.019 C 
HETATM   20  C31 UNL     1      -7.234  44.914 -19.485  1.00  0.00    -0.027 C 
HETATM   21  C32 UNL     1      -8.695  44.545 -19.277  1.00  0.00     0.067 C 
HETATM   22  C33 UNL     1      -9.704  45.437 -20.060  1.00  0.00     0.085 C 
HETATM   23  C34 UNL     1     -11.034  44.713 -20.258  1.00  0.00     0.049 C 
HETATM   24  C35 UNL     1      -7.578  46.984 -22.608  1.00  0.00     0.021 C 
HETATM   25  C36 UNL     1      -6.461  47.368 -23.329  1.00  0.00     0.091 C 
ENDROOT
BRANCH   2  26
HETATM   26  C6  UNL     1      -4.530  47.739 -27.825  1.00  0.00     0.273 C 
HETATM   27  O3  UNL     1      -4.242  48.528 -28.716  1.00  0.00    -0.301 OA
ENDBRANCH   2  26
BRANCH   1  28
HETATM   28  C3  UNL     1      -7.187  47.258 -28.789  1.00  0.00     0.318 C 
HETATM   29  O2  UNL     1      -7.249  46.080 -29.109  1.00  0.00    -0.257 OA
BRANCH  28  30
HETATM   30  O1  UNL     1      -7.388  48.317 -29.613  1.00  0.00    -0.316 OA
BRANCH  30  31
HETATM   31  C2  UNL     1      -8.767  48.616 -29.864  1.00  0.00     0.175 C 
HETATM   32  C1  UNL     1      -8.828  49.804 -30.807  1.00  0.00     0.034 C 
ENDBRANCH  30  31
ENDBRANCH  28  30
ENDBRANCH   1  28
BRANCH  25  33
HETATM   33  O10 UNL     1      -5.234  47.306 -22.728  1.00  0.00    -0.354 OA
HETATM   34  C37 UNL     1      -5.177  48.195 -21.611  1.00  0.00     0.210 C 
ENDBRANCH  25  33
BRANCH   6  35
HETATM   35  C11 UNL     1      -4.698  52.288 -22.568  1.00  0.00     0.176 C 
BRANCH  35  36
HETATM   36  O4  UNL     1      -5.340  51.458 -21.603  1.00  0.00    -0.400 OA
HETATM   37  H12 UNL     1      -5.185  51.865 -20.732  1.00  0.00     0.209 HD
ENDBRANCH  35  36
ENDBRANCH   6  35
BRANCH   9  38
HETATM   38  C14 UNL     1      -1.321  51.107 -26.076  1.00  0.00    -0.046 A 
HETATM   39  C15 UNL     1      -1.515  51.527 -27.399  1.00  0.00     0.010 A 
HETATM   40  C16 UNL     1      -0.440  51.847 -28.236  1.00  0.00     0.031 A 
HETATM   41  C17 UNL     1       0.849  51.731 -27.708  1.00  0.00     0.042 A 
HETATM   42  N1  UNL     1       2.073  51.970 -28.290  1.00  0.00    -0.365 N 
HETATM   43  C20 UNL     1       1.091  51.319 -26.398  1.00  0.00    -0.008 A 
HETATM   44  C18 UNL     1       3.081  51.721 -27.394  1.00  0.00     0.089 A 
HETATM   45  H16 UNL     1       2.203  52.283 -29.243  1.00  0.00     0.165 HD
HETATM   46  C19 UNL     1       2.502  51.318 -26.212  1.00  0.00     0.030 A 
HETATM   47  C21 UNL     1      -0.007  51.002 -25.574  1.00  0.00     0.021 A 
ENDBRANCH   9  38
BRANCH  14  48
HETATM   48  C26 UNL     1     -10.420  47.282 -25.141  1.00  0.00     0.208 C 
BRANCH  48  49
HETATM   49  O7  UNL     1     -10.686  48.472 -25.876  1.00  0.00    -0.396 OA
HETATM   50  H24 UNL     1      -9.997  48.517 -26.565  1.00  0.00     0.209 HD
ENDBRANCH  48  49
ENDBRANCH  14  48
BRANCH  22  51
HETATM   51  O9  UNL     1     -10.001  46.610 -19.291  1.00  0.00    -0.387 OA
HETATM   52  H34 UNL     1      -9.183  46.909 -18.854  1.00  0.00     0.210 HD
ENDBRANCH  22  51
TORSDOF 11
ENDMDL
MODEL 7
REMARK minimizedAffinity -7.94164419
REMARK CNNscore 0.461309671
REMARK CNNaffinity 7.03748512
REMARK  11 active torsions:
REMARK  status: ('A' for Active; 'I' for Inactive)
REMARK    1  A    between atoms: C2_2  and  O1_3 
REMARK    2  A    between atoms: O1_3  and  C3_4 
REMARK    3  A    between atoms: C3_4  and  C4_6 
REMARK    4  A    between atoms: C5_7  and  C6_8 
REMARK    5  A    between atoms: C10_13  and  C11_14 
REMARK    6  A    between atoms: C11_14  and  O4_15 
REMARK    7  A    between atoms: C13_18  and  C14_19 
REMARK    8  A    between atoms: C25_32  and  C26_33 
REMARK    9  A    between atoms: C26_33  and  O7_34 
REMARK   10  A    between atoms: C33_42  and  O9_44 
REMARK   11  A    between atoms: C36_46  and  O10_47 
ROOT
HETATM    1  C4  UNL     1      -0.287  51.624 -13.219  1.00  0.00     0.165 C 
HETATM    2  C5  UNL     1      -1.504  51.669 -12.638  1.00  0.00     0.053 C 
HETATM    3  C7  UNL     1      -1.555  51.785 -11.172  1.00  0.00    -0.002 C 
HETATM    4  C8  UNL     1      -2.442  51.112 -10.384  1.00  0.00    -0.066 C 
HETATM    5  C9  UNL     1      -2.280  50.926  -8.875  1.00  0.00     0.049 C 
HETATM    6  C10 UNL     1      -2.512  49.466  -8.454  1.00  0.00     0.084 C 
HETATM    7  C12 UNL     1      -3.902  48.997  -8.864  1.00  0.00     0.142 C 
HETATM    8  O5  UNL     1      -4.365  47.941  -8.422  1.00  0.00    -0.297 OA
HETATM    9  C13 UNL     1      -4.653  49.899  -9.837  1.00  0.00     0.092 C 
HETATM   10  C22 UNL     1      -3.665  50.370 -10.924  1.00  0.00     0.052 C 
HETATM   11  C23 UNL     1      -0.402  52.555 -10.604  1.00  0.00     0.044 C 
HETATM   12  C24 UNL     1       0.840  52.359 -11.266  1.00  0.00     0.101 C 
HETATM   13  O6  UNL     1       0.888  51.656 -12.458  1.00  0.00    -0.302 OA
HETATM   14  C25 UNL     1       2.038  52.917 -10.797  1.00  0.00     0.034 C 
HETATM   15  C27 UNL     1       1.928  53.751  -9.699  1.00  0.00     0.090 C 
HETATM   16  O8  UNL     1       2.996  54.440  -9.138  1.00  0.00    -0.341 OA
HETATM   17  C28 UNL     1       2.294  55.509  -8.469  1.00  0.00     0.175 C 
HETATM   18  C29 UNL     1       1.017  54.884  -7.886  1.00  0.00     0.079 C 
HETATM   19  C30 UNL     1       0.124  55.958  -7.360  1.00  0.00    -0.019 C 
HETATM   20  C31 UNL     1       0.636  57.117  -6.907  1.00  0.00    -0.027 C 
HETATM   21  C32 UNL     1       2.118  57.460  -6.925  1.00  0.00     0.067 C 
HETATM   22  C33 UNL     1       3.044  56.294  -7.381  1.00  0.00     0.085 C 
HETATM   23  C34 UNL     1       4.378  56.827  -7.899  1.00  0.00     0.049 C 
HETATM   24  C35 UNL     1       0.705  54.042  -9.074  1.00  0.00     0.021 C 
HETATM   25  C36 UNL     1      -0.470  53.482  -9.545  1.00  0.00     0.091 C 
ENDROOT
BRANCH   2  26
HETATM   26  C6  UNL     1      -2.712  51.609 -13.488  1.00  0.00     0.273 C 
HETATM   27  O3  UNL     1      -3.439  52.580 -13.649  1.00  0.00    -0.301 OA
ENDBRANCH   2  26
BRANCH   1  28
HETATM   28  C3  UNL     1      -0.114  51.570 -14.700  1.00  0.00     0.318 C 
HETATM   29  O2  UNL     1      -0.680  50.780 -15.441  1.00  0.00    -0.257 OA
BRANCH  28  30
HETATM   30  O1  UNL     1       0.721  52.567 -15.089  1.00  0.00    -0.316 OA
BRANCH  30  31
HETATM   31  C2  UNL     1       1.380  52.330 -16.339  1.00  0.00     0.175 C 
HETATM   32  C1  UNL     1       2.872  52.511 -16.127  1.00  0.00     0.034 C 
ENDBRANCH  30  31
ENDBRANCH  28  30
ENDBRANCH   1  28
BRANCH  25  33
HETATM   33  O10 UNL     1      -1.650  53.821  -8.945  1.00  0.00    -0.354 OA
HETATM   34  C37 UNL     1      -1.675  53.363  -7.591  1.00  0.00     0.210 C 
ENDBRANCH  25  33
BRANCH   6  35
HETATM   35  C11 UNL     1      -2.320  49.270  -6.951  1.00  0.00     0.176 C 
BRANCH  35  36
HETATM   36  O4  UNL     1      -3.459  48.631  -6.377  1.00  0.00    -0.400 OA
HETATM   37  H12 UNL     1      -3.194  48.326  -5.490  1.00  0.00     0.209 HD
ENDBRANCH  35  36
ENDBRANCH   6  35
BRANCH   9  38
HETATM   38  C14 UNL     1      -5.892  49.275 -10.464  1.00  0.00    -0.046 A 
HETATM   39  C15 UNL     1      -7.184  49.658 -10.076  1.00  0.00     0.010 A 
HETATM   40  C16 UNL     1      -8.325  49.059 -10.622  1.00  0.00     0.031 A 
HETATM   41  C17 UNL     1      -8.136  48.053 -11.574  1.00  0.00     0.042 A 
HETATM   42  N1  UNL     1      -9.058  47.299 -12.264  1.00  0.00    -0.365 N 
HETATM   43  C20 UNL     1      -6.872  47.641 -11.992  1.00  0.00    -0.008 A 
HETATM   44  C18 UNL     1      -8.418  46.422 -13.103  1.00  0.00     0.089 A 
HETATM   45  H16 UNL     1     -10.060  47.384 -12.162  1.00  0.00     0.165 HD
HETATM   46  C19 UNL     1      -7.064  46.611 -12.956  1.00  0.00     0.030 A 
HETATM   47  C21 UNL     1      -5.738  48.258 -11.428  1.00  0.00     0.021 A 
ENDBRANCH   9  38
BRANCH  14  48
HETATM   48  C26 UNL     1       3.358  52.700 -11.470  1.00  0.00     0.208 C 
BRANCH  48  49
HETATM   49  O7  UNL     1       4.286  52.152 -10.540  1.00  0.00    -0.396 OA
HETATM   50  H24 UNL     1       3.900  51.304 -10.250  1.00  0.00     0.209 HD
ENDBRANCH  48  49
ENDBRANCH  14  48
BRANCH  22  51
HETATM   51  O9  UNL     1       3.358  55.465  -6.254  1.00  0.00    -0.387 OA
HETATM   52  H34 UNL     1       2.564  55.387  -5.696  1.00  0.00     0.210 HD
ENDBRANCH  22  51
TORSDOF 11
ENDMDL
MODEL 8
REMARK minimizedAffinity -8.89365292
REMARK CNNscore 0.423876762
REMARK CNNaffinity 7.6222415
REMARK  11 active torsions:
REMARK  status: ('A' for Active; 'I' for Inactive)
REMARK    1  A    between atoms: C2_2  and  O1_3 
REMARK    2  A    between atoms: O1_3  and  C3_4 
REMARK    3  A    between atoms: C3_4  and  C4_6 
REMARK    4  A    between atoms: C5_7  and  C6_8 
REMARK    5  A    between atoms: C10_13  and  C11_14 
REMARK    6  A    between atoms: C11_14  and  O4_15 
REMARK    7  A    between atoms: C13_18  and  C14_19 
REMARK    8  A    between atoms: C25_32  and  C26_33 
REMARK    9  A    between atoms: C26_33  and  O7_34 
REMARK   10  A    between atoms: C33_42  and  O9_44 
REMARK   11  A    between atoms: C36_46  and  O10_47 
ROOT
HETATM    1  C4  UNL     1      -6.687  48.154 -25.077  1.00  0.00     0.165 C 
HETATM    2  C5  UNL     1      -6.710  48.629 -23.814  1.00  0.00     0.053 C 
HETATM    3  C7  UNL     1      -5.417  48.886 -23.160  1.00  0.00    -0.002 C 
HETATM    4  C8  UNL     1      -5.152  48.598 -21.854  1.00  0.00    -0.066 C 
HETATM    5  C9  UNL     1      -3.745  48.506 -21.263  1.00  0.00     0.049 C 
HETATM    6  C10 UNL     1      -3.564  47.235 -20.417  1.00  0.00     0.084 C 
HETATM    7  C12 UNL     1      -4.581  47.190 -19.283  1.00  0.00     0.142 C 
HETATM    8  O5  UNL     1      -4.460  46.376 -18.363  1.00  0.00    -0.297 OA
HETATM    9  C13 UNL     1      -5.728  48.191 -19.371  1.00  0.00     0.092 C 
HETATM   10  C22 UNL     1      -6.227  48.230 -20.830  1.00  0.00     0.052 C 
HETATM   11  C23 UNL     1      -4.346  49.305 -24.122  1.00  0.00     0.044 C 
HETATM   12  C24 UNL     1      -4.395  48.671 -25.393  1.00  0.00     0.101 C 
HETATM   13  O6  UNL     1      -5.481  47.885 -25.736  1.00  0.00    -0.302 OA
HETATM   14  C25 UNL     1      -3.405  48.867 -26.368  1.00  0.00     0.034 C 
HETATM   15  C27 UNL     1      -2.422  49.789 -26.056  1.00  0.00     0.090 C 
HETATM   16  O8  UNL     1      -1.401  50.157 -26.923  1.00  0.00    -0.341 OA
HETATM   17  C28 UNL     1      -1.050  51.447 -26.380  1.00  0.00     0.175 C 
HETATM   18  C29 UNL     1      -1.139  51.308 -24.852  1.00  0.00     0.079 C 
HETATM   19  C30 UNL     1      -1.002  52.649 -24.213  1.00  0.00    -0.019 C 
HETATM   20  C31 UNL     1      -0.296  53.626 -24.812  1.00  0.00    -0.027 C 
HETATM   21  C32 UNL     1       0.372  53.485 -26.172  1.00  0.00     0.067 C 
HETATM   22  C33 UNL     1       0.305  52.052 -26.778  1.00  0.00     0.085 C 
HETATM   23  C34 UNL     1       0.472  52.093 -28.295  1.00  0.00     0.049 C 
HETATM   24  C35 UNL     1      -2.392  50.502 -24.848  1.00  0.00     0.021 C 
HETATM   25  C36 UNL     1      -3.373  50.298 -23.892  1.00  0.00     0.091 C 
ENDROOT
BRANCH   2  26
HETATM   26  C6  UNL     1      -8.011  48.874 -23.158  1.00  0.00     0.273 C 
HETATM   27  O3  UNL     1      -8.681  47.964 -22.689  1.00  0.00    -0.301 OA
ENDBRANCH   2  26
BRANCH   1  28
HETATM   28  C3  UNL     1      -7.935  47.916 -25.859  1.00  0.00     0.318 C 
HETATM   29  O2  UNL     1      -8.828  48.736 -26.016  1.00  0.00    -0.257 OA
BRANCH  28  30
HETATM   30  O1  UNL     1      -7.891  46.675 -26.406  1.00  0.00    -0.316 OA
BRANCH  30  31
HETATM   31  C2  UNL     1      -8.274  46.624 -27.786  1.00  0.00     0.175 C 
HETATM   32  C1  UNL     1      -7.059  46.213 -28.598  1.00  0.00     0.034 C 
ENDBRANCH  30  31
ENDBRANCH  28  30
ENDBRANCH   1  28
BRANCH  25  33
HETATM   33  O10 UNL     1      -3.343  51.041 -22.746  1.00  0.00    -0.354 OA
HETATM   34  C37 UNL     1      -4.244  52.147 -22.840  1.00  0.00     0.210 C 
ENDBRANCH  25  33
BRANCH   6  35
HETATM   35  C11 UNL     1      -2.150  47.125 -19.850  1.00  0.00     0.176 C 
BRANCH  35  36
HETATM   36  O4  UNL     1      -1.180  47.395 -20.861  1.00  0.00    -0.400 OA
HETATM   37  H12 UNL     1      -0.331  47.540 -20.406  1.00  0.00     0.209 HD
ENDBRANCH  35  36
ENDBRANCH   6  35
BRANCH   9  38
HETATM   38  C14 UNL     1      -6.880  47.932 -18.411  1.00  0.00    -0.046 A 
HETATM   39  C15 UNL     1      -8.110  48.593 -18.543  1.00  0.00     0.010 A 
HETATM   40  C16 UNL     1      -9.158  48.388 -17.639  1.00  0.00     0.031 A 
HETATM   41  C17 UNL     1      -8.939  47.495 -16.586  1.00  0.00     0.042 A 
HETATM   42  N1  UNL     1      -9.774  47.108 -15.562  1.00  0.00    -0.365 N 
HETATM   43  C20 UNL     1      -7.736  46.814 -16.415  1.00  0.00    -0.008 A 
HETATM   44  C18 UNL     1      -9.137  46.206 -14.748  1.00  0.00     0.089 A 
HETATM   45  H16 UNL     1     -10.718  47.443 -15.435  1.00  0.00     0.165 HD
HETATM   46  C19 UNL     1      -7.873  46.004 -15.253  1.00  0.00     0.030 A 
HETATM   47  C21 UNL     1      -6.694  47.037 -17.337  1.00  0.00     0.021 A 
ENDBRANCH   9  38
BRANCH  14  48
HETATM   48  C26 UNL     1      -3.430  48.189 -27.702  1.00  0.00     0.208 C 
BRANCH  48  49
HETATM   49  O7  UNL     1      -4.421  48.792 -28.528  1.00  0.00    -0.396 OA
HETATM   50  H24 UNL     1      -4.157  49.726 -28.619  1.00  0.00     0.209 HD
ENDBRANCH  48  49
ENDBRANCH  14  48
BRANCH  22  51
HETATM   51  O9  UNL     1       1.399  51.271 -26.279  1.00  0.00    -0.387 OA
HETATM   52  H34 UNL     1       1.537  51.496 -25.341  1.00  0.00     0.210 HD
ENDBRANCH  22  51
TORSDOF 11
ENDMDL
MODEL 9
REMARK minimizedAffinity -8.30970573
REMARK CNNscore 0.384974331
REMARK CNNaffinity 7.47980881
REMARK  11 active torsions:
REMARK  status: ('A' for Active; 'I' for Inactive)
REMARK    1  A    between atoms: C2_2  and  O1_3 
REMARK    2  A    between atoms: O1_3  and  C3_4 
REMARK    3  A    between atoms: C3_4  and  C4_6 
REMARK    4  A    between atoms: C5_7  and  C6_8 
REMARK    5  A    between atoms: C10_13  and  C11_14 
REMARK    6  A    between atoms: C11_14  and  O4_15 
REMARK    7  A    between atoms: C13_18  and  C14_19 
REMARK    8  A    between atoms: C25_32  and  C26_33 
REMARK    9  A    between atoms: C26_33  and  O7_34 
REMARK   10  A    between atoms: C33_42  and  O9_44 
REMARK   11  A    between atoms: C36_46  and  O10_47 
ROOT
HETATM    1  C4  UNL     1       2.421  49.923 -13.890  1.00  0.00     0.165 C 
HETATM    2  C5  UNL     1       1.672  50.654 -14.741  1.00  0.00     0.053 C 
HETATM    3  C7  UNL     1       0.307  50.183 -15.023  1.00  0.00    -0.002 C 
HETATM    4  C8  UNL     1      -0.271  50.213 -16.258  1.00  0.00    -0.066 C 
HETATM    5  C9  UNL     1      -1.511  49.408 -16.646  1.00  0.00     0.049 C 
HETATM    6  C10 UNL     1      -1.319  48.676 -17.984  1.00  0.00     0.084 C 
HETATM    7  C12 UNL     1      -1.001  49.662 -19.101  1.00  0.00     0.142 C 
HETATM    8  O5  UNL     1      -1.036  49.307 -20.282  1.00  0.00    -0.297 OA
HETATM    9  C13 UNL     1      -0.640  51.077 -18.662  1.00  0.00     0.092 C 
HETATM   10  C22 UNL     1       0.306  50.983 -17.447  1.00  0.00     0.052 C 
HETATM   11  C23 UNL     1      -0.319  49.471 -13.862  1.00  0.00     0.044 C 
HETATM   12  C24 UNL     1       0.570  48.675 -13.091  1.00  0.00     0.101 C 
HETATM   13  O6  UNL     1       1.935  48.743 -13.315  1.00  0.00    -0.302 OA
HETATM   14  C25 UNL     1       0.128  47.859 -12.039  1.00  0.00     0.034 C 
HETATM   15  C27 UNL     1      -1.219  47.943 -11.733  1.00  0.00     0.090 C 
HETATM   16  O8  UNL     1      -1.819  47.258 -10.685  1.00  0.00    -0.341 OA
HETATM   17  C28 UNL     1      -2.984  48.082 -10.468  1.00  0.00     0.175 C 
HETATM   18  C29 UNL     1      -3.467  48.515 -11.861  1.00  0.00     0.079 C 
HETATM   19  C30 UNL     1      -4.539  49.544 -11.726  1.00  0.00    -0.019 C 
HETATM   20  C31 UNL     1      -5.337  49.568 -10.642  1.00  0.00    -0.027 C 
HETATM   21  C32 UNL     1      -5.205  48.613  -9.465  1.00  0.00     0.067 C 
HETATM   22  C33 UNL     1      -4.150  47.485  -9.665  1.00  0.00     0.085 C 
HETATM   23  C34 UNL     1      -3.677  46.934  -8.321  1.00  0.00     0.049 C 
HETATM   24  C35 UNL     1      -2.110  48.786 -12.413  1.00  0.00     0.021 C 
HETATM   25  C36 UNL     1      -1.662  49.585 -13.451  1.00  0.00     0.091 C 
ENDROOT
BRANCH   2  26
HETATM   26  C6  UNL     1       2.244  51.880 -15.336  1.00  0.00     0.273 C 
HETATM   27  O3  UNL     1       2.948  51.847 -16.336  1.00  0.00    -0.301 OA
ENDBRANCH   2  26
BRANCH   1  28
HETATM   28  C3  UNL     1       3.795  50.339 -13.483  1.00  0.00     0.318 C 
HETATM   29  O2  UNL     1       4.767  50.360 -14.223  1.00  0.00    -0.257 OA
BRANCH  28  30
HETATM   30  O1  UNL     1       3.776  50.738 -12.185  1.00  0.00    -0.316 OA
BRANCH  30  31
HETATM   31  C2  UNL     1       2.740  51.677 -11.871  1.00  0.00     0.175 C 
HETATM   32  C1  UNL     1       3.294  52.670 -10.866  1.00  0.00     0.034 C 
ENDBRANCH  30  31
ENDBRANCH  28  30
ENDBRANCH   1  28
BRANCH  25  33
HETATM   33  O10 UNL     1      -2.545  50.430 -14.063  1.00  0.00    -0.354 OA
HETATM   34  C37 UNL     1      -2.445  51.745 -13.512  1.00  0.00     0.210 C 
ENDBRANCH  25  33
BRANCH   6  35
HETATM   35  C11 UNL     1      -2.545  47.845 -18.359  1.00  0.00     0.176 C 
BRANCH  35  36
HETATM   36  O4  UNL     1      -2.409  46.506 -17.888  1.00  0.00    -0.400 OA
HETATM   37  H12 UNL     1      -3.291  46.096 -17.944  1.00  0.00     0.209 HD
ENDBRANCH  35  36
ENDBRANCH   6  35
BRANCH   9  38
HETATM   38  C14 UNL     1      -0.037  51.953 -19.752  1.00  0.00    -0.046 A 
HETATM   39  C15 UNL     1       0.839  53.004 -19.448  1.00  0.00     0.010 A 
HETATM   40  C16 UNL     1       1.365  53.836 -20.443  1.00  0.00     0.031 A 
HETATM   41  C17 UNL     1       0.982  53.587 -21.764  1.00  0.00     0.042 A 
HETATM   42  N1  UNL     1       1.332  54.234 -22.928  1.00  0.00    -0.365 N 
HETATM   43  C20 UNL     1       0.116  52.553 -22.114  1.00  0.00    -0.008 A 
HETATM   44  C18 UNL     1       0.713  53.645 -24.001  1.00  0.00     0.089 A 
HETATM   45  H16 UNL     1       1.955  55.028 -22.976  1.00  0.00     0.165 HD
HETATM   46  C19 UNL     1      -0.046  52.600 -23.527  1.00  0.00     0.030 A 
HETATM   47  C21 UNL     1      -0.401  51.729 -21.095  1.00  0.00     0.021 A 
ENDBRANCH   9  38
BRANCH  14  48
HETATM   48  C26 UNL     1       1.049  46.998 -11.233  1.00  0.00     0.208 C 
BRANCH  48  49
HETATM   49  O7  UNL     1       0.938  47.336  -9.854  1.00  0.00    -0.396 OA
HETATM   50  H24 UNL     1       0.008  47.168  -9.615  1.00  0.00     0.209 HD
ENDBRANCH  48  49
ENDBRANCH  14  48
BRANCH  22  51
HETATM   51  O9  UNL     1      -4.756  46.382 -10.355  1.00  0.00    -0.387 OA
HETATM   52  H34 UNL     1      -5.360  46.735 -11.032  1.00  0.00     0.210 HD
ENDBRANCH  22  51
TORSDOF 11
ENDMDL
