MODEL 1
REMARK minimizedAffinity -8.91898441
REMARK CNNscore 0.700653017
REMARK CNNaffinity 6.71157312
REMARK  13 active torsions:
REMARK  status: ('A' for Active; 'I' for Inactive)
REMARK    1  A    between atoms: C19_21  and  O3_22 
REMARK    2  A    between atoms: C19_21  and  C20_23 
REMARK    3  A    between atoms: C20_23  and  C21_25 
REMARK    4  A    between atoms: C21_25  and  O5_26 
REMARK    5  A    between atoms: O5_26  and  C22_27 
REMARK    6  A    between atoms: C22_27  and  C23_29 
REMARK    7  A    between atoms: C23_29  and  C24_30 
REMARK    8  A    between atoms: C24_30  and  C25_31 
REMARK       I    between atoms: C25_31  and  N1_33 
REMARK    9  A    between atoms: N1_33  and  C26_34 
REMARK   10  A    between atoms: C26_34  and  C27_35 
REMARK   11  A    between atoms: C27_35  and  C28_36 
REMARK   12  A    between atoms: C27_35  and  C29_39 
REMARK   13  A    between atoms: C28_36  and  O9_38 
ROOT
HETATM    1  C20 UNL     1      -2.048  49.412 -15.388  1.00  0.00     0.185 C 
HETATM    2  O4  UNL     1      -2.489  48.279 -15.186  1.00  0.00    -0.292 OA
ENDROOT
BRANCH   1   3
HETATM    3  C19 UNL     1      -0.980  50.064 -14.461  1.00  0.00     0.128 C 
HETATM    4  C14 UNL     1      -1.553  50.953 -13.314  1.00  0.00     0.005 C 
HETATM    5  C13 UNL     1      -2.006  50.216 -12.048  1.00  0.00     0.091 C 
HETATM    6  C15 UNL     1      -2.714  51.844 -13.833  1.00  0.00     0.019 C 
HETATM    7  C16 UNL     1      -0.284  51.763 -12.933  1.00  0.00     0.002 C 
HETATM    8  C12 UNL     1      -2.251  51.221 -10.931  1.00  0.00     0.133 C 
HETATM    9  C11 UNL     1      -1.082  52.157 -10.574  1.00  0.00     0.072 C 
HETATM   10  O2  UNL     1      -3.327  51.216 -10.334  1.00  0.00    -0.297 OA
HETATM   11  C2  UNL     1      -1.361  53.173  -9.410  1.00  0.00    -0.009 C 
HETATM   12  C10 UNL     1      -0.541  52.837 -11.865  1.00  0.00     0.003 C 
HETATM   13  C1  UNL     1      -2.560  54.103  -9.710  1.00  0.00     0.021 C 
HETATM   14  C3  UNL     1      -1.631  52.373  -8.099  1.00  0.00     0.022 C 
HETATM   15  C7  UNL     1      -0.122  54.067  -9.218  1.00  0.00    -0.067 C 
HETATM   16  C4  UNL     1      -1.548  53.214  -6.833  1.00  0.00     0.084 C 
HETATM   17  C5  UNL     1      -0.216  53.909  -6.753  1.00  0.00     0.149 C 
HETATM   18  O1  UNL     1       0.327  54.171  -5.682  1.00  0.00    -0.293 OA
HETATM   19  C6  UNL     1       0.410  54.357  -8.016  1.00  0.00     0.053 C 
HETATM   20  C8  UNL     1       0.491  54.666 -10.463  1.00  0.00     0.035 C 
HETATM   21  C9  UNL     1       0.738  53.621 -11.543  1.00  0.00     0.010 C 
HETATM   22  C17 UNL     1       0.277  52.207 -14.277  1.00  0.00     0.009 C 
HETATM   23  C18 UNL     1      -0.087  51.068 -15.248  1.00  0.00     0.047 C 
BRANCH   3  24
HETATM   24  O3  UNL     1      -0.072  49.100 -13.914  1.00  0.00    -0.381 OA
HETATM   25  H25 UNL     1      -0.521  48.232 -13.877  1.00  0.00     0.211 HD
ENDBRANCH   3  24
ENDBRANCH   1   3
BRANCH   1  26
HETATM   26  C21 UNL     1      -2.493  50.191 -16.621  1.00  0.00     0.260 C 
BRANCH  26  27
HETATM   27  O5  UNL     1      -1.402  50.372 -17.521  1.00  0.00    -0.314 OA
BRANCH  27  28
HETATM   28  C22 UNL     1      -1.646  51.279 -18.509  1.00  0.00     0.259 C 
HETATM   29  O6  UNL     1      -2.686  51.906 -18.645  1.00  0.00    -0.265 OA
BRANCH  28  30
HETATM   30  C23 UNL     1      -0.458  51.384 -19.433  1.00  0.00     0.120 C 
BRANCH  30  31
HETATM   31  C24 UNL     1       0.178  52.764 -19.340  1.00  0.00     0.112 C 
BRANCH  31  32
HETATM   32  C25 UNL     1       0.591  53.281 -20.703  1.00  0.00     0.218 C 
HETATM   33  O7  UNL     1       1.142  54.364 -20.874  1.00  0.00    -0.274 OA
HETATM   34  N1  UNL     1       0.266  52.427 -21.733  1.00  0.00    -0.360 N 
HETATM   35  H32 UNL     1       0.042  51.459 -21.506  1.00  0.00     0.162 HD
BRANCH  34  36
HETATM   36  C26 UNL     1       0.640  52.739 -23.105  1.00  0.00     0.142 C 
BRANCH  36  37
HETATM   37  C27 UNL     1      -0.151  51.969 -24.178  1.00  0.00     0.134 C 
BRANCH  37  38
HETATM   38  C28 UNL     1      -1.558  52.540 -24.167  1.00  0.00     0.150 C 
HETATM   39  O8  UNL     1      -2.311  52.604 -23.207  1.00  0.00    -0.649 OA
BRANCH  38  40
HETATM   40  O9  UNL     1      -1.955  52.990 -25.375  1.00  0.00    -0.776 OA
HETATM   41  H36 UNL     1      -2.864  53.328 -25.224  1.00  0.00     0.167 HD
ENDBRANCH  38  40
ENDBRANCH  37  38
BRANCH  37  42
HETATM   42  C29 UNL     1       0.433  51.908 -25.586  1.00  0.00    -0.042 A 
HETATM   43  C30 UNL     1       1.809  51.798 -25.842  1.00  0.00     0.008 A 
HETATM   44  C31 UNL     1       2.290  51.724 -27.153  1.00  0.00     0.001 A 
HETATM   45  C32 UNL     1       1.407  51.745 -28.230  1.00  0.00     0.000 A 
HETATM   46  C33 UNL     1       0.040  51.828 -27.998  1.00  0.00     0.001 A 
HETATM   47  C34 UNL     1      -0.443  51.901 -26.688  1.00  0.00     0.008 A 
ENDBRANCH  37  42
ENDBRANCH  36  37
ENDBRANCH  34  36
ENDBRANCH  31  32
ENDBRANCH  30  31
ENDBRANCH  28  30
ENDBRANCH  27  28
ENDBRANCH  26  27
ENDBRANCH   1  26
TORSDOF 13
ENDMDL
MODEL 2
REMARK minimizedAffinity -11.0142488
REMARK CNNscore 0.590454042
REMARK CNNaffinity 7.42880011
REMARK  13 active torsions:
REMARK  status: ('A' for Active; 'I' for Inactive)
REMARK    1  A    between atoms: C19_21  and  O3_22 
REMARK    2  A    between atoms: C19_21  and  C20_23 
REMARK    3  A    between atoms: C20_23  and  C21_25 
REMARK    4  A    between atoms: C21_25  and  O5_26 
REMARK    5  A    between atoms: O5_26  and  C22_27 
REMARK    6  A    between atoms: C22_27  and  C23_29 
REMARK    7  A    between atoms: C23_29  and  C24_30 
REMARK    8  A    between atoms: C24_30  and  C25_31 
REMARK       I    between atoms: C25_31  and  N1_33 
REMARK    9  A    between atoms: N1_33  and  C26_34 
REMARK   10  A    between atoms: C26_34  and  C27_35 
REMARK   11  A    between atoms: C27_35  and  C28_36 
REMARK   12  A    between atoms: C27_35  and  C29_39 
REMARK   13  A    between atoms: C28_36  and  O9_38 
ROOT
HETATM    1  C20 UNL     1      -7.344  48.310 -23.288  1.00  0.00     0.185 C 
HETATM    2  O4  UNL     1      -7.598  47.187 -22.849  1.00  0.00    -0.292 OA
ENDROOT
BRANCH   1   3
HETATM    3  C19 UNL     1      -6.740  49.433 -22.393  1.00  0.00     0.128 C 
HETATM    4  C14 UNL     1      -5.184  49.418 -22.274  1.00  0.00     0.005 C 
HETATM    5  C13 UNL     1      -4.411  50.096 -23.413  1.00  0.00     0.091 C 
HETATM    6  C15 UNL     1      -4.657  47.970 -22.087  1.00  0.00     0.019 C 
HETATM    7  C16 UNL     1      -4.996  50.305 -21.013  1.00  0.00     0.002 C 
HETATM    8  C12 UNL     1      -2.952  50.264 -23.012  1.00  0.00     0.133 C 
HETATM    9  C11 UNL     1      -2.678  51.021 -21.699  1.00  0.00     0.072 C 
HETATM   10  O2  UNL     1      -2.066  49.844 -23.754  1.00  0.00    -0.297 OA
HETATM   11  C2  UNL     1      -1.164  51.189 -21.320  1.00  0.00    -0.009 C 
HETATM   12  C10 UNL     1      -3.534  50.411 -20.552  1.00  0.00     0.003 C 
HETATM   13  C1  UNL     1      -0.436  49.832 -21.175  1.00  0.00     0.021 C 
HETATM   14  C3  UNL     1      -0.463  52.047 -22.417  1.00  0.00     0.022 C 
HETATM   15  C7  UNL     1      -1.065  51.912 -19.964  1.00  0.00    -0.067 C 
HETATM   16  C4  UNL     1       0.894  52.597 -22.000  1.00  0.00     0.084 C 
HETATM   17  C5  UNL     1       0.769  53.385 -20.724  1.00  0.00     0.149 C 
HETATM   18  O1  UNL     1       1.496  54.341 -20.466  1.00  0.00    -0.293 OA
HETATM   19  C6  UNL     1      -0.218  52.929 -19.720  1.00  0.00     0.053 C 
HETATM   20  C8  UNL     1      -1.956  51.408 -18.852  1.00  0.00     0.035 C 
HETATM   21  C9  UNL     1      -3.408  51.278 -19.292  1.00  0.00     0.010 C 
HETATM   22  C17 UNL     1      -6.020  49.755 -20.030  1.00  0.00     0.009 C 
HETATM   23  C18 UNL     1      -7.190  49.277 -20.911  1.00  0.00     0.047 C 
BRANCH   3  24
HETATM   24  O3  UNL     1      -7.180  50.738 -22.786  1.00  0.00    -0.381 OA
HETATM   25  H25 UNL     1      -7.410  50.719 -23.735  1.00  0.00     0.211 HD
ENDBRANCH   3  24
ENDBRANCH   1   3
BRANCH   1  26
HETATM   26  C21 UNL     1      -7.551  48.611 -24.769  1.00  0.00     0.260 C 
BRANCH  26  27
HETATM   27  O5  UNL     1      -7.127  47.509 -25.569  1.00  0.00    -0.314 OA
BRANCH  27  28
HETATM   28  C22 UNL     1      -7.371  47.668 -26.900  1.00  0.00     0.259 C 
HETATM   29  O6  UNL     1      -8.358  48.213 -27.373  1.00  0.00    -0.265 OA
BRANCH  28  30
HETATM   30  C23 UNL     1      -6.260  47.054 -27.715  1.00  0.00     0.120 C 
BRANCH  30  31
HETATM   31  C24 UNL     1      -5.361  48.132 -28.303  1.00  0.00     0.112 C 
BRANCH  31  32
HETATM   32  C25 UNL     1      -4.294  48.566 -27.319  1.00  0.00     0.218 C 
HETATM   33  O7  UNL     1      -4.167  48.071 -26.203  1.00  0.00    -0.274 OA
HETATM   34  N1  UNL     1      -3.496  49.583 -27.790  1.00  0.00    -0.360 N 
HETATM   35  H32 UNL     1      -3.494  49.772 -28.791  1.00  0.00     0.162 HD
BRANCH  34  36
HETATM   36  C26 UNL     1      -2.382  50.085 -26.997  1.00  0.00     0.142 C 
BRANCH  36  37
HETATM   37  C27 UNL     1      -1.618  51.260 -27.633  1.00  0.00     0.134 C 
BRANCH  37  38
HETATM   38  C28 UNL     1      -2.349  52.524 -27.215  1.00  0.00     0.150 C 
HETATM   39  O8  UNL     1      -3.164  52.630 -26.311  1.00  0.00    -0.649 OA
BRANCH  38  40
HETATM   40  O9  UNL     1      -2.030  53.593 -27.973  1.00  0.00    -0.776 OA
HETATM   41  H36 UNL     1      -2.563  54.327 -27.598  1.00  0.00     0.167 HD
ENDBRANCH  38  40
ENDBRANCH  37  38
BRANCH  37  42
HETATM   42  C29 UNL     1      -0.117  51.354 -27.378  1.00  0.00    -0.042 A 
HETATM   43  C30 UNL     1       0.810  51.704 -28.372  1.00  0.00     0.008 A 
HETATM   44  C31 UNL     1       2.175  51.797 -28.079  1.00  0.00     0.001 A 
HETATM   45  C32 UNL     1       2.636  51.554 -26.787  1.00  0.00     0.000 A 
HETATM   46  C33 UNL     1       1.732  51.232 -25.782  1.00  0.00     0.001 A 
HETATM   47  C34 UNL     1       0.368  51.140 -26.073  1.00  0.00     0.008 A 
ENDBRANCH  37  42
ENDBRANCH  36  37
ENDBRANCH  34  36
ENDBRANCH  31  32
ENDBRANCH  30  31
ENDBRANCH  28  30
ENDBRANCH  27  28
ENDBRANCH  26  27
ENDBRANCH   1  26
TORSDOF 13
ENDMDL
MODEL 3
REMARK minimizedAffinity -9.07120132
REMARK CNNscore 0.514513016
REMARK CNNaffinity 6.92034769
REMARK  13 active torsions:
REMARK  status: ('A' for Active; 'I' for Inactive)
REMARK    1  A    between atoms: C19_21  and  O3_22 
REMARK    2  A    between atoms: C19_21  and  C20_23 
REMARK    3  A    between atoms: C20_23  and  C21_25 
REMARK    4  A    between atoms: C21_25  and  O5_26 
REMARK    5  A    between atoms: O5_26  and  C22_27 
REMARK    6  A    between atoms: C22_27  and  C23_29 
REMARK    7  A    between atoms: C23_29  and  C24_30 
REMARK    8  A    between atoms: C24_30  and  C25_31 
REMARK       I    between atoms: C25_31  and  N1_33 
REMARK    9  A    between atoms: N1_33  and  C26_34 
REMARK   10  A    between atoms: C26_34  and  C27_35 
REMARK   11  A    between atoms: C27_35  and  C28_36 
REMARK   12  A    between atoms: C27_35  and  C29_39 
REMARK   13  A    between atoms: C28_36  and  O9_38 
ROOT
HETATM    1  C20 UNL     1      -5.478  47.900 -30.137  1.00  0.00     0.185 C 
HETATM    2  O4  UNL     1      -4.760  47.108 -30.750  1.00  0.00    -0.292 OA
ENDROOT
BRANCH   1   3
HETATM    3  C19 UNL     1      -7.026  47.922 -30.311  1.00  0.00     0.128 C 
HETATM    4  C14 UNL     1      -7.827  47.169 -29.205  1.00  0.00     0.005 C 
HETATM    5  C13 UNL     1      -8.097  47.950 -27.913  1.00  0.00     0.091 C 
HETATM    6  C15 UNL     1      -7.149  45.817 -28.854  1.00  0.00     0.019 C 
HETATM    7  C16 UNL     1      -9.194  46.999 -29.921  1.00  0.00     0.002 C 
HETATM    8  C12 UNL     1      -9.126  47.208 -27.071  1.00  0.00     0.133 C 
HETATM    9  C11 UNL     1     -10.469  46.882 -27.749  1.00  0.00     0.072 C 
HETATM   10  O2  UNL     1      -8.874  46.947 -25.896  1.00  0.00    -0.297 OA
HETATM   11  C2  UNL     1     -11.514  46.128 -26.852  1.00  0.00    -0.009 C 
HETATM   12  C10 UNL     1     -10.212  46.179 -29.114  1.00  0.00     0.003 C 
HETATM   13  C1  UNL     1     -10.976  44.777 -26.325  1.00  0.00     0.021 C 
HETATM   14  C3  UNL     1     -11.898  47.045 -25.650  1.00  0.00     0.022 C 
HETATM   15  C7  UNL     1     -12.770  45.829 -27.690  1.00  0.00    -0.067 C 
HETATM   16  C4  UNL     1     -13.157  46.607 -24.915  1.00  0.00     0.084 C 
HETATM   17  C5  UNL     1     -14.311  46.496 -25.875  1.00  0.00     0.149 C 
HETATM   18  O1  UNL     1     -15.473  46.706 -25.535  1.00  0.00    -0.293 OA
HETATM   19  C6  UNL     1     -14.026  46.039 -27.253  1.00  0.00     0.053 C 
HETATM   20  C8  UNL     1     -12.554  45.236 -29.063  1.00  0.00     0.035 C 
HETATM   21  C9  UNL     1     -11.535  46.024 -29.876  1.00  0.00     0.010 C 
HETATM   22  C17 UNL     1      -8.814  46.504 -31.310  1.00  0.00     0.009 C 
HETATM   23  C18 UNL     1      -7.458  47.173 -31.606  1.00  0.00     0.047 C 
BRANCH   3  24
HETATM   24  O3  UNL     1      -7.538  49.252 -30.455  1.00  0.00    -0.381 OA
HETATM   25  H25 UNL     1      -6.927  49.874 -30.015  1.00  0.00     0.211 HD
ENDBRANCH   3  24
ENDBRANCH   1   3
BRANCH   1  26
HETATM   26  C21 UNL     1      -4.861  48.848 -29.114  1.00  0.00     0.260 C 
BRANCH  26  27
HETATM   27  O5  UNL     1      -3.926  48.156 -28.289  1.00  0.00    -0.314 OA
BRANCH  27  28
HETATM   28  C22 UNL     1      -4.149  48.311 -26.953  1.00  0.00     0.259 C 
HETATM   29  O6  UNL     1      -5.199  48.059 -26.383  1.00  0.00    -0.265 OA
BRANCH  28  30
HETATM   30  C23 UNL     1      -2.919  48.864 -26.275  1.00  0.00     0.120 C 
BRANCH  30  31
HETATM   31  C24 UNL     1      -3.058  48.792 -24.761  1.00  0.00     0.112 C 
BRANCH  31  32
HETATM   32  C25 UNL     1      -2.945  50.162 -24.125  1.00  0.00     0.218 C 
HETATM   33  O7  UNL     1      -3.333  50.410 -22.988  1.00  0.00    -0.274 OA
HETATM   34  N1  UNL     1      -2.386  51.106 -24.956  1.00  0.00    -0.360 N 
HETATM   35  H32 UNL     1      -1.871  50.786 -25.774  1.00  0.00     0.162 HD
BRANCH  34  36
HETATM   36  C26 UNL     1      -2.149  52.465 -24.487  1.00  0.00     0.142 C 
BRANCH  36  37
HETATM   37  C27 UNL     1      -0.685  52.930 -24.576  1.00  0.00     0.134 C 
BRANCH  37  38
HETATM   38  C28 UNL     1      -0.017  52.497 -23.283  1.00  0.00     0.150 C 
HETATM   39  O8  UNL     1      -0.179  51.436 -22.698  1.00  0.00    -0.649 OA
BRANCH  38  40
HETATM   40  O9  UNL     1       0.812  53.433 -22.778  1.00  0.00    -0.776 OA
HETATM   41  H36 UNL     1       1.171  53.028 -21.960  1.00  0.00     0.167 HD
ENDBRANCH  38  40
ENDBRANCH  37  38
BRANCH  37  42
HETATM   42  C29 UNL     1       0.120  52.516 -25.805  1.00  0.00    -0.042 A 
HETATM   43  C30 UNL     1      -0.263  52.836 -27.117  1.00  0.00     0.008 A 
HETATM   44  C31 UNL     1       0.524  52.450 -28.207  1.00  0.00     0.001 A 
HETATM   45  C32 UNL     1       1.710  51.750 -28.007  1.00  0.00     0.000 A 
HETATM   46  C33 UNL     1       2.122  51.446 -26.715  1.00  0.00     0.001 A 
HETATM   47  C34 UNL     1       1.337  51.831 -25.624  1.00  0.00     0.008 A 
ENDBRANCH  37  42
ENDBRANCH  36  37
ENDBRANCH  34  36
ENDBRANCH  31  32
ENDBRANCH  30  31
ENDBRANCH  28  30
ENDBRANCH  27  28
ENDBRANCH  26  27
ENDBRANCH   1  26
TORSDOF 13
ENDMDL
MODEL 4
REMARK minimizedAffinity -9.22950268
REMARK CNNscore 0.496193588
REMARK CNNaffinity 6.73238945
REMARK  13 active torsions:
REMARK  status: ('A' for Active; 'I' for Inactive)
REMARK    1  A    between atoms: C19_21  and  O3_22 
REMARK    2  A    between atoms: C19_21  and  C20_23 
REMARK    3  A    between atoms: C20_23  and  C21_25 
REMARK    4  A    between atoms: C21_25  and  O5_26 
REMARK    5  A    between atoms: O5_26  and  C22_27 
REMARK    6  A    between atoms: C22_27  and  C23_29 
REMARK    7  A    between atoms: C23_29  and  C24_30 
REMARK    8  A    between atoms: C24_30  and  C25_31 
REMARK       I    between atoms: C25_31  and  N1_33 
REMARK    9  A    between atoms: N1_33  and  C26_34 
REMARK   10  A    between atoms: C26_34  and  C27_35 
REMARK   11  A    between atoms: C27_35  and  C28_36 
REMARK   12  A    between atoms: C27_35  and  C29_39 
REMARK   13  A    between atoms: C28_36  and  O9_38 
ROOT
HETATM    1  C20 UNL     1      -6.325  47.224 -28.833  1.00  0.00     0.185 C 
HETATM    2  O4  UNL     1      -6.636  46.077 -28.506  1.00  0.00    -0.292 OA
ENDROOT
BRANCH   1   3
HETATM    3  C19 UNL     1      -6.765  47.849 -30.190  1.00  0.00     0.128 C 
HETATM    4  C14 UNL     1      -7.519  46.878 -31.151  1.00  0.00     0.005 C 
HETATM    5  C13 UNL     1      -9.021  46.704 -30.897  1.00  0.00     0.091 C 
HETATM    6  C15 UNL     1      -6.838  45.483 -31.174  1.00  0.00     0.019 C 
HETATM    7  C16 UNL     1      -7.376  47.650 -32.491  1.00  0.00     0.002 C 
HETATM    8  C12 UNL     1      -9.659  45.982 -32.076  1.00  0.00     0.133 C 
HETATM    9  C11 UNL     1      -9.456  46.612 -33.466  1.00  0.00     0.072 C 
HETATM   10  O2  UNL     1     -10.339  44.976 -31.876  1.00  0.00    -0.297 OA
HETATM   11  C2  UNL     1     -10.136  45.850 -34.659  1.00  0.00    -0.009 C 
HETATM   12  C10 UNL     1      -7.942  46.890 -33.699  1.00  0.00     0.003 C 
HETATM   13  C1  UNL     1      -9.642  44.390 -34.788  1.00  0.00     0.021 C 
HETATM   14  C3  UNL     1     -11.681  45.866 -34.448  1.00  0.00     0.022 C 
HETATM   15  C7  UNL     1      -9.791  46.572 -35.975  1.00  0.00    -0.067 C 
HETATM   16  C4  UNL     1     -12.478  45.500 -35.692  1.00  0.00     0.084 C 
HETATM   17  C5  UNL     1     -12.100  46.398 -36.839  1.00  0.00     0.149 C 
HETATM   18  O1  UNL     1     -12.895  46.707 -37.724  1.00  0.00    -0.293 OA
HETATM   19  C6  UNL     1     -10.694  46.850 -36.932  1.00  0.00     0.053 C 
HETATM   20  C8  UNL     1      -8.343  46.947 -36.192  1.00  0.00     0.035 C 
HETATM   21  C9  UNL     1      -7.754  47.687 -34.998  1.00  0.00     0.010 C 
HETATM   22  C17 UNL     1      -5.907  48.052 -32.520  1.00  0.00     0.009 C 
HETATM   23  C18 UNL     1      -5.533  48.274 -31.042  1.00  0.00     0.047 C 
BRANCH   3  24
HETATM   24  O3  UNL     1      -7.534  49.045 -30.014  1.00  0.00    -0.381 OA
HETATM   25  H25 UNL     1      -7.974  49.010 -29.143  1.00  0.00     0.211 HD
ENDBRANCH   3  24
ENDBRANCH   1   3
BRANCH   1  26
HETATM   26  C21 UNL     1      -5.546  48.105 -27.861  1.00  0.00     0.260 C 
BRANCH  26  27
HETATM   27  O5  UNL     1      -4.143  47.985 -28.089  1.00  0.00    -0.314 OA
BRANCH  27  28
HETATM   28  C22 UNL     1      -3.415  49.028 -27.598  1.00  0.00     0.259 C 
HETATM   29  O6  UNL     1      -3.340  50.135 -28.110  1.00  0.00    -0.265 OA
BRANCH  28  30
HETATM   30  C23 UNL     1      -2.688  48.616 -26.342  1.00  0.00     0.120 C 
BRANCH  30  31
HETATM   31  C24 UNL     1      -3.546  48.876 -25.111  1.00  0.00     0.112 C 
BRANCH  31  32
HETATM   32  C25 UNL     1      -2.884  49.859 -24.168  1.00  0.00     0.218 C 
HETATM   33  O7  UNL     1      -3.386  50.215 -23.106  1.00  0.00    -0.274 OA
HETATM   34  N1  UNL     1      -1.676  50.331 -24.629  1.00  0.00    -0.360 N 
HETATM   35  H32 UNL     1      -1.211  49.820 -25.378  1.00  0.00     0.162 HD
BRANCH  34  36
HETATM   36  C26 UNL     1      -0.875  51.242 -23.823  1.00  0.00     0.142 C 
BRANCH  36  37
HETATM   37  C27 UNL     1      -0.328  52.463 -24.583  1.00  0.00     0.134 C 
BRANCH  37  38
HETATM   38  C28 UNL     1       0.497  53.256 -23.586  1.00  0.00     0.150 C 
HETATM   39  O8  UNL     1       0.691  52.975 -22.413  1.00  0.00    -0.649 OA
BRANCH  38  40
HETATM   40  O9  UNL     1       1.027  54.378 -24.114  1.00  0.00    -0.776 OA
HETATM   41  H36 UNL     1       1.529  54.784 -23.375  1.00  0.00     0.167 HD
ENDBRANCH  38  40
ENDBRANCH  37  38
BRANCH  37  42
HETATM   42  C29 UNL     1       0.429  52.210 -25.884  1.00  0.00    -0.042 A 
HETATM   43  C30 UNL     1      -0.079  52.553 -27.147  1.00  0.00     0.008 A 
HETATM   44  C31 UNL     1       0.666  52.319 -28.307  1.00  0.00     0.001 A 
HETATM   45  C32 UNL     1       1.935  51.751 -28.226  1.00  0.00     0.000 A 
HETATM   46  C33 UNL     1       2.467  51.427 -26.984  1.00  0.00     0.001 A 
HETATM   47  C34 UNL     1       1.724  51.661 -25.824  1.00  0.00     0.008 A 
ENDBRANCH  37  42
ENDBRANCH  36  37
ENDBRANCH  34  36
ENDBRANCH  31  32
ENDBRANCH  30  31
ENDBRANCH  28  30
ENDBRANCH  27  28
ENDBRANCH  26  27
ENDBRANCH   1  26
TORSDOF 13
ENDMDL
MODEL 5
REMARK minimizedAffinity -8.92082596
REMARK CNNscore 0.485800385
REMARK CNNaffinity 7.04905367
REMARK  13 active torsions:
REMARK  status: ('A' for Active; 'I' for Inactive)
REMARK    1  A    between atoms: C19_21  and  O3_22 
REMARK    2  A    between atoms: C19_21  and  C20_23 
REMARK    3  A    between atoms: C20_23  and  C21_25 
REMARK    4  A    between atoms: C21_25  and  O5_26 
REMARK    5  A    between atoms: O5_26  and  C22_27 
REMARK    6  A    between atoms: C22_27  and  C23_29 
REMARK    7  A    between atoms: C23_29  and  C24_30 
REMARK    8  A    between atoms: C24_30  and  C25_31 
REMARK       I    between atoms: C25_31  and  N1_33 
REMARK    9  A    between atoms: N1_33  and  C26_34 
REMARK   10  A    between atoms: C26_34  and  C27_35 
REMARK   11  A    between atoms: C27_35  and  C28_36 
REMARK   12  A    between atoms: C27_35  and  C29_39 
REMARK   13  A    between atoms: C28_36  and  O9_38 
ROOT
HETATM    1  C20 UNL     1      -1.148  50.118 -19.466  1.00  0.00     0.185 C 
HETATM    2  O4  UNL     1      -0.519  49.670 -20.427  1.00  0.00    -0.292 OA
ENDROOT
BRANCH   1   3
HETATM    3  C19 UNL     1      -2.661  50.478 -19.560  1.00  0.00     0.128 C 
HETATM    4  C14 UNL     1      -3.640  49.293 -19.297  1.00  0.00     0.005 C 
HETATM    5  C13 UNL     1      -3.945  48.980 -17.826  1.00  0.00     0.091 C 
HETATM    6  C15 UNL     1      -3.150  48.002 -20.005  1.00  0.00     0.019 C 
HETATM    7  C16 UNL     1      -4.944  49.870 -19.912  1.00  0.00     0.002 C 
HETATM    8  C12 UNL     1      -5.124  48.021 -17.741  1.00  0.00     0.133 C 
HETATM    9  C11 UNL     1      -6.424  48.458 -18.440  1.00  0.00     0.072 C 
HETATM   10  O2  UNL     1      -5.015  46.982 -17.092  1.00  0.00    -0.297 OA
HETATM   11  C2  UNL     1      -7.625  47.453 -18.323  1.00  0.00    -0.009 C 
HETATM   12  C10 UNL     1      -6.116  48.878 -19.907  1.00  0.00     0.003 C 
HETATM   13  C1  UNL     1      -7.290  46.060 -18.905  1.00  0.00     0.021 C 
HETATM   14  C3  UNL     1      -8.019  47.315 -16.820  1.00  0.00     0.022 C 
HETATM   15  C7  UNL     1      -8.821  48.008 -19.118  1.00  0.00    -0.067 C 
HETATM   16  C4  UNL     1      -9.383  46.676 -16.596  1.00  0.00     0.084 C 
HETATM   17  C5  UNL     1     -10.446  47.434 -17.345  1.00  0.00     0.149 C 
HETATM   18  O1  UNL     1     -11.605  47.512 -16.946  1.00  0.00    -0.293 OA
HETATM   19  C6  UNL     1     -10.082  48.032 -18.649  1.00  0.00     0.053 C 
HETATM   20  C8  UNL     1      -8.541  48.518 -20.513  1.00  0.00     0.035 C 
HETATM   21  C9  UNL     1      -7.370  49.491 -20.546  1.00  0.00     0.010 C 
HETATM   22  C17 UNL     1      -4.489  50.436 -21.252  1.00  0.00     0.009 C 
HETATM   23  C18 UNL     1      -3.047  50.917 -21.003  1.00  0.00     0.047 C 
BRANCH   3  24
HETATM   24  O3  UNL     1      -3.009  51.587 -18.723  1.00  0.00    -0.381 OA
HETATM   25  H25 UNL     1      -2.378  51.628 -17.978  1.00  0.00     0.211 HD
ENDBRANCH   3  24
ENDBRANCH   1   3
BRANCH   1  26
HETATM   26  C21 UNL     1      -0.463  50.264 -18.111  1.00  0.00     0.260 C 
BRANCH  26  27
HETATM   27  O5  UNL     1      -0.307  51.641 -17.773  1.00  0.00    -0.314 OA
BRANCH  27  28
HETATM   28  C22 UNL     1       0.986  52.012 -17.555  1.00  0.00     0.259 C 
HETATM   29  O6  UNL     1       1.688  51.608 -16.640  1.00  0.00    -0.265 OA
BRANCH  28  30
HETATM   30  C23 UNL     1       1.427  53.015 -18.592  1.00  0.00     0.120 C 
BRANCH  30  31
HETATM   31  C24 UNL     1       0.285  53.349 -19.541  1.00  0.00     0.112 C 
BRANCH  31  32
HETATM   32  C25 UNL     1       0.791  53.671 -20.932  1.00  0.00     0.218 C 
HETATM   33  O7  UNL     1       1.695  54.471 -21.151  1.00  0.00    -0.274 OA
HETATM   34  N1  UNL     1       0.123  52.994 -21.928  1.00  0.00    -0.360 N 
HETATM   35  H32 UNL     1      -0.432  52.179 -21.670  1.00  0.00     0.162 HD
BRANCH  34  36
HETATM   36  C26 UNL     1       0.518  53.138 -23.322  1.00  0.00     0.142 C 
BRANCH  36  37
HETATM   37  C27 UNL     1       0.211  51.918 -24.207  1.00  0.00     0.134 C 
BRANCH  37  38
HETATM   38  C28 UNL     1      -1.296  51.735 -24.181  1.00  0.00     0.150 C 
HETATM   39  O8  UNL     1      -2.136  52.617 -24.078  1.00  0.00    -0.649 OA
BRANCH  38  40
HETATM   40  O9  UNL     1      -1.673  50.443 -24.268  1.00  0.00    -0.776 OA
HETATM   41  H36 UNL     1      -2.654  50.472 -24.243  1.00  0.00     0.167 HD
ENDBRANCH  38  40
ENDBRANCH  37  38
BRANCH  37  42
HETATM   42  C29 UNL     1       0.766  51.912 -25.628  1.00  0.00    -0.042 A 
HETATM   43  C30 UNL     1       2.090  51.560 -25.935  1.00  0.00     0.008 A 
HETATM   44  C31 UNL     1       2.541  51.551 -27.258  1.00  0.00     0.001 A 
HETATM   45  C32 UNL     1       1.678  51.880 -28.299  1.00  0.00     0.000 A 
HETATM   46  C33 UNL     1       0.356  52.207 -28.021  1.00  0.00     0.001 A 
HETATM   47  C34 UNL     1      -0.097  52.216 -26.699  1.00  0.00     0.008 A 
ENDBRANCH  37  42
ENDBRANCH  36  37
ENDBRANCH  34  36
ENDBRANCH  31  32
ENDBRANCH  30  31
ENDBRANCH  28  30
ENDBRANCH  27  28
ENDBRANCH  26  27
ENDBRANCH   1  26
TORSDOF 13
ENDMDL
MODEL 6
REMARK minimizedAffinity -9.27909756
REMARK CNNscore 0.480756283
REMARK CNNaffinity 6.36265135
REMARK  13 active torsions:
REMARK  status: ('A' for Active; 'I' for Inactive)
REMARK    1  A    between atoms: C19_21  and  O3_22 
REMARK    2  A    between atoms: C19_21  and  C20_23 
REMARK    3  A    between atoms: C20_23  and  C21_25 
REMARK    4  A    between atoms: C21_25  and  O5_26 
REMARK    5  A    between atoms: O5_26  and  C22_27 
REMARK    6  A    between atoms: C22_27  and  C23_29 
REMARK    7  A    between atoms: C23_29  and  C24_30 
REMARK    8  A    between atoms: C24_30  and  C25_31 
REMARK       I    between atoms: C25_31  and  N1_33 
REMARK    9  A    between atoms: N1_33  and  C26_34 
REMARK   10  A    between atoms: C26_34  and  C27_35 
REMARK   11  A    between atoms: C27_35  and  C28_36 
REMARK   12  A    between atoms: C27_35  and  C29_39 
REMARK   13  A    between atoms: C28_36  and  O9_38 
ROOT
HETATM    1  C20 UNL     1      -8.716  47.734 -28.429  1.00  0.00     0.185 C 
HETATM    2  O4  UNL     1      -8.421  48.341 -27.396  1.00  0.00    -0.292 OA
ENDROOT
BRANCH   1   3
HETATM    3  C19 UNL     1     -10.194  47.491 -28.854  1.00  0.00     0.128 C 
HETATM    4  C14 UNL     1     -11.113  46.895 -27.744  1.00  0.00     0.005 C 
HETATM    5  C13 UNL     1     -11.706  47.896 -26.746  1.00  0.00     0.091 C 
HETATM    6  C15 UNL     1     -10.381  45.768 -26.967  1.00  0.00     0.019 C 
HETATM    7  C16 UNL     1     -12.291  46.373 -28.611  1.00  0.00     0.002 C 
HETATM    8  C12 UNL     1     -12.798  47.219 -25.928  1.00  0.00     0.133 C 
HETATM    9  C11 UNL     1     -13.944  46.558 -26.716  1.00  0.00     0.072 C 
HETATM   10  O2  UNL     1     -12.753  47.265 -24.700  1.00  0.00    -0.297 OA
HETATM   11  C2  UNL     1     -15.059  45.878 -25.845  1.00  0.00    -0.009 C 
HETATM   12  C10 UNL     1     -13.355  45.614 -27.805  1.00  0.00     0.003 C 
HETATM   13  C1  UNL     1     -14.498  44.771 -24.923  1.00  0.00     0.021 C 
HETATM   14  C3  UNL     1     -15.761  46.974 -24.985  1.00  0.00     0.022 C 
HETATM   15  C7  UNL     1     -16.092  45.221 -26.779  1.00  0.00    -0.067 C 
HETATM   16  C4  UNL     1     -17.087  46.532 -24.382  1.00  0.00     0.084 C 
HETATM   17  C5  UNL     1     -18.015  46.043 -25.461  1.00  0.00     0.149 C 
HETATM   18  O1  UNL     1     -19.236  46.152 -25.379  1.00  0.00    -0.293 OA
HETATM   19  C6  UNL     1     -17.423  45.337 -26.619  1.00  0.00     0.053 C 
HETATM   20  C8  UNL     1     -15.554  44.375 -27.910  1.00  0.00     0.035 C 
HETATM   21  C9  UNL     1     -14.482  45.102 -28.713  1.00  0.00     0.010 C 
HETATM   22  C17 UNL     1     -11.600  45.642 -29.754  1.00  0.00     0.009 C 
HETATM   23  C18 UNL     1     -10.288  46.418 -29.979  1.00  0.00     0.047 C 
BRANCH   3  24
HETATM   24  O3  UNL     1     -10.802  48.667 -29.403  1.00  0.00    -0.381 OA
HETATM   25  H25 UNL     1     -10.355  49.453 -29.034  1.00  0.00     0.211 HD
ENDBRANCH   3  24
ENDBRANCH   1   3
BRANCH   1  26
HETATM   26  C21 UNL     1      -7.614  47.262 -29.372  1.00  0.00     0.260 C 
BRANCH  26  27
HETATM   27  O5  UNL     1      -6.391  47.076 -28.662  1.00  0.00    -0.314 OA
BRANCH  27  28
HETATM   28  C22 UNL     1      -5.334  47.747 -29.199  1.00  0.00     0.259 C 
HETATM   29  O6  UNL     1      -4.967  47.664 -30.362  1.00  0.00    -0.265 OA
BRANCH  28  30
HETATM   30  C23 UNL     1      -4.660  48.595 -28.148  1.00  0.00     0.120 C 
BRANCH  30  31
HETATM   31  C24 UNL     1      -4.944  48.054 -26.754  1.00  0.00     0.112 C 
BRANCH  31  32
HETATM   32  C25 UNL     1      -4.154  48.797 -25.696  1.00  0.00     0.218 C 
HETATM   33  O7  UNL     1      -3.559  48.234 -24.782  1.00  0.00    -0.274 OA
HETATM   34  N1  UNL     1      -4.186  50.164 -25.849  1.00  0.00    -0.360 N 
HETATM   35  H32 UNL     1      -4.482  50.544 -26.747  1.00  0.00     0.162 HD
BRANCH  34  36
HETATM   36  C26 UNL     1      -3.434  51.032 -24.954  1.00  0.00     0.142 C 
BRANCH  36  37
HETATM   37  C27 UNL     1      -1.943  51.182 -25.306  1.00  0.00     0.134 C 
BRANCH  37  38
HETATM   38  C28 UNL     1      -1.882  52.021 -26.570  1.00  0.00     0.150 C 
HETATM   39  O8  UNL     1      -2.600  52.970 -26.850  1.00  0.00    -0.649 OA
BRANCH  38  40
HETATM   40  O9  UNL     1      -0.928  51.612 -27.430  1.00  0.00    -0.776 OA
HETATM   41  H36 UNL     1      -0.997  52.233 -28.187  1.00  0.00     0.167 HD
ENDBRANCH  38  40
ENDBRANCH  37  38
BRANCH  37  42
HETATM   42  C29 UNL     1      -1.005  51.705 -24.223  1.00  0.00    -0.042 A 
HETATM   43  C30 UNL     1      -0.134  52.788 -24.419  1.00  0.00     0.008 A 
HETATM   44  C31 UNL     1       0.690  53.242 -23.384  1.00  0.00     0.001 A 
HETATM   45  C32 UNL     1       0.650  52.632 -22.133  1.00  0.00     0.000 A 
HETATM   46  C33 UNL     1      -0.223  51.575 -21.909  1.00  0.00     0.001 A 
HETATM   47  C34 UNL     1      -1.049  51.121 -22.942  1.00  0.00     0.008 A 
ENDBRANCH  37  42
ENDBRANCH  36  37
ENDBRANCH  34  36
ENDBRANCH  31  32
ENDBRANCH  30  31
ENDBRANCH  28  30
ENDBRANCH  27  28
ENDBRANCH  26  27
ENDBRANCH   1  26
TORSDOF 13
ENDMDL
MODEL 7
REMARK minimizedAffinity -9.53700733
REMARK CNNscore 0.474696726
REMARK CNNaffinity 7.59857416
REMARK  13 active torsions:
REMARK  status: ('A' for Active; 'I' for Inactive)
REMARK    1  A    between atoms: C19_21  and  O3_22 
REMARK    2  A    between atoms: C19_21  and  C20_23 
REMARK    3  A    between atoms: C20_23  and  C21_25 
REMARK    4  A    between atoms: C21_25  and  O5_26 
REMARK    5  A    between atoms: O5_26  and  C22_27 
REMARK    6  A    between atoms: C22_27  and  C23_29 
REMARK    7  A    between atoms: C23_29  and  C24_30 
REMARK    8  A    between atoms: C24_30  and  C25_31 
REMARK       I    between atoms: C25_31  and  N1_33 
REMARK    9  A    between atoms: N1_33  and  C26_34 
REMARK   10  A    between atoms: C26_34  and  C27_35 
REMARK   11  A    between atoms: C27_35  and  C28_36 
REMARK   12  A    between atoms: C27_35  and  C29_39 
REMARK   13  A    between atoms: C28_36  and  O9_38 
ROOT
HETATM    1  C20 UNL     1      -3.799  49.576 -20.050  1.00  0.00     0.185 C 
HETATM    2  O4  UNL     1      -4.446  48.944 -19.212  1.00  0.00    -0.292 OA
ENDROOT
BRANCH   1   3
HETATM    3  C19 UNL     1      -2.319  49.998 -19.810  1.00  0.00     0.128 C 
HETATM    4  C14 UNL     1      -1.879  50.045 -18.314  1.00  0.00     0.005 C 
HETATM    5  C13 UNL     1      -1.457  48.709 -17.690  1.00  0.00     0.091 C 
HETATM    6  C15 UNL     1      -2.978  50.698 -17.434  1.00  0.00     0.019 C 
HETATM    7  C16 UNL     1      -0.595  50.911 -18.431  1.00  0.00     0.002 C 
HETATM    8  C12 UNL     1      -0.781  48.961 -16.350  1.00  0.00     0.133 C 
HETATM    9  C11 UNL     1       0.428  49.916 -16.353  1.00  0.00     0.072 C 
HETATM   10  O2  UNL     1      -1.180  48.370 -15.347  1.00  0.00    -0.297 OA
HETATM   11  C2  UNL     1       1.111  50.145 -14.958  1.00  0.00    -0.009 C 
HETATM   12  C10 UNL     1       0.047  51.241 -17.076  1.00  0.00     0.003 C 
HETATM   13  C1  UNL     1       0.133  50.718 -13.907  1.00  0.00     0.021 C 
HETATM   14  C3  UNL     1       1.690  48.788 -14.454  1.00  0.00     0.022 C 
HETATM   15  C7  UNL     1       2.256  51.161 -15.124  1.00  0.00    -0.067 C 
HETATM   16  C4  UNL     1       2.689  48.928 -13.314  1.00  0.00     0.084 C 
HETATM   17  C5  UNL     1       3.806  49.856 -13.708  1.00  0.00     0.149 C 
HETATM   18  O1  UNL     1       4.949  49.734 -13.272  1.00  0.00    -0.293 OA
HETATM   19  C6  UNL     1       3.481  50.999 -14.589  1.00  0.00     0.053 C 
HETATM   20  C8  UNL     1       1.951  52.418 -15.906  1.00  0.00     0.035 C 
HETATM   21  C9  UNL     1       1.297  52.116 -17.248  1.00  0.00     0.010 C 
HETATM   22  C17 UNL     1      -1.022  52.069 -19.324  1.00  0.00     0.009 C 
HETATM   23  C18 UNL     1      -2.067  51.461 -20.279  1.00  0.00     0.047 C 
BRANCH   3  24
HETATM   24  O3  UNL     1      -1.397  49.198 -20.559  1.00  0.00    -0.381 OA
HETATM   25  H25 UNL     1      -1.803  48.325 -20.727  1.00  0.00     0.211 HD
ENDBRANCH   3  24
ENDBRANCH   1   3
BRANCH   1  26
HETATM   26  C21 UNL     1      -4.424  49.902 -21.403  1.00  0.00     0.260 C 
BRANCH  26  27
HETATM   27  O5  UNL     1      -3.734  49.223 -22.451  1.00  0.00    -0.314 OA
BRANCH  27  28
HETATM   28  C22 UNL     1      -4.501  48.317 -23.119  1.00  0.00     0.259 C 
HETATM   29  O6  UNL     1      -5.125  47.405 -22.599  1.00  0.00    -0.265 OA
BRANCH  28  30
HETATM   30  C23 UNL     1      -4.454  48.583 -24.604  1.00  0.00     0.120 C 
BRANCH  30  31
HETATM   31  C24 UNL     1      -3.049  48.976 -25.038  1.00  0.00     0.112 C 
BRANCH  31  32
HETATM   32  C25 UNL     1      -2.934  50.470 -25.263  1.00  0.00     0.218 C 
HETATM   33  O7  UNL     1      -3.466  51.053 -26.203  1.00  0.00    -0.274 OA
HETATM   34  N1  UNL     1      -2.155  51.106 -24.323  1.00  0.00    -0.360 N 
HETATM   35  H32 UNL     1      -1.954  50.619 -23.452  1.00  0.00     0.162 HD
BRANCH  34  36
HETATM   36  C26 UNL     1      -1.982  52.552 -24.353  1.00  0.00     0.142 C 
BRANCH  36  37
HETATM   37  C27 UNL     1      -0.533  53.023 -24.565  1.00  0.00     0.134 C 
BRANCH  37  38
HETATM   38  C28 UNL     1       0.224  52.669 -23.297  1.00  0.00     0.150 C 
HETATM   39  O8  UNL     1       0.198  51.600 -22.706  1.00  0.00    -0.649 OA
BRANCH  38  40
HETATM   40  O9  UNL     1       0.965  53.691 -22.822  1.00  0.00    -0.776 OA
HETATM   41  H36 UNL     1       1.395  53.330 -22.017  1.00  0.00     0.167 HD
ENDBRANCH  38  40
ENDBRANCH  37  38
BRANCH  37  42
HETATM   42  C29 UNL     1       0.194  52.546 -25.819  1.00  0.00    -0.042 A 
HETATM   43  C30 UNL     1      -0.349  52.655 -27.109  1.00  0.00     0.008 A 
HETATM   44  C31 UNL     1       0.370  52.222 -28.228  1.00  0.00     0.001 A 
HETATM   45  C32 UNL     1       1.645  51.684 -28.081  1.00  0.00     0.000 A 
HETATM   46  C33 UNL     1       2.212  51.590 -26.815  1.00  0.00     0.001 A 
HETATM   47  C34 UNL     1       1.496  52.024 -25.696  1.00  0.00     0.008 A 
ENDBRANCH  37  42
ENDBRANCH  36  37
ENDBRANCH  34  36
ENDBRANCH  31  32
ENDBRANCH  30  31
ENDBRANCH  28  30
ENDBRANCH  27  28
ENDBRANCH  26  27
ENDBRANCH   1  26
TORSDOF 13
ENDMDL
MODEL 8
REMARK minimizedAffinity -8.88973713
REMARK CNNscore 0.450729787
REMARK CNNaffinity 6.76659918
REMARK  13 active torsions:
REMARK  status: ('A' for Active; 'I' for Inactive)
REMARK    1  A    between atoms: C19_21  and  O3_22 
REMARK    2  A    between atoms: C19_21  and  C20_23 
REMARK    3  A    between atoms: C20_23  and  C21_25 
REMARK    4  A    between atoms: C21_25  and  O5_26 
REMARK    5  A    between atoms: O5_26  and  C22_27 
REMARK    6  A    between atoms: C22_27  and  C23_29 
REMARK    7  A    between atoms: C23_29  and  C24_30 
REMARK    8  A    between atoms: C24_30  and  C25_31 
REMARK       I    between atoms: C25_31  and  N1_33 
REMARK    9  A    between atoms: N1_33  and  C26_34 
REMARK   10  A    between atoms: C26_34  and  C27_35 
REMARK   11  A    between atoms: C27_35  and  C28_36 
REMARK   12  A    between atoms: C27_35  and  C29_39 
REMARK   13  A    between atoms: C28_36  and  O9_38 
ROOT
HETATM    1  C20 UNL     1      -2.365  49.351 -18.036  1.00  0.00     0.185 C 
HETATM    2  O4  UNL     1      -1.728  50.312 -17.600  1.00  0.00    -0.292 OA
ENDROOT
BRANCH   1   3
HETATM    3  C19 UNL     1      -2.204  48.844 -19.500  1.00  0.00     0.128 C 
HETATM    4  C14 UNL     1      -2.071  49.965 -20.577  1.00  0.00     0.005 C 
HETATM    5  C13 UNL     1      -0.668  50.557 -20.769  1.00  0.00     0.091 C 
HETATM    6  C15 UNL     1      -3.079  51.114 -20.306  1.00  0.00     0.019 C 
HETATM    7  C16 UNL     1      -2.397  49.155 -21.860  1.00  0.00     0.002 C 
HETATM    8  C12 UNL     1      -0.639  51.402 -22.035  1.00  0.00     0.133 C 
HETATM    9  C11 UNL     1      -1.075  50.711 -23.340  1.00  0.00     0.072 C 
HETATM   10  O2  UNL     1      -0.231  52.562 -21.981  1.00  0.00    -0.297 OA
HETATM   11  C2  UNL     1      -1.022  51.606 -24.629  1.00  0.00    -0.009 C 
HETATM   12  C10 UNL     1      -2.452  50.016 -23.131  1.00  0.00     0.003 C 
HETATM   13  C1  UNL     1      -1.909  52.867 -24.512  1.00  0.00     0.021 C 
HETATM   14  C3  UNL     1       0.458  52.026 -24.888  1.00  0.00     0.022 C 
HETATM   15  C7  UNL     1      -1.539  50.788 -25.827  1.00  0.00    -0.067 C 
HETATM   16  C4  UNL     1       0.710  52.572 -26.286  1.00  0.00     0.084 C 
HETATM   17  C5  UNL     1       0.261  51.580 -27.324  1.00  0.00     0.149 C 
HETATM   18  O1  UNL     1       0.804  51.485 -28.423  1.00  0.00    -0.293 OA
HETATM   19  C6  UNL     1      -0.928  50.752 -27.025  1.00  0.00     0.053 C 
HETATM   20  C8  UNL     1      -2.825  50.020 -25.629  1.00  0.00     0.035 C 
HETATM   21  C9  UNL     1      -2.800  49.171 -24.364  1.00  0.00     0.010 C 
HETATM   22  C17 UNL     1      -3.638  48.360 -21.478  1.00  0.00     0.009 C 
HETATM   23  C18 UNL     1      -3.471  48.074 -19.974  1.00  0.00     0.047 C 
BRANCH   3  24
HETATM   24  O3  UNL     1      -1.123  47.914 -19.638  1.00  0.00    -0.381 OA
HETATM   25  H25 UNL     1      -0.466  48.089 -18.936  1.00  0.00     0.211 HD
ENDBRANCH   3  24
ENDBRANCH   1   3
BRANCH   1  26
HETATM   26  C21 UNL     1      -3.292  48.571 -17.109  1.00  0.00     0.260 C 
BRANCH  26  27
HETATM   27  O5  UNL     1      -2.679  47.350 -16.698  1.00  0.00    -0.314 OA
BRANCH  27  28
HETATM   28  C22 UNL     1      -2.849  47.065 -15.376  1.00  0.00     0.259 C 
HETATM   29  O6  UNL     1      -3.929  46.933 -14.820  1.00  0.00    -0.265 OA
BRANCH  28  30
HETATM   30  C23 UNL     1      -1.512  46.960 -14.684  1.00  0.00     0.120 C 
BRANCH  30  31
HETATM   31  C24 UNL     1      -0.702  48.234 -14.877  1.00  0.00     0.112 C 
BRANCH  31  32
HETATM   32  C25 UNL     1       0.317  48.419 -13.772  1.00  0.00     0.218 C 
HETATM   33  O7  UNL     1       0.864  47.483 -13.197  1.00  0.00    -0.274 OA
HETATM   34  N1  UNL     1       0.554  49.739 -13.461  1.00  0.00    -0.360 N 
HETATM   35  H32 UNL     1       0.263  50.453 -14.128  1.00  0.00     0.162 HD
BRANCH  34  36
HETATM   36  C26 UNL     1       1.548  50.103 -12.461  1.00  0.00     0.142 C 
BRANCH  36  37
HETATM   37  C27 UNL     1       2.874  50.633 -13.035  1.00  0.00     0.134 C 
BRANCH  37  38
HETATM   38  C28 UNL     1       3.833  49.457 -13.057  1.00  0.00     0.150 C 
HETATM   39  O8  UNL     1       3.740  48.427 -12.406  1.00  0.00    -0.649 OA
BRANCH  38  40
HETATM   40  O9  UNL     1       4.878  49.643 -13.890  1.00  0.00    -0.776 OA
HETATM   41  H36 UNL     1       5.406  48.820 -13.809  1.00  0.00     0.167 HD
ENDBRANCH  38  40
ENDBRANCH  37  38
BRANCH  37  42
HETATM   42  C29 UNL     1       2.828  51.363 -14.373  1.00  0.00    -0.042 A 
HETATM   43  C30 UNL     1       1.636  51.812 -14.964  1.00  0.00     0.008 A 
HETATM   44  C31 UNL     1       1.653  52.496 -16.183  1.00  0.00     0.001 A 
HETATM   45  C32 UNL     1       2.859  52.756 -16.829  1.00  0.00     0.000 A 
HETATM   46  C33 UNL     1       4.053  52.343 -16.250  1.00  0.00     0.001 A 
HETATM   47  C34 UNL     1       4.038  51.660 -15.030  1.00  0.00     0.008 A 
ENDBRANCH  37  42
ENDBRANCH  36  37
ENDBRANCH  34  36
ENDBRANCH  31  32
ENDBRANCH  30  31
ENDBRANCH  28  30
ENDBRANCH  27  28
ENDBRANCH  26  27
ENDBRANCH   1  26
TORSDOF 13
ENDMDL
MODEL 9
REMARK minimizedAffinity -8.58853245
REMARK CNNscore 0.441294044
REMARK CNNaffinity 6.60540628
REMARK  13 active torsions:
REMARK  status: ('A' for Active; 'I' for Inactive)
REMARK    1  A    between atoms: C19_21  and  O3_22 
REMARK    2  A    between atoms: C19_21  and  C20_23 
REMARK    3  A    between atoms: C20_23  and  C21_25 
REMARK    4  A    between atoms: C21_25  and  O5_26 
REMARK    5  A    between atoms: O5_26  and  C22_27 
REMARK    6  A    between atoms: C22_27  and  C23_29 
REMARK    7  A    between atoms: C23_29  and  C24_30 
REMARK    8  A    between atoms: C24_30  and  C25_31 
REMARK       I    between atoms: C25_31  and  N1_33 
REMARK    9  A    between atoms: N1_33  and  C26_34 
REMARK   10  A    between atoms: C26_34  and  C27_35 
REMARK   11  A    between atoms: C27_35  and  C28_36 
REMARK   12  A    between atoms: C27_35  and  C29_39 
REMARK   13  A    between atoms: C28_36  and  O9_38 
ROOT
HETATM    1  C20 UNL     1      -7.169  47.327 -29.633  1.00  0.00     0.185 C 
HETATM    2  O4  UNL     1      -7.049  46.276 -30.266  1.00  0.00    -0.292 OA
ENDROOT
BRANCH   1   3
HETATM    3  C19 UNL     1      -8.559  47.876 -29.195  1.00  0.00     0.128 C 
HETATM    4  C14 UNL     1      -9.306  47.014 -28.131  1.00  0.00     0.005 C 
HETATM    5  C13 UNL     1      -8.904  47.244 -26.669  1.00  0.00     0.091 C 
HETATM    6  C15 UNL     1      -9.189  45.502 -28.463  1.00  0.00     0.019 C 
HETATM    7  C16 UNL     1     -10.749  47.565 -28.293  1.00  0.00     0.002 C 
HETATM    8  C12 UNL     1      -9.911  46.567 -25.749  1.00  0.00     0.133 C 
HETATM    9  C11 UNL     1     -11.388  46.960 -25.930  1.00  0.00     0.072 C 
HETATM   10  O2  UNL     1      -9.514  45.789 -24.883  1.00  0.00    -0.297 OA
HETATM   11  C2  UNL     1     -12.400  46.254 -24.959  1.00  0.00    -0.009 C 
HETATM   12  C10 UNL     1     -11.786  46.830 -27.430  1.00  0.00     0.003 C 
HETATM   13  C1  UNL     1     -12.363  44.713 -25.083  1.00  0.00     0.021 C 
HETATM   14  C3  UNL     1     -12.064  46.672 -23.494  1.00  0.00     0.022 C 
HETATM   15  C7  UNL     1     -13.829  46.710 -25.307  1.00  0.00    -0.067 C 
HETATM   16  C4  UNL     1     -13.172  46.369 -22.495  1.00  0.00     0.084 C 
HETATM   17  C5  UNL     1     -14.462  47.006 -22.936  1.00  0.00     0.149 C 
HETATM   18  O1  UNL     1     -15.311  47.395 -22.137  1.00  0.00    -0.293 OA
HETATM   19  C6  UNL     1     -14.737  47.087 -24.388  1.00  0.00     0.053 C 
HETATM   20  C8  UNL     1     -14.218  46.691 -26.767  1.00  0.00     0.035 C 
HETATM   21  C9  UNL     1     -13.195  47.399 -27.645  1.00  0.00     0.010 C 
HETATM   22  C17 UNL     1     -10.958  47.589 -29.801  1.00  0.00     0.009 C 
HETATM   23  C18 UNL     1      -9.563  47.884 -30.385  1.00  0.00     0.047 C 
BRANCH   3  24
HETATM   24  O3  UNL     1      -8.490  49.236 -28.750  1.00  0.00    -0.381 OA
HETATM   25  H25 UNL     1      -7.589  49.413 -28.417  1.00  0.00     0.211 HD
ENDBRANCH   3  24
ENDBRANCH   1   3
BRANCH   1  26
HETATM   26  C21 UNL     1      -5.926  48.091 -29.189  1.00  0.00     0.260 C 
BRANCH  26  27
HETATM   27  O5  UNL     1      -5.728  47.953 -27.783  1.00  0.00    -0.314 OA
BRANCH  27  28
HETATM   28  C22 UNL     1      -4.499  48.361 -27.358  1.00  0.00     0.259 C 
HETATM   29  O6  UNL     1      -3.442  48.109 -27.918  1.00  0.00    -0.265 OA
BRANCH  28  30
HETATM   30  C23 UNL     1      -4.621  49.151 -26.078  1.00  0.00     0.120 C 
BRANCH  30  31
HETATM   31  C24 UNL     1      -3.870  48.465 -24.946  1.00  0.00     0.112 C 
BRANCH  31  32
HETATM   32  C25 UNL     1      -2.733  49.324 -24.430  1.00  0.00     0.218 C 
HETATM   33  O7  UNL     1      -2.157  50.162 -25.118  1.00  0.00    -0.274 OA
HETATM   34  N1  UNL     1      -2.396  49.059 -23.122  1.00  0.00    -0.360 N 
HETATM   35  H32 UNL     1      -3.059  48.542 -22.547  1.00  0.00     0.162 HD
BRANCH  34  36
HETATM   36  C26 UNL     1      -1.362  49.831 -22.447  1.00  0.00     0.142 C 
BRANCH  36  37
HETATM   37  C27 UNL     1      -1.874  51.076 -21.701  1.00  0.00     0.134 C 
BRANCH  37  38
HETATM   38  C28 UNL     1      -2.888  50.581 -20.685  1.00  0.00     0.150 C 
HETATM   39  O8  UNL     1      -2.863  49.514 -20.090  1.00  0.00    -0.649 OA
BRANCH  38  40
HETATM   40  O9  UNL     1      -3.897  51.452 -20.479  1.00  0.00    -0.776 OA
HETATM   41  H36 UNL     1      -4.466  51.015 -19.810  1.00  0.00     0.167 HD
ENDBRANCH  38  40
ENDBRANCH  37  38
BRANCH  37  42
HETATM   42  C29 UNL     1      -0.839  52.005 -21.075  1.00  0.00    -0.042 A 
HETATM   43  C30 UNL     1      -0.785  52.280 -19.699  1.00  0.00     0.008 A 
HETATM   44  C31 UNL     1       0.199  53.123 -19.174  1.00  0.00     0.001 A 
HETATM   45  C32 UNL     1       1.154  53.697 -20.010  1.00  0.00     0.000 A 
HETATM   46  C33 UNL     1       1.135  53.419 -21.371  1.00  0.00     0.001 A 
HETATM   47  C34 UNL     1       0.152  52.575 -21.897  1.00  0.00     0.008 A 
ENDBRANCH  37  42
ENDBRANCH  36  37
ENDBRANCH  34  36
ENDBRANCH  31  32
ENDBRANCH  30  31
ENDBRANCH  28  30
ENDBRANCH  27  28
ENDBRANCH  26  27
ENDBRANCH   1  26
TORSDOF 13
ENDMDL
