MODEL 1
REMARK minimizedAffinity -10.5875998
REMARK CNNscore 0.659506381
REMARK CNNaffinity 7.83177185
REMARK  11 active torsions:
REMARK  status: ('A' for Active; 'I' for Inactive)
REMARK    1  A    between atoms: C2_2  and  O2_4 
REMARK    2  A    between atoms: O2_4  and  C3_5 
REMARK    3  A    between atoms: C4_6  and  O3_7 
REMARK    4  A    between atoms: O3_7  and  C5_8 
REMARK    5  A    between atoms: C15_18  and  C16_19 
REMARK    6  A    between atoms: C20_23  and  C21_24 
REMARK    7  A    between atoms: C21_24  and  O4_27 
REMARK    8  A    between atoms: C24_29  and  O6_30 
REMARK    9  A    between atoms: C30_36  and  O7_37 
REMARK   10  A    between atoms: C36_44  and  O9_45 
REMARK   11  A    between atoms: C37_46  and  O10_47 
ROOT
HETATM    1  C5  UNL     1       1.790   7.729  11.598  1.00  0.00     0.133 C 
HETATM    2  C6  UNL     1       1.393   8.492  12.867  1.00  0.00     0.034 C 
HETATM    3  C7  UNL     1       0.239   7.847  13.605  1.00  0.00     0.013 C 
HETATM    4  C8  UNL     1      -0.961   7.662  12.717  1.00  0.00    -0.025 A 
HETATM    5  C9  UNL     1      -2.080   8.662  12.673  1.00  0.00     0.021 A 
HETATM    6  C10 UNL     1      -2.300   7.344  13.408  1.00  0.00    -0.027 A 
HETATM    7  C11 UNL     1      -2.514   7.506  14.906  1.00  0.00     0.011 C 
HETATM    8  C12 UNL     1      -4.008   7.532  15.315  1.00  0.00     0.011 C 
HETATM    9  C13 UNL     1      -4.966   6.912  14.272  1.00  0.00    -0.028 C 
HETATM   10  C14 UNL     1      -5.341   8.000  13.224  1.00  0.00     0.016 C 
HETATM   11  C15 UNL     1      -6.298   6.280  14.811  1.00  0.00     0.057 C 
HETATM   12  C24 UNL     1      -6.668   5.251  13.692  1.00  0.00     0.126 C 
HETATM   13  C25 UNL     1      -5.399   5.059  12.819  1.00  0.00     0.042 C 
HETATM   14  C26 UNL     1      -4.241   5.662  13.639  1.00  0.00    -0.029 C 
HETATM   15  C27 UNL     1      -3.827   4.577  14.683  1.00  0.00     0.016 C 
HETATM   16  C28 UNL     1      -3.005   6.120  12.777  1.00  0.00     0.006 C 
HETATM   17  C29 UNL     1      -1.934   5.012  12.566  1.00  0.00     0.038 C 
HETATM   18  C30 UNL     1      -0.769   5.405  11.628  1.00  0.00     0.124 C 
HETATM   19  C31 UNL     1      -0.681   6.927  11.395  1.00  0.00     0.034 C 
HETATM   20  C32 UNL     1       0.569   7.501  10.648  1.00  0.00    -0.015 C 
HETATM   21  C33 UNL     1       1.003   6.566   9.491  1.00  0.00     0.018 C 
HETATM   22  C34 UNL     1       0.162   8.854   9.990  1.00  0.00     0.018 C 
ENDROOT
BRANCH   1  23
HETATM   23  O3  UNL     1       2.793   8.432  10.841  1.00  0.00    -0.352 OA
BRANCH  23  24
HETATM   24  C4  UNL     1       3.906   7.668  10.369  1.00  0.00     0.292 C 
HETATM   25  C3  UNL     1       5.171   8.265  11.036  1.00  0.00     0.218 C 
HETATM   26  C37 UNL     1       6.399   7.350  10.869  1.00  0.00     0.183 C 
HETATM   27  C36 UNL     1       6.065   5.870  11.078  1.00  0.00     0.173 C 
HETATM   28  C35 UNL     1       4.816   5.488  10.305  1.00  0.00     0.205 C 
HETATM   29  O8  UNL     1       3.728   6.301  10.720  1.00  0.00    -0.356 OA
BRANCH  25  30
HETATM   30  O2  UNL     1       5.402   9.552  10.384  1.00  0.00    -0.309 OA
BRANCH  30  31
HETATM   31  C2  UNL     1       6.361  10.353  10.896  1.00  0.00     0.255 C 
HETATM   32  C1  UNL     1       5.805  11.208  11.987  1.00  0.00     0.126 C 
HETATM   33  O1  UNL     1       7.525  10.383  10.518  1.00  0.00    -0.266 OA
ENDBRANCH  30  31
ENDBRANCH  25  30
BRANCH  26  34
HETATM   34  O10 UNL     1       7.455   7.647  11.809  1.00  0.00    -0.390 OA
HETATM   35  H60 UNL     1       7.407   8.598  12.048  1.00  0.00     0.210 HD
ENDBRANCH  26  34
BRANCH  27  36
HETATM   36  O9  UNL     1       7.169   5.071  10.652  1.00  0.00    -0.391 OA
HETATM   37  H58 UNL     1       7.902   5.299  11.264  1.00  0.00     0.210 HD
ENDBRANCH  27  36
ENDBRANCH  23  24
ENDBRANCH   1  23
BRANCH  18  38
HETATM   38  O7  UNL     1       0.450   4.878  12.146  1.00  0.00    -0.395 OA
HETATM   39  H47 UNL     1       0.318   3.919  12.245  1.00  0.00     0.210 HD
ENDBRANCH  18  38
BRANCH  11  40
HETATM   40  C16 UNL     1      -7.446   7.148  15.417  1.00  0.00     0.065 C 
HETATM   41  C17 UNL     1      -7.408   7.060  16.958  1.00  0.00     0.046 C 
HETATM   42  C18 UNL     1      -7.579   8.604  14.988  1.00  0.00     0.041 C 
HETATM   43  C19 UNL     1      -9.046   8.914  15.170  1.00  0.00     0.038 C 
HETATM   44  C20 UNL     1      -9.742   7.562  15.081  1.00  0.00     0.156 C 
HETATM   45  O5  UNL     1      -8.709   6.550  15.010  1.00  0.00    -0.372 OA
BRANCH  44  46
HETATM   46  C21 UNL     1     -10.752   7.374  13.926  1.00  0.00     0.076 C 
HETATM   47  C22 UNL     1     -11.958   6.539  14.365  1.00  0.00     0.048 C 
HETATM   48  C23 UNL     1     -11.213   8.689  13.303  1.00  0.00     0.048 C 
BRANCH  46  49
HETATM   49  O4  UNL     1     -10.094   6.635  12.885  1.00  0.00    -0.388 OA
HETATM   50  H35 UNL     1      -9.212   7.045  12.799  1.00  0.00     0.210 HD
ENDBRANCH  46  49
ENDBRANCH  44  46
ENDBRANCH  11  40
BRANCH  12  51
HETATM   51  O6  UNL     1      -7.725   5.667  12.849  1.00  0.00    -0.395 OA
HETATM   52  H37 UNL     1      -7.904   4.946  12.225  1.00  0.00     0.210 HD
ENDBRANCH  12  51
TORSDOF 11
ENDMDL
MODEL 2
REMARK minimizedAffinity -8.04615974
REMARK CNNscore 0.592647195
REMARK CNNaffinity 7.13629484
REMARK  11 active torsions:
REMARK  status: ('A' for Active; 'I' for Inactive)
REMARK    1  A    between atoms: C2_2  and  O2_4 
REMARK    2  A    between atoms: O2_4  and  C3_5 
REMARK    3  A    between atoms: C4_6  and  O3_7 
REMARK    4  A    between atoms: O3_7  and  C5_8 
REMARK    5  A    between atoms: C15_18  and  C16_19 
REMARK    6  A    between atoms: C20_23  and  C21_24 
REMARK    7  A    between atoms: C21_24  and  O4_27 
REMARK    8  A    between atoms: C24_29  and  O6_30 
REMARK    9  A    between atoms: C30_36  and  O7_37 
REMARK   10  A    between atoms: C36_44  and  O9_45 
REMARK   11  A    between atoms: C37_46  and  O10_47 
ROOT
HETATM    1  C5  UNL     1      -3.077   6.989  13.580  1.00  0.00     0.133 C 
HETATM    2  C6  UNL     1      -2.828   8.218  12.698  1.00  0.00     0.034 C 
HETATM    3  C7  UNL     1      -2.061   9.309  13.414  1.00  0.00     0.013 C 
HETATM    4  C8  UNL     1      -2.732   9.720  14.695  1.00  0.00    -0.025 A 
HETATM    5  C9  UNL     1      -3.665  10.894  14.763  1.00  0.00     0.021 A 
HETATM    6  C10 UNL     1      -2.262  11.036  15.341  1.00  0.00    -0.027 A 
HETATM    7  C11 UNL     1      -1.397  12.052  14.609  1.00  0.00     0.011 C 
HETATM    8  C12 UNL     1      -1.390  13.449  15.277  1.00  0.00     0.011 C 
HETATM    9  C13 UNL     1      -1.815  13.449  16.763  1.00  0.00    -0.028 C 
HETATM   10  C14 UNL     1      -3.368  13.534  16.841  1.00  0.00     0.016 C 
HETATM   11  C15 UNL     1      -1.221  14.578  17.677  1.00  0.00     0.057 C 
HETATM   12  C24 UNL     1      -1.308  13.945  19.105  1.00  0.00     0.126 C 
HETATM   13  C25 UNL     1      -1.550  12.424  18.910  1.00  0.00     0.042 C 
HETATM   14  C26 UNL     1      -1.229  12.144  17.429  1.00  0.00    -0.029 C 
HETATM   15  C27 UNL     1       0.325  12.027  17.327  1.00  0.00     0.016 C 
HETATM   16  C28 UNL     1      -1.934  10.863  16.844  1.00  0.00     0.006 C 
HETATM   17  C29 UNL     1      -1.105   9.556  17.001  1.00  0.00     0.038 C 
HETATM   18  C30 UNL     1      -1.826   8.269  16.537  1.00  0.00     0.124 C 
HETATM   19  C31 UNL     1      -3.057   8.563  15.655  1.00  0.00     0.034 C 
HETATM   20  C32 UNL     1      -3.765   7.369  14.933  1.00  0.00    -0.015 C 
HETATM   21  C33 UNL     1      -3.809   6.115  15.841  1.00  0.00     0.018 C 
HETATM   22  C34 UNL     1      -5.246   7.772  14.667  1.00  0.00     0.018 C 
ENDROOT
BRANCH   1  23
HETATM   23  O3  UNL     1      -3.925   6.024  12.928  1.00  0.00    -0.352 OA
BRANCH  23  24
HETATM   24  C4  UNL     1      -3.426   4.688  12.819  1.00  0.00     0.292 C 
HETATM   25  C3  UNL     1      -4.564   3.838  12.200  1.00  0.00     0.218 C 
HETATM   26  C37 UNL     1      -4.066   2.457  11.734  1.00  0.00     0.183 C 
HETATM   27  C36 UNL     1      -2.710   2.527  11.027  1.00  0.00     0.173 C 
HETATM   28  C35 UNL     1      -1.734   3.374  11.821  1.00  0.00     0.205 C 
HETATM   29  O8  UNL     1      -2.265   4.680  11.996  1.00  0.00    -0.356 OA
BRANCH  25  30
HETATM   30  O2  UNL     1      -5.571   3.689  13.248  1.00  0.00    -0.309 OA
BRANCH  30  31
HETATM   31  C2  UNL     1      -6.868   3.639  12.872  1.00  0.00     0.255 C 
HETATM   32  C1  UNL     1      -7.479   5.002  12.911  1.00  0.00     0.126 C 
HETATM   33  O1  UNL     1      -7.466   2.621  12.550  1.00  0.00    -0.266 OA
ENDBRANCH  30  31
ENDBRANCH  25  30
BRANCH  26  34
HETATM   34  O10 UNL     1      -4.962   1.822  10.795  1.00  0.00    -0.390 OA
HETATM   35  H60 UNL     1      -5.876   2.134  10.970  1.00  0.00     0.210 HD
ENDBRANCH  26  34
BRANCH  27  36
HETATM   36  O9  UNL     1      -2.193   1.206  10.863  1.00  0.00    -0.391 OA
HETATM   37  H58 UNL     1      -2.820   0.757  10.256  1.00  0.00     0.210 HD
ENDBRANCH  27  36
ENDBRANCH  23  24
ENDBRANCH   1  23
BRANCH  18  38
HETATM   38  O7  UNL     1      -0.894   7.419  15.874  1.00  0.00    -0.395 OA
HETATM   39  H47 UNL     1      -0.162   7.269  16.500  1.00  0.00     0.210 HD
ENDBRANCH  18  38
BRANCH  11  40
HETATM   40  C16 UNL     1      -1.623  16.079  17.515  1.00  0.00     0.065 C 
HETATM   41  C17 UNL     1      -3.121  16.256  17.845  1.00  0.00     0.046 C 
HETATM   42  C18 UNL     1      -0.808  17.145  18.236  1.00  0.00     0.041 C 
HETATM   43  C19 UNL     1      -0.980  18.383  17.387  1.00  0.00     0.038 C 
HETATM   44  C20 UNL     1      -1.318  17.857  15.999  1.00  0.00     0.156 C 
HETATM   45  O5  UNL     1      -1.476  16.422  16.108  1.00  0.00    -0.372 OA
BRANCH  44  46
HETATM   46  C21 UNL     1      -0.324  18.198  14.865  1.00  0.00     0.076 C 
HETATM   47  C22 UNL     1      -0.009  16.970  14.007  1.00  0.00     0.048 C 
HETATM   48  C23 UNL     1      -0.782  19.359  13.986  1.00  0.00     0.048 C 
BRANCH  46  49
HETATM   49  O4  UNL     1       0.911  18.605  15.473  1.00  0.00    -0.388 OA
HETATM   50  H35 UNL     1       0.654  19.210  16.195  1.00  0.00     0.210 HD
ENDBRANCH  46  49
ENDBRANCH  44  46
ENDBRANCH  11  40
BRANCH  12  51
HETATM   51  O6  UNL     1      -2.355  14.460  19.905  1.00  0.00    -0.395 OA
HETATM   52  H37 UNL     1      -2.293  14.039  20.777  1.00  0.00     0.210 HD
ENDBRANCH  12  51
TORSDOF 11
ENDMDL
MODEL 3
REMARK minimizedAffinity -9.72788048
REMARK CNNscore 0.541997433
REMARK CNNaffinity 7.65482903
REMARK  11 active torsions:
REMARK  status: ('A' for Active; 'I' for Inactive)
REMARK    1  A    between atoms: C2_2  and  O2_4 
REMARK    2  A    between atoms: O2_4  and  C3_5 
REMARK    3  A    between atoms: C4_6  and  O3_7 
REMARK    4  A    between atoms: O3_7  and  C5_8 
REMARK    5  A    between atoms: C15_18  and  C16_19 
REMARK    6  A    between atoms: C20_23  and  C21_24 
REMARK    7  A    between atoms: C21_24  and  O4_27 
REMARK    8  A    between atoms: C24_29  and  O6_30 
REMARK    9  A    between atoms: C30_36  and  O7_37 
REMARK   10  A    between atoms: C36_44  and  O9_45 
REMARK   11  A    between atoms: C37_46  and  O10_47 
ROOT
HETATM    1  C5  UNL     1       1.252   7.691  11.405  1.00  0.00     0.133 C 
HETATM    2  C6  UNL     1       0.915   8.497  12.666  1.00  0.00     0.034 C 
HETATM    3  C7  UNL     1      -0.203   7.877  13.478  1.00  0.00     0.013 C 
HETATM    4  C8  UNL     1      -1.442   7.662  12.655  1.00  0.00    -0.025 A 
HETATM    5  C9  UNL     1      -2.564   8.660  12.630  1.00  0.00     0.021 A 
HETATM    6  C10 UNL     1      -2.747   7.368  13.418  1.00  0.00    -0.027 A 
HETATM    7  C11 UNL     1      -2.891   7.580  14.919  1.00  0.00     0.011 C 
HETATM    8  C12 UNL     1      -4.364   7.620  15.396  1.00  0.00     0.011 C 
HETATM    9  C13 UNL     1      -5.369   6.964  14.421  1.00  0.00    -0.028 C 
HETATM   10  C14 UNL     1      -5.794   8.017  13.356  1.00  0.00     0.016 C 
HETATM   11  C15 UNL     1      -6.673   6.351  15.044  1.00  0.00     0.057 C 
HETATM   12  C24 UNL     1      -7.094   5.285  13.979  1.00  0.00     0.126 C 
HETATM   13  C25 UNL     1      -5.867   5.064  13.053  1.00  0.00     0.042 C 
HETATM   14  C26 UNL     1      -4.673   5.694  13.797  1.00  0.00    -0.029 C 
HETATM   15  C27 UNL     1      -4.208   4.645  14.856  1.00  0.00     0.016 C 
HETATM   16  C28 UNL     1      -3.479   6.123  12.863  1.00  0.00     0.006 C 
HETATM   17  C29 UNL     1      -2.418   5.008  12.639  1.00  0.00     0.038 C 
HETATM   18  C30 UNL     1      -1.299   5.369  11.634  1.00  0.00     0.124 C 
HETATM   19  C31 UNL     1      -1.224   6.883  11.347  1.00  0.00     0.034 C 
HETATM   20  C32 UNL     1      -0.012   7.431  10.522  1.00  0.00    -0.015 C 
HETATM   21  C33 UNL     1       0.368   6.458   9.378  1.00  0.00     0.018 C 
HETATM   22  C34 UNL     1      -0.452   8.761   9.839  1.00  0.00     0.018 C 
ENDROOT
BRANCH   1  23
HETATM   23  O3  UNL     1       2.217   8.368  10.579  1.00  0.00    -0.352 OA
BRANCH  23  24
HETATM   24  C4  UNL     1       2.994   7.560   9.689  1.00  0.00     0.292 C 
HETATM   25  C3  UNL     1       3.253   6.218  10.420  1.00  0.00     0.218 C 
HETATM   26  C37 UNL     1       3.802   5.139   9.468  1.00  0.00     0.183 C 
HETATM   27  C36 UNL     1       3.092   5.132   8.111  1.00  0.00     0.173 C 
HETATM   28  C35 UNL     1       2.979   6.540   7.558  1.00  0.00     0.205 C 
HETATM   29  O8  UNL     1       2.275   7.362   8.478  1.00  0.00    -0.356 OA
BRANCH  25  30
HETATM   30  O2  UNL     1       4.225   6.513  11.471  1.00  0.00    -0.309 OA
BRANCH  30  31
HETATM   31  C2  UNL     1       5.454   6.927  11.093  1.00  0.00     0.255 C 
HETATM   32  C1  UNL     1       6.473   5.869  11.369  1.00  0.00     0.126 C 
HETATM   33  O1  UNL     1       5.705   8.018  10.598  1.00  0.00    -0.266 OA
ENDBRANCH  30  31
ENDBRANCH  25  30
BRANCH  26  34
HETATM   34  O10 UNL     1       3.657   3.800   9.990  1.00  0.00    -0.390 OA
HETATM   35  H60 UNL     1       3.673   3.840  10.971  1.00  0.00     0.210 HD
ENDBRANCH  26  34
BRANCH  27  36
HETATM   36  O9  UNL     1       3.816   4.304   7.202  1.00  0.00    -0.391 OA
HETATM   37  H58 UNL     1       3.754   3.397   7.574  1.00  0.00     0.210 HD
ENDBRANCH  27  36
ENDBRANCH  23  24
ENDBRANCH   1  23
BRANCH  18  38
HETATM   38  O7  UNL     1      -0.056   4.861  12.111  1.00  0.00    -0.395 OA
HETATM   39  H47 UNL     1      -0.181   3.905  12.248  1.00  0.00     0.210 HD
ENDBRANCH  18  38
BRANCH  11  40
HETATM   40  C16 UNL     1      -7.793   7.239  15.674  1.00  0.00     0.065 C 
HETATM   41  C17 UNL     1      -7.680   7.205  17.213  1.00  0.00     0.046 C 
HETATM   42  C18 UNL     1      -7.949   8.679  15.201  1.00  0.00     0.041 C 
HETATM   43  C19 UNL     1      -9.407   8.994  15.443  1.00  0.00     0.038 C 
HETATM   44  C20 UNL     1     -10.103   7.640  15.435  1.00  0.00     0.156 C 
HETATM   45  O5  UNL     1      -9.072   6.626  15.349  1.00  0.00    -0.372 OA
BRANCH  44  46
HETATM   46  C21 UNL     1     -11.167   7.410  14.337  1.00  0.00     0.076 C 
HETATM   47  C22 UNL     1     -12.151   8.581  14.256  1.00  0.00     0.048 C 
HETATM   48  C23 UNL     1     -10.568   7.122  12.963  1.00  0.00     0.048 C 
BRANCH  46  49
HETATM   49  O4  UNL     1     -11.932   6.252  14.703  1.00  0.00    -0.388 OA
HETATM   50  H35 UNL     1     -11.273   5.592  14.994  1.00  0.00     0.210 HD
ENDBRANCH  46  49
ENDBRANCH  44  46
ENDBRANCH  11  40
BRANCH  12  51
HETATM   51  O6  UNL     1      -8.190   5.672  13.173  1.00  0.00    -0.395 OA
HETATM   52  H37 UNL     1      -8.398   4.931  12.582  1.00  0.00     0.210 HD
ENDBRANCH  12  51
TORSDOF 11
ENDMDL
MODEL 4
REMARK minimizedAffinity -9.64447975
REMARK CNNscore 0.494100153
REMARK CNNaffinity 7.27245855
REMARK  11 active torsions:
REMARK  status: ('A' for Active; 'I' for Inactive)
REMARK    1  A    between atoms: C2_2  and  O2_4 
REMARK    2  A    between atoms: O2_4  and  C3_5 
REMARK    3  A    between atoms: C4_6  and  O3_7 
REMARK    4  A    between atoms: O3_7  and  C5_8 
REMARK    5  A    between atoms: C15_18  and  C16_19 
REMARK    6  A    between atoms: C20_23  and  C21_24 
REMARK    7  A    between atoms: C21_24  and  O4_27 
REMARK    8  A    between atoms: C24_29  and  O6_30 
REMARK    9  A    between atoms: C30_36  and  O7_37 
REMARK   10  A    between atoms: C36_44  and  O9_45 
REMARK   11  A    between atoms: C37_46  and  O10_47 
ROOT
HETATM    1  C5  UNL     1      -3.395   7.187  13.025  1.00  0.00     0.133 C 
HETATM    2  C6  UNL     1      -3.635   8.447  13.864  1.00  0.00     0.034 C 
HETATM    3  C7  UNL     1      -2.418   9.346  13.935  1.00  0.00     0.013 C 
HETATM    4  C8  UNL     1      -1.207   8.611  14.439  1.00  0.00    -0.025 A 
HETATM    5  C9  UNL     1      -0.806   8.637  15.886  1.00  0.00     0.021 A 
HETATM    6  C10 UNL     1      -0.006   9.466  14.887  1.00  0.00    -0.027 A 
HETATM    7  C11 UNL     1      -0.102  10.967  15.118  1.00  0.00     0.011 C 
HETATM    8  C12 UNL     1       1.078  11.539  15.942  1.00  0.00     0.011 C 
HETATM    9  C13 UNL     1       2.341  10.648  15.952  1.00  0.00    -0.028 C 
HETATM   10  C14 UNL     1       2.200   9.589  17.085  1.00  0.00     0.016 C 
HETATM   11  C15 UNL     1       3.723  11.369  16.133  1.00  0.00     0.057 C 
HETATM   12  C24 UNL     1       4.726  10.359  15.483  1.00  0.00     0.126 C 
HETATM   13  C25 UNL     1       3.880   9.360  14.648  1.00  0.00     0.042 C 
HETATM   14  C26 UNL     1       2.488  10.009  14.518  1.00  0.00    -0.029 C 
HETATM   15  C27 UNL     1       2.595  11.059  13.367  1.00  0.00     0.016 C 
HETATM   16  C28 UNL     1       1.319   8.988  14.246  1.00  0.00     0.006 C 
HETATM   17  C29 UNL     1       1.048   8.720  12.738  1.00  0.00     0.038 C 
HETATM   18  C30 UNL     1      -0.016   7.636  12.452  1.00  0.00     0.124 C 
HETATM   19  C31 UNL     1      -0.879   7.310  13.688  1.00  0.00     0.034 C 
HETATM   20  C32 UNL     1      -2.135   6.394  13.506  1.00  0.00    -0.015 C 
HETATM   21  C33 UNL     1      -1.850   5.251  12.501  1.00  0.00     0.018 C 
HETATM   22  C34 UNL     1      -2.441   5.712  14.873  1.00  0.00     0.018 C 
ENDROOT
BRANCH   1  23
HETATM   23  O3  UNL     1      -4.515   6.283  13.084  1.00  0.00    -0.352 OA
BRANCH  23  24
HETATM   24  C4  UNL     1      -5.688   6.742  13.761  1.00  0.00     0.292 C 
HETATM   25  C3  UNL     1      -6.512   5.482  14.127  1.00  0.00     0.218 C 
HETATM   26  C37 UNL     1      -7.637   5.799  15.131  1.00  0.00     0.183 C 
HETATM   27  C36 UNL     1      -7.186   6.752  16.241  1.00  0.00     0.173 C 
HETATM   28  C35 UNL     1      -6.434   7.934  15.660  1.00  0.00     0.205 C 
HETATM   29  O8  UNL     1      -5.311   7.472  14.922  1.00  0.00    -0.356 OA
BRANCH  25  30
HETATM   30  O2  UNL     1      -7.074   4.989  12.871  1.00  0.00    -0.309 OA
BRANCH  30  31
HETATM   31  C2  UNL     1      -7.172   3.651  12.708  1.00  0.00     0.255 C 
HETATM   32  C1  UNL     1      -5.979   3.121  11.983  1.00  0.00     0.126 C 
HETATM   33  O1  UNL     1      -8.110   2.965  13.094  1.00  0.00    -0.266 OA
ENDBRANCH  30  31
ENDBRANCH  25  30
BRANCH  26  34
HETATM   34  O10 UNL     1      -8.138   4.624  15.805  1.00  0.00    -0.390 OA
HETATM   35  H60 UNL     1      -8.021   3.847  15.216  1.00  0.00     0.210 HD
ENDBRANCH  26  34
BRANCH  27  36
HETATM   36  O9  UNL     1      -8.328   7.205  16.968  1.00  0.00    -0.391 OA
HETATM   37  H58 UNL     1      -8.696   6.403  17.397  1.00  0.00     0.210 HD
ENDBRANCH  27  36
ENDBRANCH  23  24
ENDBRANCH   1  23
BRANCH  18  38
HETATM   38  O7  UNL     1      -0.815   8.042  11.343  1.00  0.00    -0.395 OA
HETATM   39  H47 UNL     1      -0.201   8.209  10.606  1.00  0.00     0.210 HD
ENDBRANCH  18  38
BRANCH  11  40
HETATM   40  C16 UNL     1       4.138  12.051  17.475  1.00  0.00     0.065 C 
HETATM   41  C17 UNL     1       5.631  12.441  17.422  1.00  0.00     0.046 C 
HETATM   42  C18 UNL     1       3.317  13.226  17.993  1.00  0.00     0.041 C 
HETATM   43  C19 UNL     1       3.513  13.186  19.490  1.00  0.00     0.038 C 
HETATM   44  C20 UNL     1       3.872  11.739  19.796  1.00  0.00     0.156 C 
HETATM   45  O5  UNL     1       4.018  11.054  18.529  1.00  0.00    -0.372 OA
BRANCH  44  46
HETATM   46  C21 UNL     1       2.901  10.960  20.713  1.00  0.00     0.076 C 
HETATM   47  C22 UNL     1       3.265  11.130  22.190  1.00  0.00     0.048 C 
HETATM   48  C23 UNL     1       1.434  11.313  20.482  1.00  0.00     0.048 C 
BRANCH  46  49
HETATM   49  O4  UNL     1       3.039   9.563  20.411  1.00  0.00    -0.388 OA
HETATM   50  H35 UNL     1       3.054   9.512  19.436  1.00  0.00     0.210 HD
ENDBRANCH  46  49
ENDBRANCH  44  46
ENDBRANCH  11  40
BRANCH  12  51
HETATM   51  O6  UNL     1       5.489   9.618  16.415  1.00  0.00    -0.395 OA
HETATM   52  H37 UNL     1       6.105   9.060  15.914  1.00  0.00     0.210 HD
ENDBRANCH  12  51
TORSDOF 11
ENDMDL
MODEL 5
REMARK minimizedAffinity -9.33916378
REMARK CNNscore 0.476056278
REMARK CNNaffinity 6.73437071
REMARK  11 active torsions:
REMARK  status: ('A' for Active; 'I' for Inactive)
REMARK    1  A    between atoms: C2_2  and  O2_4 
REMARK    2  A    between atoms: O2_4  and  C3_5 
REMARK    3  A    between atoms: C4_6  and  O3_7 
REMARK    4  A    between atoms: O3_7  and  C5_8 
REMARK    5  A    between atoms: C15_18  and  C16_19 
REMARK    6  A    between atoms: C20_23  and  C21_24 
REMARK    7  A    between atoms: C21_24  and  O4_27 
REMARK    8  A    between atoms: C24_29  and  O6_30 
REMARK    9  A    between atoms: C30_36  and  O7_37 
REMARK   10  A    between atoms: C36_44  and  O9_45 
REMARK   11  A    between atoms: C37_46  and  O10_47 
ROOT
HETATM    1  C5  UNL     1      -3.881   8.158  13.560  1.00  0.00     0.133 C 
HETATM    2  C6  UNL     1      -4.431   9.205  14.535  1.00  0.00     0.034 C 
HETATM    3  C7  UNL     1      -3.398  10.239  14.931  1.00  0.00     0.013 C 
HETATM    4  C8  UNL     1      -2.158   9.605  15.499  1.00  0.00    -0.025 A 
HETATM    5  C9  UNL     1      -1.958   9.432  16.977  1.00  0.00     0.021 A 
HETATM    6  C10 UNL     1      -1.183  10.527  16.253  1.00  0.00    -0.027 A 
HETATM    7  C11 UNL     1      -1.553  11.936  16.695  1.00  0.00     0.011 C 
HETATM    8  C12 UNL     1      -0.600  12.514  17.770  1.00  0.00     0.011 C 
HETATM    9  C13 UNL     1       0.780  11.822  17.838  1.00  0.00    -0.028 C 
HETATM   10  C14 UNL     1       0.669  10.571  18.759  1.00  0.00     0.016 C 
HETATM   11  C15 UNL     1       1.990  12.686  18.340  1.00  0.00     0.057 C 
HETATM   12  C24 UNL     1       3.221  11.957  17.706  1.00  0.00     0.126 C 
HETATM   13  C25 UNL     1       2.666  11.012  16.606  1.00  0.00     0.042 C 
HETATM   14  C26 UNL     1       1.215  11.471  16.363  1.00  0.00    -0.029 C 
HETATM   15  C27 UNL     1       1.296  12.712  15.418  1.00  0.00     0.016 C 
HETATM   16  C28 UNL     1       0.275  10.361  15.760  1.00  0.00     0.006 C 
HETATM   17  C29 UNL     1       0.250  10.327  14.206  1.00  0.00     0.038 C 
HETATM   18  C30 UNL     1      -0.576   9.171  13.594  1.00  0.00     0.124 C 
HETATM   19  C31 UNL     1      -1.526   8.515  14.617  1.00  0.00     0.034 C 
HETATM   20  C32 UNL     1      -2.581   7.479  14.103  1.00  0.00    -0.015 C 
HETATM   21  C33 UNL     1      -1.984   6.581  12.991  1.00  0.00     0.018 C 
HETATM   22  C34 UNL     1      -2.945   6.530  15.284  1.00  0.00     0.018 C 
ENDROOT
BRANCH   1  23
HETATM   23  O3  UNL     1      -4.835   7.110  13.305  1.00  0.00    -0.352 OA
BRANCH  23  24
HETATM   24  C4  UNL     1      -6.161   7.300  13.806  1.00  0.00     0.292 C 
HETATM   25  C3  UNL     1      -6.675   5.904  14.241  1.00  0.00     0.218 C 
HETATM   26  C37 UNL     1      -7.960   6.001  15.087  1.00  0.00     0.183 C 
HETATM   27  C36 UNL     1      -7.908   7.137  16.111  1.00  0.00     0.173 C 
HETATM   28  C35 UNL     1      -7.416   8.419  15.466  1.00  0.00     0.205 C 
HETATM   29  O8  UNL     1      -6.130   8.208  14.900  1.00  0.00    -0.356 OA
BRANCH  25  30
HETATM   30  O2  UNL     1      -6.932   5.166  13.007  1.00  0.00    -0.309 OA
BRANCH  30  31
HETATM   31  C2  UNL     1      -6.618   3.852  12.983  1.00  0.00     0.255 C 
HETATM   32  C1  UNL     1      -5.256   3.649  12.404  1.00  0.00     0.126 C 
HETATM   33  O1  UNL     1      -7.346   2.949  13.374  1.00  0.00    -0.266 OA
ENDBRANCH  30  31
ENDBRANCH  25  30
BRANCH  26  34
HETATM   34  O10 UNL     1      -8.224   4.802  15.849  1.00  0.00    -0.390 OA
HETATM   35  H60 UNL     1      -7.841   4.034  15.372  1.00  0.00     0.210 HD
ENDBRANCH  26  34
BRANCH  27  36
HETATM   36  O9  UNL     1      -9.209   7.335  16.666  1.00  0.00    -0.391 OA
HETATM   37  H58 UNL     1      -9.410   6.506  17.152  1.00  0.00     0.210 HD
ENDBRANCH  27  36
ENDBRANCH  23  24
ENDBRANCH   1  23
BRANCH  18  38
HETATM   38  O7  UNL     1      -1.280   9.649  12.451  1.00  0.00    -0.395 OA
HETATM   39  H47 UNL     1      -0.612  10.028  11.852  1.00  0.00     0.210 HD
ENDBRANCH  18  38
BRANCH  11  40
HETATM   40  C16 UNL     1       2.110  13.173  19.819  1.00  0.00     0.065 C 
HETATM   41  C17 UNL     1       1.237  14.430  20.027  1.00  0.00     0.046 C 
HETATM   42  C18 UNL     1       1.859  12.180  20.948  1.00  0.00     0.041 C 
HETATM   43  C19 UNL     1       2.675  12.714  22.102  1.00  0.00     0.038 C 
HETATM   44  C20 UNL     1       3.771  13.547  21.450  1.00  0.00     0.156 C 
HETATM   45  O5  UNL     1       3.486  13.598  20.031  1.00  0.00    -0.372 OA
BRANCH  44  46
HETATM   46  C21 UNL     1       5.227  13.086  21.684  1.00  0.00     0.076 C 
HETATM   47  C22 UNL     1       6.192  14.275  21.724  1.00  0.00     0.048 C 
HETATM   48  C23 UNL     1       5.397  12.220  22.929  1.00  0.00     0.048 C 
BRANCH  46  49
HETATM   49  O4  UNL     1       5.616  12.277  20.564  1.00  0.00    -0.388 OA
HETATM   50  H35 UNL     1       4.858  11.682  20.402  1.00  0.00     0.210 HD
ENDBRANCH  46  49
ENDBRANCH  44  46
ENDBRANCH  11  40
BRANCH  12  51
HETATM   51  O6  UNL     1       3.968  11.179  18.621  1.00  0.00    -0.395 OA
HETATM   52  H37 UNL     1       4.727  10.810  18.141  1.00  0.00     0.210 HD
ENDBRANCH  12  51
TORSDOF 11
ENDMDL
MODEL 6
REMARK minimizedAffinity -8.70963097
REMARK CNNscore 0.454921603
REMARK CNNaffinity 7.3933816
REMARK  11 active torsions:
REMARK  status: ('A' for Active; 'I' for Inactive)
REMARK    1  A    between atoms: C2_2  and  O2_4 
REMARK    2  A    between atoms: O2_4  and  C3_5 
REMARK    3  A    between atoms: C4_6  and  O3_7 
REMARK    4  A    between atoms: O3_7  and  C5_8 
REMARK    5  A    between atoms: C15_18  and  C16_19 
REMARK    6  A    between atoms: C20_23  and  C21_24 
REMARK    7  A    between atoms: C21_24  and  O4_27 
REMARK    8  A    between atoms: C24_29  and  O6_30 
REMARK    9  A    between atoms: C30_36  and  O7_37 
REMARK   10  A    between atoms: C36_44  and  O9_45 
REMARK   11  A    between atoms: C37_46  and  O10_47 
ROOT
HETATM    1  C5  UNL     1      -5.207   5.175  14.422  1.00  0.00     0.133 C 
HETATM    2  C6  UNL     1      -5.446   5.826  15.790  1.00  0.00     0.034 C 
HETATM    3  C7  UNL     1      -6.890   6.227  16.006  1.00  0.00     0.013 C 
HETATM    4  C8  UNL     1      -7.393   7.126  14.911  1.00  0.00    -0.025 A 
HETATM    5  C9  UNL     1      -7.383   8.622  15.043  1.00  0.00     0.021 A 
HETATM    6  C10 UNL     1      -8.709   7.881  15.175  1.00  0.00    -0.027 A 
HETATM    7  C11 UNL     1      -9.336   7.988  16.557  1.00  0.00     0.011 C 
HETATM    8  C12 UNL     1     -10.400   9.109  16.665  1.00  0.00     0.011 C 
HETATM    9  C13 UNL     1     -10.987   9.564  15.310  1.00  0.00    -0.028 C 
HETATM   10  C14 UNL     1     -10.055  10.651  14.698  1.00  0.00     0.016 C 
HETATM   11  C15 UNL     1     -12.451  10.131  15.319  1.00  0.00     0.057 C 
HETATM   12  C24 UNL     1     -12.924   9.885  13.848  1.00  0.00     0.126 C 
HETATM   13  C25 UNL     1     -11.923   8.882  13.214  1.00  0.00     0.042 C 
HETATM   14  C26 UNL     1     -11.134   8.286  14.397  1.00  0.00    -0.029 C 
HETATM   15  C27 UNL     1     -12.038   7.171  15.013  1.00  0.00     0.016 C 
HETATM   16  C28 UNL     1      -9.717   7.717  14.012  1.00  0.00     0.006 C 
HETATM   17  C29 UNL     1      -9.726   6.218  13.599  1.00  0.00     0.038 C 
HETATM   18  C30 UNL     1      -8.366   5.671  13.107  1.00  0.00     0.124 C 
HETATM   19  C31 UNL     1      -7.185   6.589  13.485  1.00  0.00     0.034 C 
HETATM   20  C32 UNL     1      -5.727   6.071  13.249  1.00  0.00    -0.015 C 
HETATM   21  C33 UNL     1      -5.627   5.271  11.927  1.00  0.00     0.018 C 
HETATM   22  C34 UNL     1      -4.793   7.307  13.087  1.00  0.00     0.018 C 
ENDROOT
BRANCH   1  23
HETATM   23  O3  UNL     1      -3.809   4.929  14.182  1.00  0.00    -0.352 OA
BRANCH  23  24
HETATM   24  C4  UNL     1      -3.453   4.387  12.907  1.00  0.00     0.292 C 
HETATM   25  C3  UNL     1      -1.954   4.713  12.688  1.00  0.00     0.218 C 
HETATM   26  C37 UNL     1      -1.357   3.922  11.509  1.00  0.00     0.183 C 
HETATM   27  C36 UNL     1      -1.821   2.463  11.482  1.00  0.00     0.173 C 
HETATM   28  C35 UNL     1      -3.323   2.375  11.674  1.00  0.00     0.205 C 
HETATM   29  O8  UNL     1      -3.686   2.983  12.906  1.00  0.00    -0.356 OA
BRANCH  25  30
HETATM   30  O2  UNL     1      -1.889   6.149  12.423  1.00  0.00    -0.309 OA
BRANCH  30  31
HETATM   31  C2  UNL     1      -1.002   6.880  13.133  1.00  0.00     0.255 C 
HETATM   32  C1  UNL     1      -0.793   8.215  12.497  1.00  0.00     0.126 C 
HETATM   33  O1  UNL     1      -0.439   6.503  14.153  1.00  0.00    -0.266 OA
ENDBRANCH  30  31
ENDBRANCH  25  30
BRANCH  26  34
HETATM   34  O10 UNL     1       0.086   3.871  11.538  1.00  0.00    -0.390 OA
HETATM   35  H60 UNL     1       0.422   4.675  11.989  1.00  0.00     0.210 HD
ENDBRANCH  26  34
BRANCH  27  36
HETATM   36  O9  UNL     1      -1.450   1.872  10.237  1.00  0.00    -0.391 OA
HETATM   37  H58 UNL     1      -0.469   1.870  10.234  1.00  0.00     0.210 HD
ENDBRANCH  27  36
ENDBRANCH  23  24
ENDBRANCH   1  23
BRANCH  18  38
HETATM   38  O7  UNL     1      -8.184   4.347  13.603  1.00  0.00    -0.395 OA
HETATM   39  H47 UNL     1      -8.956   3.831  13.308  1.00  0.00     0.210 HD
ENDBRANCH  18  38
BRANCH  11  40
HETATM   40  C16 UNL     1     -12.812  11.496  15.986  1.00  0.00     0.065 C 
HETATM   41  C17 UNL     1     -14.218  11.412  16.617  1.00  0.00     0.046 C 
HETATM   42  C18 UNL     1     -11.837  12.113  16.981  1.00  0.00     0.041 C 
HETATM   43  C19 UNL     1     -12.106  13.598  16.893  1.00  0.00     0.038 C 
HETATM   44  C20 UNL     1     -12.707  13.802  15.509  1.00  0.00     0.156 C 
HETATM   45  O5  UNL     1     -12.903  12.490  14.927  1.00  0.00    -0.372 OA
BRANCH  44  46
HETATM   46  C21 UNL     1     -11.917  14.704  14.534  1.00  0.00     0.076 C 
HETATM   47  C22 UNL     1     -12.629  16.041  14.305  1.00  0.00     0.048 C 
HETATM   48  C23 UNL     1     -10.470  14.937  14.960  1.00  0.00     0.048 C 
BRANCH  46  49
HETATM   49  O4  UNL     1     -11.870  14.039  13.263  1.00  0.00    -0.388 OA
HETATM   50  H35 UNL     1     -11.652  13.109  13.468  1.00  0.00     0.210 HD
ENDBRANCH  46  49
ENDBRANCH  44  46
ENDBRANCH  11  40
BRANCH  12  51
HETATM   51  O6  UNL     1     -12.950  11.050  13.045  1.00  0.00    -0.395 OA
HETATM   52  H37 UNL     1     -13.297  10.799  12.174  1.00  0.00     0.210 HD
ENDBRANCH  12  51
TORSDOF 11
ENDMDL
MODEL 7
REMARK minimizedAffinity -8.85743141
REMARK CNNscore 0.443386286
REMARK CNNaffinity 5.92566299
REMARK  11 active torsions:
REMARK  status: ('A' for Active; 'I' for Inactive)
REMARK    1  A    between atoms: C2_2  and  O2_4 
REMARK    2  A    between atoms: O2_4  and  C3_5 
REMARK    3  A    between atoms: C4_6  and  O3_7 
REMARK    4  A    between atoms: O3_7  and  C5_8 
REMARK    5  A    between atoms: C15_18  and  C16_19 
REMARK    6  A    between atoms: C20_23  and  C21_24 
REMARK    7  A    between atoms: C21_24  and  O4_27 
REMARK    8  A    between atoms: C24_29  and  O6_30 
REMARK    9  A    between atoms: C30_36  and  O7_37 
REMARK   10  A    between atoms: C36_44  and  O9_45 
REMARK   11  A    between atoms: C37_46  and  O10_47 
ROOT
HETATM    1  C5  UNL     1     -17.844   0.503  14.417  1.00  0.00     0.133 C 
HETATM    2  C6  UNL     1     -17.298   1.048  15.742  1.00  0.00     0.034 C 
HETATM    3  C7  UNL     1     -17.257   2.561  15.782  1.00  0.00     0.013 C 
HETATM    4  C8  UNL     1     -16.480   3.133  14.628  1.00  0.00    -0.025 A 
HETATM    5  C9  UNL     1     -15.028   3.496  14.749  1.00  0.00     0.021 A 
HETATM    6  C10 UNL     1     -16.066   4.612  14.729  1.00  0.00    -0.027 A 
HETATM    7  C11 UNL     1     -16.141   5.405  16.026  1.00  0.00     0.011 C 
HETATM    8  C12 UNL     1     -15.308   6.710  15.999  1.00  0.00     0.011 C 
HETATM    9  C13 UNL     1     -14.976   7.227  14.580  1.00  0.00    -0.028 C 
HETATM   10  C14 UNL     1     -13.686   6.516  14.075  1.00  0.00     0.016 C 
HETATM   11  C15 UNL     1     -14.774   8.774  14.411  1.00  0.00     0.057 C 
HETATM   12  C24 UNL     1     -15.094   8.999  12.896  1.00  0.00     0.126 C 
HETATM   13  C25 UNL     1     -15.816   7.720  12.393  1.00  0.00     0.042 C 
HETATM   14  C26 UNL     1     -16.233   6.957  13.666  1.00  0.00    -0.029 C 
HETATM   15  C27 UNL     1     -17.543   7.634  14.178  1.00  0.00     0.016 C 
HETATM   16  C28 UNL     1     -16.440   5.409  13.456  1.00  0.00     0.006 C 
HETATM   17  C29 UNL     1     -17.889   5.012  13.056  1.00  0.00     0.038 C 
HETATM   18  C30 UNL     1     -18.086   3.513  12.733  1.00  0.00     0.124 C 
HETATM   19  C31 UNL     1     -16.922   2.638  13.241  1.00  0.00     0.034 C 
HETATM   20  C32 UNL     1     -17.073   1.081  13.184  1.00  0.00    -0.015 C 
HETATM   21  C33 UNL     1     -17.798   0.639  11.889  1.00  0.00     0.018 C 
HETATM   22  C34 UNL     1     -15.647   0.457  13.125  1.00  0.00     0.018 C 
ENDROOT
BRANCH   1  23
HETATM   23  O3  UNL     1     -17.746  -0.932  14.346  1.00  0.00    -0.352 OA
BRANCH  23  24
HETATM   24  C4  UNL     1     -16.432  -1.497  14.372  1.00  0.00     0.292 C 
HETATM   25  C3  UNL     1     -16.380  -2.445  15.596  1.00  0.00     0.218 C 
HETATM   26  C37 UNL     1     -15.140  -3.358  15.567  1.00  0.00     0.183 C 
HETATM   27  C36 UNL     1     -14.849  -3.915  14.170  1.00  0.00     0.173 C 
HETATM   28  C35 UNL     1     -14.912  -2.813  13.130  1.00  0.00     0.205 C 
HETATM   29  O8  UNL     1     -16.193  -2.199  13.158  1.00  0.00    -0.356 OA
BRANCH  25  30
HETATM   30  O2  UNL     1     -16.350  -1.582  16.774  1.00  0.00    -0.309 OA
BRANCH  30  31
HETATM   31  C2  UNL     1     -16.963  -2.024  17.894  1.00  0.00     0.255 C 
HETATM   32  C1  UNL     1     -18.417  -2.254  17.641  1.00  0.00     0.126 C 
HETATM   33  O1  UNL     1     -16.410  -2.207  18.971  1.00  0.00    -0.266 OA
ENDBRANCH  30  31
ENDBRANCH  25  30
BRANCH  26  34
HETATM   34  O10 UNL     1     -15.269  -4.512  16.427  1.00  0.00    -0.390 OA
HETATM   35  H60 UNL     1     -15.865  -4.285  17.173  1.00  0.00     0.210 HD
ENDBRANCH  26  34
BRANCH  27  36
HETATM   36  O9  UNL     1     -13.558  -4.524  14.163  1.00  0.00    -0.391 OA
HETATM   37  H58 UNL     1     -13.629  -5.286  14.777  1.00  0.00     0.210 HD
ENDBRANCH  27  36
ENDBRANCH  23  24
ENDBRANCH   1  23
BRANCH  18  38
HETATM   38  O7  UNL     1     -19.340   3.079  13.256  1.00  0.00    -0.395 OA
HETATM   39  H47 UNL     1     -20.017   3.666  12.875  1.00  0.00     0.210 HD
ENDBRANCH  18  38
BRANCH  11  40
HETATM   40  C16 UNL     1     -13.549   9.526  15.021  1.00  0.00     0.065 C 
HETATM   41  C17 UNL     1     -13.698  11.044  14.783  1.00  0.00     0.046 C 
HETATM   42  C18 UNL     1     -13.170   9.267  16.474  1.00  0.00     0.041 C 
HETATM   43  C19 UNL     1     -11.687   9.551  16.529  1.00  0.00     0.038 C 
HETATM   44  C20 UNL     1     -11.200   9.345  15.101  1.00  0.00     0.156 C 
HETATM   45  O5  UNL     1     -12.368   9.114  14.277  1.00  0.00    -0.372 OA
BRANCH  44  46
HETATM   46  C21 UNL     1     -10.159   8.225  14.876  1.00  0.00     0.076 C 
HETATM   47  C22 UNL     1     -10.322   7.577  13.498  1.00  0.00     0.048 C 
HETATM   48  C23 UNL     1      -8.718   8.686  15.081  1.00  0.00     0.048 C 
BRANCH  46  49
HETATM   49  O4  UNL     1     -10.405   7.197  15.847  1.00  0.00    -0.388 OA
HETATM   50  H35 UNL     1     -10.547   7.670  16.690  1.00  0.00     0.210 HD
ENDBRANCH  46  49
ENDBRANCH  44  46
ENDBRANCH  11  40
BRANCH  12  51
HETATM   51  O6  UNL     1     -13.952   9.208  12.088  1.00  0.00    -0.395 OA
HETATM   52  H37 UNL     1     -14.260   9.381  11.183  1.00  0.00     0.210 HD
ENDBRANCH  12  51
TORSDOF 11
ENDMDL
MODEL 8
REMARK minimizedAffinity -10.6829653
REMARK CNNscore 0.440818012
REMARK CNNaffinity 7.45970774
REMARK  11 active torsions:
REMARK  status: ('A' for Active; 'I' for Inactive)
REMARK    1  A    between atoms: C2_2  and  O2_4 
REMARK    2  A    between atoms: O2_4  and  C3_5 
REMARK    3  A    between atoms: C4_6  and  O3_7 
REMARK    4  A    between atoms: O3_7  and  C5_8 
REMARK    5  A    between atoms: C15_18  and  C16_19 
REMARK    6  A    between atoms: C20_23  and  C21_24 
REMARK    7  A    between atoms: C21_24  and  O4_27 
REMARK    8  A    between atoms: C24_29  and  O6_30 
REMARK    9  A    between atoms: C30_36  and  O7_37 
REMARK   10  A    between atoms: C36_44  and  O9_45 
REMARK   11  A    between atoms: C37_46  and  O10_47 
ROOT
HETATM    1  C5  UNL     1       1.920   7.574  11.769  1.00  0.00     0.133 C 
HETATM    2  C6  UNL     1       1.518   8.365  13.019  1.00  0.00     0.034 C 
HETATM    3  C7  UNL     1       0.349   7.744  13.756  1.00  0.00     0.013 C 
HETATM    4  C8  UNL     1      -0.842   7.553  12.859  1.00  0.00    -0.025 A 
HETATM    5  C9  UNL     1      -1.951   8.563  12.784  1.00  0.00     0.021 A 
HETATM    6  C10 UNL     1      -2.192   7.262  13.541  1.00  0.00    -0.027 A 
HETATM    7  C11 UNL     1      -2.421   7.454  15.034  1.00  0.00     0.011 C 
HETATM    8  C12 UNL     1      -3.919   7.502  15.425  1.00  0.00     0.011 C 
HETATM    9  C13 UNL     1      -4.871   6.871  14.384  1.00  0.00    -0.028 C 
HETATM   10  C14 UNL     1      -5.224   7.943  13.311  1.00  0.00     0.016 C 
HETATM   11  C15 UNL     1      -6.215   6.262  14.921  1.00  0.00     0.057 C 
HETATM   12  C24 UNL     1      -6.583   5.216  13.817  1.00  0.00     0.126 C 
HETATM   13  C25 UNL     1      -5.306   4.995  12.962  1.00  0.00     0.042 C 
HETATM   14  C26 UNL     1      -4.152   5.603  13.783  1.00  0.00    -0.029 C 
HETATM   15  C27 UNL     1      -3.759   4.534  14.851  1.00  0.00     0.016 C 
HETATM   16  C28 UNL     1      -2.902   6.032  12.926  1.00  0.00     0.006 C 
HETATM   17  C29 UNL     1      -1.839   4.911  12.747  1.00  0.00     0.038 C 
HETATM   18  C30 UNL     1      -0.661   5.274  11.814  1.00  0.00     0.124 C 
HETATM   19  C31 UNL     1      -0.556   6.791  11.554  1.00  0.00     0.034 C 
HETATM   20  C32 UNL     1       0.707   7.339  10.810  1.00  0.00    -0.015 C 
HETATM   21  C33 UNL     1       1.145   6.379   9.675  1.00  0.00     0.018 C 
HETATM   22  C34 UNL     1       0.321   8.683  10.123  1.00  0.00     0.018 C 
ENDROOT
BRANCH   1  23
HETATM   23  O3  UNL     1       2.938   8.252  11.010  1.00  0.00    -0.352 OA
BRANCH  23  24
HETATM   24  C4  UNL     1       4.144   8.595  11.698  1.00  0.00     0.292 C 
HETATM   25  C3  UNL     1       5.254   8.708  10.622  1.00  0.00     0.218 C 
HETATM   26  C37 UNL     1       6.527   9.377  11.174  1.00  0.00     0.183 C 
HETATM   27  C36 UNL     1       6.221  10.581  12.068  1.00  0.00     0.173 C 
HETATM   28  C35 UNL     1       5.137  10.241  13.073  1.00  0.00     0.205 C 
HETATM   29  O8  UNL     1       3.963   9.825  12.389  1.00  0.00    -0.356 OA
BRANCH  25  30
HETATM   30  O2  UNL     1       5.541   7.341  10.194  1.00  0.00    -0.309 OA
BRANCH  30  31
HETATM   31  C2  UNL     1       6.221   6.544  11.047  1.00  0.00     0.255 C 
HETATM   32  C1  UNL     1       6.127   7.067  12.443  1.00  0.00     0.126 C 
HETATM   33  O1  UNL     1       6.836   5.535  10.725  1.00  0.00    -0.266 OA
ENDBRANCH  30  31
ENDBRANCH  25  30
BRANCH  26  34
HETATM   34  O10 UNL     1       7.397   9.875  10.134  1.00  0.00    -0.390 OA
HETATM   35  H60 UNL     1       7.273   9.328   9.329  1.00  0.00     0.210 HD
ENDBRANCH  26  34
BRANCH  27  36
HETATM   36  O9  UNL     1       7.412  10.981  12.747  1.00  0.00    -0.391 OA
HETATM   37  H58 UNL     1       8.022  11.284  12.041  1.00  0.00     0.210 HD
ENDBRANCH  27  36
ENDBRANCH  23  24
ENDBRANCH   1  23
BRANCH  18  38
HETATM   38  O7  UNL     1       0.548   4.747  12.355  1.00  0.00    -0.395 OA
HETATM   39  H47 UNL     1       0.406   3.790  12.471  1.00  0.00     0.210 HD
ENDBRANCH  18  38
BRANCH  11  40
HETATM   40  C16 UNL     1      -7.361   7.152  15.498  1.00  0.00     0.065 C 
HETATM   41  C17 UNL     1      -7.272   7.182  17.039  1.00  0.00     0.046 C 
HETATM   42  C18 UNL     1      -7.538   8.569  14.965  1.00  0.00     0.041 C 
HETATM   43  C19 UNL     1      -9.005   8.864  15.172  1.00  0.00     0.038 C 
HETATM   44  C20 UNL     1      -9.675   7.497  15.208  1.00  0.00     0.156 C 
HETATM   45  O5  UNL     1      -8.623   6.502  15.179  1.00  0.00    -0.372 OA
BRANCH  44  46
HETATM   46  C21 UNL     1     -10.717   7.203  14.105  1.00  0.00     0.076 C 
HETATM   47  C22 UNL     1     -11.525   8.454  13.749  1.00  0.00     0.048 C 
HETATM   48  C23 UNL     1     -10.110   6.586  12.847  1.00  0.00     0.048 C 
BRANCH  46  49
HETATM   49  O4  UNL     1     -11.648   6.244  14.626  1.00  0.00    -0.388 OA
HETATM   50  H35 UNL     1     -11.099   5.571  15.074  1.00  0.00     0.210 HD
ENDBRANCH  46  49
ENDBRANCH  44  46
ENDBRANCH  11  40
BRANCH  12  51
HETATM   51  O6  UNL     1      -7.627   5.625  12.955  1.00  0.00    -0.395 OA
HETATM   52  H37 UNL     1      -7.806   4.894  12.343  1.00  0.00     0.210 HD
ENDBRANCH  12  51
TORSDOF 11
ENDMDL
MODEL 9
REMARK minimizedAffinity -8.0770731
REMARK CNNscore 0.424882025
REMARK CNNaffinity 6.64965773
REMARK  11 active torsions:
REMARK  status: ('A' for Active; 'I' for Inactive)
REMARK    1  A    between atoms: C2_2  and  O2_4 
REMARK    2  A    between atoms: O2_4  and  C3_5 
REMARK    3  A    between atoms: C4_6  and  O3_7 
REMARK    4  A    between atoms: O3_7  and  C5_8 
REMARK    5  A    between atoms: C15_18  and  C16_19 
REMARK    6  A    between atoms: C20_23  and  C21_24 
REMARK    7  A    between atoms: C21_24  and  O4_27 
REMARK    8  A    between atoms: C24_29  and  O6_30 
REMARK    9  A    between atoms: C30_36  and  O7_37 
REMARK   10  A    between atoms: C36_44  and  O9_45 
REMARK   11  A    between atoms: C37_46  and  O10_47 
ROOT
HETATM    1  C5  UNL     1      -1.604   7.280  13.474  1.00  0.00     0.133 C 
HETATM    2  C6  UNL     1      -3.098   7.494  13.744  1.00  0.00     0.034 C 
HETATM    3  C7  UNL     1      -3.426   8.921  14.129  1.00  0.00     0.013 C 
HETATM    4  C8  UNL     1      -2.616   9.385  15.308  1.00  0.00    -0.025 A 
HETATM    5  C9  UNL     1      -3.143   9.315  16.712  1.00  0.00     0.021 A 
HETATM    6  C10 UNL     1      -3.084  10.670  16.016  1.00  0.00    -0.027 A 
HETATM    7  C11 UNL     1      -4.450  11.295  15.774  1.00  0.00     0.011 C 
HETATM    8  C12 UNL     1      -4.864  12.313  16.867  1.00  0.00     0.011 C 
HETATM    9  C13 UNL     1      -3.685  12.878  17.691  1.00  0.00    -0.028 C 
HETATM   10  C14 UNL     1      -3.378  11.901  18.864  1.00  0.00     0.016 C 
HETATM   11  C15 UNL     1      -3.859  14.318  18.293  1.00  0.00     0.057 C 
HETATM   12  C24 UNL     1      -2.380  14.797  18.468  1.00  0.00     0.126 C 
HETATM   13  C25 UNL     1      -1.492  13.836  17.633  1.00  0.00     0.042 C 
HETATM   14  C26 UNL     1      -2.465  13.076  16.711  1.00  0.00    -0.029 C 
HETATM   15  C27 UNL     1      -2.769  14.025  15.509  1.00  0.00     0.016 C 
HETATM   16  C28 UNL     1      -1.929  11.682  16.210  1.00  0.00     0.006 C 
HETATM   17  C29 UNL     1      -1.131  11.751  14.877  1.00  0.00     0.038 C 
HETATM   18  C30 UNL     1      -0.498  10.414  14.428  1.00  0.00     0.124 C 
HETATM   19  C31 UNL     1      -1.097   9.197  15.164  1.00  0.00     0.034 C 
HETATM   20  C32 UNL     1      -0.718   7.761  14.670  1.00  0.00    -0.015 C 
HETATM   21  C33 UNL     1       0.771   7.691  14.250  1.00  0.00     0.018 C 
HETATM   22  C34 UNL     1      -0.883   6.777  15.867  1.00  0.00     0.018 C 
ENDROOT
BRANCH   1  23
HETATM   23  O3  UNL     1      -1.293   5.893  13.245  1.00  0.00    -0.352 OA
BRANCH  23  24
HETATM   24  C4  UNL     1      -2.222   5.138  12.462  1.00  0.00     0.292 C 
HETATM   25  C3  UNL     1      -1.382   4.250  11.510  1.00  0.00     0.218 C 
HETATM   26  C37 UNL     1      -2.235   3.160  10.834  1.00  0.00     0.183 C 
HETATM   27  C36 UNL     1      -3.226   2.503  11.799  1.00  0.00     0.173 C 
HETATM   28  C35 UNL     1      -3.968   3.553  12.602  1.00  0.00     0.205 C 
HETATM   29  O8  UNL     1      -3.040   4.353  13.321  1.00  0.00    -0.356 OA
BRANCH  25  30
HETATM   30  O2  UNL     1      -0.820   5.152  10.508  1.00  0.00    -0.309 OA
BRANCH  30  31
HETATM   31  C2  UNL     1       0.361   5.745  10.786  1.00  0.00     0.255 C 
HETATM   32  C1  UNL     1       1.353   4.739  11.271  1.00  0.00     0.126 C 
HETATM   33  O1  UNL     1       0.591   6.942  10.666  1.00  0.00    -0.266 OA
ENDBRANCH  30  31
ENDBRANCH  25  30
BRANCH  26  34
HETATM   34  O10 UNL     1      -1.444   2.080  10.292  1.00  0.00    -0.390 OA
HETATM   35  H60 UNL     1      -0.560   2.428  10.047  1.00  0.00     0.210 HD
ENDBRANCH  26  34
BRANCH  27  36
HETATM   36  O9  UNL     1      -4.151   1.707  11.057  1.00  0.00    -0.391 OA
HETATM   37  H58 UNL     1      -3.611   0.993  10.654  1.00  0.00     0.210 HD
ENDBRANCH  27  36
ENDBRANCH  23  24
ENDBRANCH   1  23
BRANCH  18  38
HETATM   38  O7  UNL     1      -0.620  10.287  13.013  1.00  0.00    -0.395 OA
HETATM   39  H47 UNL     1      -0.205  11.079  12.627  1.00  0.00     0.210 HD
ENDBRANCH  18  38
BRANCH  11  40
HETATM   40  C16 UNL     1      -4.870  14.624  19.443  1.00  0.00     0.065 C 
HETATM   41  C17 UNL     1      -6.237  15.016  18.844  1.00  0.00     0.046 C 
HETATM   42  C18 UNL     1      -5.069  13.593  20.547  1.00  0.00     0.041 C 
HETATM   43  C19 UNL     1      -5.503  14.408  21.743  1.00  0.00     0.038 C 
HETATM   44  C20 UNL     1      -4.955  15.804  21.482  1.00  0.00     0.156 C 
HETATM   45  O5  UNL     1      -4.386  15.800  20.150  1.00  0.00    -0.372 OA
BRANCH  44  46
HETATM   46  C21 UNL     1      -3.926  16.349  22.498  1.00  0.00     0.076 C 
HETATM   47  C22 UNL     1      -3.695  17.851  22.312  1.00  0.00     0.048 C 
HETATM   48  C23 UNL     1      -4.286  16.041  23.949  1.00  0.00     0.048 C 
BRANCH  46  49
HETATM   49  O4  UNL     1      -2.670  15.703  22.240  1.00  0.00    -0.388 OA
HETATM   50  H35 UNL     1      -2.889  14.760  22.113  1.00  0.00     0.210 HD
ENDBRANCH  46  49
ENDBRANCH  44  46
ENDBRANCH  11  40
BRANCH  12  51
HETATM   51  O6  UNL     1      -1.918  14.774  19.805  1.00  0.00    -0.395 OA
HETATM   52  H37 UNL     1      -1.015  15.130  19.811  1.00  0.00     0.210 HD
ENDBRANCH  12  51
TORSDOF 11
ENDMDL
