MODEL 1
REMARK minimizedAffinity -9.52079391
REMARK  6 active torsions:
REMARK  status: ('A' for Active; 'I' for Inactive)
REMARK    1  A    between atoms: C2_2  and  C30_31 
REMARK    2  A    between atoms: C3_3  and  C4_4 
REMARK    3  A    between atoms: C4_4  and  C5_5 
REMARK    4  A    between atoms: C5_5  and  C6_6 
REMARK    5  A    between atoms: C6_6  and  C8_8 
REMARK    6  A    between atoms: C30_31  and  O3_33 
ROOT
HETATM    1  C8  UNL     1       0.690   7.487  12.694  1.00  0.00    -0.002 C 
HETATM    2  C9  UNL     1       0.698   6.220  11.784  1.00  0.00     0.007 C 
HETATM    3  C10 UNL     1      -0.679   5.541  11.920  1.00  0.00     0.015 C 
HETATM    4  C11 UNL     1      -1.331   6.223  13.139  1.00  0.00    -0.013 C 
HETATM    5  C12 UNL     1      -0.758   5.494  14.397  1.00  0.00     0.021 C 
HETATM    6  C13 UNL     1      -2.850   6.163  13.270  1.00  0.00    -0.070 C 
HETATM    7  C14 UNL     1      -3.567   5.112  12.835  1.00  0.00    -0.022 C 
HETATM    8  C15 UNL     1      -5.040   4.945  13.038  1.00  0.00     0.034 C 
HETATM    9  C16 UNL     1      -5.770   6.195  13.583  1.00  0.00     0.013 C 
HETATM   10  C17 UNL     1      -7.259   5.899  13.997  1.00  0.00     0.018 C 
HETATM   11  C18 UNL     1      -7.486   4.525  14.660  1.00  0.00     0.023 C 
HETATM   12  C19 UNL     1      -8.162   5.954  12.746  1.00  0.00     0.023 C 
HETATM   13  C20 UNL     1      -7.755   6.995  14.944  1.00  0.00     0.135 C 
HETATM   14  O1  UNL     1      -8.675   6.821  15.744  1.00  0.00    -0.297 OA
HETATM   15  C21 UNL     1      -7.118   8.348  14.794  1.00  0.00     0.080 C 
HETATM   16  C22 UNL     1      -5.626   8.287  15.081  1.00  0.00     0.017 C 
HETATM   17  C23 UNL     1      -4.906   6.966  14.651  1.00  0.00    -0.031 C 
HETATM   18  C24 UNL     1      -4.678   6.109  15.919  1.00  0.00     0.016 C 
HETATM   19  C25 UNL     1      -3.528   7.343  13.969  1.00  0.00     0.024 C 
HETATM   20  C26 UNL     1      -2.547   8.127  14.875  1.00  0.00     0.010 C 
HETATM   21  C27 UNL     1      -1.208   8.524  14.208  1.00  0.00     0.011 C 
HETATM   22  C28 UNL     1      -0.840   7.705  12.950  1.00  0.00    -0.029 C 
HETATM   23  C29 UNL     1      -1.446   8.406  11.692  1.00  0.00     0.016 C 
ENDROOT
BRANCH   1  24
HETATM   24  C6  UNL     1       1.556   8.642  12.104  1.00  0.00    -0.014 C 
HETATM   25  C7  UNL     1       2.070   9.590  13.192  1.00  0.00     0.010 C 
BRANCH  24  26
HETATM   26  C5  UNL     1       2.749   8.057  11.299  1.00  0.00     0.008 C 
BRANCH  26  27
HETATM   27  C4  UNL     1       2.367   6.895  10.375  1.00  0.00     0.028 C 
BRANCH  27  28
HETATM   28  C3  UNL     1       2.060   7.385   8.984  1.00  0.00    -0.013 C 
HETATM   29  C2  UNL     1       2.294   6.761   7.811  1.00  0.00     0.008 C 
HETATM   30  C1  UNL     1       1.894   7.378   6.501  1.00  0.00     0.055 C 
BRANCH  29  31
HETATM   31  C30 UNL     1       3.005   5.462   7.748  1.00  0.00     0.171 C 
HETATM   32  O2  UNL     1       2.962   4.637   6.854  1.00  0.00    -0.646 OA
BRANCH  31  33
HETATM   33  O3  UNL     1       3.743   5.246   8.851  1.00  0.00    -0.773 OA
HETATM   34  H46 UNL     1       4.151   4.372   8.681  1.00  0.00     0.167 HD
ENDBRANCH  31  33
ENDBRANCH  29  31
ENDBRANCH  27  28
ENDBRANCH  26  27
ENDBRANCH  24  26
ENDBRANCH   1  24
TORSDOF 6
ENDMDL
MODEL 2
REMARK minimizedAffinity -9.32015705
REMARK  6 active torsions:
REMARK  status: ('A' for Active; 'I' for Inactive)
REMARK    1  A    between atoms: C2_2  and  C30_31 
REMARK    2  A    between atoms: C3_3  and  C4_4 
REMARK    3  A    between atoms: C4_4  and  C5_5 
REMARK    4  A    between atoms: C5_5  and  C6_6 
REMARK    5  A    between atoms: C6_6  and  C8_8 
REMARK    6  A    between atoms: C30_31  and  O3_33 
ROOT
HETATM    1  C8  UNL     1      -5.191   7.942  15.845  1.00  0.00    -0.002 C 
HETATM    2  C9  UNL     1      -5.158   9.473  15.549  1.00  0.00     0.007 C 
HETATM    3  C10 UNL     1      -3.890   9.761  14.724  1.00  0.00     0.015 C 
HETATM    4  C11 UNL     1      -3.050   8.473  14.839  1.00  0.00    -0.013 C 
HETATM    5  C12 UNL     1      -2.286   8.578  16.198  1.00  0.00     0.021 C 
HETATM    6  C13 UNL     1      -1.988   8.209  13.775  1.00  0.00    -0.070 C 
HETATM    7  C14 UNL     1      -1.309   9.204  13.176  1.00  0.00    -0.022 C 
HETATM    8  C15 UNL     1      -0.181   9.004  12.214  1.00  0.00     0.034 C 
HETATM    9  C16 UNL     1       0.022   7.547  11.739  1.00  0.00     0.013 C 
HETATM   10  C17 UNL     1       1.352   7.352  10.921  1.00  0.00     0.018 C 
HETATM   11  C18 UNL     1       2.555   8.167  11.436  1.00  0.00     0.023 C 
HETATM   12  C19 UNL     1       1.118   7.767   9.452  1.00  0.00     0.023 C 
HETATM   13  C20 UNL     1       1.730   5.868  10.902  1.00  0.00     0.135 C 
HETATM   14  O1  UNL     1       2.884   5.474  10.730  1.00  0.00    -0.297 OA
HETATM   15  C21 UNL     1       0.596   4.887  11.019  1.00  0.00     0.080 C 
HETATM   16  C22 UNL     1      -0.133   5.046  12.343  1.00  0.00     0.017 C 
HETATM   17  C23 UNL     1      -0.224   6.506  12.896  1.00  0.00    -0.031 C 
HETATM   18  C24 UNL     1       0.822   6.659  14.026  1.00  0.00     0.016 C 
HETATM   19  C25 UNL     1      -1.689   6.745  13.449  1.00  0.00     0.024 C 
HETATM   20  C26 UNL     1      -2.116   5.792  14.592  1.00  0.00     0.010 C 
HETATM   21  C27 UNL     1      -3.556   6.000  15.120  1.00  0.00     0.011 C 
HETATM   22  C28 UNL     1      -4.176   7.377  14.794  1.00  0.00    -0.029 C 
HETATM   23  C29 UNL     1      -4.907   7.291  13.415  1.00  0.00     0.016 C 
ENDROOT
BRANCH   1  24
HETATM   24  C6  UNL     1      -6.646   7.384  15.905  1.00  0.00    -0.014 C 
HETATM   25  C7  UNL     1      -7.486   7.833  14.704  1.00  0.00     0.010 C 
BRANCH  24  26
HETATM   26  C5  UNL     1      -6.620   5.833  15.988  1.00  0.00     0.008 C 
BRANCH  26  27
HETATM   27  C4  UNL     1      -7.366   5.136  14.845  1.00  0.00     0.028 C 
BRANCH  27  28
HETATM   28  C3  UNL     1      -6.415   4.703  13.759  1.00  0.00    -0.013 C 
HETATM   29  C2  UNL     1      -6.574   3.710  12.861  1.00  0.00     0.008 C 
HETATM   30  C1  UNL     1      -5.537   3.426  11.813  1.00  0.00     0.055 C 
BRANCH  29  31
HETATM   31  C30 UNL     1      -7.753   2.811  12.893  1.00  0.00     0.171 C 
HETATM   32  O2  UNL     1      -7.757   1.594  12.906  1.00  0.00    -0.646 OA
BRANCH  31  33
HETATM   33  O3  UNL     1      -8.906   3.504  12.887  1.00  0.00    -0.773 OA
HETATM   34  H46 UNL     1      -9.590   2.804  12.910  1.00  0.00     0.167 HD
ENDBRANCH  31  33
ENDBRANCH  29  31
ENDBRANCH  27  28
ENDBRANCH  26  27
ENDBRANCH  24  26
ENDBRANCH   1  24
TORSDOF 6
ENDMDL
MODEL 3
REMARK minimizedAffinity -9.29227352
REMARK  6 active torsions:
REMARK  status: ('A' for Active; 'I' for Inactive)
REMARK    1  A    between atoms: C2_2  and  C30_31 
REMARK    2  A    between atoms: C3_3  and  C4_4 
REMARK    3  A    between atoms: C4_4  and  C5_5 
REMARK    4  A    between atoms: C5_5  and  C6_6 
REMARK    5  A    between atoms: C6_6  and  C8_8 
REMARK    6  A    between atoms: C30_31  and  O3_33 
ROOT
HETATM    1  C8  UNL     1      -3.958   7.124  14.643  1.00  0.00    -0.002 C 
HETATM    2  C9  UNL     1      -4.467   8.381  13.873  1.00  0.00     0.007 C 
HETATM    3  C10 UNL     1      -3.394   8.754  12.832  1.00  0.00     0.015 C 
HETATM    4  C11 UNL     1      -2.156   7.929  13.236  1.00  0.00    -0.013 C 
HETATM    5  C12 UNL     1      -1.451   8.738  14.372  1.00  0.00     0.021 C 
HETATM    6  C13 UNL     1      -1.089   7.668  12.177  1.00  0.00    -0.070 C 
HETATM    7  C14 UNL     1      -0.811   8.554  11.204  1.00  0.00    -0.022 C 
HETATM    8  C15 UNL     1       0.298   8.406  10.211  1.00  0.00     0.034 C 
HETATM    9  C16 UNL     1       0.987   7.021  10.203  1.00  0.00     0.013 C 
HETATM   10  C17 UNL     1       2.286   6.992   9.315  1.00  0.00     0.018 C 
HETATM   11  C18 UNL     1       3.139   8.275   9.372  1.00  0.00     0.023 C 
HETATM   12  C19 UNL     1       1.895   6.772   7.837  1.00  0.00     0.023 C 
HETATM   13  C20 UNL     1       3.156   5.798   9.719  1.00  0.00     0.135 C 
HETATM   14  O1  UNL     1       4.372   5.762   9.525  1.00  0.00    -0.297 OA
HETATM   15  C21 UNL     1       2.438   4.611  10.298  1.00  0.00     0.080 C 
HETATM   16  C22 UNL     1       1.724   4.978  11.589  1.00  0.00     0.017 C 
HETATM   17  C23 UNL     1       1.140   6.427  11.654  1.00  0.00    -0.031 C 
HETATM   18  C24 UNL     1       2.089   7.290  12.520  1.00  0.00     0.016 C 
HETATM   19  C25 UNL     1      -0.305   6.360  12.298  1.00  0.00     0.024 C 
HETATM   20  C26 UNL     1      -0.351   5.781  13.733  1.00  0.00     0.010 C 
HETATM   21  C27 UNL     1      -1.763   5.685  14.360  1.00  0.00     0.011 C 
HETATM   22  C28 UNL     1      -2.831   6.586  13.699  1.00  0.00    -0.029 C 
HETATM   23  C29 UNL     1      -3.511   5.797  12.534  1.00  0.00     0.016 C 
ENDROOT
BRANCH   1  24
HETATM   24  C6  UNL     1      -5.127   6.186  15.079  1.00  0.00    -0.014 C 
HETATM   25  C7  UNL     1      -6.263   6.959  15.757  1.00  0.00     0.010 C 
BRANCH  24  26
HETATM   26  C5  UNL     1      -5.670   5.406  13.851  1.00  0.00     0.008 C 
BRANCH  26  27
HETATM   27  C4  UNL     1      -7.163   5.067  13.940  1.00  0.00     0.028 C 
BRANCH  27  28
HETATM   28  C3  UNL     1      -7.852   5.297  12.620  1.00  0.00    -0.013 C 
HETATM   29  C2  UNL     1      -8.980   5.997  12.382  1.00  0.00     0.008 C 
HETATM   30  C1  UNL     1      -9.523   6.160  10.991  1.00  0.00     0.055 C 
BRANCH  29  31
HETATM   31  C30 UNL     1      -9.773   6.597  13.482  1.00  0.00     0.171 C 
HETATM   32  O2  UNL     1      -9.478   6.656  14.661  1.00  0.00    -0.646 OA
BRANCH  31  33
HETATM   33  O3  UNL     1     -10.941   7.094  13.037  1.00  0.00    -0.773 OA
HETATM   34  H46 UNL     1     -11.356   7.452  13.848  1.00  0.00     0.167 HD
ENDBRANCH  31  33
ENDBRANCH  29  31
ENDBRANCH  27  28
ENDBRANCH  26  27
ENDBRANCH  24  26
ENDBRANCH   1  24
TORSDOF 6
ENDMDL
MODEL 4
REMARK minimizedAffinity -9.07562923
REMARK  6 active torsions:
REMARK  status: ('A' for Active; 'I' for Inactive)
REMARK    1  A    between atoms: C2_2  and  C30_31 
REMARK    2  A    between atoms: C3_3  and  C4_4 
REMARK    3  A    between atoms: C4_4  and  C5_5 
REMARK    4  A    between atoms: C5_5  and  C6_6 
REMARK    5  A    between atoms: C6_6  and  C8_8 
REMARK    6  A    between atoms: C30_31  and  O3_33 
ROOT
HETATM    1  C8  UNL     1      -6.482   3.175  -9.406  1.00  0.00    -0.002 C 
HETATM    2  C9  UNL     1      -7.295   3.192 -10.737  1.00  0.00     0.007 C 
HETATM    3  C10 UNL     1      -8.375   2.099 -10.637  1.00  0.00     0.015 C 
HETATM    4  C11 UNL     1      -7.965   1.257  -9.414  1.00  0.00    -0.013 C 
HETATM    5  C12 UNL     1      -6.882   0.253  -9.926  1.00  0.00     0.021 C 
HETATM    6  C13 UNL     1      -9.035   0.412  -8.729  1.00  0.00    -0.070 C 
HETATM    7  C14 UNL     1     -10.052  -0.147  -9.409  1.00  0.00    -0.022 C 
HETATM    8  C15 UNL     1     -11.063  -1.076  -8.815  1.00  0.00     0.034 C 
HETATM    9  C16 UNL     1     -11.026  -1.182  -7.273  1.00  0.00     0.013 C 
HETATM   10  C17 UNL     1     -11.941  -2.336  -6.719  1.00  0.00     0.018 C 
HETATM   11  C18 UNL     1     -11.960  -3.617  -7.578  1.00  0.00     0.023 C 
HETATM   12  C19 UNL     1     -13.399  -1.835  -6.620  1.00  0.00     0.023 C 
HETATM   13  C20 UNL     1     -11.505  -2.699  -5.296  1.00  0.00     0.135 C 
HETATM   14  O1  UNL     1     -11.725  -3.800  -4.790  1.00  0.00    -0.297 OA
HETATM   15  C21 UNL     1     -10.859  -1.604  -4.495  1.00  0.00     0.080 C 
HETATM   16  C22 UNL     1      -9.568  -1.134  -5.148  1.00  0.00     0.017 C 
HETATM   17  C23 UNL     1      -9.554  -1.152  -6.712  1.00  0.00    -0.031 C 
HETATM   18  C24 UNL     1      -8.748  -2.391  -7.171  1.00  0.00     0.016 C 
HETATM   19  C25 UNL     1      -8.875   0.184  -7.225  1.00  0.00     0.024 C 
HETATM   20  C26 UNL     1      -7.415   0.393  -6.754  1.00  0.00     0.010 C 
HETATM   21  C27 UNL     1      -6.753   1.709  -7.227  1.00  0.00     0.011 C 
HETATM   22  C28 UNL     1      -7.428   2.375  -8.448  1.00  0.00    -0.029 C 
HETATM   23  C29 UNL     1      -8.541   3.350  -7.943  1.00  0.00     0.016 C 
ENDROOT
BRANCH   1  24
HETATM   24  C6  UNL     1      -5.979   4.595  -9.004  1.00  0.00    -0.014 C 
HETATM   25  C7  UNL     1      -6.699   5.703  -9.781  1.00  0.00     0.010 C 
BRANCH  24  26
HETATM   26  C5  UNL     1      -6.159   4.812  -7.476  1.00  0.00     0.008 C 
BRANCH  26  27
HETATM   27  C4  UNL     1      -4.901   5.329  -6.768  1.00  0.00     0.028 C 
BRANCH  27  28
HETATM   28  C3  UNL     1      -4.978   6.816  -6.539  1.00  0.00    -0.013 C 
HETATM   29  C2  UNL     1      -3.961   7.698  -6.458  1.00  0.00     0.008 C 
HETATM   30  C1  UNL     1      -4.210   9.165  -6.258  1.00  0.00     0.055 C 
BRANCH  29  31
HETATM   31  C30 UNL     1      -2.544   7.263  -6.508  1.00  0.00     0.171 C 
HETATM   32  O2  UNL     1      -1.552   7.967  -6.495  1.00  0.00    -0.646 OA
BRANCH  31  33
HETATM   33  O3  UNL     1      -2.439   5.925  -6.594  1.00  0.00    -0.773 OA
HETATM   34  H46 UNL     1      -1.472   5.776  -6.619  1.00  0.00     0.167 HD
ENDBRANCH  31  33
ENDBRANCH  29  31
ENDBRANCH  27  28
ENDBRANCH  26  27
ENDBRANCH  24  26
ENDBRANCH   1  24
TORSDOF 6
ENDMDL
MODEL 5
REMARK minimizedAffinity -9.04448414
REMARK  6 active torsions:
REMARK  status: ('A' for Active; 'I' for Inactive)
REMARK    1  A    between atoms: C2_2  and  C30_31 
REMARK    2  A    between atoms: C3_3  and  C4_4 
REMARK    3  A    between atoms: C4_4  and  C5_5 
REMARK    4  A    between atoms: C5_5  and  C6_6 
REMARK    5  A    between atoms: C6_6  and  C8_8 
REMARK    6  A    between atoms: C30_31  and  O3_33 
ROOT
HETATM    1  C8  UNL     1       0.742   7.527  12.171  1.00  0.00    -0.002 C 
HETATM    2  C9  UNL     1       0.632   6.339  11.166  1.00  0.00     0.007 C 
HETATM    3  C10 UNL     1      -0.740   5.673  11.381  1.00  0.00     0.015 C 
HETATM    4  C11 UNL     1      -1.255   6.262  12.708  1.00  0.00    -0.013 C 
HETATM    5  C12 UNL     1      -0.581   5.423  13.842  1.00  0.00     0.021 C 
HETATM    6  C13 UNL     1      -2.756   6.215  12.983  1.00  0.00    -0.070 C 
HETATM    7  C14 UNL     1      -3.536   5.214  12.537  1.00  0.00    -0.022 C 
HETATM    8  C15 UNL     1      -4.985   5.054  12.869  1.00  0.00     0.034 C 
HETATM    9  C16 UNL     1      -5.630   6.266  13.582  1.00  0.00     0.013 C 
HETATM   10  C17 UNL     1      -7.079   5.959  14.115  1.00  0.00     0.018 C 
HETATM   11  C18 UNL     1      -7.273   4.540  14.684  1.00  0.00     0.023 C 
HETATM   12  C19 UNL     1      -8.097   6.131  12.967  1.00  0.00     0.023 C 
HETATM   13  C20 UNL     1      -7.456   6.982  15.191  1.00  0.00     0.135 C 
HETATM   14  O1  UNL     1      -8.298   6.757  16.061  1.00  0.00    -0.297 OA
HETATM   15  C21 UNL     1      -6.805   8.333  15.089  1.00  0.00     0.080 C 
HETATM   16  C22 UNL     1      -5.294   8.225  15.222  1.00  0.00     0.017 C 
HETATM   17  C23 UNL     1      -4.650   6.933  14.619  1.00  0.00    -0.031 C 
HETATM   18  C24 UNL     1      -4.320   5.972  15.786  1.00  0.00     0.016 C 
HETATM   19  C25 UNL     1      -3.335   7.343  13.838  1.00  0.00     0.024 C 
HETATM   20  C26 UNL     1      -2.254   8.036  14.703  1.00  0.00     0.010 C 
HETATM   21  C27 UNL     1      -0.976   8.465  13.942  1.00  0.00     0.011 C 
HETATM   22  C28 UNL     1      -0.750   7.746  12.592  1.00  0.00    -0.029 C 
HETATM   23  C29 UNL     1      -1.458   8.558  11.460  1.00  0.00     0.016 C 
ENDROOT
BRANCH   1  24
HETATM   24  C6  UNL     1       1.574   8.713  11.593  1.00  0.00    -0.014 C 
HETATM   25  C7  UNL     1       2.359   9.450  12.683  1.00  0.00     0.010 C 
BRANCH  24  26
HETATM   26  C5  UNL     1       2.542   8.199  10.493  1.00  0.00     0.008 C 
BRANCH  26  27
HETATM   27  C4  UNL     1       3.402   7.006  10.926  1.00  0.00     0.028 C 
BRANCH  27  28
HETATM   28  C3  UNL     1       4.274   7.362  12.101  1.00  0.00    -0.013 C 
HETATM   29  C2  UNL     1       5.602   7.174  12.238  1.00  0.00     0.008 C 
HETATM   30  C1  UNL     1       6.335   7.619  13.472  1.00  0.00     0.055 C 
BRANCH  29  31
HETATM   31  C30 UNL     1       6.401   6.471  11.206  1.00  0.00     0.171 C 
HETATM   32  O2  UNL     1       7.092   6.969  10.336  1.00  0.00    -0.646 OA
BRANCH  31  33
HETATM   33  O3  UNL     1       6.277   5.135  11.306  1.00  0.00    -0.773 OA
HETATM   34  H46 UNL     1       6.843   4.801  10.581  1.00  0.00     0.167 HD
ENDBRANCH  31  33
ENDBRANCH  29  31
ENDBRANCH  27  28
ENDBRANCH  26  27
ENDBRANCH  24  26
ENDBRANCH   1  24
TORSDOF 6
ENDMDL
MODEL 6
REMARK minimizedAffinity -8.97956848
REMARK  6 active torsions:
REMARK  status: ('A' for Active; 'I' for Inactive)
REMARK    1  A    between atoms: C2_2  and  C30_31 
REMARK    2  A    between atoms: C3_3  and  C4_4 
REMARK    3  A    between atoms: C4_4  and  C5_5 
REMARK    4  A    between atoms: C5_5  and  C6_6 
REMARK    5  A    between atoms: C6_6  and  C8_8 
REMARK    6  A    between atoms: C30_31  and  O3_33 
ROOT
HETATM    1  C8  UNL     1      -4.480   5.928  14.423  1.00  0.00    -0.002 C 
HETATM    2  C9  UNL     1      -5.136   4.760  13.623  1.00  0.00     0.007 C 
HETATM    3  C10 UNL     1      -6.649   5.038  13.552  1.00  0.00     0.015 C 
HETATM    4  C11 UNL     1      -6.888   6.162  14.580  1.00  0.00    -0.013 C 
HETATM    5  C12 UNL     1      -7.000   5.458  15.970  1.00  0.00     0.021 C 
HETATM    6  C13 UNL     1      -8.145   7.016  14.434  1.00  0.00    -0.070 C 
HETATM    7  C14 UNL     1      -9.297   6.519  13.951  1.00  0.00    -0.022 C 
HETATM    8  C15 UNL     1     -10.588   7.272  13.893  1.00  0.00     0.034 C 
HETATM    9  C16 UNL     1     -10.478   8.783  14.204  1.00  0.00     0.013 C 
HETATM   10  C17 UNL     1     -11.882   9.477  14.359  1.00  0.00     0.018 C 
HETATM   11  C18 UNL     1     -12.954   8.622  15.065  1.00  0.00     0.023 C 
HETATM   12  C19 UNL     1     -12.435   9.836  12.962  1.00  0.00     0.023 C 
HETATM   13  C20 UNL     1     -11.720  10.798  15.118  1.00  0.00     0.135 C 
HETATM   14  O1  UNL     1     -12.639  11.324  15.746  1.00  0.00    -0.297 OA
HETATM   15  C21 UNL     1     -10.389  11.484  14.991  1.00  0.00     0.080 C 
HETATM   16  C22 UNL     1      -9.270  10.619  15.550  1.00  0.00     0.017 C 
HETATM   17  C23 UNL     1      -9.443   9.077  15.355  1.00  0.00    -0.031 C 
HETATM   18  C24 UNL     1      -9.907   8.471  16.701  1.00  0.00     0.016 C 
HETATM   19  C25 UNL     1      -8.051   8.466  14.912  1.00  0.00     0.024 C 
HETATM   20  C26 UNL     1      -6.898   8.675  15.923  1.00  0.00     0.010 C 
HETATM   21  C27 UNL     1      -5.526   8.106  15.486  1.00  0.00     0.011 C 
HETATM   22  C28 UNL     1      -5.592   7.030  14.379  1.00  0.00    -0.029 C 
HETATM   23  C29 UNL     1      -5.522   7.731  12.984  1.00  0.00     0.016 C 
ENDROOT
BRANCH   1  24
HETATM   24  C6  UNL     1      -3.039   6.250  13.921  1.00  0.00    -0.014 C 
HETATM   25  C7  UNL     1      -1.970   5.486  14.709  1.00  0.00     0.010 C 
BRANCH  24  26
HETATM   26  C5  UNL     1      -2.917   5.929  12.407  1.00  0.00     0.008 C 
BRANCH  26  27
HETATM   27  C4  UNL     1      -2.060   4.695  12.098  1.00  0.00     0.028 C 
BRANCH  27  28
HETATM   28  C3  UNL     1      -2.899   3.444  12.067  1.00  0.00    -0.013 C 
HETATM   29  C2  UNL     1      -2.563   2.229  11.590  1.00  0.00     0.008 C 
HETATM   30  C1  UNL     1      -3.511   1.067  11.664  1.00  0.00     0.055 C 
BRANCH  29  31
HETATM   31  C30 UNL     1      -1.263   1.987  10.918  1.00  0.00     0.171 C 
HETATM   32  O2  UNL     1      -0.149   2.140  11.383  1.00  0.00    -0.646 OA
BRANCH  31  33
HETATM   33  O3  UNL     1      -1.430   1.569   9.651  1.00  0.00    -0.773 OA
HETATM   34  H46 UNL     1      -0.512   1.449   9.331  1.00  0.00     0.167 HD
ENDBRANCH  31  33
ENDBRANCH  29  31
ENDBRANCH  27  28
ENDBRANCH  26  27
ENDBRANCH  24  26
ENDBRANCH   1  24
TORSDOF 6
ENDMDL
MODEL 7
REMARK minimizedAffinity -8.96143627
REMARK  6 active torsions:
REMARK  status: ('A' for Active; 'I' for Inactive)
REMARK    1  A    between atoms: C2_2  and  C30_31 
REMARK    2  A    between atoms: C3_3  and  C4_4 
REMARK    3  A    between atoms: C4_4  and  C5_5 
REMARK    4  A    between atoms: C5_5  and  C6_6 
REMARK    5  A    between atoms: C6_6  and  C8_8 
REMARK    6  A    between atoms: C30_31  and  O3_33 
ROOT
HETATM    1  C8  UNL     1      -1.318   5.846  11.715  1.00  0.00    -0.002 C 
HETATM    2  C9  UNL     1       0.225   6.020  11.563  1.00  0.00     0.007 C 
HETATM    3  C10 UNL     1       0.659   7.165  12.498  1.00  0.00     0.015 C 
HETATM    4  C11 UNL     1      -0.659   7.847  12.915  1.00  0.00    -0.013 C 
HETATM    5  C12 UNL     1      -1.023   8.826  11.752  1.00  0.00     0.021 C 
HETATM    6  C13 UNL     1      -0.663   8.685  14.191  1.00  0.00    -0.070 C 
HETATM    7  C14 UNL     1       0.415   9.375  14.600  1.00  0.00    -0.022 C 
HETATM    8  C15 UNL     1       0.437  10.301  15.774  1.00  0.00     0.034 C 
HETATM    9  C16 UNL     1      -0.820  10.244  16.674  1.00  0.00     0.013 C 
HETATM   10  C17 UNL     1      -0.852  11.392  17.750  1.00  0.00     0.018 C 
HETATM   11  C18 UNL     1      -0.316  12.753  17.262  1.00  0.00     0.023 C 
HETATM   12  C19 UNL     1       0.002  10.979  18.969  1.00  0.00     0.023 C 
HETATM   13  C20 UNL     1      -2.284  11.576  18.262  1.00  0.00     0.135 C 
HETATM   14  O1  UNL     1      -2.687  12.630  18.754  1.00  0.00    -0.297 OA
HETATM   15  C21 UNL     1      -3.172  10.364  18.216  1.00  0.00     0.080 C 
HETATM   16  C22 UNL     1      -3.369   9.882  16.787  1.00  0.00     0.017 C 
HETATM   17  C23 UNL     1      -2.141  10.061  15.835  1.00  0.00    -0.031 C 
HETATM   18  C24 UNL     1      -2.410  11.286  14.929  1.00  0.00     0.016 C 
HETATM   19  C25 UNL     1      -1.978   8.744  14.970  1.00  0.00     0.024 C 
HETATM   20  C26 UNL     1      -3.199   8.393  14.086  1.00  0.00     0.010 C 
HETATM   21  C27 UNL     1      -3.060   7.093  13.257  1.00  0.00     0.011 C 
HETATM   22  C28 UNL     1      -1.609   6.602  13.055  1.00  0.00    -0.029 C 
HETATM   23  C29 UNL     1      -1.224   5.655  14.237  1.00  0.00     0.016 C 
ENDROOT
BRANCH   1  24
HETATM   24  C6  UNL     1      -1.764   4.362  11.540  1.00  0.00    -0.014 C 
HETATM   25  C7  UNL     1      -0.611   3.382  11.779  1.00  0.00     0.010 C 
BRANCH  24  26
HETATM   26  C5  UNL     1      -2.943   4.044  12.500  1.00  0.00     0.008 C 
BRANCH  26  27
HETATM   27  C4  UNL     1      -4.293   3.870  11.793  1.00  0.00     0.028 C 
BRANCH  27  28
HETATM   28  C3  UNL     1      -5.436   4.223  12.708  1.00  0.00    -0.013 C 
HETATM   29  C2  UNL     1      -6.563   3.520  12.939  1.00  0.00     0.008 C 
HETATM   30  C1  UNL     1      -7.599   3.998  13.915  1.00  0.00     0.055 C 
BRANCH  29  31
HETATM   31  C30 UNL     1      -6.867   2.268  12.204  1.00  0.00     0.171 C 
HETATM   32  O2  UNL     1      -6.187   1.725  11.353  1.00  0.00    -0.646 OA
BRANCH  31  33
HETATM   33  O3  UNL     1      -8.053   1.752  12.572  1.00  0.00    -0.773 OA
HETATM   34  H46 UNL     1      -8.128   0.946  12.023  1.00  0.00     0.167 HD
ENDBRANCH  31  33
ENDBRANCH  29  31
ENDBRANCH  27  28
ENDBRANCH  26  27
ENDBRANCH  24  26
ENDBRANCH   1  24
TORSDOF 6
ENDMDL
MODEL 8
REMARK minimizedAffinity -8.92699432
REMARK  6 active torsions:
REMARK  status: ('A' for Active; 'I' for Inactive)
REMARK    1  A    between atoms: C2_2  and  C30_31 
REMARK    2  A    between atoms: C3_3  and  C4_4 
REMARK    3  A    between atoms: C4_4  and  C5_5 
REMARK    4  A    between atoms: C5_5  and  C6_6 
REMARK    5  A    between atoms: C6_6  and  C8_8 
REMARK    6  A    between atoms: C30_31  and  O3_33 
ROOT
HETATM    1  C8  UNL     1      -3.747   6.163  12.822  1.00  0.00    -0.002 C 
HETATM    2  C9  UNL     1      -2.268   5.691  12.666  1.00  0.00     0.007 C 
HETATM    3  C10 UNL     1      -1.383   6.657  13.476  1.00  0.00     0.015 C 
HETATM    4  C11 UNL     1      -2.306   7.846  13.807  1.00  0.00    -0.013 C 
HETATM    5  C12 UNL     1      -2.293   8.766  12.543  1.00  0.00     0.021 C 
HETATM    6  C13 UNL     1      -1.933   8.741  14.986  1.00  0.00    -0.070 C 
HETATM    7  C14 UNL     1      -0.656   8.982  15.327  1.00  0.00    -0.022 C 
HETATM    8  C15 UNL     1      -0.227   9.937  16.396  1.00  0.00     0.034 C 
HETATM    9  C16 UNL     1      -1.371  10.477  17.286  1.00  0.00     0.013 C 
HETATM   10  C17 UNL     1      -0.907  11.645  18.233  1.00  0.00     0.018 C 
HETATM   11  C18 UNL     1       0.107  12.623  17.607  1.00  0.00     0.023 C 
HETATM   12  C19 UNL     1      -0.245  11.052  19.496  1.00  0.00     0.023 C 
HETATM   13  C20 UNL     1      -2.129  12.435  18.710  1.00  0.00     0.135 C 
HETATM   14  O1  UNL     1      -2.064  13.607  19.083  1.00  0.00    -0.297 OA
HETATM   15  C21 UNL     1      -3.427  11.680  18.787  1.00  0.00     0.080 C 
HETATM   16  C22 UNL     1      -3.849  11.174  17.416  1.00  0.00     0.017 C 
HETATM   17  C23 UNL     1      -2.685  10.751  16.461  1.00  0.00    -0.031 C 
HETATM   18  C24 UNL     1      -2.478  11.883  15.426  1.00  0.00     0.016 C 
HETATM   19  C25 UNL     1      -3.088   9.398  15.743  1.00  0.00     0.024 C 
HETATM   20  C26 UNL     1      -4.379   9.474  14.891  1.00  0.00     0.010 C 
HETATM   21  C27 UNL     1      -4.796   8.150  14.208  1.00  0.00     0.011 C 
HETATM   22  C28 UNL     1      -3.667   7.104  14.072  1.00  0.00    -0.029 C 
HETATM   23  C29 UNL     1      -3.648   6.207  15.351  1.00  0.00     0.016 C 
ENDROOT
BRANCH   1  24
HETATM   24  C6  UNL     1      -4.751   4.970  12.804  1.00  0.00    -0.014 C 
HETATM   25  C7  UNL     1      -4.037   3.615  12.816  1.00  0.00     0.010 C 
BRANCH  24  26
HETATM   26  C5  UNL     1      -5.723   5.072  14.011  1.00  0.00     0.008 C 
BRANCH  26  27
HETATM   27  C4  UNL     1      -7.044   4.319  13.813  1.00  0.00     0.028 C 
BRANCH  27  28
HETATM   28  C3  UNL     1      -7.759   4.792  12.575  1.00  0.00    -0.013 C 
HETATM   29  C2  UNL     1      -8.688   5.764  12.470  1.00  0.00     0.008 C 
HETATM   30  C1  UNL     1      -9.285   6.139  11.144  1.00  0.00     0.055 C 
BRANCH  29  31
HETATM   31  C30 UNL     1      -9.209   6.476  13.662  1.00  0.00     0.171 C 
HETATM   32  O2  UNL     1      -8.622   7.284  14.357  1.00  0.00    -0.646 OA
BRANCH  31  33
HETATM   33  O3  UNL     1     -10.474   6.116  13.941  1.00  0.00    -0.773 OA
HETATM   34  H46 UNL     1     -10.690   6.650  14.733  1.00  0.00     0.167 HD
ENDBRANCH  31  33
ENDBRANCH  29  31
ENDBRANCH  27  28
ENDBRANCH  26  27
ENDBRANCH  24  26
ENDBRANCH   1  24
TORSDOF 6
ENDMDL
MODEL 9
REMARK minimizedAffinity -8.78777313
REMARK  6 active torsions:
REMARK  status: ('A' for Active; 'I' for Inactive)
REMARK    1  A    between atoms: C2_2  and  C30_31 
REMARK    2  A    between atoms: C3_3  and  C4_4 
REMARK    3  A    between atoms: C4_4  and  C5_5 
REMARK    4  A    between atoms: C5_5  and  C6_6 
REMARK    5  A    between atoms: C6_6  and  C8_8 
REMARK    6  A    between atoms: C30_31  and  O3_33 
ROOT
HETATM    1  C8  UNL     1      -2.979   6.917  14.174  1.00  0.00    -0.002 C 
HETATM    2  C9  UNL     1      -3.184   5.665  13.266  1.00  0.00     0.007 C 
HETATM    3  C10 UNL     1      -4.700   5.429  13.134  1.00  0.00     0.015 C 
HETATM    4  C11 UNL     1      -5.330   6.325  14.219  1.00  0.00    -0.013 C 
HETATM    5  C12 UNL     1      -5.238   5.515  15.553  1.00  0.00     0.021 C 
HETATM    6  C13 UNL     1      -6.796   6.721  14.064  1.00  0.00    -0.070 C 
HETATM    7  C14 UNL     1      -7.701   5.910  13.490  1.00  0.00    -0.022 C 
HETATM    8  C15 UNL     1      -9.168   6.193  13.413  1.00  0.00     0.034 C 
HETATM    9  C16 UNL     1      -9.579   7.625  13.828  1.00  0.00     0.013 C 
HETATM   10  C17 UNL     1     -11.138   7.799  13.954  1.00  0.00     0.018 C 
HETATM   11  C18 UNL     1     -11.881   6.584  14.546  1.00  0.00     0.023 C 
HETATM   12  C19 UNL     1     -11.741   8.063  12.557  1.00  0.00     0.023 C 
HETATM   13  C20 UNL     1     -11.450   9.034  14.806  1.00  0.00     0.135 C 
HETATM   14  O1  UNL     1     -12.509   9.173  15.418  1.00  0.00    -0.297 OA
HETATM   15  C21 UNL     1     -10.423  10.131  14.794  1.00  0.00     0.080 C 
HETATM   16  C22 UNL     1      -9.094   9.645  15.353  1.00  0.00     0.017 C 
HETATM   17  C23 UNL     1      -8.735   8.154  15.048  1.00  0.00    -0.031 C 
HETATM   18  C24 UNL     1      -9.005   7.324  16.326  1.00  0.00     0.016 C 
HETATM   19  C25 UNL     1      -7.207   8.077  14.640  1.00  0.00     0.024 C 
HETATM   20  C26 UNL     1      -6.219   8.577  15.722  1.00  0.00     0.010 C 
HETATM   21  C27 UNL     1      -4.724   8.532  15.321  1.00  0.00     0.011 C 
HETATM   22  C28 UNL     1      -4.395   7.587  14.144  1.00  0.00    -0.029 C 
HETATM   23  C29 UNL     1      -4.525   8.380  12.804  1.00  0.00     0.016 C 
ENDROOT
BRANCH   1  24
HETATM   24  C6  UNL     1      -1.717   7.739  13.770  1.00  0.00    -0.014 C 
HETATM   25  C7  UNL     1      -0.751   7.926  14.945  1.00  0.00     0.010 C 
BRANCH  24  26
HETATM   26  C5  UNL     1      -0.988   7.049  12.585  1.00  0.00     0.008 C 
BRANCH  26  27
HETATM   27  C4  UNL     1      -0.194   8.013  11.695  1.00  0.00     0.028 C 
BRANCH  27  28
HETATM   28  C3  UNL     1       0.800   7.272  10.840  1.00  0.00    -0.013 C 
HETATM   29  C2  UNL     1       1.011   7.395   9.514  1.00  0.00     0.008 C 
HETATM   30  C1  UNL     1       2.073   6.598   8.812  1.00  0.00     0.055 C 
BRANCH  29  31
HETATM   31  C30 UNL     1       0.173   8.280   8.669  1.00  0.00     0.171 C 
HETATM   32  O2  UNL     1      -0.580   9.161   9.039  1.00  0.00    -0.646 OA
BRANCH  31  33
HETATM   33  O3  UNL     1       0.312   7.995   7.362  1.00  0.00    -0.773 OA
HETATM   34  H46 UNL     1      -0.283   8.639   6.927  1.00  0.00     0.167 HD
ENDBRANCH  31  33
ENDBRANCH  29  31
ENDBRANCH  27  28
ENDBRANCH  26  27
ENDBRANCH  24  26
ENDBRANCH   1  24
TORSDOF 6
ENDMDL
