MODEL 1
REMARK minimizedAffinity -9.37866592
REMARK  6 active torsions:
REMARK  status: ('A' for Active; 'I' for Inactive)
REMARK    1  A    between atoms: C9_10  and  C10_11 
REMARK    2  A    between atoms: C11_13  and  O3_14 
REMARK    3  A    between atoms: C12_15  and  C13_16 
REMARK    4  A    between atoms: C14_18  and  O5_19 
REMARK    5  A    between atoms: C16_21  and  C17_22 
REMARK    6  A    between atoms: C17_22  and  C18_23 
ROOT
HETATM    1  C1  UNL     1      -0.998  54.497 -28.299  1.00  0.00     0.043 C 
HETATM    2  C2  UNL     1      -1.099  53.096 -27.725  1.00  0.00    -0.087 C 
HETATM    3  C3  UNL     1       0.030  52.514 -27.275  1.00  0.00    -0.024 C 
HETATM    4  C4  UNL     1       0.279  51.150 -26.715  1.00  0.00     0.030 C 
HETATM    5  C5  UNL     1       0.785  51.148 -25.269  1.00  0.00     0.042 C 
HETATM    6  C6  UNL     1      -0.148  51.663 -24.133  1.00  0.00     0.069 C 
HETATM    7  C7  UNL     1      -0.396  53.182 -24.270  1.00  0.00     0.047 C 
HETATM    8  O1  UNL     1       0.725  51.548 -22.952  1.00  0.00    -0.338 OA
HETATM    9  C8  UNL     1       0.060  51.628 -21.755  1.00  0.00     0.095 A 
HETATM   10  C9  UNL     1       0.536  52.475 -20.751  1.00  0.00     0.070 A 
HETATM   11  C11 UNL     1      -0.183  52.601 -19.557  1.00  0.00     0.097 A 
HETATM   12  C12 UNL     1      -1.366  51.875 -19.385  1.00  0.00     0.069 A 
HETATM   13  C14 UNL     1      -1.815  50.997 -20.395  1.00  0.00     0.091 A 
HETATM   14  C15 UNL     1      -1.080  50.830 -21.575  1.00  0.00     0.015 A 
HETATM   15  C16 UNL     1      -1.346  49.884 -22.731  1.00  0.00     0.032 C 
HETATM   16  C21 UNL     1      -1.460  50.749 -24.030  1.00  0.00     0.034 C 
HETATM   17  C22 UNL     1      -2.739  51.571 -24.095  1.00  0.00     0.006 A 
HETATM   18  C23 UNL     1      -3.366  52.030 -25.417  1.00  0.00    -0.001 A 
HETATM   19  C24 UNL     1      -3.064  51.516 -26.804  1.00  0.00     0.010 C 
HETATM   20  C25 UNL     1      -2.514  52.552 -27.791  1.00  0.00     0.034 C 
HETATM   21  C26 UNL     1      -4.143  51.102 -24.483  1.00  0.00    -0.039 A 
HETATM   22  C27 UNL     1      -5.297  51.710 -23.715  1.00  0.00     0.015 C 
HETATM   23  C28 UNL     1      -4.445  49.698 -24.950  1.00  0.00     0.015 C 
ENDROOT
BRANCH  15  24
HETATM   24  C17 UNL     1      -2.418  48.790 -22.590  1.00  0.00     0.014 C 
BRANCH  24  25
HETATM   25  C18 UNL     1      -1.932  47.463 -21.954  1.00  0.00    -0.022 C 
HETATM   26  C19 UNL     1      -3.038  46.756 -21.164  1.00  0.00     0.009 C 
HETATM   27  C20 UNL     1      -0.749  47.747 -21.023  1.00  0.00     0.009 C 
ENDBRANCH  24  25
ENDBRANCH  15  24
BRANCH  13  28
HETATM   28  O5  UNL     1      -2.993  50.313 -20.253  1.00  0.00    -0.359 OA
HETATM   29  H15 UNL     1      -3.376  50.509 -19.367  1.00  0.00     0.217 HD
ENDBRANCH  13  28
BRANCH  10  30
HETATM   30  C10 UNL     1       1.774  53.247 -20.977  1.00  0.00     0.275 C 
HETATM   31  O2  UNL     1       1.762  54.472 -20.885  1.00  0.00    -0.301 OA
ENDBRANCH  10  30
BRANCH  12  32
HETATM   32  C13 UNL     1      -2.137  52.044 -18.134  1.00  0.00     0.275 C 
HETATM   33  O4  UNL     1      -3.081  51.300 -17.877  1.00  0.00    -0.301 OA
ENDBRANCH  12  32
BRANCH  11  34
HETATM   34  O3  UNL     1       0.232  53.435 -18.549  1.00  0.00    -0.359 OA
HETATM   35  H13 UNL     1       1.067  53.881 -18.830  1.00  0.00     0.217 HD
ENDBRANCH  11  34
TORSDOF 6
ENDMDL
MODEL 2
REMARK minimizedAffinity -8.58503723
REMARK  6 active torsions:
REMARK  status: ('A' for Active; 'I' for Inactive)
REMARK    1  A    between atoms: C9_10  and  C10_11 
REMARK    2  A    between atoms: C11_13  and  O3_14 
REMARK    3  A    between atoms: C12_15  and  C13_16 
REMARK    4  A    between atoms: C14_18  and  O5_19 
REMARK    5  A    between atoms: C16_21  and  C17_22 
REMARK    6  A    between atoms: C17_22  and  C18_23 
ROOT
HETATM    1  C1  UNL     1      -0.083  53.486 -19.181  1.00  0.00     0.043 C 
HETATM    2  C2  UNL     1       0.045  52.350 -20.179  1.00  0.00    -0.087 C 
HETATM    3  C3  UNL     1      -0.131  51.092 -19.730  1.00  0.00    -0.024 C 
HETATM    4  C4  UNL     1      -0.020  49.773 -20.426  1.00  0.00     0.030 C 
HETATM    5  C5  UNL     1      -1.325  48.971 -20.462  1.00  0.00     0.042 C 
HETATM    6  C6  UNL     1      -2.537  49.521 -21.269  1.00  0.00     0.069 C 
HETATM    7  C7  UNL     1      -3.096  50.806 -20.616  1.00  0.00     0.047 C 
HETATM    8  O1  UNL     1      -3.568  48.504 -20.994  1.00  0.00    -0.338 OA
HETATM    9  C8  UNL     1      -4.647  48.559 -21.839  1.00  0.00     0.095 A 
HETATM   10  C9  UNL     1      -5.941  48.533 -21.314  1.00  0.00     0.070 A 
HETATM   11  C11 UNL     1      -7.038  48.655 -22.176  1.00  0.00     0.097 A 
HETATM   12  C12 UNL     1      -6.821  48.798 -23.551  1.00  0.00     0.069 A 
HETATM   13  C14 UNL     1      -5.507  48.788 -24.069  1.00  0.00     0.091 A 
HETATM   14  C15 UNL     1      -4.407  48.622 -23.220  1.00  0.00     0.015 A 
HETATM   15  C16 UNL     1      -2.939  48.501 -23.585  1.00  0.00     0.032 C 
HETATM   16  C21 UNL     1      -2.170  49.632 -22.825  1.00  0.00     0.034 C 
HETATM   17  C22 UNL     1      -2.441  51.023 -23.381  1.00  0.00     0.006 A 
HETATM   18  C23 UNL     1      -1.449  52.184 -23.236  1.00  0.00    -0.001 A 
HETATM   19  C24 UNL     1       0.009  52.104 -22.851  1.00  0.00     0.010 C 
HETATM   20  C25 UNL     1       0.399  52.847 -21.569  1.00  0.00     0.034 C 
HETATM   21  C26 UNL     1      -1.834  51.675 -24.624  1.00  0.00    -0.039 A 
HETATM   22  C27 UNL     1      -2.754  52.553 -25.446  1.00  0.00     0.015 C 
HETATM   23  C28 UNL     1      -0.771  51.014 -25.469  1.00  0.00     0.015 C 
ENDROOT
BRANCH  15  24
HETATM   24  C17 UNL     1      -2.531  48.324 -25.058  1.00  0.00     0.014 C 
BRANCH  24  25
HETATM   25  C18 UNL     1      -2.846  49.527 -25.982  1.00  0.00    -0.022 C 
HETATM   26  C19 UNL     1      -4.100  49.297 -26.831  1.00  0.00     0.009 C 
HETATM   27  C20 UNL     1      -1.651  49.789 -26.904  1.00  0.00     0.009 C 
ENDBRANCH  24  25
ENDBRANCH  15  24
BRANCH  13  28
HETATM   28  O5  UNL     1      -5.283  48.968 -25.407  1.00  0.00    -0.359 OA
HETATM   29  H15 UNL     1      -6.149  49.041 -25.873  1.00  0.00     0.217 HD
ENDBRANCH  13  28
BRANCH  10  30
HETATM   30  C10 UNL     1      -6.133  48.407 -19.856  1.00  0.00     0.275 C 
HETATM   31  O2  UNL     1      -6.829  47.501 -19.402  1.00  0.00    -0.301 OA
ENDBRANCH  10  30
BRANCH  12  32
HETATM   32  C13 UNL     1      -7.984  48.963 -24.448  1.00  0.00     0.275 C 
HETATM   33  O4  UNL     1      -8.826  48.072 -24.550  1.00  0.00    -0.301 OA
ENDBRANCH  12  32
BRANCH  11  34
HETATM   34  O3  UNL     1      -8.328  48.655 -21.708  1.00  0.00    -0.359 OA
HETATM   35  H13 UNL     1      -8.308  48.561 -20.725  1.00  0.00     0.217 HD
ENDBRANCH  11  34
TORSDOF 6
ENDMDL
MODEL 3
REMARK minimizedAffinity -8.38621235
REMARK  6 active torsions:
REMARK  status: ('A' for Active; 'I' for Inactive)
REMARK    1  A    between atoms: C9_10  and  C10_11 
REMARK    2  A    between atoms: C11_13  and  O3_14 
REMARK    3  A    between atoms: C12_15  and  C13_16 
REMARK    4  A    between atoms: C14_18  and  O5_19 
REMARK    5  A    between atoms: C16_21  and  C17_22 
REMARK    6  A    between atoms: C17_22  and  C18_23 
ROOT
HETATM    1  C1  UNL     1      -1.047  50.720 -17.713  1.00  0.00     0.043 C 
HETATM    2  C2  UNL     1      -0.985  50.409 -19.197  1.00  0.00    -0.087 C 
HETATM    3  C3  UNL     1      -0.832  49.122 -19.567  1.00  0.00    -0.024 C 
HETATM    4  C4  UNL     1      -0.680  48.497 -20.917  1.00  0.00     0.030 C 
HETATM    5  C5  UNL     1      -1.800  47.518 -21.284  1.00  0.00     0.042 C 
HETATM    6  C6  UNL     1      -3.250  48.055 -21.475  1.00  0.00     0.069 C 
HETATM    7  C7  UNL     1      -3.834  48.552 -20.133  1.00  0.00     0.047 C 
HETATM    8  O1  UNL     1      -3.996  46.814 -21.751  1.00  0.00    -0.338 OA
HETATM    9  C8  UNL     1      -5.245  47.019 -22.280  1.00  0.00     0.095 A 
HETATM   10  C9  UNL     1      -6.345  46.347 -21.740  1.00  0.00     0.070 A 
HETATM   11  C11 UNL     1      -7.626  46.609 -22.241  1.00  0.00     0.097 A 
HETATM   12  C12 UNL     1      -7.785  47.537 -23.276  1.00  0.00     0.069 A 
HETATM   13  C14 UNL     1      -6.659  48.181 -23.833  1.00  0.00     0.091 A 
HETATM   14  C15 UNL     1      -5.370  47.893 -23.369  1.00  0.00     0.015 A 
HETATM   15  C16 UNL     1      -4.040  48.410 -23.886  1.00  0.00     0.032 C 
HETATM   16  C21 UNL     1      -3.305  49.099 -22.689  1.00  0.00     0.034 C 
HETATM   17  C22 UNL     1      -3.933  50.424 -22.279  1.00  0.00     0.006 A 
HETATM   18  C23 UNL     1      -3.144  51.536 -21.578  1.00  0.00    -0.001 A 
HETATM   19  C24 UNL     1      -1.644  51.672 -21.472  1.00  0.00     0.010 C 
HETATM   20  C25 UNL     1      -1.076  51.662 -20.048  1.00  0.00     0.034 C 
HETATM   21  C26 UNL     1      -3.773  51.790 -22.948  1.00  0.00    -0.039 A 
HETATM   22  C27 UNL     1      -5.001  52.674 -22.987  1.00  0.00     0.015 C 
HETATM   23  C28 UNL     1      -2.859  52.031 -24.126  1.00  0.00     0.015 C 
ENDROOT
BRANCH  15  24
HETATM   24  C17 UNL     1      -3.988  49.193 -25.209  1.00  0.00     0.014 C 
BRANCH  24  25
HETATM   25  C18 UNL     1      -3.081  48.582 -26.307  1.00  0.00    -0.022 C 
HETATM   26  C19 UNL     1      -1.925  49.510 -26.691  1.00  0.00     0.009 C 
HETATM   27  C20 UNL     1      -3.921  48.278 -27.552  1.00  0.00     0.009 C 
ENDBRANCH  24  25
ENDBRANCH  15  24
BRANCH  13  28
HETATM   28  O5  UNL     1      -6.809  49.120 -24.817  1.00  0.00    -0.359 OA
HETATM   29  H15 UNL     1      -7.762  49.191 -25.055  1.00  0.00     0.217 HD
ENDBRANCH  13  28
BRANCH  10  30
HETATM   30  C10 UNL     1      -6.144  45.394 -20.631  1.00  0.00     0.275 C 
HETATM   31  O2  UNL     1      -5.478  44.376 -20.807  1.00  0.00    -0.301 OA
ENDBRANCH  10  30
BRANCH  12  32
HETATM   32  C13 UNL     1      -9.146  47.832 -23.771  1.00  0.00     0.275 C 
HETATM   33  O4  UNL     1      -9.316  48.617 -24.703  1.00  0.00    -0.301 OA
ENDBRANCH  12  32
BRANCH  11  34
HETATM   34  O3  UNL     1      -8.740  45.990 -21.731  1.00  0.00    -0.359 OA
HETATM   35  H13 UNL     1      -8.461  45.382 -21.005  1.00  0.00     0.217 HD
ENDBRANCH  11  34
TORSDOF 6
ENDMDL
MODEL 4
REMARK minimizedAffinity -7.64793348
REMARK  6 active torsions:
REMARK  status: ('A' for Active; 'I' for Inactive)
REMARK    1  A    between atoms: C9_10  and  C10_11 
REMARK    2  A    between atoms: C11_13  and  O3_14 
REMARK    3  A    between atoms: C12_15  and  C13_16 
REMARK    4  A    between atoms: C14_18  and  O5_19 
REMARK    5  A    between atoms: C16_21  and  C17_22 
REMARK    6  A    between atoms: C17_22  and  C18_23 
ROOT
HETATM    1  C1  UNL     1      -2.280  50.249 -27.071  1.00  0.00     0.043 C 
HETATM    2  C2  UNL     1      -2.312  51.039 -25.776  1.00  0.00    -0.087 C 
HETATM    3  C3  UNL     1      -3.450  51.686 -25.458  1.00  0.00    -0.024 C 
HETATM    4  C4  UNL     1      -3.786  52.580 -24.307  1.00  0.00     0.030 C 
HETATM    5  C5  UNL     1      -4.911  52.052 -23.410  1.00  0.00     0.042 C 
HETATM    6  C6  UNL     1      -4.683  50.748 -22.589  1.00  0.00     0.069 C 
HETATM    7  C7  UNL     1      -4.564  49.523 -23.525  1.00  0.00     0.047 C 
HETATM    8  O1  UNL     1      -5.992  50.573 -21.935  1.00  0.00    -0.338 OA
HETATM    9  C8  UNL     1      -5.982  49.679 -20.894  1.00  0.00     0.095 A 
HETATM   10  C9  UNL     1      -6.963  48.686 -20.823  1.00  0.00     0.070 A 
HETATM   11  C11 UNL     1      -6.909  47.738 -19.794  1.00  0.00     0.097 A 
HETATM   12  C12 UNL     1      -5.876  47.801 -18.852  1.00  0.00     0.069 A 
HETATM   13  C14 UNL     1      -4.913  48.831 -18.919  1.00  0.00     0.091 A 
HETATM   14  C15 UNL     1      -4.984  49.810 -19.918  1.00  0.00     0.015 A 
HETATM   15  C16 UNL     1      -4.105  51.032 -20.110  1.00  0.00     0.032 C 
HETATM   16  C21 UNL     1      -3.486  50.946 -21.544  1.00  0.00     0.034 C 
HETATM   17  C22 UNL     1      -2.423  49.864 -21.677  1.00  0.00     0.006 A 
HETATM   18  C23 UNL     1      -1.300  49.926 -22.720  1.00  0.00    -0.001 A 
HETATM   19  C24 UNL     1      -0.856  51.125 -23.522  1.00  0.00     0.010 C 
HETATM   20  C25 UNL     1      -0.983  50.990 -25.044  1.00  0.00     0.034 C 
HETATM   21  C26 UNL     1      -0.961  49.919 -21.229  1.00  0.00    -0.039 A 
HETATM   22  C27 UNL     1      -0.377  48.642 -20.664  1.00  0.00     0.015 C 
HETATM   23  C28 UNL     1      -0.326  51.151 -20.629  1.00  0.00     0.015 C 
ENDROOT
BRANCH  15  24
HETATM   24  C17 UNL     1      -3.115  51.441 -19.005  1.00  0.00     0.014 C 
BRANCH  24  25
HETATM   25  C18 UNL     1      -1.956  50.445 -18.752  1.00  0.00    -0.022 C 
HETATM   26  C19 UNL     1      -2.296  49.419 -17.666  1.00  0.00     0.009 C 
HETATM   27  C20 UNL     1      -0.699  51.219 -18.341  1.00  0.00     0.009 C 
ENDBRANCH  24  25
ENDBRANCH  15  24
BRANCH  13  28
HETATM   28  O5  UNL     1      -3.876  48.877 -18.027  1.00  0.00    -0.359 OA
HETATM   29  H15 UNL     1      -3.979  48.146 -17.374  1.00  0.00     0.217 HD
ENDBRANCH  13  28
BRANCH  10  30
HETATM   30  C10 UNL     1      -8.023  48.635 -21.848  1.00  0.00     0.275 C 
HETATM   31  O2  UNL     1      -8.163  47.628 -22.540  1.00  0.00    -0.301 OA
ENDBRANCH  10  30
BRANCH  12  32
HETATM   32  C13 UNL     1      -5.809  46.773 -17.792  1.00  0.00     0.275 C 
HETATM   33  O4  UNL     1      -6.719  46.658 -16.973  1.00  0.00    -0.301 OA
ENDBRANCH  12  32
BRANCH  11  34
HETATM   34  O3  UNL     1      -7.836  46.732 -19.691  1.00  0.00    -0.359 OA
HETATM   35  H13 UNL     1      -8.483  46.819 -20.432  1.00  0.00     0.217 HD
ENDBRANCH  11  34
TORSDOF 6
ENDMDL
MODEL 5
REMARK minimizedAffinity -7.52494001
REMARK  6 active torsions:
REMARK  status: ('A' for Active; 'I' for Inactive)
REMARK    1  A    between atoms: C9_10  and  C10_11 
REMARK    2  A    between atoms: C11_13  and  O3_14 
REMARK    3  A    between atoms: C12_15  and  C13_16 
REMARK    4  A    between atoms: C14_18  and  O5_19 
REMARK    5  A    between atoms: C16_21  and  C17_22 
REMARK    6  A    between atoms: C17_22  and  C18_23 
ROOT
HETATM    1  C1  UNL     1       0.147  48.754 -15.968  1.00  0.00     0.043 C 
HETATM    2  C2  UNL     1      -1.153  49.090 -16.676  1.00  0.00    -0.087 C 
HETATM    3  C3  UNL     1      -1.427  50.388 -16.911  1.00  0.00    -0.024 C 
HETATM    4  C4  UNL     1      -2.623  51.047 -17.522  1.00  0.00     0.030 C 
HETATM    5  C5  UNL     1      -2.322  51.819 -18.811  1.00  0.00     0.042 C 
HETATM    6  C6  UNL     1      -1.855  51.040 -20.076  1.00  0.00     0.069 C 
HETATM    7  C7  UNL     1      -0.450  50.432 -19.860  1.00  0.00     0.047 C 
HETATM    8  O1  UNL     1      -1.627  52.135 -21.036  1.00  0.00    -0.338 OA
HETATM    9  C8  UNL     1      -1.519  51.722 -22.340  1.00  0.00     0.095 A 
HETATM   10  C9  UNL     1      -0.462  52.185 -23.129  1.00  0.00     0.070 A 
HETATM   11  C11 UNL     1      -0.320  51.709 -24.438  1.00  0.00     0.097 A 
HETATM   12  C12 UNL     1      -1.240  50.781 -24.937  1.00  0.00     0.069 A 
HETATM   13  C14 UNL     1      -2.321  50.349 -24.138  1.00  0.00     0.091 A 
HETATM   14  C15 UNL     1      -2.497  50.852 -22.844  1.00  0.00     0.015 A 
HETATM   15  C16 UNL     1      -3.627  50.582 -21.869  1.00  0.00     0.032 C 
HETATM   16  C21 UNL     1      -2.992  50.017 -20.556  1.00  0.00     0.034 C 
HETATM   17  C22 UNL     1      -2.461  48.599 -20.705  1.00  0.00     0.006 A 
HETATM   18  C23 UNL     1      -2.325  47.632 -19.522  1.00  0.00    -0.001 A 
HETATM   19  C24 UNL     1      -2.954  47.760 -18.155  1.00  0.00     0.010 C 
HETATM   20  C25 UNL     1      -1.975  47.851 -16.980  1.00  0.00     0.034 C 
HETATM   21  C26 UNL     1      -3.252  47.290 -20.688  1.00  0.00    -0.039 A 
HETATM   22  C27 UNL     1      -2.790  46.205 -21.637  1.00  0.00     0.015 C 
HETATM   23  C28 UNL     1      -4.739  47.227 -20.431  1.00  0.00     0.015 C 
ENDROOT
BRANCH  15  24
HETATM   24  C17 UNL     1      -4.886  49.836 -22.346  1.00  0.00     0.014 C 
BRANCH  24  25
HETATM   25  C18 UNL     1      -6.233  50.453 -21.895  1.00  0.00    -0.022 C 
HETATM   26  C19 UNL     1      -6.506  50.229 -20.404  1.00  0.00     0.009 C 
HETATM   27  C20 UNL     1      -7.374  49.842 -22.715  1.00  0.00     0.009 C 
ENDBRANCH  24  25
ENDBRANCH  15  24
BRANCH  13  28
HETATM   28  O5  UNL     1      -3.202  49.411 -24.604  1.00  0.00    -0.359 OA
HETATM   29  H15 UNL     1      -2.967  49.178 -25.532  1.00  0.00     0.217 HD
ENDBRANCH  13  28
BRANCH  10  30
HETATM   30  C10 UNL     1       0.504  53.144 -22.561  1.00  0.00     0.275 C 
HETATM   31  O2  UNL     1       1.378  52.756 -21.788  1.00  0.00    -0.301 OA
ENDBRANCH  10  30
BRANCH  12  32
HETATM   32  C13 UNL     1      -1.059  50.258 -26.308  1.00  0.00     0.275 C 
HETATM   33  O4  UNL     1      -1.118  51.012 -27.278  1.00  0.00    -0.301 OA
ENDBRANCH  12  32
BRANCH  11  34
HETATM   34  O3  UNL     1       0.711  52.117 -25.246  1.00  0.00    -0.359 OA
HETATM   35  H13 UNL     1       1.273  52.756 -24.744  1.00  0.00     0.217 HD
ENDBRANCH  11  34
TORSDOF 6
ENDMDL
MODEL 6
REMARK minimizedAffinity -7.13651371
REMARK  6 active torsions:
REMARK  status: ('A' for Active; 'I' for Inactive)
REMARK    1  A    between atoms: C9_10  and  C10_11 
REMARK    2  A    between atoms: C11_13  and  O3_14 
REMARK    3  A    between atoms: C12_15  and  C13_16 
REMARK    4  A    between atoms: C14_18  and  O5_19 
REMARK    5  A    between atoms: C16_21  and  C17_22 
REMARK    6  A    between atoms: C17_22  and  C18_23 
ROOT
HETATM    1  C1  UNL     1      -8.180  45.398 -26.208  1.00  0.00     0.043 C 
HETATM    2  C2  UNL     1      -7.787  46.864 -26.184  1.00  0.00    -0.087 C 
HETATM    3  C3  UNL     1      -8.370  47.658 -25.264  1.00  0.00    -0.024 C 
HETATM    4  C4  UNL     1      -8.250  49.128 -25.015  1.00  0.00     0.030 C 
HETATM    5  C5  UNL     1      -7.686  49.486 -23.636  1.00  0.00     0.042 C 
HETATM    6  C6  UNL     1      -6.216  49.104 -23.290  1.00  0.00     0.069 C 
HETATM    7  C7  UNL     1      -6.054  47.570 -23.194  1.00  0.00     0.047 C 
HETATM    8  O1  UNL     1      -6.107  49.563 -21.894  1.00  0.00    -0.338 OA
HETATM    9  C8  UNL     1      -4.818  49.649 -21.433  1.00  0.00     0.095 A 
HETATM   10  C9  UNL     1      -4.485  49.088 -20.197  1.00  0.00     0.070 A 
HETATM   11  C11 UNL     1      -3.155  49.122 -19.762  1.00  0.00     0.097 A 
HETATM   12  C12 UNL     1      -2.180  49.719 -20.568  1.00  0.00     0.069 A 
HETATM   13  C14 UNL     1      -2.539  50.311 -21.799  1.00  0.00     0.091 A 
HETATM   14  C15 UNL     1      -3.874  50.321 -22.222  1.00  0.00     0.015 A 
HETATM   15  C16 UNL     1      -4.470  50.972 -23.457  1.00  0.00     0.032 C 
HETATM   16  C21 UNL     1      -5.197  49.854 -24.274  1.00  0.00     0.034 C 
HETATM   17  C22 UNL     1      -4.239  48.885 -24.954  1.00  0.00     0.006 A 
HETATM   18  C23 UNL     1      -4.611  48.093 -26.213  1.00  0.00    -0.001 A 
HETATM   19  C24 UNL     1      -5.769  48.346 -27.148  1.00  0.00     0.010 C 
HETATM   20  C25 UNL     1      -6.786  47.206 -27.271  1.00  0.00     0.034 C 
HETATM   21  C26 UNL     1      -3.453  49.090 -26.250  1.00  0.00    -0.039 A 
HETATM   22  C27 UNL     1      -2.054  48.516 -26.292  1.00  0.00     0.015 C 
HETATM   23  C28 UNL     1      -3.591  50.322 -27.113  1.00  0.00     0.015 C 
ENDROOT
BRANCH  15  24
HETATM   24  C17 UNL     1      -3.615  51.933 -24.301  1.00  0.00     0.014 C 
BRANCH  24  25
HETATM   25  C18 UNL     1      -2.413  51.283 -25.031  1.00  0.00    -0.022 C 
HETATM   26  C19 UNL     1      -1.125  51.347 -24.204  1.00  0.00     0.009 C 
HETATM   27  C20 UNL     1      -2.188  51.988 -26.373  1.00  0.00     0.009 C 
ENDBRANCH  24  25
ENDBRANCH  15  24
BRANCH  13  28
HETATM   28  O5  UNL     1      -1.587  50.860 -22.614  1.00  0.00    -0.359 OA
HETATM   29  H15 UNL     1      -0.709  50.803 -22.170  1.00  0.00     0.217 HD
ENDBRANCH  13  28
BRANCH  10  30
HETATM   30  C10 UNL     1      -5.534  48.444 -19.383  1.00  0.00     0.275 C 
HETATM   31  O2  UNL     1      -5.565  48.619 -18.167  1.00  0.00    -0.301 OA
ENDBRANCH  10  30
BRANCH  12  32
HETATM   32  C13 UNL     1      -0.773  49.716 -20.115  1.00  0.00     0.275 C 
HETATM   33  O4  UNL     1      -0.120  50.758 -20.094  1.00  0.00    -0.301 OA
ENDBRANCH  12  32
BRANCH  11  34
HETATM   34  O3  UNL     1      -2.773  48.568 -18.565  1.00  0.00    -0.359 OA
HETATM   35  H13 UNL     1      -3.568  48.179 -18.128  1.00  0.00     0.217 HD
ENDBRANCH  11  34
TORSDOF 6
ENDMDL
MODEL 7
REMARK minimizedAffinity -7.10526657
REMARK  6 active torsions:
REMARK  status: ('A' for Active; 'I' for Inactive)
REMARK    1  A    between atoms: C9_10  and  C10_11 
REMARK    2  A    between atoms: C11_13  and  O3_14 
REMARK    3  A    between atoms: C12_15  and  C13_16 
REMARK    4  A    between atoms: C14_18  and  O5_19 
REMARK    5  A    between atoms: C16_21  and  C17_22 
REMARK    6  A    between atoms: C17_22  and  C18_23 
ROOT
HETATM    1  C1  UNL     1      -0.728  51.088 -24.879  1.00  0.00     0.043 C 
HETATM    2  C2  UNL     1      -1.819  51.087 -23.824  1.00  0.00    -0.087 C 
HETATM    3  C3  UNL     1      -3.015  51.616 -24.152  1.00  0.00    -0.024 C 
HETATM    4  C4  UNL     1      -4.257  51.818 -23.345  1.00  0.00     0.030 C 
HETATM    5  C5  UNL     1      -5.477  51.051 -23.867  1.00  0.00     0.042 C 
HETATM    6  C6  UNL     1      -5.470  49.494 -23.836  1.00  0.00     0.069 C 
HETATM    7  C7  UNL     1      -4.424  48.929 -24.824  1.00  0.00     0.047 C 
HETATM    8  O1  UNL     1      -6.764  49.175 -24.465  1.00  0.00    -0.338 OA
HETATM    9  C8  UNL     1      -7.172  47.879 -24.278  1.00  0.00     0.095 A 
HETATM   10  C9  UNL     1      -7.620  47.129 -25.369  1.00  0.00     0.070 A 
HETATM   11  C11 UNL     1      -7.973  45.787 -25.183  1.00  0.00     0.097 A 
HETATM   12  C12 UNL     1      -7.875  45.218 -23.909  1.00  0.00     0.069 A 
HETATM   13  C14 UNL     1      -7.453  46.000 -22.811  1.00  0.00     0.091 A 
HETATM   14  C15 UNL     1      -7.140  47.354 -22.978  1.00  0.00     0.015 A 
HETATM   15  C16 UNL     1      -6.753  48.373 -21.923  1.00  0.00     0.032 C 
HETATM   16  C21 UNL     1      -5.362  48.964 -22.328  1.00  0.00     0.034 C 
HETATM   17  C22 UNL     1      -4.214  47.982 -22.144  1.00  0.00     0.006 A 
HETATM   18  C23 UNL     1      -2.765  48.431 -21.914  1.00  0.00    -0.001 A 
HETATM   19  C24 UNL     1      -2.281  49.803 -21.513  1.00  0.00     0.010 C 
HETATM   20  C25 UNL     1      -1.345  50.495 -22.511  1.00  0.00     0.034 C 
HETATM   21  C26 UNL     1      -3.491  47.608 -20.849  1.00  0.00    -0.039 A 
HETATM   22  C27 UNL     1      -3.076  46.160 -20.699  1.00  0.00     0.015 C 
HETATM   23  C28 UNL     1      -3.791  48.257 -19.519  1.00  0.00     0.015 C 
ENDROOT
BRANCH  15  24
HETATM   24  C17 UNL     1      -6.891  48.018 -20.432  1.00  0.00     0.014 C 
BRANCH  24  25
HETATM   25  C18 UNL     1      -8.057  48.718 -19.689  1.00  0.00    -0.022 C 
HETATM   26  C19 UNL     1      -7.859  48.727 -18.170  1.00  0.00     0.009 C 
HETATM   27  C20 UNL     1      -9.373  48.009 -20.024  1.00  0.00     0.009 C 
ENDBRANCH  24  25
ENDBRANCH  15  24
BRANCH  13  28
HETATM   28  O5  UNL     1      -7.315  45.442 -21.569  1.00  0.00    -0.359 OA
HETATM   29  H15 UNL     1      -7.599  44.498 -21.605  1.00  0.00     0.217 HD
ENDBRANCH  13  28
BRANCH  10  30
HETATM   30  C10 UNL     1      -7.686  47.754 -26.704  1.00  0.00     0.275 C 
HETATM   31  O2  UNL     1      -6.800  47.541 -27.529  1.00  0.00    -0.301 OA
ENDBRANCH  10  30
BRANCH  12  32
HETATM   32  C13 UNL     1      -8.216  43.791 -23.732  1.00  0.00     0.275 C 
HETATM   33  O4  UNL     1      -7.552  42.916 -24.285  1.00  0.00    -0.301 OA
ENDBRANCH  12  32
BRANCH  11  34
HETATM   34  O3  UNL     1      -8.400  45.003 -26.225  1.00  0.00    -0.359 OA
HETATM   35  H13 UNL     1      -8.400  45.544 -27.051  1.00  0.00     0.217 HD
ENDBRANCH  11  34
TORSDOF 6
ENDMDL
MODEL 8
REMARK minimizedAffinity -6.83367348
REMARK  6 active torsions:
REMARK  status: ('A' for Active; 'I' for Inactive)
REMARK    1  A    between atoms: C9_10  and  C10_11 
REMARK    2  A    between atoms: C11_13  and  O3_14 
REMARK    3  A    between atoms: C12_15  and  C13_16 
REMARK    4  A    between atoms: C14_18  and  O5_19 
REMARK    5  A    between atoms: C16_21  and  C17_22 
REMARK    6  A    between atoms: C17_22  and  C18_23 
ROOT
HETATM    1  C1  UNL     1      -1.634  45.001 -13.333  1.00  0.00     0.043 C 
HETATM    2  C2  UNL     1      -0.853  46.072 -14.072  1.00  0.00    -0.087 C 
HETATM    3  C3  UNL     1      -1.546  46.975 -14.793  1.00  0.00    -0.024 C 
HETATM    4  C4  UNL     1      -1.087  48.100 -15.665  1.00  0.00     0.030 C 
HETATM    5  C5  UNL     1      -1.539  49.486 -15.192  1.00  0.00     0.042 C 
HETATM    6  C6  UNL     1      -0.998  50.045 -13.843  1.00  0.00     0.069 C 
HETATM    7  C7  UNL     1      -1.540  49.226 -12.650  1.00  0.00     0.047 C 
HETATM    8  O1  UNL     1      -1.709  51.332 -13.745  1.00  0.00    -0.338 OA
HETATM    9  C8  UNL     1      -1.184  52.192 -12.814  1.00  0.00     0.095 A 
HETATM   10  C9  UNL     1      -2.029  52.824 -11.898  1.00  0.00     0.070 A 
HETATM   11  C11 UNL     1      -1.480  53.649 -10.909  1.00  0.00     0.097 A 
HETATM   12  C12 UNL     1      -0.094  53.831 -10.855  1.00  0.00     0.069 A 
HETATM   13  C14 UNL     1       0.743  53.212 -11.809  1.00  0.00     0.091 A 
HETATM   14  C15 UNL     1       0.200  52.421 -12.828  1.00  0.00     0.015 A 
HETATM   15  C16 UNL     1       0.913  51.746 -13.984  1.00  0.00     0.032 C 
HETATM   16  C21 UNL     1       0.594  50.216 -13.906  1.00  0.00     0.034 C 
HETATM   17  C22 UNL     1       1.293  49.513 -12.751  1.00  0.00     0.006 A 
HETATM   18  C23 UNL     1       1.621  48.015 -12.765  1.00  0.00    -0.001 A 
HETATM   19  C24 UNL     1       1.629  47.088 -13.957  1.00  0.00     0.010 C 
HETATM   20  C25 UNL     1       0.645  45.914 -13.891  1.00  0.00     0.034 C 
HETATM   21  C26 UNL     1       2.747  49.044 -12.674  1.00  0.00    -0.039 A 
HETATM   22  C27 UNL     1       3.437  49.191 -11.335  1.00  0.00     0.015 C 
HETATM   23  C28 UNL     1       3.714  49.158 -13.829  1.00  0.00     0.015 C 
ENDROOT
BRANCH  15  24
HETATM   24  C17 UNL     1       2.387  52.081 -14.272  1.00  0.00     0.014 C 
BRANCH  24  25
HETATM   25  C18 UNL     1       2.822  51.940 -15.752  1.00  0.00    -0.022 C 
HETATM   26  C19 UNL     1       4.172  52.610 -16.030  1.00  0.00     0.009 C 
HETATM   27  C20 UNL     1       1.754  52.559 -16.660  1.00  0.00     0.009 C 
ENDBRANCH  24  25
ENDBRANCH  15  24
BRANCH  13  28
HETATM   28  O5  UNL     1       2.103  53.351 -11.739  1.00  0.00    -0.359 OA
HETATM   29  H15 UNL     1       2.329  53.955 -10.993  1.00  0.00     0.217 HD
ENDBRANCH  13  28
BRANCH  10  30
HETATM   30  C10 UNL     1      -3.484  52.589 -11.969  1.00  0.00     0.275 C 
HETATM   31  O2  UNL     1      -4.241  53.502 -12.292  1.00  0.00    -0.301 OA
ENDBRANCH  10  30
BRANCH  12  32
HETATM   32  C13 UNL     1       0.477  54.675  -9.784  1.00  0.00     0.275 C 
HETATM   33  O4  UNL     1       1.505  55.322  -9.979  1.00  0.00    -0.301 OA
ENDBRANCH  12  32
BRANCH  11  34
HETATM   34  O3  UNL     1      -2.266  54.276  -9.975  1.00  0.00    -0.359 OA
HETATM   35  H13 UNL     1      -3.209  54.036 -10.141  1.00  0.00     0.217 HD
ENDBRANCH  11  34
TORSDOF 6
ENDMDL
MODEL 9
REMARK minimizedAffinity -6.83104086
REMARK  6 active torsions:
REMARK  status: ('A' for Active; 'I' for Inactive)
REMARK    1  A    between atoms: C9_10  and  C10_11 
REMARK    2  A    between atoms: C11_13  and  O3_14 
REMARK    3  A    between atoms: C12_15  and  C13_16 
REMARK    4  A    between atoms: C14_18  and  O5_19 
REMARK    5  A    between atoms: C16_21  and  C17_22 
REMARK    6  A    between atoms: C17_22  and  C18_23 
ROOT
HETATM    1  C1  UNL     1     -12.661  48.111 -19.479  1.00  0.00     0.043 C 
HETATM    2  C2  UNL     1     -13.914  47.569 -18.816  1.00  0.00    -0.087 C 
HETATM    3  C3  UNL     1     -15.060  48.261 -18.971  1.00  0.00    -0.024 C 
HETATM    4  C4  UNL     1     -16.429  48.036 -18.413  1.00  0.00     0.030 C 
HETATM    5  C5  UNL     1     -17.505  47.785 -19.475  1.00  0.00     0.042 C 
HETATM    6  C6  UNL     1     -17.431  46.497 -20.348  1.00  0.00     0.069 C 
HETATM    7  C7  UNL     1     -16.207  46.542 -21.291  1.00  0.00     0.047 C 
HETATM    8  O1  UNL     1     -18.583  46.678 -21.248  1.00  0.00    -0.338 OA
HETATM    9  C8  UNL     1     -18.956  45.538 -21.915  1.00  0.00     0.095 A 
HETATM   10  C9  UNL     1     -19.177  45.582 -23.294  1.00  0.00     0.070 A 
HETATM   11  C11 UNL     1     -19.494  44.403 -23.978  1.00  0.00     0.097 A 
HETATM   12  C12 UNL     1     -19.587  43.199 -23.271  1.00  0.00     0.069 A 
HETATM   13  C14 UNL     1     -19.394  43.178 -21.873  1.00  0.00     0.091 A 
HETATM   14  C15 UNL     1     -19.121  44.360 -21.173  1.00  0.00     0.015 A 
HETATM   15  C16 UNL     1     -18.966  44.559 -19.677  1.00  0.00     0.032 C 
HETATM   16  C21 UNL     1     -17.556  45.191 -19.429  1.00  0.00     0.034 C 
HETATM   17  C22 UNL     1     -16.410  44.215 -19.660  1.00  0.00     0.006 A 
HETATM   18  C23 UNL     1     -15.045  44.360 -18.978  1.00  0.00    -0.001 A 
HETATM   19  C24 UNL     1     -14.700  45.219 -17.785  1.00  0.00     0.010 C 
HETATM   20  C25 UNL     1     -13.642  46.301 -18.029  1.00  0.00     0.034 C 
HETATM   21  C26 UNL     1     -15.901  43.120 -18.721  1.00  0.00    -0.039 A 
HETATM   22  C27 UNL     1     -15.450  41.828 -19.368  1.00  0.00     0.015 C 
HETATM   23  C28 UNL     1     -16.452  42.901 -17.332  1.00  0.00     0.015 C 
ENDROOT
BRANCH  15  24
HETATM   24  C17 UNL     1     -19.338  43.420 -18.712  1.00  0.00     0.014 C 
BRANCH  24  25
HETATM   25  C18 UNL     1     -20.023  43.863 -17.395  1.00  0.00    -0.022 C 
HETATM   26  C19 UNL     1     -21.075  42.857 -16.917  1.00  0.00     0.009 C 
HETATM   27  C20 UNL     1     -20.687  45.229 -17.600  1.00  0.00     0.009 C 
ENDBRANCH  24  25
ENDBRANCH  15  24
BRANCH  13  28
HETATM   28  O5  UNL     1     -19.443  42.000 -21.179  1.00  0.00    -0.359 OA
HETATM   29  H15 UNL     1     -19.671  41.268 -21.798  1.00  0.00     0.217 HD
ENDBRANCH  13  28
BRANCH  10  30
HETATM   30  C10 UNL     1     -19.045  46.864 -24.012  1.00  0.00     0.275 C 
HETATM   31  O2  UNL     1     -19.665  47.053 -25.056  1.00  0.00    -0.301 OA
ENDBRANCH  10  30
BRANCH  12  32
HETATM   32  C13 UNL     1     -19.886  41.954 -24.010  1.00  0.00     0.275 C 
HETATM   33  O4  UNL     1     -19.830  41.927 -25.239  1.00  0.00    -0.301 OA
ENDBRANCH  12  32
BRANCH  11  34
HETATM   34  O3  UNL     1     -19.701  44.389 -25.335  1.00  0.00    -0.359 OA
HETATM   35  H13 UNL     1     -19.586  45.306 -25.682  1.00  0.00     0.217 HD
ENDBRANCH  11  34
TORSDOF 6
ENDMDL
