MODEL 1
REMARK minimizedAffinity -8.79632854
REMARK  8 active torsions:
REMARK  status: ('A' for Active; 'I' for Inactive)
REMARK    1  A    between atoms: C12_14  and  C13_15 
REMARK    2  A    between atoms: C13_15  and  C15_17 
REMARK    3  A    between atoms: C15_17  and  C16_18 
REMARK    4  A    between atoms: C16_18  and  C17_20 
REMARK    5  A    between atoms: C26_29  and  C27_30 
REMARK    6  A    between atoms: C27_30  and  C28_31 
REMARK    7  A    between atoms: C28_31  and  C29_32 
REMARK    8  A    between atoms: C29_32  and  O5_34 
ROOT
HETATM    1  C1  UNL     1       1.346   8.412  11.112  1.00  0.00     0.025 C 
HETATM    2  C2  UNL     1       0.799   8.393  12.334  1.00  0.00     0.015 C 
HETATM    3  C3  UNL     1       1.539   8.888  13.512  1.00  0.00     0.289 C 
HETATM    4  O1  UNL     1       2.744   9.019  13.610  1.00  0.00    -0.260 OA
HETATM    5  O2  UNL     1       0.619   9.193  14.462  1.00  0.00    -0.311 OA
HETATM    6  C4  UNL     1      -0.715   9.044  13.928  1.00  0.00     0.142 C 
HETATM    7  C5  UNL     1      -1.641   8.691  15.088  1.00  0.00     0.039 C 
HETATM    8  C6  UNL     1      -2.596   7.505  14.912  1.00  0.00     0.006 C 
HETATM    9  C7  UNL     1      -1.994   6.331  14.115  1.00  0.00    -0.027 A 
HETATM   10  C8  UNL     1      -2.932   5.117  14.027  1.00  0.00     0.011 C 
HETATM   11  C9  UNL     1      -4.380   5.464  13.630  1.00  0.00     0.011 C 
HETATM   12  C10 UNL     1      -4.960   6.581  14.518  1.00  0.00    -0.032 C 
HETATM   13  C11 UNL     1      -5.080   6.033  15.977  1.00  0.00     0.016 C 
HETATM   14  C12 UNL     1      -6.342   7.187  14.114  1.00  0.00    -0.002 C 
HETATM   15  C21 UNL     1      -6.293   8.592  14.799  1.00  0.00     0.006 C 
HETATM   16  C22 UNL     1      -4.822   8.893  15.156  1.00  0.00     0.011 C 
HETATM   17  C23 UNL     1      -4.017   7.847  14.372  1.00  0.00    -0.032 C 
HETATM   18  C24 UNL     1      -3.904   8.394  12.915  1.00  0.00     0.016 C 
HETATM   19  C25 UNL     1      -0.541   5.990  14.361  1.00  0.00     0.022 A 
HETATM   20  C26 UNL     1      -0.925   6.611  13.028  1.00  0.00    -0.021 A 
HETATM   21  C31 UNL     1      -0.604   8.086  12.745  1.00  0.00     0.063 C 
ENDROOT
BRANCH  14  22
HETATM   22  C13 UNL     1      -7.662   6.428  14.441  1.00  0.00    -0.007 C 
HETATM   23  C14 UNL     1      -7.434   5.250  15.398  1.00  0.00     0.011 C 
BRANCH  22  24
HETATM   24  C15 UNL     1      -8.314   5.895  13.142  1.00  0.00     0.087 C 
BRANCH  24  25
HETATM   25  C16 UNL     1      -7.991   4.436  12.854  1.00  0.00     0.149 C 
HETATM   26  O3  UNL     1      -8.681   3.511  13.275  1.00  0.00    -0.293 OA
BRANCH  25  27
HETATM   27  C17 UNL     1      -6.812   4.195  11.965  1.00  0.00     0.052 C 
HETATM   28  C18 UNL     1      -6.307   2.993  11.628  1.00  0.00    -0.084 C 
HETATM   29  C19 UNL     1      -6.813   1.668  12.131  1.00  0.00     0.043 C 
HETATM   30  C20 UNL     1      -5.140   2.894  10.681  1.00  0.00     0.043 C 
ENDBRANCH  25  27
ENDBRANCH  24  25
ENDBRANCH  22  24
ENDBRANCH  14  22
BRANCH  20  31
HETATM   31  C27 UNL     1      -0.954   5.757  11.746  1.00  0.00     0.021 C 
BRANCH  31  32
HETATM   32  C28 UNL     1      -0.085   4.502  11.726  1.00  0.00     0.112 C 
BRANCH  32  33
HETATM   33  C29 UNL     1      -0.833   3.247  11.357  1.00  0.00     0.258 C 
HETATM   34  O4  UNL     1      -2.010   3.232  11.018  1.00  0.00    -0.265 OA
BRANCH  33  35
HETATM   35  O5  UNL     1      -0.017   2.159  11.407  1.00  0.00    -0.326 OA
HETATM   36  C30 UNL     1      -0.551   1.010  10.747  1.00  0.00     0.213 C 
ENDBRANCH  33  35
ENDBRANCH  32  33
ENDBRANCH  31  32
ENDBRANCH  20  31
TORSDOF 8
ENDMDL
MODEL 2
REMARK minimizedAffinity -8.54714584
REMARK  8 active torsions:
REMARK  status: ('A' for Active; 'I' for Inactive)
REMARK    1  A    between atoms: C12_14  and  C13_15 
REMARK    2  A    between atoms: C13_15  and  C15_17 
REMARK    3  A    between atoms: C15_17  and  C16_18 
REMARK    4  A    between atoms: C16_18  and  C17_20 
REMARK    5  A    between atoms: C26_29  and  C27_30 
REMARK    6  A    between atoms: C27_30  and  C28_31 
REMARK    7  A    between atoms: C28_31  and  C29_32 
REMARK    8  A    between atoms: C29_32  and  O5_34 
ROOT
HETATM    1  C1  UNL     1       3.158   8.606  11.783  1.00  0.00     0.025 C 
HETATM    2  C2  UNL     1       2.534   8.259  12.916  1.00  0.00     0.015 C 
HETATM    3  C3  UNL     1       3.280   8.086  14.178  1.00  0.00     0.289 C 
HETATM    4  O1  UNL     1       4.474   7.883  14.295  1.00  0.00    -0.260 OA
HETATM    5  O2  UNL     1       2.387   8.221  15.191  1.00  0.00    -0.311 OA
HETATM    6  C4  UNL     1       1.096   8.602  14.669  1.00  0.00     0.142 C 
HETATM    7  C5  UNL     1       0.033   8.069  15.624  1.00  0.00     0.039 C 
HETATM    8  C6  UNL     1      -1.149   7.297  15.029  1.00  0.00     0.006 C 
HETATM    9  C7  UNL     1      -0.772   6.402  13.832  1.00  0.00    -0.027 A 
HETATM   10  C8  UNL     1      -1.951   5.568  13.307  1.00  0.00     0.011 C 
HETATM   11  C9  UNL     1      -3.251   6.370  13.102  1.00  0.00     0.011 C 
HETATM   12  C10 UNL     1      -3.627   7.174  14.361  1.00  0.00    -0.032 C 
HETATM   13  C11 UNL     1      -3.971   6.164  15.502  1.00  0.00     0.016 C 
HETATM   14  C12 UNL     1      -4.803   8.195  14.246  1.00  0.00    -0.002 C 
HETATM   15  C21 UNL     1      -4.488   9.186  15.414  1.00  0.00     0.006 C 
HETATM   16  C22 UNL     1      -3.016   8.975  15.829  1.00  0.00     0.011 C 
HETATM   17  C23 UNL     1      -2.414   8.141  14.689  1.00  0.00    -0.032 C 
HETATM   18  C24 UNL     1      -2.076   9.152  13.549  1.00  0.00     0.016 C 
HETATM   19  C25 UNL     1       0.545   5.661  13.900  1.00  0.00     0.022 A 
HETATM   20  C26 UNL     1       0.408   6.808  12.912  1.00  0.00    -0.021 A 
HETATM   21  C31 UNL     1       1.073   8.161  13.207  1.00  0.00     0.063 C 
ENDROOT
BRANCH  14  22
HETATM   22  C13 UNL     1      -6.280   7.703  14.286  1.00  0.00    -0.007 C 
HETATM   23  C14 UNL     1      -6.730   7.325  15.703  1.00  0.00     0.011 C 
BRANCH  22  24
HETATM   24  C15 UNL     1      -6.465   6.476  13.361  1.00  0.00     0.087 C 
BRANCH  24  25
HETATM   25  C16 UNL     1      -7.900   5.969  13.303  1.00  0.00     0.149 C 
HETATM   26  O3  UNL     1      -8.868   6.713  13.430  1.00  0.00    -0.293 OA
BRANCH  25  27
HETATM   27  C17 UNL     1      -8.062   4.510  13.013  1.00  0.00     0.052 C 
HETATM   28  C18 UNL     1      -7.065   3.611  12.900  1.00  0.00    -0.084 C 
HETATM   29  C19 UNL     1      -5.597   3.927  12.994  1.00  0.00     0.043 C 
HETATM   30  C20 UNL     1      -7.374   2.158  12.652  1.00  0.00     0.043 C 
ENDBRANCH  25  27
ENDBRANCH  24  25
ENDBRANCH  22  24
ENDBRANCH  14  22
BRANCH  20  31
HETATM   31  C27 UNL     1       0.279   6.531  11.403  1.00  0.00     0.021 C 
BRANCH  31  32
HETATM   32  C28 UNL     1      -0.228   7.673  10.526  1.00  0.00     0.112 C 
BRANCH  32  33
HETATM   33  C29 UNL     1       0.630   7.942   9.317  1.00  0.00     0.258 C 
HETATM   34  O4  UNL     1       0.541   8.952   8.631  1.00  0.00    -0.265 OA
BRANCH  33  35
HETATM   35  O5  UNL     1       1.535   6.943   9.129  1.00  0.00    -0.326 OA
HETATM   36  C30 UNL     1       2.099   6.919   7.817  1.00  0.00     0.213 C 
ENDBRANCH  33  35
ENDBRANCH  32  33
ENDBRANCH  31  32
ENDBRANCH  20  31
TORSDOF 8
ENDMDL
MODEL 3
REMARK minimizedAffinity -8.50093746
REMARK  8 active torsions:
REMARK  status: ('A' for Active; 'I' for Inactive)
REMARK    1  A    between atoms: C12_14  and  C13_15 
REMARK    2  A    between atoms: C13_15  and  C15_17 
REMARK    3  A    between atoms: C15_17  and  C16_18 
REMARK    4  A    between atoms: C16_18  and  C17_20 
REMARK    5  A    between atoms: C26_29  and  C27_30 
REMARK    6  A    between atoms: C27_30  and  C28_31 
REMARK    7  A    between atoms: C28_31  and  C29_32 
REMARK    8  A    between atoms: C29_32  and  O5_34 
ROOT
HETATM    1  C1  UNL     1       0.820   8.302  10.645  1.00  0.00     0.025 C 
HETATM    2  C2  UNL     1       0.345   8.347  11.897  1.00  0.00     0.015 C 
HETATM    3  C3  UNL     1       1.135   8.939  12.994  1.00  0.00     0.289 C 
HETATM    4  O1  UNL     1       2.339   9.111  13.012  1.00  0.00    -0.260 OA
HETATM    5  O2  UNL     1       0.262   9.279  13.976  1.00  0.00    -0.311 OA
HETATM    6  C4  UNL     1      -1.095   9.057  13.534  1.00  0.00     0.142 C 
HETATM    7  C5  UNL     1      -1.940   8.753  14.766  1.00  0.00     0.039 C 
HETATM    8  C6  UNL     1      -2.864   7.532  14.723  1.00  0.00     0.006 C 
HETATM    9  C7  UNL     1      -2.272   6.326  13.967  1.00  0.00    -0.027 A 
HETATM   10  C8  UNL     1      -3.173   5.082  14.013  1.00  0.00     0.011 C 
HETATM   11  C9  UNL     1      -4.652   5.361  13.682  1.00  0.00     0.011 C 
HETATM   12  C10 UNL     1      -5.216   6.516  14.531  1.00  0.00    -0.032 C 
HETATM   13  C11 UNL     1      -5.234   6.061  16.026  1.00  0.00     0.016 C 
HETATM   14  C12 UNL     1      -6.638   7.054  14.172  1.00  0.00    -0.002 C 
HETATM   15  C21 UNL     1      -6.596   8.502  14.763  1.00  0.00     0.006 C 
HETATM   16  C22 UNL     1      -5.117   8.867  15.012  1.00  0.00     0.011 C 
HETATM   17  C23 UNL     1      -4.325   7.796  14.248  1.00  0.00    -0.032 C 
HETATM   18  C24 UNL     1      -4.314   8.251  12.756  1.00  0.00     0.016 C 
HETATM   19  C25 UNL     1      -0.796   6.044  14.147  1.00  0.00     0.022 A 
HETATM   20  C26 UNL     1      -1.277   6.565  12.803  1.00  0.00    -0.021 A 
HETATM   21  C31 UNL     1      -1.021   8.028  12.408  1.00  0.00     0.063 C 
ENDROOT
BRANCH  14  22
HETATM   22  C13 UNL     1      -7.911   6.280  14.625  1.00  0.00    -0.007 C 
HETATM   23  C14 UNL     1      -7.755   4.762  14.472  1.00  0.00     0.011 C 
BRANCH  22  24
HETATM   24  C15 UNL     1      -9.142   6.739  13.806  1.00  0.00     0.087 C 
BRANCH  24  25
HETATM   25  C16 UNL     1     -10.302   7.217  14.669  1.00  0.00     0.149 C 
HETATM   26  O3  UNL     1     -10.143   7.942  15.646  1.00  0.00    -0.293 OA
BRANCH  25  27
HETATM   27  C17 UNL     1     -11.665   6.801  14.211  1.00  0.00     0.052 C 
HETATM   28  C18 UNL     1     -12.449   7.474  13.347  1.00  0.00    -0.084 C 
HETATM   29  C19 UNL     1     -12.112   8.801  12.724  1.00  0.00     0.043 C 
HETATM   30  C20 UNL     1     -13.784   6.914  12.935  1.00  0.00     0.043 C 
ENDBRANCH  25  27
ENDBRANCH  24  25
ENDBRANCH  22  24
ENDBRANCH  14  22
BRANCH  20  31
HETATM   31  C27 UNL     1      -1.352   5.629  11.582  1.00  0.00     0.021 C 
BRANCH  31  32
HETATM   32  C28 UNL     1      -1.203   4.132  11.842  1.00  0.00     0.112 C 
BRANCH  32  33
HETATM   33  C29 UNL     1       0.121   3.564  11.401  1.00  0.00     0.258 C 
HETATM   34  O4  UNL     1       1.107   4.248  11.159  1.00  0.00    -0.265 OA
BRANCH  33  35
HETATM   35  O5  UNL     1       0.079   2.205  11.359  1.00  0.00    -0.326 OA
HETATM   36  C30 UNL     1      -1.126   1.685  10.795  1.00  0.00     0.213 C 
ENDBRANCH  33  35
ENDBRANCH  32  33
ENDBRANCH  31  32
ENDBRANCH  20  31
TORSDOF 8
ENDMDL
MODEL 4
REMARK minimizedAffinity -8.37745285
REMARK  8 active torsions:
REMARK  status: ('A' for Active; 'I' for Inactive)
REMARK    1  A    between atoms: C12_14  and  C13_15 
REMARK    2  A    between atoms: C13_15  and  C15_17 
REMARK    3  A    between atoms: C15_17  and  C16_18 
REMARK    4  A    between atoms: C16_18  and  C17_20 
REMARK    5  A    between atoms: C26_29  and  C27_30 
REMARK    6  A    between atoms: C27_30  and  C28_31 
REMARK    7  A    between atoms: C28_31  and  C29_32 
REMARK    8  A    between atoms: C29_32  and  O5_34 
ROOT
HETATM    1  C1  UNL     1       3.684   8.818  11.686  1.00  0.00     0.025 C 
HETATM    2  C2  UNL     1       2.929   8.893  12.790  1.00  0.00     0.015 C 
HETATM    3  C3  UNL     1       3.430   9.542  14.017  1.00  0.00     0.289 C 
HETATM    4  O1  UNL     1       4.593   9.746  14.308  1.00  0.00    -0.260 OA
HETATM    5  O2  UNL     1       2.346   9.892  14.755  1.00  0.00    -0.311 OA
HETATM    6  C4  UNL     1       1.134   9.620  14.017  1.00  0.00     0.142 C 
HETATM    7  C5  UNL     1       0.029   9.336  15.030  1.00  0.00     0.039 C 
HETATM    8  C6  UNL     1      -0.837   8.091  14.820  1.00  0.00     0.006 C 
HETATM    9  C7  UNL     1      -0.064   6.875  14.271  1.00  0.00    -0.027 A 
HETATM   10  C8  UNL     1      -0.929   5.611  14.154  1.00  0.00     0.011 C 
HETATM   11  C9  UNL     1      -2.294   5.840  13.477  1.00  0.00     0.011 C 
HETATM   12  C10 UNL     1      -3.061   7.008  14.125  1.00  0.00    -0.032 C 
HETATM   13  C11 UNL     1      -3.420   6.603  15.592  1.00  0.00     0.016 C 
HETATM   14  C12 UNL     1      -4.369   7.497  13.424  1.00  0.00    -0.002 C 
HETATM   15  C21 UNL     1      -4.491   8.964  13.952  1.00  0.00     0.006 C 
HETATM   16  C22 UNL     1      -3.118   9.376  14.524  1.00  0.00     0.011 C 
HETATM   17  C23 UNL     1      -2.151   8.301  14.008  1.00  0.00    -0.032 C 
HETATM   18  C24 UNL     1      -1.799   8.705  12.543  1.00  0.00     0.016 C 
HETATM   19  C25 UNL     1       1.333   6.639  14.801  1.00  0.00     0.022 A 
HETATM   20  C26 UNL     1       1.171   7.101  13.362  1.00  0.00    -0.021 A 
HETATM   21  C31 UNL     1       1.487   8.555  12.981  1.00  0.00     0.063 C 
ENDROOT
BRANCH  14  22
HETATM   22  C13 UNL     1      -5.699   6.706  13.598  1.00  0.00    -0.007 C 
HETATM   23  C14 UNL     1      -6.245   6.793  15.029  1.00  0.00     0.011 C 
BRANCH  22  24
HETATM   24  C15 UNL     1      -5.492   5.215  13.234  1.00  0.00     0.087 C 
BRANCH  24  25
HETATM   25  C16 UNL     1      -6.749   4.540  12.703  1.00  0.00     0.149 C 
HETATM   26  O3  UNL     1      -7.778   5.161  12.457  1.00  0.00    -0.293 OA
BRANCH  25  27
HETATM   27  C17 UNL     1      -6.632   3.073  12.432  1.00  0.00     0.052 C 
HETATM   28  C18 UNL     1      -5.939   2.506  11.425  1.00  0.00    -0.084 C 
HETATM   29  C19 UNL     1      -5.197   3.258  10.353  1.00  0.00     0.043 C 
HETATM   30  C20 UNL     1      -5.867   1.008  11.298  1.00  0.00     0.043 C 
ENDBRANCH  25  27
ENDBRANCH  24  25
ENDBRANCH  22  24
ENDBRANCH  14  22
BRANCH  20  31
HETATM   31  C27 UNL     1       1.400   6.123  12.195  1.00  0.00     0.021 C 
BRANCH  31  32
HETATM   32  C28 UNL     1       0.634   6.391  10.901  1.00  0.00     0.112 C 
BRANCH  32  33
HETATM   33  C29 UNL     1       1.518   6.574   9.695  1.00  0.00     0.258 C 
HETATM   34  O4  UNL     1       2.158   5.668   9.177  1.00  0.00    -0.265 OA
BRANCH  33  35
HETATM   35  O5  UNL     1       1.467   7.857   9.243  1.00  0.00    -0.326 OA
HETATM   36  C30 UNL     1       1.135   7.964   7.858  1.00  0.00     0.213 C 
ENDBRANCH  33  35
ENDBRANCH  32  33
ENDBRANCH  31  32
ENDBRANCH  20  31
TORSDOF 8
ENDMDL
MODEL 5
REMARK minimizedAffinity -8.19979382
REMARK  8 active torsions:
REMARK  status: ('A' for Active; 'I' for Inactive)
REMARK    1  A    between atoms: C12_14  and  C13_15 
REMARK    2  A    between atoms: C13_15  and  C15_17 
REMARK    3  A    between atoms: C15_17  and  C16_18 
REMARK    4  A    between atoms: C16_18  and  C17_20 
REMARK    5  A    between atoms: C26_29  and  C27_30 
REMARK    6  A    between atoms: C27_30  and  C28_31 
REMARK    7  A    between atoms: C28_31  and  C29_32 
REMARK    8  A    between atoms: C29_32  and  O5_34 
ROOT
HETATM    1  C1  UNL     1      -7.165   8.559  14.787  1.00  0.00     0.025 C 
HETATM    2  C2  UNL     1      -6.417   7.454  14.669  1.00  0.00     0.015 C 
HETATM    3  C3  UNL     1      -7.006   6.110  14.833  1.00  0.00     0.289 C 
HETATM    4  O1  UNL     1      -8.044   5.836  15.404  1.00  0.00    -0.260 OA
HETATM    5  O2  UNL     1      -6.182   5.234  14.204  1.00  0.00    -0.311 OA
HETATM    6  C4  UNL     1      -5.130   5.946  13.517  1.00  0.00     0.142 C 
HETATM    7  C5  UNL     1      -3.913   5.029  13.456  1.00  0.00     0.039 C 
HETATM    8  C6  UNL     1      -2.557   5.603  13.879  1.00  0.00     0.006 C 
HETATM    9  C7  UNL     1      -2.635   6.582  15.067  1.00  0.00    -0.027 A 
HETATM   10  C8  UNL     1      -1.257   7.076  15.535  1.00  0.00     0.011 C 
HETATM   11  C9  UNL     1      -0.335   7.550  14.395  1.00  0.00     0.011 C 
HETATM   12  C10 UNL     1      -0.223   6.495  13.279  1.00  0.00    -0.032 C 
HETATM   13  C11 UNL     1       0.500   5.238  13.864  1.00  0.00     0.016 C 
HETATM   14  C12 UNL     1       0.510   6.905  11.962  1.00  0.00    -0.002 C 
HETATM   15  C21 UNL     1      -0.093   5.899  10.928  1.00  0.00     0.006 C 
HETATM   16  C22 UNL     1      -1.378   5.302  11.542  1.00  0.00     0.011 C 
HETATM   17  C23 UNL     1      -1.687   6.213  12.739  1.00  0.00    -0.032 C 
HETATM   18  C24 UNL     1      -2.403   7.468  12.151  1.00  0.00     0.016 C 
HETATM   19  C25 UNL     1      -3.601   6.251  16.184  1.00  0.00     0.022 A 
HETATM   20  C26 UNL     1      -3.916   7.429  15.278  1.00  0.00    -0.021 A 
HETATM   21  C31 UNL     1      -5.006   7.304  14.203  1.00  0.00     0.063 C 
ENDROOT
BRANCH  14  22
HETATM   22  C13 UNL     1       2.066   6.935  11.902  1.00  0.00    -0.007 C 
HETATM   23  C14 UNL     1       2.602   8.267  11.361  1.00  0.00     0.011 C 
BRANCH  22  24
HETATM   24  C15 UNL     1       2.593   5.786  11.009  1.00  0.00     0.087 C 
BRANCH  24  25
HETATM   25  C16 UNL     1       3.369   6.271   9.792  1.00  0.00     0.149 C 
HETATM   26  O3  UNL     1       4.548   6.606   9.851  1.00  0.00    -0.293 OA
BRANCH  25  27
HETATM   27  C17 UNL     1       2.622   6.249   8.495  1.00  0.00     0.052 C 
HETATM   28  C18 UNL     1       2.445   7.296   7.667  1.00  0.00    -0.084 C 
HETATM   29  C19 UNL     1       2.926   8.698   7.926  1.00  0.00     0.043 C 
HETATM   30  C20 UNL     1       1.709   7.121   6.364  1.00  0.00     0.043 C 
ENDBRANCH  25  27
ENDBRANCH  24  25
ENDBRANCH  22  24
ENDBRANCH  14  22
BRANCH  20  31
HETATM   31  C27 UNL     1      -3.753   8.874  15.788  1.00  0.00     0.021 C 
BRANCH  31  32
HETATM   32  C28 UNL     1      -2.487   9.195  16.579  1.00  0.00     0.112 C 
BRANCH  32  33
HETATM   33  C29 UNL     1      -2.706  10.159  17.716  1.00  0.00     0.258 C 
HETATM   34  O4  UNL     1      -3.809  10.441  18.165  1.00  0.00    -0.265 OA
BRANCH  33  35
HETATM   35  O5  UNL     1      -1.521  10.625  18.195  1.00  0.00    -0.326 OA
HETATM   36  C30 UNL     1      -1.083  11.832  17.568  1.00  0.00     0.213 C 
ENDBRANCH  33  35
ENDBRANCH  32  33
ENDBRANCH  31  32
ENDBRANCH  20  31
TORSDOF 8
ENDMDL
MODEL 6
REMARK minimizedAffinity -8.1934948
REMARK  8 active torsions:
REMARK  status: ('A' for Active; 'I' for Inactive)
REMARK    1  A    between atoms: C12_14  and  C13_15 
REMARK    2  A    between atoms: C13_15  and  C15_17 
REMARK    3  A    between atoms: C15_17  and  C16_18 
REMARK    4  A    between atoms: C16_18  and  C17_20 
REMARK    5  A    between atoms: C26_29  and  C27_30 
REMARK    6  A    between atoms: C27_30  and  C28_31 
REMARK    7  A    between atoms: C28_31  and  C29_32 
REMARK    8  A    between atoms: C29_32  and  O5_34 
ROOT
HETATM    1  C1  UNL     1      -0.187   6.808  11.445  1.00  0.00     0.025 C 
HETATM    2  C2  UNL     1      -0.797   6.681  12.631  1.00  0.00     0.015 C 
HETATM    3  C3  UNL     1      -0.027   6.664  13.890  1.00  0.00     0.289 C 
HETATM    4  O1  UNL     1       1.155   6.410  14.015  1.00  0.00    -0.260 OA
HETATM    5  O2  UNL     1      -0.883   7.008  14.885  1.00  0.00    -0.311 OA
HETATM    6  C4  UNL     1      -2.165   7.379  14.333  1.00  0.00     0.142 C 
HETATM    7  C5  UNL     1      -3.229   7.067  15.380  1.00  0.00     0.039 C 
HETATM    8  C6  UNL     1      -4.468   6.284  14.936  1.00  0.00     0.006 C 
HETATM    9  C7  UNL     1      -4.176   5.191  13.889  1.00  0.00    -0.027 A 
HETATM   10  C8  UNL     1      -5.414   4.358  13.525  1.00  0.00     0.011 C 
HETATM   11  C9  UNL     1      -6.672   5.194  13.220  1.00  0.00     0.011 C 
HETATM   12  C10 UNL     1      -6.967   6.207  14.342  1.00  0.00    -0.032 C 
HETATM   13  C11 UNL     1      -7.336   5.410  15.635  1.00  0.00     0.016 C 
HETATM   14  C12 UNL     1      -8.087   7.266  14.090  1.00  0.00    -0.002 C 
HETATM   15  C21 UNL     1      -7.684   8.407  15.080  1.00  0.00     0.006 C 
HETATM   16  C22 UNL     1      -6.216   8.175  15.496  1.00  0.00     0.011 C 
HETATM   17  C23 UNL     1      -5.693   7.139  14.491  1.00  0.00    -0.032 C 
HETATM   18  C24 UNL     1      -5.331   7.937  13.200  1.00  0.00     0.016 C 
HETATM   19  C25 UNL     1      -2.901   4.393  14.049  1.00  0.00     0.022 A 
HETATM   20  C26 UNL     1      -3.001   5.377  12.896  1.00  0.00    -0.021 A 
HETATM   21  C31 UNL     1      -2.253   6.717  12.960  1.00  0.00     0.063 C 
ENDROOT
BRANCH  14  22
HETATM   22  C13 UNL     1      -9.588   6.875  14.234  1.00  0.00    -0.007 C 
HETATM   23  C14 UNL     1     -10.250   6.595  12.879  1.00  0.00     0.011 C 
BRANCH  22  24
HETATM   24  C15 UNL     1     -10.372   8.004  14.948  1.00  0.00     0.087 C 
BRANCH  24  25
HETATM   25  C16 UNL     1     -11.813   8.135  14.474  1.00  0.00     0.149 C 
HETATM   26  O3  UNL     1     -12.197   9.071  13.780  1.00  0.00    -0.293 OA
BRANCH  25  27
HETATM   27  C17 UNL     1     -12.725   7.010  14.850  1.00  0.00     0.052 C 
HETATM   28  C18 UNL     1     -13.734   6.525  14.101  1.00  0.00    -0.084 C 
HETATM   29  C19 UNL     1     -14.160   7.068  12.764  1.00  0.00     0.043 C 
HETATM   30  C20 UNL     1     -14.546   5.352  14.584  1.00  0.00     0.043 C 
ENDBRANCH  25  27
ENDBRANCH  24  25
ENDBRANCH  22  24
ENDBRANCH  14  22
BRANCH  20  31
HETATM   31  C27 UNL     1      -3.187   4.875  11.451  1.00  0.00     0.021 C 
BRANCH  31  32
HETATM   32  C28 UNL     1      -3.238   3.363  11.241  1.00  0.00     0.112 C 
BRANCH  32  33
HETATM   33  C29 UNL     1      -1.927   2.763  10.804  1.00  0.00     0.258 C 
HETATM   34  O4  UNL     1      -1.799   1.602  10.437  1.00  0.00    -0.265 OA
BRANCH  33  35
HETATM   35  O5  UNL     1      -0.933   3.693  10.828  1.00  0.00    -0.326 OA
HETATM   36  C30 UNL     1       0.123   3.379  11.738  1.00  0.00     0.213 C 
ENDBRANCH  33  35
ENDBRANCH  32  33
ENDBRANCH  31  32
ENDBRANCH  20  31
TORSDOF 8
ENDMDL
MODEL 7
REMARK minimizedAffinity -8.12592316
REMARK  8 active torsions:
REMARK  status: ('A' for Active; 'I' for Inactive)
REMARK    1  A    between atoms: C12_14  and  C13_15 
REMARK    2  A    between atoms: C13_15  and  C15_17 
REMARK    3  A    between atoms: C15_17  and  C16_18 
REMARK    4  A    between atoms: C16_18  and  C17_20 
REMARK    5  A    between atoms: C26_29  and  C27_30 
REMARK    6  A    between atoms: C27_30  and  C28_31 
REMARK    7  A    between atoms: C28_31  and  C29_32 
REMARK    8  A    between atoms: C29_32  and  O5_34 
ROOT
HETATM    1  C1  UNL     1       3.983   8.675  11.233  1.00  0.00     0.025 C 
HETATM    2  C2  UNL     1       3.287   8.697  12.378  1.00  0.00     0.015 C 
HETATM    3  C3  UNL     1       3.909   9.133  13.644  1.00  0.00     0.289 C 
HETATM    4  O1  UNL     1       5.098   9.171  13.893  1.00  0.00    -0.260 OA
HETATM    5  O2  UNL     1       2.903   9.507  14.475  1.00  0.00    -0.311 OA
HETATM    6  C4  UNL     1       1.639   9.461  13.777  1.00  0.00     0.142 C 
HETATM    7  C5  UNL     1       0.551   9.179  14.809  1.00  0.00     0.039 C 
HETATM    8  C6  UNL     1      -0.461   8.070  14.502  1.00  0.00     0.006 C 
HETATM    9  C7  UNL     1       0.144   6.854  13.774  1.00  0.00    -0.027 A 
HETATM   10  C8  UNL     1      -0.865   5.716  13.558  1.00  0.00     0.011 C 
HETATM   11  C9  UNL     1      -2.221   6.173  12.987  1.00  0.00     0.011 C 
HETATM   12  C10 UNL     1      -2.821   7.331  13.807  1.00  0.00    -0.032 C 
HETATM   13  C11 UNL     1      -3.164   6.792  15.234  1.00  0.00     0.016 C 
HETATM   14  C12 UNL     1      -4.091   8.041  13.240  1.00  0.00    -0.002 C 
HETATM   15  C21 UNL     1      -4.022   9.438  13.940  1.00  0.00     0.006 C 
HETATM   16  C22 UNL     1      -2.588   9.625  14.482  1.00  0.00     0.011 C 
HETATM   17  C23 UNL     1      -1.774   8.520  13.793  1.00  0.00    -0.032 C 
HETATM   18  C24 UNL     1      -1.438   9.059  12.367  1.00  0.00     0.016 C 
HETATM   19  C25 UNL     1       1.525   6.403  14.196  1.00  0.00     0.022 A 
HETATM   20  C26 UNL     1       1.359   7.052  12.832  1.00  0.00    -0.021 A 
HETATM   21  C31 UNL     1       1.825   8.499  12.607  1.00  0.00     0.063 C 
ENDROOT
BRANCH  14  22
HETATM   22  C13 UNL     1      -5.496   7.385  13.392  1.00  0.00    -0.007 C 
HETATM   23  C14 UNL     1      -6.261   7.924  14.608  1.00  0.00     0.011 C 
BRANCH  22  24
HETATM   24  C15 UNL     1      -5.361   5.849  13.529  1.00  0.00     0.087 C 
BRANCH  24  25
HETATM   25  C16 UNL     1      -6.596   5.088  13.066  1.00  0.00     0.149 C 
HETATM   26  O3  UNL     1      -6.527   4.075  12.377  1.00  0.00    -0.293 OA
BRANCH  25  27
HETATM   27  C17 UNL     1      -7.906   5.614  13.562  1.00  0.00     0.052 C 
HETATM   28  C18 UNL     1      -8.950   5.988  12.797  1.00  0.00    -0.084 C 
HETATM   29  C19 UNL     1      -8.964   5.993  11.292  1.00  0.00     0.043 C 
HETATM   30  C20 UNL     1     -10.232   6.456  13.433  1.00  0.00     0.043 C 
ENDBRANCH  25  27
ENDBRANCH  24  25
ENDBRANCH  22  24
ENDBRANCH  14  22
BRANCH  20  31
HETATM   31  C27 UNL     1       1.426   6.204  11.548  1.00  0.00     0.021 C 
BRANCH  31  32
HETATM   32  C28 UNL     1       0.953   6.862  10.254  1.00  0.00     0.112 C 
BRANCH  32  33
HETATM   33  C29 UNL     1       1.846   6.592   9.071  1.00  0.00     0.258 C 
HETATM   34  O4  UNL     1       2.474   5.553   8.915  1.00  0.00    -0.265 OA
BRANCH  33  35
HETATM   35  O5  UNL     1       1.816   7.630   8.191  1.00  0.00    -0.326 OA
HETATM   36  C30 UNL     1       1.837   7.223   6.821  1.00  0.00     0.213 C 
ENDBRANCH  33  35
ENDBRANCH  32  33
ENDBRANCH  31  32
ENDBRANCH  20  31
TORSDOF 8
ENDMDL
MODEL 8
REMARK minimizedAffinity -8.11184025
REMARK  8 active torsions:
REMARK  status: ('A' for Active; 'I' for Inactive)
REMARK    1  A    between atoms: C12_14  and  C13_15 
REMARK    2  A    between atoms: C13_15  and  C15_17 
REMARK    3  A    between atoms: C15_17  and  C16_18 
REMARK    4  A    between atoms: C16_18  and  C17_20 
REMARK    5  A    between atoms: C26_29  and  C27_30 
REMARK    6  A    between atoms: C27_30  and  C28_31 
REMARK    7  A    between atoms: C28_31  and  C29_32 
REMARK    8  A    between atoms: C29_32  and  O5_34 
ROOT
HETATM    1  C1  UNL     1       2.876   9.210  12.362  1.00  0.00     0.025 C 
HETATM    2  C2  UNL     1       1.916   9.333  13.288  1.00  0.00     0.015 C 
HETATM    3  C3  UNL     1       2.019  10.333  14.369  1.00  0.00     0.289 C 
HETATM    4  O1  UNL     1       3.033  10.873  14.766  1.00  0.00    -0.260 OA
HETATM    5  O2  UNL     1       0.761  10.557  14.826  1.00  0.00    -0.311 OA
HETATM    6  C4  UNL     1      -0.198   9.845  14.013  1.00  0.00     0.142 C 
HETATM    7  C5  UNL     1      -1.403   9.524  14.892  1.00  0.00     0.039 C 
HETATM    8  C6  UNL     1      -1.939   8.089  14.883  1.00  0.00     0.006 C 
HETATM    9  C7  UNL     1      -0.841   7.011  14.781  1.00  0.00    -0.027 A 
HETATM   10  C8  UNL     1      -1.391   5.579  14.864  1.00  0.00     0.011 C 
HETATM   11  C9  UNL     1      -2.610   5.316  13.959  1.00  0.00     0.011 C 
HETATM   12  C10 UNL     1      -3.712   6.371  14.169  1.00  0.00    -0.032 C 
HETATM   13  C11 UNL     1      -4.268   6.216  15.621  1.00  0.00     0.016 C 
HETATM   14  C12 UNL     1      -4.923   6.363  13.183  1.00  0.00    -0.002 C 
HETATM   15  C21 UNL     1      -5.443   7.833  13.295  1.00  0.00     0.006 C 
HETATM   16  C22 UNL     1      -4.326   8.682  13.938  1.00  0.00     0.011 C 
HETATM   17  C23 UNL     1      -3.078   7.791  13.861  1.00  0.00    -0.032 C 
HETATM   18  C24 UNL     1      -2.528   7.945  12.408  1.00  0.00     0.016 C 
HETATM   19  C25 UNL     1       0.440   7.243  15.552  1.00  0.00     0.022 A 
HETATM   20  C26 UNL     1       0.480   7.332  14.035  1.00  0.00    -0.021 A 
HETATM   21  C31 UNL     1       0.564   8.702  13.346  1.00  0.00     0.063 C 
ENDROOT
BRANCH  14  22
HETATM   22  C13 UNL     1      -6.073   5.326  13.356  1.00  0.00    -0.007 C 
HETATM   23  C14 UNL     1      -5.801   4.022  12.595  1.00  0.00     0.011 C 
BRANCH  22  24
HETATM   24  C15 UNL     1      -7.414   5.921  12.862  1.00  0.00     0.087 C 
BRANCH  24  25
HETATM   25  C16 UNL     1      -8.458   6.062  13.961  1.00  0.00     0.149 C 
HETATM   26  O3  UNL     1      -8.180   5.958  15.152  1.00  0.00    -0.293 OA
BRANCH  25  27
HETATM   27  C17 UNL     1      -9.841   6.403  13.503  1.00  0.00     0.052 C 
HETATM   28  C18 UNL     1     -10.541   7.500  13.850  1.00  0.00    -0.084 C 
HETATM   29  C19 UNL     1     -10.073   8.560  14.811  1.00  0.00     0.043 C 
HETATM   30  C20 UNL     1     -11.911   7.744  13.274  1.00  0.00     0.043 C 
ENDBRANCH  25  27
ENDBRANCH  24  25
ENDBRANCH  22  24
ENDBRANCH  14  22
BRANCH  20  31
HETATM   31  C27 UNL     1       1.132   6.212  13.202  1.00  0.00     0.021 C 
BRANCH  31  32
HETATM   32  C28 UNL     1       1.819   6.622  11.901  1.00  0.00     0.112 C 
BRANCH  32  33
HETATM   33  C29 UNL     1       1.679   5.612  10.793  1.00  0.00     0.258 C 
HETATM   34  O4  UNL     1       1.802   4.404  10.953  1.00  0.00    -0.265 OA
BRANCH  33  35
HETATM   35  O5  UNL     1       1.354   6.218   9.618  1.00  0.00    -0.326 OA
HETATM   36  C30 UNL     1       2.363   6.101   8.613  1.00  0.00     0.213 C 
ENDBRANCH  33  35
ENDBRANCH  32  33
ENDBRANCH  31  32
ENDBRANCH  20  31
TORSDOF 8
ENDMDL
MODEL 9
REMARK minimizedAffinity -8.05503845
REMARK  8 active torsions:
REMARK  status: ('A' for Active; 'I' for Inactive)
REMARK    1  A    between atoms: C12_14  and  C13_15 
REMARK    2  A    between atoms: C13_15  and  C15_17 
REMARK    3  A    between atoms: C15_17  and  C16_18 
REMARK    4  A    between atoms: C16_18  and  C17_20 
REMARK    5  A    between atoms: C26_29  and  C27_30 
REMARK    6  A    between atoms: C27_30  and  C28_31 
REMARK    7  A    between atoms: C28_31  and  C29_32 
REMARK    8  A    between atoms: C29_32  and  O5_34 
ROOT
HETATM    1  C1  UNL     1      -6.579   5.852  16.255  1.00  0.00     0.025 C 
HETATM    2  C2  UNL     1      -5.983   6.885  15.644  1.00  0.00     0.015 C 
HETATM    3  C3  UNL     1      -6.720   8.131  15.356  1.00  0.00     0.289 C 
HETATM    4  O1  UNL     1      -7.926   8.264  15.289  1.00  0.00    -0.260 OA
HETATM    5  O2  UNL     1      -5.796   9.114  15.202  1.00  0.00    -0.311 OA
HETATM    6  C4  UNL     1      -4.476   8.607  15.500  1.00  0.00     0.142 C 
HETATM    7  C5  UNL     1      -3.474   9.415  14.682  1.00  0.00     0.039 C 
HETATM    8  C6  UNL     1      -2.417   8.650  13.879  1.00  0.00     0.006 C 
HETATM    9  C7  UNL     1      -2.933   7.339  13.254  1.00  0.00    -0.027 A 
HETATM   10  C8  UNL     1      -1.886   6.633  12.379  1.00  0.00     0.011 C 
HETATM   11  C9  UNL     1      -0.496   6.509  13.032  1.00  0.00     0.011 C 
HETATM   12  C10 UNL     1       0.009   7.866  13.558  1.00  0.00    -0.032 C 
HETATM   13  C11 UNL     1       0.240   8.809  12.333  1.00  0.00     0.016 C 
HETATM   14  C12 UNL     1       1.307   7.872  14.426  1.00  0.00    -0.002 C 
HETATM   15  C21 UNL     1       1.150   9.200  15.236  1.00  0.00     0.006 C 
HETATM   16  C22 UNL     1      -0.328   9.637  15.146  1.00  0.00     0.011 C 
HETATM   17  C23 UNL     1      -1.058   8.401  14.601  1.00  0.00    -0.032 C 
HETATM   18  C24 UNL     1      -1.283   7.460  15.825  1.00  0.00     0.016 C 
HETATM   19  C25 UNL     1      -4.335   7.339  12.686  1.00  0.00     0.022 A 
HETATM   20  C26 UNL     1      -4.068   6.550  13.957  1.00  0.00    -0.021 A 
HETATM   21  C31 UNL     1      -4.542   7.093  15.314  1.00  0.00     0.063 C 
ENDROOT
BRANCH  14  22
HETATM   22  C13 UNL     1       2.707   7.767  13.751  1.00  0.00    -0.007 C 
HETATM   23  C14 UNL     1       3.350   9.142  13.527  1.00  0.00     0.011 C 
BRANCH  22  24
HETATM   24  C15 UNL     1       2.595   7.042  12.387  1.00  0.00     0.087 C 
BRANCH  24  25
HETATM   25  C16 UNL     1       3.807   7.248  11.489  1.00  0.00     0.149 C 
HETATM   26  O3  UNL     1       4.905   6.762  11.740  1.00  0.00    -0.293 OA
BRANCH  25  27
HETATM   27  C17 UNL     1       3.560   8.028  10.236  1.00  0.00     0.052 C 
HETATM   28  C18 UNL     1       3.131   7.525   9.062  1.00  0.00    -0.084 C 
HETATM   29  C19 UNL     1       2.870   6.069   8.787  1.00  0.00     0.043 C 
HETATM   30  C20 UNL     1       2.877   8.435   7.890  1.00  0.00     0.043 C 
ENDBRANCH  25  27
ENDBRANCH  24  25
ENDBRANCH  22  24
ENDBRANCH  14  22
BRANCH  20  31
HETATM   31  C27 UNL     1      -4.008   5.011  13.926  1.00  0.00     0.021 C 
BRANCH  31  32
HETATM   32  C28 UNL     1      -4.378   4.327  12.612  1.00  0.00     0.112 C 
BRANCH  32  33
HETATM   33  C29 UNL     1      -5.811   3.866  12.547  1.00  0.00     0.258 C 
HETATM   34  O4  UNL     1      -6.621   4.033  13.450  1.00  0.00    -0.265 OA
BRANCH  33  35
HETATM   35  O5  UNL     1      -6.085   3.292  11.343  1.00  0.00    -0.326 OA
HETATM   36  C30 UNL     1      -5.853   1.882  11.315  1.00  0.00     0.213 C 
ENDBRANCH  33  35
ENDBRANCH  32  33
ENDBRANCH  31  32
ENDBRANCH  20  31
TORSDOF 8
ENDMDL
