MODEL 1
REMARK minimizedAffinity -8.44846725
REMARK  10 active torsions:
REMARK  status: ('A' for Active; 'I' for Inactive)
REMARK    1  A    between atoms: N1_2  and  C2_3 
REMARK    2  A    between atoms: C2_3  and  C3_4 
REMARK    3  A    between atoms: C3_4  and  O1_5 
REMARK    4  A    between atoms: O1_5  and  C4_6 
REMARK    5  A    between atoms: C4_6  and  C5_8 
REMARK    6  A    between atoms: C17_21  and  O4_22 
REMARK    7  A    between atoms: O4_22  and  C18_23 
REMARK    8  A    between atoms: C18_23  and  C19_25 
REMARK    9  A    between atoms: C19_25  and  C20_26 
REMARK   10  A    between atoms: C20_26  and  O6_29 
ROOT
HETATM    1  C5  UNL     1      -5.638   5.811  13.097  1.00  0.00     0.085 C 
HETATM    2  C6  UNL     1      -4.368   5.468  13.391  1.00  0.00    -0.070 C 
HETATM    3  C7  UNL     1      -3.582   4.799  12.276  1.00  0.00     0.035 C 
HETATM    4  C8  UNL     1      -2.238   4.239  12.735  1.00  0.00     0.010 C 
HETATM    5  C9  UNL     1      -1.331   5.242  13.500  1.00  0.00     0.006 C 
HETATM    6  C10 UNL     1      -2.175   6.236  14.378  1.00  0.00     0.068 C 
HETATM    7  C11 UNL     1      -2.302   7.652  13.803  1.00  0.00     0.132 C 
HETATM    8  O3  UNL     1      -3.211   8.413  14.132  1.00  0.00    -0.298 OA
HETATM    9  C12 UNL     1      -1.183   8.209  12.965  1.00  0.00     0.085 C 
HETATM   10  C13 UNL     1      -0.658   7.192  11.952  1.00  0.00     0.011 C 
HETATM   11  C14 UNL     1       0.293   7.842  10.861  1.00  0.00    -0.016 C 
HETATM   12  C15 UNL     1      -0.555   8.784   9.955  1.00  0.00     0.018 C 
HETATM   13  C16 UNL     1       1.419   8.727  11.445  1.00  0.00     0.018 C 
HETATM   14  C17 UNL     1       0.888   6.721   9.950  1.00  0.00     0.140 C 
HETATM   15  C23 UNL     1       1.542   5.599  10.760  1.00  0.00     0.034 C 
HETATM   16  C24 UNL     1       0.504   4.946  11.660  1.00  0.00     0.012 C 
HETATM   17  C25 UNL     1      -0.128   5.919  12.697  1.00  0.00    -0.035 C 
HETATM   18  C26 UNL     1       0.958   6.238  13.765  1.00  0.00     0.016 C 
HETATM   19  C27 UNL     1      -3.579   5.627  14.691  1.00  0.00     0.022 C 
HETATM   20  C28 UNL     1      -4.262   6.261  15.912  1.00  0.00     0.015 C 
ENDROOT
BRANCH   1  21
HETATM   21  C4  UNL     1      -6.654   6.508  13.902  1.00  0.00     0.283 C 
HETATM   22  O2  UNL     1      -6.588   7.700  14.167  1.00  0.00    -0.260 OA
BRANCH  21  23
HETATM   23  O1  UNL     1      -7.487   5.593  14.442  1.00  0.00    -0.316 OA
BRANCH  23  24
HETATM   24  C3  UNL     1      -7.906   5.850  15.791  1.00  0.00     0.209 C 
BRANCH  24  25
HETATM   25  C2  UNL     1      -9.015   6.905  15.795  1.00  0.00     0.295 C 
BRANCH  25  26
HETATM   26  N1  UNL     1     -10.278   6.460  15.196  1.00  0.00     0.081 N 
HETATM   27  C1  UNL     1     -10.900   7.513  14.389  1.00  0.00     0.306 C 
HETATM   28  H4  UNL     1     -10.917   6.220  15.958  1.00  0.00     0.315 HD
ENDBRANCH  25  26
ENDBRANCH  24  25
ENDBRANCH  23  24
ENDBRANCH  21  23
ENDBRANCH   1  21
BRANCH  14  29
HETATM   29  O4  UNL     1       1.899   7.242   9.062  1.00  0.00    -0.315 OA
BRANCH  29  30
HETATM   30  C18 UNL     1       3.118   6.629   9.075  1.00  0.00     0.262 C 
HETATM   31  O5  UNL     1       3.351   5.507   8.639  1.00  0.00    -0.265 OA
BRANCH  30  32
HETATM   32  C19 UNL     1       4.146   7.565   9.660  1.00  0.00     0.148 C 
BRANCH  32  33
HETATM   33  C20 UNL     1       4.991   6.930  10.778  1.00  0.00     0.059 C 
HETATM   34  C21 UNL     1       4.401   7.136  12.178  1.00  0.00     0.045 C 
HETATM   35  C22 UNL     1       6.400   7.531  10.741  1.00  0.00     0.045 C 
BRANCH  33  36
HETATM   36  O6  UNL     1       5.140   5.534  10.530  1.00  0.00    -0.390 OA
HETATM   37  H34 UNL     1       4.278   5.103  10.710  1.00  0.00     0.210 HD
ENDBRANCH  33  36
ENDBRANCH  32  33
ENDBRANCH  30  32
ENDBRANCH  29  30
ENDBRANCH  14  29
TORSDOF 10
ENDMDL
MODEL 2
REMARK minimizedAffinity -8.34060669
REMARK  10 active torsions:
REMARK  status: ('A' for Active; 'I' for Inactive)
REMARK    1  A    between atoms: N1_2  and  C2_3 
REMARK    2  A    between atoms: C2_3  and  C3_4 
REMARK    3  A    between atoms: C3_4  and  O1_5 
REMARK    4  A    between atoms: O1_5  and  C4_6 
REMARK    5  A    between atoms: C4_6  and  C5_8 
REMARK    6  A    between atoms: C17_21  and  O4_22 
REMARK    7  A    between atoms: O4_22  and  C18_23 
REMARK    8  A    between atoms: C18_23  and  C19_25 
REMARK    9  A    between atoms: C19_25  and  C20_26 
REMARK   10  A    between atoms: C20_26  and  O6_29 
ROOT
HETATM    1  C5  UNL     1       2.571   6.381  10.500  1.00  0.00     0.085 C 
HETATM    2  C6  UNL     1       1.749   7.389  10.855  1.00  0.00    -0.070 C 
HETATM    3  C7  UNL     1       0.305   7.266  10.395  1.00  0.00     0.035 C 
HETATM    4  C8  UNL     1      -0.514   8.532  10.633  1.00  0.00     0.010 C 
HETATM    5  C9  UNL     1      -0.462   9.091  12.081  1.00  0.00     0.006 C 
HETATM    6  C10 UNL     1       0.946   8.861  12.742  1.00  0.00     0.068 C 
HETATM    7  C11 UNL     1       0.995   7.727  13.774  1.00  0.00     0.132 C 
HETATM    8  O3  UNL     1       2.046   7.168  14.083  1.00  0.00    -0.298 OA
HETATM    9  C12 UNL     1      -0.236   7.416  14.582  1.00  0.00     0.085 C 
HETATM   10  C13 UNL     1      -1.502   7.397  13.726  1.00  0.00     0.011 C 
HETATM   11  C14 UNL     1      -2.749   6.772  14.480  1.00  0.00    -0.016 C 
HETATM   12  C15 UNL     1      -2.492   5.251  14.701  1.00  0.00     0.018 C 
HETATM   13  C16 UNL     1      -3.000   7.361  15.889  1.00  0.00     0.018 C 
HETATM   14  C17 UNL     1      -4.024   6.911  13.590  1.00  0.00     0.140 C 
HETATM   15  C23 UNL     1      -4.242   8.346  13.105  1.00  0.00     0.034 C 
HETATM   16  C24 UNL     1      -3.053   8.788  12.264  1.00  0.00     0.012 C 
HETATM   17  C25 UNL     1      -1.704   8.791  13.039  1.00  0.00    -0.035 C 
HETATM   18  C26 UNL     1      -1.745   9.974  14.049  1.00  0.00     0.016 C 
HETATM   19  C27 UNL     1       2.038   8.668  11.642  1.00  0.00     0.022 C 
HETATM   20  C28 UNL     1       3.465   8.935  12.142  1.00  0.00     0.015 C 
ENDROOT
BRANCH   1  21
HETATM   21  C4  UNL     1       3.991   6.148  10.810  1.00  0.00     0.283 C 
HETATM   22  O2  UNL     1       4.557   6.670  11.761  1.00  0.00    -0.260 OA
BRANCH  21  23
HETATM   23  O1  UNL     1       4.558   5.479   9.785  1.00  0.00    -0.316 OA
BRANCH  23  24
HETATM   24  C3  UNL     1       3.788   4.394   9.246  1.00  0.00     0.209 C 
BRANCH  24  25
HETATM   25  C2  UNL     1       4.726   3.278   8.778  1.00  0.00     0.295 C 
BRANCH  25  26
HETATM   26  N1  UNL     1       4.747   3.073   7.326  1.00  0.00     0.081 N 
HETATM   27  C1  UNL     1       3.712   3.857   6.648  1.00  0.00     0.306 C 
HETATM   28  H4  UNL     1       4.567   2.082   7.149  1.00  0.00     0.315 HD
ENDBRANCH  25  26
ENDBRANCH  24  25
ENDBRANCH  23  24
ENDBRANCH  21  23
ENDBRANCH   1  21
BRANCH  14  29
HETATM   29  O4  UNL     1      -5.216   6.524  14.306  1.00  0.00    -0.315 OA
BRANCH  29  30
HETATM   30  C18 UNL     1      -6.027   5.600  13.715  1.00  0.00     0.262 C 
HETATM   31  O5  UNL     1      -5.652   4.544  13.219  1.00  0.00    -0.265 OA
BRANCH  30  32
HETATM   32  C19 UNL     1      -7.463   6.053  13.812  1.00  0.00     0.148 C 
BRANCH  32  33
HETATM   33  C20 UNL     1      -7.861   6.539  15.217  1.00  0.00     0.059 C 
HETATM   34  C21 UNL     1      -7.614   8.037  15.433  1.00  0.00     0.045 C 
HETATM   35  C22 UNL     1      -7.065   5.751  16.262  1.00  0.00     0.045 C 
BRANCH  33  36
HETATM   36  O6  UNL     1      -9.236   6.249  15.451  1.00  0.00    -0.390 OA
HETATM   37  H34 UNL     1      -9.770   6.864  14.906  1.00  0.00     0.210 HD
ENDBRANCH  33  36
ENDBRANCH  32  33
ENDBRANCH  30  32
ENDBRANCH  29  30
ENDBRANCH  14  29
TORSDOF 10
ENDMDL
MODEL 3
REMARK minimizedAffinity -8.27556515
REMARK  10 active torsions:
REMARK  status: ('A' for Active; 'I' for Inactive)
REMARK    1  A    between atoms: N1_2  and  C2_3 
REMARK    2  A    between atoms: C2_3  and  C3_4 
REMARK    3  A    between atoms: C3_4  and  O1_5 
REMARK    4  A    between atoms: O1_5  and  C4_6 
REMARK    5  A    between atoms: C4_6  and  C5_8 
REMARK    6  A    between atoms: C17_21  and  O4_22 
REMARK    7  A    between atoms: O4_22  and  C18_23 
REMARK    8  A    between atoms: C18_23  and  C19_25 
REMARK    9  A    between atoms: C19_25  and  C20_26 
REMARK   10  A    between atoms: C20_26  and  O6_29 
ROOT
HETATM    1  C5  UNL     1      -7.035   6.139  13.257  1.00  0.00     0.085 C 
HETATM    2  C6  UNL     1      -5.859   5.639  13.684  1.00  0.00    -0.070 C 
HETATM    3  C7  UNL     1      -4.978   5.006  12.620  1.00  0.00     0.035 C 
HETATM    4  C8  UNL     1      -3.772   4.266  13.195  1.00  0.00     0.010 C 
HETATM    5  C9  UNL     1      -2.904   5.088  14.187  1.00  0.00     0.006 C 
HETATM    6  C10 UNL     1      -3.779   6.073  15.046  1.00  0.00     0.068 C 
HETATM    7  C11 UNL     1      -3.693   7.545  14.623  1.00  0.00     0.132 C 
HETATM    8  O3  UNL     1      -4.570   8.360  14.907  1.00  0.00    -0.298 OA
HETATM    9  C12 UNL     1      -2.417   8.062  14.017  1.00  0.00     0.085 C 
HETATM   10  C13 UNL     1      -1.838   7.102  12.978  1.00  0.00     0.011 C 
HETATM   11  C14 UNL     1      -0.682   7.755  12.110  1.00  0.00    -0.016 C 
HETATM   12  C15 UNL     1      -1.299   8.865  11.207  1.00  0.00     0.018 C 
HETATM   13  C16 UNL     1       0.418   8.456  12.941  1.00  0.00     0.018 C 
HETATM   14  C17 UNL     1      -0.059   6.674  11.170  1.00  0.00     0.140 C 
HETATM   15  C23 UNL     1       0.365   5.416  11.930  1.00  0.00     0.034 C 
HETATM   16  C24 UNL     1      -0.849   4.788  12.598  1.00  0.00     0.012 C 
HETATM   17  C25 UNL     1      -1.540   5.713  13.640  1.00  0.00    -0.035 C 
HETATM   18  C26 UNL     1      -0.602   5.811  14.878  1.00  0.00     0.016 C 
HETATM   19  C27 UNL     1      -5.261   5.585  15.091  1.00  0.00     0.022 C 
HETATM   20  C28 UNL     1      -6.061   6.162  16.269  1.00  0.00     0.015 C 
ENDROOT
BRANCH   1  21
HETATM   21  C4  UNL     1      -8.095   6.854  13.988  1.00  0.00     0.283 C 
HETATM   22  O2  UNL     1      -7.878   7.848  14.666  1.00  0.00    -0.260 OA
BRANCH  21  23
HETATM   23  O1  UNL     1      -9.226   6.119  13.949  1.00  0.00    -0.316 OA
BRANCH  23  24
HETATM   24  C3  UNL     1     -10.254   6.600  13.071  1.00  0.00     0.209 C 
BRANCH  24  25
HETATM   25  C2  UNL     1     -11.245   7.461  13.859  1.00  0.00     0.295 C 
BRANCH  25  26
HETATM   26  N1  UNL     1     -11.104   7.369  15.315  1.00  0.00     0.081 N 
HETATM   27  C1  UNL     1     -11.137   8.688  15.952  1.00  0.00     0.306 C 
HETATM   28  H4  UNL     1     -10.197   6.939  15.514  1.00  0.00     0.315 HD
ENDBRANCH  25  26
ENDBRANCH  24  25
ENDBRANCH  23  24
ENDBRANCH  21  23
ENDBRANCH   1  21
BRANCH  14  29
HETATM   29  O4  UNL     1       1.115   7.173  10.495  1.00  0.00    -0.315 OA
BRANCH  29  30
HETATM   30  C18 UNL     1       1.916   6.257   9.876  1.00  0.00     0.262 C 
HETATM   31  O5  UNL     1       1.829   5.042  10.003  1.00  0.00    -0.265 OA
BRANCH  30  32
HETATM   32  C19 UNL     1       2.890   6.970   8.971  1.00  0.00     0.148 C 
BRANCH  32  33
HETATM   33  C20 UNL     1       2.212   7.803   7.870  1.00  0.00     0.059 C 
HETATM   34  C21 UNL     1       0.814   8.301   8.260  1.00  0.00     0.045 C 
HETATM   35  C22 UNL     1       2.099   6.955   6.600  1.00  0.00     0.045 C 
BRANCH  33  36
HETATM   36  O6  UNL     1       3.034   8.920   7.540  1.00  0.00    -0.390 OA
HETATM   37  H34 UNL     1       2.987   9.558   8.283  1.00  0.00     0.210 HD
ENDBRANCH  33  36
ENDBRANCH  32  33
ENDBRANCH  30  32
ENDBRANCH  29  30
ENDBRANCH  14  29
TORSDOF 10
ENDMDL
MODEL 4
REMARK minimizedAffinity -7.89588118
REMARK  10 active torsions:
REMARK  status: ('A' for Active; 'I' for Inactive)
REMARK    1  A    between atoms: N1_2  and  C2_3 
REMARK    2  A    between atoms: C2_3  and  C3_4 
REMARK    3  A    between atoms: C3_4  and  O1_5 
REMARK    4  A    between atoms: O1_5  and  C4_6 
REMARK    5  A    between atoms: C4_6  and  C5_8 
REMARK    6  A    between atoms: C17_21  and  O4_22 
REMARK    7  A    between atoms: O4_22  and  C18_23 
REMARK    8  A    between atoms: C18_23  and  C19_25 
REMARK    9  A    between atoms: C19_25  and  C20_26 
REMARK   10  A    between atoms: C20_26  and  O6_29 
ROOT
HETATM    1  C5  UNL     1      -2.252   8.629  12.666  1.00  0.00     0.085 C 
HETATM    2  C6  UNL     1      -3.004   8.187  13.693  1.00  0.00    -0.070 C 
HETATM    3  C7  UNL     1      -4.300   8.941  13.945  1.00  0.00     0.035 C 
HETATM    4  C8  UNL     1      -4.990   8.538  15.246  1.00  0.00     0.010 C 
HETATM    5  C9  UNL     1      -5.216   7.012  15.430  1.00  0.00     0.006 C 
HETATM    6  C10 UNL     1      -4.045   6.171  14.800  1.00  0.00     0.068 C 
HETATM    7  C11 UNL     1      -4.385   5.495  13.467  1.00  0.00     0.132 C 
HETATM    8  O3  UNL     1      -3.515   5.145  12.670  1.00  0.00    -0.298 OA
HETATM    9  C12 UNL     1      -5.801   5.062  13.202  1.00  0.00     0.085 C 
HETATM   10  C13 UNL     1      -6.818   6.125  13.614  1.00  0.00     0.011 C 
HETATM   11  C14 UNL     1      -8.277   5.831  13.065  1.00  0.00    -0.016 C 
HETATM   12  C15 UNL     1      -8.270   5.982  11.514  1.00  0.00     0.018 C 
HETATM   13  C16 UNL     1      -8.782   4.394  13.341  1.00  0.00     0.018 C 
HETATM   14  C17 UNL     1      -9.276   6.886  13.638  1.00  0.00     0.140 C 
HETATM   15  C23 UNL     1      -9.193   7.000  15.161  1.00  0.00     0.034 C 
HETATM   16  C24 UNL     1      -7.793   7.436  15.566  1.00  0.00     0.012 C 
HETATM   17  C25 UNL     1      -6.678   6.437  15.143  1.00  0.00    -0.035 C 
HETATM   18  C26 UNL     1      -6.812   5.174  16.043  1.00  0.00     0.016 C 
HETATM   19  C27 UNL     1      -2.755   7.043  14.678  1.00  0.00     0.022 C 
HETATM   20  C28 UNL     1      -1.467   6.217  14.558  1.00  0.00     0.015 C 
ENDROOT
BRANCH   1  21
HETATM   21  C4  UNL     1      -0.987   8.118  12.114  1.00  0.00     0.283 C 
HETATM   22  O2  UNL     1      -0.123   7.599  12.806  1.00  0.00    -0.260 OA
BRANCH  21  23
HETATM   23  O1  UNL     1      -0.880   8.512  10.828  1.00  0.00    -0.316 OA
BRANCH  23  24
HETATM   24  C3  UNL     1       0.206   7.936  10.086  1.00  0.00     0.209 C 
BRANCH  24  25
HETATM   25  C2  UNL     1       0.112   8.360   8.618  1.00  0.00     0.295 C 
BRANCH  25  26
HETATM   26  N1  UNL     1       1.380   8.295   7.886  1.00  0.00     0.081 N 
HETATM   27  C1  UNL     1       2.504   7.966   8.767  1.00  0.00     0.306 C 
HETATM   28  H4  UNL     1       1.551   9.216   7.476  1.00  0.00     0.315 HD
ENDBRANCH  25  26
ENDBRANCH  24  25
ENDBRANCH  23  24
ENDBRANCH  21  23
ENDBRANCH   1  21
BRANCH  14  29
HETATM   29  O4  UNL     1     -10.642   6.552  13.315  1.00  0.00    -0.315 OA
BRANCH  29  30
HETATM   30  C18 UNL     1     -11.624   7.230  13.977  1.00  0.00     0.262 C 
HETATM   31  O5  UNL     1     -12.500   6.715  14.662  1.00  0.00    -0.265 OA
BRANCH  30  32
HETATM   32  C19 UNL     1     -11.433   8.714  13.781  1.00  0.00     0.148 C 
BRANCH  32  33
HETATM   33  C20 UNL     1     -12.438   9.339  12.798  1.00  0.00     0.059 C 
HETATM   34  C21 UNL     1     -12.964  10.705  13.254  1.00  0.00     0.045 C 
HETATM   35  C22 UNL     1     -13.624   8.385  12.623  1.00  0.00     0.045 C 
BRANCH  33  36
HETATM   36  O6  UNL     1     -11.833   9.471  11.514  1.00  0.00    -0.390 OA
HETATM   37  H34 UNL     1     -11.177  10.198  11.565  1.00  0.00     0.210 HD
ENDBRANCH  33  36
ENDBRANCH  32  33
ENDBRANCH  30  32
ENDBRANCH  29  30
ENDBRANCH  14  29
TORSDOF 10
ENDMDL
MODEL 5
REMARK minimizedAffinity -7.76124191
REMARK  10 active torsions:
REMARK  status: ('A' for Active; 'I' for Inactive)
REMARK    1  A    between atoms: N1_2  and  C2_3 
REMARK    2  A    between atoms: C2_3  and  C3_4 
REMARK    3  A    between atoms: C3_4  and  O1_5 
REMARK    4  A    between atoms: O1_5  and  C4_6 
REMARK    5  A    between atoms: C4_6  and  C5_8 
REMARK    6  A    between atoms: C17_21  and  O4_22 
REMARK    7  A    between atoms: O4_22  and  C18_23 
REMARK    8  A    between atoms: C18_23  and  C19_25 
REMARK    9  A    between atoms: C19_25  and  C20_26 
REMARK   10  A    between atoms: C20_26  and  O6_29 
ROOT
HETATM    1  C5  UNL     1       7.490   7.822  12.951  1.00  0.00     0.085 C 
HETATM    2  C6  UNL     1       6.572   7.730  11.969  1.00  0.00    -0.070 C 
HETATM    3  C7  UNL     1       5.883   6.383  11.824  1.00  0.00     0.035 C 
HETATM    4  C8  UNL     1       5.025   6.276  10.565  1.00  0.00     0.010 C 
HETATM    5  C9  UNL     1       3.999   7.425  10.364  1.00  0.00     0.006 C 
HETATM    6  C10 UNL     1       4.554   8.799  10.893  1.00  0.00     0.068 C 
HETATM    7  C11 UNL     1       3.964   9.258  12.231  1.00  0.00     0.132 C 
HETATM    8  O3  UNL     1       4.542  10.066  12.958  1.00  0.00    -0.298 OA
HETATM    9  C12 UNL     1       2.554   8.872  12.584  1.00  0.00     0.085 C 
HETATM   10  C13 UNL     1       2.258   7.406  12.267  1.00  0.00     0.011 C 
HETATM   11  C14 UNL     1       0.900   6.896  12.909  1.00  0.00    -0.016 C 
HETATM   12  C15 UNL     1       1.060   6.860  14.458  1.00  0.00     0.018 C 
HETATM   13  C16 UNL     1      -0.315   7.815  12.637  1.00  0.00     0.018 C 
HETATM   14  C17 UNL     1       0.608   5.439  12.430  1.00  0.00     0.140 C 
HETATM   15  C23 UNL     1       0.669   5.303  10.907  1.00  0.00     0.034 C 
HETATM   16  C24 UNL     1       2.062   5.670  10.416  1.00  0.00     0.012 C 
HETATM   17  C25 UNL     1       2.475   7.135  10.739  1.00  0.00    -0.035 C 
HETATM   18  C26 UNL     1       1.635   8.073   9.823  1.00  0.00     0.016 C 
HETATM   19  C27 UNL     1       6.115   8.770  10.945  1.00  0.00     0.022 C 
HETATM   20  C28 UNL     1       6.753  10.167  10.957  1.00  0.00     0.015 C 
ENDROOT
BRANCH   1  21
HETATM   21  C4  UNL     1       8.300   8.965  13.403  1.00  0.00     0.283 C 
HETATM   22  O2  UNL     1       9.435   9.175  12.999  1.00  0.00    -0.260 OA
BRANCH  21  23
HETATM   23  O1  UNL     1       7.676   9.560  14.441  1.00  0.00    -0.316 OA
BRANCH  23  24
HETATM   24  C3  UNL     1       7.427   8.725  15.581  1.00  0.00     0.209 C 
BRANCH  24  25
HETATM   25  C2  UNL     1       8.743   8.439  16.310  1.00  0.00     0.295 C 
BRANCH  25  26
HETATM   26  N1  UNL     1       8.982   9.284  17.484  1.00  0.00     0.081 N 
HETATM   27  C1  UNL     1       9.717  10.504  17.139  1.00  0.00     0.306 C 
HETATM   28  H4  UNL     1       9.546   8.745  18.145  1.00  0.00     0.315 HD
ENDBRANCH  25  26
ENDBRANCH  24  25
ENDBRANCH  23  24
ENDBRANCH  21  23
ENDBRANCH   1  21
BRANCH  14  29
HETATM   29  O4  UNL     1      -0.704   4.999  12.839  1.00  0.00    -0.315 OA
BRANCH  29  30
HETATM   30  C18 UNL     1      -1.420   4.257  11.946  1.00  0.00     0.262 C 
HETATM   31  O5  UNL     1      -2.414   4.644  11.341  1.00  0.00    -0.265 OA
BRANCH  30  32
HETATM   32  C19 UNL     1      -0.772   2.905  11.779  1.00  0.00     0.148 C 
BRANCH  32  33
HETATM   33  C20 UNL     1      -1.608   1.920  10.944  1.00  0.00     0.059 C 
HETATM   34  C21 UNL     1      -2.886   1.456  11.654  1.00  0.00     0.045 C 
HETATM   35  C22 UNL     1      -0.752   0.693  10.614  1.00  0.00     0.045 C 
BRANCH  33  36
HETATM   36  O6  UNL     1      -1.952   2.521   9.698  1.00  0.00    -0.390 OA
HETATM   37  H34 UNL     1      -2.630   3.207   9.873  1.00  0.00     0.210 HD
ENDBRANCH  33  36
ENDBRANCH  32  33
ENDBRANCH  30  32
ENDBRANCH  29  30
ENDBRANCH  14  29
TORSDOF 10
ENDMDL
MODEL 6
REMARK minimizedAffinity -7.75342417
REMARK  10 active torsions:
REMARK  status: ('A' for Active; 'I' for Inactive)
REMARK    1  A    between atoms: N1_2  and  C2_3 
REMARK    2  A    between atoms: C2_3  and  C3_4 
REMARK    3  A    between atoms: C3_4  and  O1_5 
REMARK    4  A    between atoms: O1_5  and  C4_6 
REMARK    5  A    between atoms: C4_6  and  C5_8 
REMARK    6  A    between atoms: C17_21  and  O4_22 
REMARK    7  A    between atoms: O4_22  and  C18_23 
REMARK    8  A    between atoms: C18_23  and  C19_25 
REMARK    9  A    between atoms: C19_25  and  C20_26 
REMARK   10  A    between atoms: C20_26  and  O6_29 
ROOT
HETATM    1  C5  UNL     1      -1.862   8.371  12.175  1.00  0.00     0.085 C 
HETATM    2  C6  UNL     1      -2.586   8.143  13.289  1.00  0.00    -0.070 C 
HETATM    3  C7  UNL     1      -3.928   8.852  13.369  1.00  0.00     0.035 C 
HETATM    4  C8  UNL     1      -4.593   8.732  14.738  1.00  0.00     0.010 C 
HETATM    5  C9  UNL     1      -4.721   7.284  15.287  1.00  0.00     0.006 C 
HETATM    6  C10 UNL     1      -3.498   6.392  14.862  1.00  0.00     0.068 C 
HETATM    7  C11 UNL     1      -3.790   5.394  13.736  1.00  0.00     0.132 C 
HETATM    8  O3  UNL     1      -2.898   4.918  13.034  1.00  0.00    -0.298 OA
HETATM    9  C12 UNL     1      -5.175   4.822  13.601  1.00  0.00     0.085 C 
HETATM   10  C13 UNL     1      -6.260   5.887  13.759  1.00  0.00     0.011 C 
HETATM   11  C14 UNL     1      -7.695   5.378  13.317  1.00  0.00    -0.016 C 
HETATM   12  C15 UNL     1      -7.694   5.151  11.775  1.00  0.00     0.018 C 
HETATM   13  C16 UNL     1      -8.108   4.021  13.937  1.00  0.00     0.018 C 
HETATM   14  C17 UNL     1      -8.761   6.475  13.632  1.00  0.00     0.140 C 
HETATM   15  C23 UNL     1      -8.689   6.958  15.082  1.00  0.00     0.034 C 
HETATM   16  C24 UNL     1      -7.320   7.566  15.352  1.00  0.00     0.012 C 
HETATM   17  C25 UNL     1      -6.142   6.566  15.166  1.00  0.00    -0.035 C 
HETATM   18  C26 UNL     1      -6.197   5.552  16.345  1.00  0.00     0.016 C 
HETATM   19  C27 UNL     1      -2.266   7.288  14.516  1.00  0.00     0.022 C 
HETATM   20  C28 UNL     1      -0.927   6.539  14.582  1.00  0.00     0.015 C 
ENDROOT
BRANCH   1  21
HETATM   21  C4  UNL     1      -0.565   7.822  11.746  1.00  0.00     0.283 C 
HETATM   22  O2  UNL     1      -0.450   6.722  11.223  1.00  0.00    -0.260 OA
BRANCH  21  23
HETATM   23  O1  UNL     1       0.422   8.613  12.216  1.00  0.00    -0.316 OA
BRANCH  23  24
HETATM   24  C3  UNL     1       1.739   8.330  11.720  1.00  0.00     0.209 C 
BRANCH  24  25
HETATM   25  C2  UNL     1       2.329   7.135  12.473  1.00  0.00     0.295 C 
BRANCH  25  26
HETATM   26  N1  UNL     1       3.657   7.374  13.045  1.00  0.00     0.081 N 
HETATM   27  C1  UNL     1       4.723   7.146  12.065  1.00  0.00     0.306 C 
HETATM   28  H4  UNL     1       3.786   6.718  13.818  1.00  0.00     0.315 HD
ENDBRANCH  25  26
ENDBRANCH  24  25
ENDBRANCH  23  24
ENDBRANCH  21  23
ENDBRANCH   1  21
BRANCH  14  29
HETATM   29  O4  UNL     1     -10.102   5.988  13.418  1.00  0.00    -0.315 OA
BRANCH  29  30
HETATM   30  C18 UNL     1     -11.127   6.862  13.639  1.00  0.00     0.262 C 
HETATM   31  O5  UNL     1     -11.723   6.998  14.701  1.00  0.00    -0.265 OA
BRANCH  30  32
HETATM   32  C19 UNL     1     -11.377   7.672  12.391  1.00  0.00     0.148 C 
BRANCH  32  33
HETATM   33  C20 UNL     1     -11.964   9.066  12.669  1.00  0.00     0.059 C 
HETATM   34  C21 UNL     1     -11.221   9.828  13.773  1.00  0.00     0.045 C 
HETATM   35  C22 UNL     1     -13.434   8.917  13.073  1.00  0.00     0.045 C 
BRANCH  33  36
HETATM   36  O6  UNL     1     -11.950   9.839  11.471  1.00  0.00    -0.390 OA
HETATM   37  H34 UNL     1     -11.020  10.086  11.284  1.00  0.00     0.210 HD
ENDBRANCH  33  36
ENDBRANCH  32  33
ENDBRANCH  30  32
ENDBRANCH  29  30
ENDBRANCH  14  29
TORSDOF 10
ENDMDL
MODEL 7
REMARK minimizedAffinity -7.6800456
REMARK  10 active torsions:
REMARK  status: ('A' for Active; 'I' for Inactive)
REMARK    1  A    between atoms: N1_2  and  C2_3 
REMARK    2  A    between atoms: C2_3  and  C3_4 
REMARK    3  A    between atoms: C3_4  and  O1_5 
REMARK    4  A    between atoms: O1_5  and  C4_6 
REMARK    5  A    between atoms: C4_6  and  C5_8 
REMARK    6  A    between atoms: C17_21  and  O4_22 
REMARK    7  A    between atoms: O4_22  and  C18_23 
REMARK    8  A    between atoms: C18_23  and  C19_25 
REMARK    9  A    between atoms: C19_25  and  C20_26 
REMARK   10  A    between atoms: C20_26  and  O6_29 
ROOT
HETATM    1  C5  UNL     1       1.363   7.509   9.511  1.00  0.00     0.085 C 
HETATM    2  C6  UNL     1       0.901   7.925  10.707  1.00  0.00    -0.070 C 
HETATM    3  C7  UNL     1      -0.491   8.535  10.709  1.00  0.00     0.035 C 
HETATM    4  C8  UNL     1      -0.864   9.183  12.040  1.00  0.00     0.010 C 
HETATM    5  C9  UNL     1      -0.674   8.282  13.291  1.00  0.00     0.006 C 
HETATM    6  C10 UNL     1       0.565   7.326  13.136  1.00  0.00     0.068 C 
HETATM    7  C11 UNL     1       0.216   5.865  12.827  1.00  0.00     0.132 C 
HETATM    8  O3  UNL     1       1.021   5.096  12.302  1.00  0.00    -0.298 OA
HETATM    9  C12 UNL     1      -1.071   5.290  13.352  1.00  0.00     0.085 C 
HETATM   10  C13 UNL     1      -2.251   6.245  13.166  1.00  0.00     0.011 C 
HETATM   11  C14 UNL     1      -3.654   5.549  13.420  1.00  0.00    -0.016 C 
HETATM   12  C15 UNL     1      -3.909   4.505  12.292  1.00  0.00     0.018 C 
HETATM   13  C16 UNL     1      -3.740   4.759  14.747  1.00  0.00     0.018 C 
HETATM   14  C17 UNL     1      -4.790   6.618  13.340  1.00  0.00     0.140 C 
HETATM   15  C23 UNL     1      -4.519   7.826  14.239  1.00  0.00     0.034 C 
HETATM   16  C24 UNL     1      -3.228   8.506  13.808  1.00  0.00     0.012 C 
HETATM   17  C25 UNL     1      -1.973   7.592  13.914  1.00  0.00    -0.035 C 
HETATM   18  C26 UNL     1      -1.657   7.403  15.427  1.00  0.00     0.016 C 
HETATM   19  C27 UNL     1       1.566   7.901  12.084  1.00  0.00     0.022 C 
HETATM   20  C28 UNL     1       2.989   7.338  12.221  1.00  0.00     0.015 C 
ENDROOT
BRANCH   1  21
HETATM   21  C4  UNL     1       2.622   6.837   9.150  1.00  0.00     0.283 C 
HETATM   22  O2  UNL     1       3.622   7.447   8.796  1.00  0.00    -0.260 OA
BRANCH  21  23
HETATM   23  O1  UNL     1       2.402   5.508   9.072  1.00  0.00    -0.316 OA
BRANCH  23  24
HETATM   24  C3  UNL     1       3.327   4.679   9.790  1.00  0.00     0.209 C 
BRANCH  24  25
HETATM   25  C2  UNL     1       4.137   3.833   8.803  1.00  0.00     0.295 C 
BRANCH  25  26
HETATM   26  N1  UNL     1       3.824   4.081   7.393  1.00  0.00     0.081 N 
HETATM   27  C1  UNL     1       4.335   3.018   6.524  1.00  0.00     0.306 C 
HETATM   28  H4  UNL     1       4.274   4.960   7.124  1.00  0.00     0.315 HD
ENDBRANCH  25  26
ENDBRANCH  24  25
ENDBRANCH  23  24
ENDBRANCH  21  23
ENDBRANCH   1  21
BRANCH  14  29
HETATM   29  O4  UNL     1      -6.063   6.070  13.744  1.00  0.00    -0.315 OA
BRANCH  29  30
HETATM   30  C18 UNL     1      -6.616   6.558  14.892  1.00  0.00     0.262 C 
HETATM   31  O5  UNL     1      -6.292   6.232  16.028  1.00  0.00    -0.265 OA
BRANCH  30  32
HETATM   32  C19 UNL     1      -7.653   7.599  14.549  1.00  0.00     0.148 C 
BRANCH  32  33
HETATM   33  C20 UNL     1      -9.098   7.081  14.636  1.00  0.00     0.059 C 
HETATM   34  C21 UNL     1      -9.504   6.208  13.443  1.00  0.00     0.045 C 
HETATM   35  C22 UNL     1     -10.053   8.276  14.723  1.00  0.00     0.045 C 
BRANCH  33  36
HETATM   36  O6  UNL     1      -9.268   6.340  15.842  1.00  0.00    -0.390 OA
HETATM   37  H34 UNL     1      -8.793   5.488  15.741  1.00  0.00     0.210 HD
ENDBRANCH  33  36
ENDBRANCH  32  33
ENDBRANCH  30  32
ENDBRANCH  29  30
ENDBRANCH  14  29
TORSDOF 10
ENDMDL
MODEL 8
REMARK minimizedAffinity -7.49995613
REMARK  10 active torsions:
REMARK  status: ('A' for Active; 'I' for Inactive)
REMARK    1  A    between atoms: N1_2  and  C2_3 
REMARK    2  A    between atoms: C2_3  and  C3_4 
REMARK    3  A    between atoms: C3_4  and  O1_5 
REMARK    4  A    between atoms: O1_5  and  C4_6 
REMARK    5  A    between atoms: C4_6  and  C5_8 
REMARK    6  A    between atoms: C17_21  and  O4_22 
REMARK    7  A    between atoms: O4_22  and  C18_23 
REMARK    8  A    between atoms: C18_23  and  C19_25 
REMARK    9  A    between atoms: C19_25  and  C20_26 
REMARK   10  A    between atoms: C20_26  and  O6_29 
ROOT
HETATM    1  C5  UNL     1       7.642   8.054  13.020  1.00  0.00     0.085 C 
HETATM    2  C6  UNL     1       6.725   7.869  12.050  1.00  0.00    -0.070 C 
HETATM    3  C7  UNL     1       6.061   6.502  12.012  1.00  0.00     0.035 C 
HETATM    4  C8  UNL     1       5.205   6.281  10.767  1.00  0.00     0.010 C 
HETATM    5  C9  UNL     1       4.157   7.392  10.480  1.00  0.00     0.006 C 
HETATM    6  C10 UNL     1       4.687   8.812  10.899  1.00  0.00     0.068 C 
HETATM    7  C11 UNL     1       4.089   9.363  12.199  1.00  0.00     0.132 C 
HETATM    8  O3  UNL     1       4.651  10.236  12.860  1.00  0.00    -0.298 OA
HETATM    9  C12 UNL     1       2.686   8.979  12.584  1.00  0.00     0.085 C 
HETATM   10  C13 UNL     1       2.418   7.487  12.382  1.00  0.00     0.011 C 
HETATM   11  C14 UNL     1       1.071   7.004  13.065  1.00  0.00    -0.016 C 
HETATM   12  C15 UNL     1       1.233   7.091  14.612  1.00  0.00     0.018 C 
HETATM   13  C16 UNL     1      -0.162   7.875  12.725  1.00  0.00     0.018 C 
HETATM   14  C17 UNL     1       0.806   5.508  12.701  1.00  0.00     0.140 C 
HETATM   15  C23 UNL     1       0.868   5.256  11.193  1.00  0.00     0.034 C 
HETATM   16  C24 UNL     1       2.253   5.609  10.672  1.00  0.00     0.012 C 
HETATM   17  C25 UNL     1       2.639   7.103  10.880  1.00  0.00    -0.035 C 
HETATM   18  C26 UNL     1       1.781   7.950   9.895  1.00  0.00     0.016 C 
HETATM   19  C27 UNL     1       6.248   8.817  10.950  1.00  0.00     0.022 C 
HETATM   20  C28 UNL     1       6.859  10.222  10.852  1.00  0.00     0.015 C 
ENDROOT
BRANCH   1  21
HETATM   21  C4  UNL     1       8.430   9.244  13.380  1.00  0.00     0.283 C 
HETATM   22  O2  UNL     1       9.525   9.487  12.892  1.00  0.00    -0.260 OA
BRANCH  21  23
HETATM   23  O1  UNL     1       7.854   9.846  14.442  1.00  0.00    -0.316 OA
BRANCH  23  24
HETATM   24  C3  UNL     1       7.782   9.061  15.641  1.00  0.00     0.209 C 
BRANCH  24  25
HETATM   25  C2  UNL     1       9.193   8.680  16.095  1.00  0.00     0.295 C 
BRANCH  25  26
HETATM   26  N1  UNL     1       9.581   9.231  17.398  1.00  0.00     0.081 N 
HETATM   27  C1  UNL     1       9.918  10.655  17.310  1.00  0.00     0.306 C 
HETATM   28  H4  UNL     1      10.410   8.724  17.716  1.00  0.00     0.315 HD
ENDBRANCH  25  26
ENDBRANCH  24  25
ENDBRANCH  23  24
ENDBRANCH  21  23
ENDBRANCH   1  21
BRANCH  14  29
HETATM   29  O4  UNL     1      -0.497   5.077  13.146  1.00  0.00    -0.315 OA
BRANCH  29  30
HETATM   30  C18 UNL     1      -1.212   4.278  12.303  1.00  0.00     0.262 C 
HETATM   31  O5  UNL     1      -0.811   3.229  11.811  1.00  0.00    -0.265 OA
BRANCH  30  32
HETATM   32  C19 UNL     1      -2.592   4.858  12.108  1.00  0.00     0.148 C 
BRANCH  32  33
HETATM   33  C20 UNL     1      -3.666   3.801  11.800  1.00  0.00     0.059 C 
HETATM   34  C21 UNL     1      -3.844   3.535  10.300  1.00  0.00     0.045 C 
HETATM   35  C22 UNL     1      -5.005   4.264  12.383  1.00  0.00     0.045 C 
BRANCH  33  36
HETATM   36  O6  UNL     1      -3.338   2.580  12.459  1.00  0.00    -0.390 OA
HETATM   37  H34 UNL     1      -2.575   2.181  11.991  1.00  0.00     0.210 HD
ENDBRANCH  33  36
ENDBRANCH  32  33
ENDBRANCH  30  32
ENDBRANCH  29  30
ENDBRANCH  14  29
TORSDOF 10
ENDMDL
MODEL 9
REMARK minimizedAffinity -7.45397234
REMARK  10 active torsions:
REMARK  status: ('A' for Active; 'I' for Inactive)
REMARK    1  A    between atoms: N1_2  and  C2_3 
REMARK    2  A    between atoms: C2_3  and  C3_4 
REMARK    3  A    between atoms: C3_4  and  O1_5 
REMARK    4  A    between atoms: O1_5  and  C4_6 
REMARK    5  A    between atoms: C4_6  and  C5_8 
REMARK    6  A    between atoms: C17_21  and  O4_22 
REMARK    7  A    between atoms: O4_22  and  C18_23 
REMARK    8  A    between atoms: C18_23  and  C19_25 
REMARK    9  A    between atoms: C19_25  and  C20_26 
REMARK   10  A    between atoms: C20_26  and  O6_29 
ROOT
HETATM    1  C5  UNL     1      -5.950   5.174  12.964  1.00  0.00     0.085 C 
HETATM    2  C6  UNL     1      -5.014   5.451  13.893  1.00  0.00    -0.070 C 
HETATM    3  C7  UNL     1      -3.640   4.846  13.659  1.00  0.00     0.035 C 
HETATM    4  C8  UNL     1      -2.696   5.010  14.847  1.00  0.00     0.010 C 
HETATM    5  C9  UNL     1      -2.555   6.461  15.384  1.00  0.00     0.006 C 
HETATM    6  C10 UNL     1      -3.904   7.260  15.261  1.00  0.00     0.068 C 
HETATM    7  C11 UNL     1      -3.945   8.282  14.119  1.00  0.00     0.132 C 
HETATM    8  O3  UNL     1      -5.003   8.691  13.644  1.00  0.00    -0.298 OA
HETATM    9  C12 UNL     1      -2.670   8.958  13.692  1.00  0.00     0.085 C 
HETATM   10  C13 UNL     1      -1.503   7.977  13.582  1.00  0.00     0.011 C 
HETATM   11  C14 UNL     1      -0.243   8.596  12.842  1.00  0.00    -0.016 C 
HETATM   12  C15 UNL     1      -0.605   8.828  11.344  1.00  0.00     0.018 C 
HETATM   13  C16 UNL     1       0.197   9.977  13.383  1.00  0.00     0.018 C 
HETATM   14  C17 UNL     1       0.943   7.582  12.889  1.00  0.00     0.140 C 
HETATM   15  C23 UNL     1       1.232   7.089  14.309  1.00  0.00     0.034 C 
HETATM   16  C24 UNL     1       0.006   6.377  14.863  1.00  0.00     0.012 C 
HETATM   17  C25 UNL     1      -1.253   7.286  14.965  1.00  0.00    -0.035 C 
HETATM   18  C26 UNL     1      -1.010   8.296  16.124  1.00  0.00     0.016 C 
HETATM   19  C27 UNL     1      -5.113   6.274  15.179  1.00  0.00     0.022 C 
HETATM   20  C28 UNL     1      -6.455   6.919  15.556  1.00  0.00     0.015 C 
ENDROOT
BRANCH   1  21
HETATM   21  C4  UNL     1      -7.346   5.624  12.846  1.00  0.00     0.283 C 
HETATM   22  O2  UNL     1      -7.788   6.586  13.458  1.00  0.00    -0.260 OA
BRANCH  21  23
HETATM   23  O1  UNL     1      -8.047   4.699  12.157  1.00  0.00    -0.316 OA
BRANCH  23  24
HETATM   24  C3  UNL     1      -8.577   3.613  12.932  1.00  0.00     0.209 C 
BRANCH  24  25
HETATM   25  C2  UNL     1      -7.471   2.594  13.218  1.00  0.00     0.295 C 
BRANCH  25  26
HETATM   26  N1  UNL     1      -7.371   1.515  12.230  1.00  0.00     0.081 N 
HETATM   27  C1  UNL     1      -6.157   1.628  11.418  1.00  0.00     0.306 C 
HETATM   28  H4  UNL     1      -8.181   1.585  11.609  1.00  0.00     0.315 HD
ENDBRANCH  25  26
ENDBRANCH  24  25
ENDBRANCH  23  24
ENDBRANCH  21  23
ENDBRANCH   1  21
BRANCH  14  29
HETATM   29  O4  UNL     1       2.163   8.170  12.392  1.00  0.00    -0.315 OA
BRANCH  29  30
HETATM   30  C18 UNL     1       3.195   7.323  12.111  1.00  0.00     0.262 C 
HETATM   31  O5  UNL     1       4.338   7.433  12.540  1.00  0.00    -0.265 OA
BRANCH  30  32
HETATM   32  C19 UNL     1       2.701   6.200  11.233  1.00  0.00     0.148 C 
BRANCH  32  33
HETATM   33  C20 UNL     1       3.094   6.356   9.754  1.00  0.00     0.059 C 
HETATM   34  C21 UNL     1       1.977   6.952   8.888  1.00  0.00     0.045 C 
HETATM   35  C22 UNL     1       3.478   4.984   9.191  1.00  0.00     0.045 C 
BRANCH  33  36
HETATM   36  O6  UNL     1       4.256   7.175   9.652  1.00  0.00    -0.390 OA
HETATM   37  H34 UNL     1       3.992   8.098   9.851  1.00  0.00     0.210 HD
ENDBRANCH  33  36
ENDBRANCH  32  33
ENDBRANCH  30  32
ENDBRANCH  29  30
ENDBRANCH  14  29
TORSDOF 10
ENDMDL
