MODEL 1
REMARK minimizedAffinity -9.29264736
REMARK  8 active torsions:
REMARK  status: ('A' for Active; 'I' for Inactive)
REMARK    1  A    between atoms: O1_2  and  C2_3 
REMARK    2  A    between atoms: C2_3  and  C5_6 
REMARK    3  A    between atoms: C6_7  and  C7_8 
REMARK    4  A    between atoms: C7_8  and  C8_9 
REMARK    5  A    between atoms: C8_9  and  C10_11 
REMARK    6  A    between atoms: C16_17  and  O2_18 
REMARK    7  A    between atoms: C19_21  and  C21_23 
REMARK    8  A    between atoms: C21_23  and  O3_24 
ROOT
HETATM    1  C10 UNL     1       0.105   8.300  14.242  1.00  0.00    -0.002 C 
HETATM    2  C11 UNL     1       0.043   6.979  14.986  1.00  0.00     0.006 C 
HETATM    3  C12 UNL     1      -1.169   7.138  15.893  1.00  0.00     0.011 C 
HETATM    4  C13 UNL     1      -2.166   8.147  15.207  1.00  0.00    -0.030 C 
HETATM    5  C14 UNL     1      -2.421   9.263  16.250  1.00  0.00     0.016 C 
HETATM    6  C15 UNL     1      -3.518   7.402  14.912  1.00  0.00     0.032 C 
HETATM    7  C16 UNL     1      -4.792   8.248  14.635  1.00  0.00     0.124 C 
HETATM    8  C17 UNL     1      -5.958   7.461  14.002  1.00  0.00     0.038 C 
HETATM    9  C18 UNL     1      -5.902   5.937  14.231  1.00  0.00     0.015 C 
HETATM   10  C19 UNL     1      -7.205   5.210  13.746  1.00  0.00     0.042 C 
HETATM   11  C20 UNL     1      -7.870   5.824  12.492  1.00  0.00     0.026 C 
HETATM   12  C22 UNL     1      -6.903   3.751  13.406  1.00  0.00     0.137 C 
HETATM   13  O4  UNL     1      -7.654   2.832  13.758  1.00  0.00    -0.297 OA
HETATM   14  C23 UNL     1      -5.700   3.439  12.543  1.00  0.00     0.080 C 
HETATM   15  C24 UNL     1      -4.802   4.643  12.301  1.00  0.00     0.018 C 
HETATM   16  C25 UNL     1      -4.609   5.407  13.586  1.00  0.00    -0.026 A 
HETATM   17  C26 UNL     1      -3.488   4.876  14.442  1.00  0.00     0.021 A 
HETATM   18  C27 UNL     1      -3.369   6.280  13.874  1.00  0.00    -0.025 A 
HETATM   19  C28 UNL     1      -2.392   6.537  12.748  1.00  0.00     0.011 C 
HETATM   20  C29 UNL     1      -1.954   7.991  12.632  1.00  0.00     0.011 C 
HETATM   21  C30 UNL     1      -1.392   8.651  13.918  1.00  0.00    -0.032 C 
HETATM   22  C31 UNL     1      -1.451  10.186  13.691  1.00  0.00     0.016 C 
ENDROOT
BRANCH   1  23
HETATM   23  C8  UNL     1       1.132   8.383  13.073  1.00  0.00    -0.010 C 
HETATM   24  C9  UNL     1       2.112   9.561  13.152  1.00  0.00     0.010 C 
BRANCH  23  25
HETATM   25  C7  UNL     1       0.431   8.453  11.692  1.00  0.00     0.031 C 
BRANCH  25  26
HETATM   26  C6  UNL     1       1.391   8.401  10.536  1.00  0.00    -0.027 C 
HETATM   27  C5  UNL     1       2.071   7.296  10.174  1.00  0.00     0.006 C 
BRANCH  27  28
HETATM   28  C2  UNL     1       3.079   7.178   9.044  1.00  0.00     0.070 C 
HETATM   29  C3  UNL     1       2.810   5.853   8.316  1.00  0.00     0.050 C 
HETATM   30  C4  UNL     1       2.869   8.371   8.100  1.00  0.00     0.050 C 
BRANCH  28  31
HETATM   31  O1  UNL     1       4.393   7.192   9.616  1.00  0.00    -0.382 OA
HETATM   32  C1  UNL     1       4.601   6.421  10.787  1.00  0.00     0.202 C 
ENDBRANCH  28  31
ENDBRANCH  27  28
ENDBRANCH  25  26
ENDBRANCH  23  25
ENDBRANCH   1  23
BRANCH   7  33
HETATM   33  O2  UNL     1      -4.538   9.377  13.804  1.00  0.00    -0.395 OA
HETATM   34  H28 UNL     1      -5.345   9.920  13.786  1.00  0.00     0.210 HD
ENDBRANCH   7  33
BRANCH  10  35
HETATM   35  C21 UNL     1      -8.280   5.250  14.862  1.00  0.00     0.181 C 
BRANCH  35  36
HETATM   36  O3  UNL     1      -7.904   4.483  15.997  1.00  0.00    -0.400 OA
HETATM   37  H37 UNL     1      -8.336   3.609  15.902  1.00  0.00     0.209 HD
ENDBRANCH  35  36
ENDBRANCH  10  35
TORSDOF 8
ENDMDL
MODEL 2
REMARK minimizedAffinity -9.12092113
REMARK  8 active torsions:
REMARK  status: ('A' for Active; 'I' for Inactive)
REMARK    1  A    between atoms: O1_2  and  C2_3 
REMARK    2  A    between atoms: C2_3  and  C5_6 
REMARK    3  A    between atoms: C6_7  and  C7_8 
REMARK    4  A    between atoms: C7_8  and  C8_9 
REMARK    5  A    between atoms: C8_9  and  C10_11 
REMARK    6  A    between atoms: C16_17  and  O2_18 
REMARK    7  A    between atoms: C19_21  and  C21_23 
REMARK    8  A    between atoms: C21_23  and  O3_24 
ROOT
HETATM    1  C10 UNL     1       0.005   8.684  14.597  1.00  0.00    -0.002 C 
HETATM    2  C11 UNL     1      -0.027   7.350  15.320  1.00  0.00     0.006 C 
HETATM    3  C12 UNL     1      -1.275   7.445  16.186  1.00  0.00     0.011 C 
HETATM    4  C13 UNL     1      -2.290   8.421  15.479  1.00  0.00    -0.030 C 
HETATM    5  C14 UNL     1      -2.627   9.510  16.528  1.00  0.00     0.016 C 
HETATM    6  C15 UNL     1      -3.597   7.625  15.126  1.00  0.00     0.032 C 
HETATM    7  C16 UNL     1      -4.896   8.421  14.816  1.00  0.00     0.124 C 
HETATM    8  C17 UNL     1      -6.004   7.595  14.131  1.00  0.00     0.038 C 
HETATM    9  C18 UNL     1      -5.892   6.072  14.341  1.00  0.00     0.015 C 
HETATM   10  C19 UNL     1      -7.146   5.299  13.800  1.00  0.00     0.042 C 
HETATM   11  C20 UNL     1      -7.792   5.903  12.532  1.00  0.00     0.026 C 
HETATM   12  C22 UNL     1      -6.770   3.858  13.451  1.00  0.00     0.137 C 
HETATM   13  O4  UNL     1      -7.493   2.904  13.764  1.00  0.00    -0.297 OA
HETATM   14  C23 UNL     1      -5.526   3.610  12.627  1.00  0.00     0.080 C 
HETATM   15  C24 UNL     1      -4.672   4.854  12.433  1.00  0.00     0.018 C 
HETATM   16  C25 UNL     1      -4.557   5.607  13.735  1.00  0.00    -0.026 A 
HETATM   17  C26 UNL     1      -3.444   5.110  14.623  1.00  0.00     0.021 A 
HETATM   18  C27 UNL     1      -3.365   6.526  14.078  1.00  0.00    -0.025 A 
HETATM   19  C28 UNL     1      -2.361   6.841  12.992  1.00  0.00     0.011 C 
HETATM   20  C29 UNL     1      -1.981   8.314  12.911  1.00  0.00     0.011 C 
HETATM   21  C30 UNL     1      -1.493   8.977  14.225  1.00  0.00    -0.032 C 
HETATM   22  C31 UNL     1      -1.610  10.512  14.018  1.00  0.00     0.016 C 
ENDROOT
BRANCH   1  23
HETATM   23  C8  UNL     1       1.068   8.828  13.467  1.00  0.00    -0.010 C 
HETATM   24  C9  UNL     1       0.518   8.717  12.039  1.00  0.00     0.010 C 
BRANCH  23  25
HETATM   25  C7  UNL     1       2.206   7.783  13.608  1.00  0.00     0.031 C 
BRANCH  25  26
HETATM   26  C6  UNL     1       3.203   7.837  12.485  1.00  0.00    -0.027 C 
HETATM   27  C5  UNL     1       3.392   6.840  11.599  1.00  0.00     0.006 C 
BRANCH  27  28
HETATM   28  C2  UNL     1       4.400   6.810  10.465  1.00  0.00     0.070 C 
HETATM   29  C3  UNL     1       4.341   8.169   9.751  1.00  0.00     0.050 C 
HETATM   30  C4  UNL     1       5.789   6.577  11.077  1.00  0.00     0.050 C 
BRANCH  28  31
HETATM   31  O1  UNL     1       4.038   5.746   9.574  1.00  0.00    -0.382 OA
HETATM   32  C1  UNL     1       2.965   5.984   8.680  1.00  0.00     0.202 C 
ENDBRANCH  28  31
ENDBRANCH  27  28
ENDBRANCH  25  26
ENDBRANCH  23  25
ENDBRANCH   1  23
BRANCH   7  33
HETATM   33  O2  UNL     1      -4.661   9.572  14.010  1.00  0.00    -0.395 OA
HETATM   34  H28 UNL     1      -5.490  10.081  13.971  1.00  0.00     0.210 HD
ENDBRANCH   7  33
BRANCH  10  35
HETATM   35  C21 UNL     1      -8.259   5.276  14.878  1.00  0.00     0.181 C 
BRANCH  35  36
HETATM   36  O3  UNL     1      -7.880   4.531  16.026  1.00  0.00    -0.400 OA
HETATM   37  H37 UNL     1      -8.258   3.633  15.918  1.00  0.00     0.209 HD
ENDBRANCH  35  36
ENDBRANCH  10  35
TORSDOF 8
ENDMDL
MODEL 3
REMARK minimizedAffinity -8.98185062
REMARK  8 active torsions:
REMARK  status: ('A' for Active; 'I' for Inactive)
REMARK    1  A    between atoms: O1_2  and  C2_3 
REMARK    2  A    between atoms: C2_3  and  C5_6 
REMARK    3  A    between atoms: C6_7  and  C7_8 
REMARK    4  A    between atoms: C7_8  and  C8_9 
REMARK    5  A    between atoms: C8_9  and  C10_11 
REMARK    6  A    between atoms: C16_17  and  O2_18 
REMARK    7  A    between atoms: C19_21  and  C21_23 
REMARK    8  A    between atoms: C21_23  and  O3_24 
ROOT
HETATM    1  C10 UNL     1      -0.500   9.268  14.306  1.00  0.00    -0.002 C 
HETATM    2  C11 UNL     1      -1.472  10.004  13.403  1.00  0.00     0.006 C 
HETATM    3  C12 UNL     1      -1.923   8.934  12.419  1.00  0.00     0.011 C 
HETATM    4  C13 UNL     1      -1.815   7.533  13.132  1.00  0.00    -0.030 C 
HETATM    5  C14 UNL     1      -0.921   6.661  12.216  1.00  0.00     0.016 C 
HETATM    6  C15 UNL     1      -3.247   6.893  13.213  1.00  0.00     0.032 C 
HETATM    7  C16 UNL     1      -3.369   5.366  13.479  1.00  0.00     0.124 C 
HETATM    8  C17 UNL     1      -4.776   4.901  13.905  1.00  0.00     0.038 C 
HETATM    9  C18 UNL     1      -5.918   5.853  13.496  1.00  0.00     0.015 C 
HETATM   10  C19 UNL     1      -7.336   5.241  13.771  1.00  0.00     0.042 C 
HETATM   11  C20 UNL     1      -7.431   4.345  15.028  1.00  0.00     0.026 C 
HETATM   12  C22 UNL     1      -8.367   6.355  13.955  1.00  0.00     0.137 C 
HETATM   13  O4  UNL     1      -9.486   6.299  13.428  1.00  0.00    -0.297 OA
HETATM   14  C23 UNL     1      -8.036   7.509  14.876  1.00  0.00     0.080 C 
HETATM   15  C24 UNL     1      -6.588   7.513  15.342  1.00  0.00     0.018 C 
HETATM   16  C25 UNL     1      -5.674   7.209  14.182  1.00  0.00    -0.026 A 
HETATM   17  C26 UNL     1      -5.305   8.423  13.370  1.00  0.00     0.021 A 
HETATM   18  C27 UNL     1      -4.207   7.684  14.115  1.00  0.00    -0.025 A 
HETATM   19  C28 UNL     1      -3.596   8.318  15.346  1.00  0.00     0.011 C 
HETATM   20  C29 UNL     1      -2.202   7.803  15.677  1.00  0.00     0.011 C 
HETATM   21  C30 UNL     1      -1.153   7.858  14.537  1.00  0.00    -0.032 C 
HETATM   22  C31 UNL     1      -0.004   6.895  14.944  1.00  0.00     0.016 C 
ENDROOT
BRANCH   1  23
HETATM   23  C8  UNL     1      -0.005  10.046  15.561  1.00  0.00    -0.010 C 
HETATM   24  C9  UNL     1      -0.666  11.414  15.781  1.00  0.00     0.010 C 
BRANCH  23  25
HETATM   25  C7  UNL     1       1.529  10.271  15.533  1.00  0.00     0.031 C 
BRANCH  25  26
HETATM   26  C6  UNL     1       2.092  10.687  16.864  1.00  0.00    -0.027 C 
HETATM   27  C5  UNL     1       1.554  10.341  18.049  1.00  0.00     0.006 C 
BRANCH  27  28
HETATM   28  C2  UNL     1       2.045  10.751  19.425  1.00  0.00     0.070 C 
HETATM   29  C3  UNL     1       2.995  11.945  19.246  1.00  0.00     0.050 C 
HETATM   30  C4  UNL     1       0.821  11.151  20.262  1.00  0.00     0.050 C 
BRANCH  28  31
HETATM   31  O1  UNL     1       2.730   9.634  20.006  1.00  0.00    -0.382 OA
HETATM   32  C1  UNL     1       2.631   9.468  21.410  1.00  0.00     0.202 C 
ENDBRANCH  28  31
ENDBRANCH  27  28
ENDBRANCH  25  26
ENDBRANCH  23  25
ENDBRANCH   1  23
BRANCH   7  33
HETATM   33  O2  UNL     1      -2.448   4.899  14.461  1.00  0.00    -0.395 OA
HETATM   34  H28 UNL     1      -2.497   3.928  14.474  1.00  0.00     0.210 HD
ENDBRANCH   7  33
BRANCH  10  35
HETATM   35  C21 UNL     1      -7.770   4.353  12.578  1.00  0.00     0.181 C 
BRANCH  35  36
HETATM   36  O3  UNL     1      -8.691   3.344  12.967  1.00  0.00    -0.400 OA
HETATM   37  H37 UNL     1      -8.169   2.527  13.113  1.00  0.00     0.209 HD
ENDBRANCH  35  36
ENDBRANCH  10  35
TORSDOF 8
ENDMDL
MODEL 4
REMARK minimizedAffinity -8.72406864
REMARK  8 active torsions:
REMARK  status: ('A' for Active; 'I' for Inactive)
REMARK    1  A    between atoms: O1_2  and  C2_3 
REMARK    2  A    between atoms: C2_3  and  C5_6 
REMARK    3  A    between atoms: C6_7  and  C7_8 
REMARK    4  A    between atoms: C7_8  and  C8_9 
REMARK    5  A    between atoms: C8_9  and  C10_11 
REMARK    6  A    between atoms: C16_17  and  O2_18 
REMARK    7  A    between atoms: C19_21  and  C21_23 
REMARK    8  A    between atoms: C21_23  and  O3_24 
ROOT
HETATM    1  C10 UNL     1       0.166   8.057  13.656  1.00  0.00    -0.002 C 
HETATM    2  C11 UNL     1      -0.747   9.098  13.035  1.00  0.00     0.006 C 
HETATM    3  C12 UNL     1      -1.547   8.304  12.012  1.00  0.00     0.011 C 
HETATM    4  C13 UNL     1      -1.637   6.812  12.509  1.00  0.00    -0.030 C 
HETATM    5  C14 UNL     1      -1.086   5.946  11.349  1.00  0.00     0.016 C 
HETATM    6  C15 UNL     1      -3.146   6.447  12.750  1.00  0.00     0.032 C 
HETATM    7  C16 UNL     1      -3.549   4.948  12.833  1.00  0.00     0.124 C 
HETATM    8  C17 UNL     1      -4.948   4.693  13.429  1.00  0.00     0.038 C 
HETATM    9  C18 UNL     1      -5.909   5.896  13.348  1.00  0.00     0.015 C 
HETATM   10  C19 UNL     1      -7.371   5.525  13.779  1.00  0.00     0.042 C 
HETATM   11  C20 UNL     1      -7.475   4.472  14.907  1.00  0.00     0.026 C 
HETATM   12  C22 UNL     1      -8.108   6.768  14.278  1.00  0.00     0.137 C 
HETATM   13  O4  UNL     1      -9.276   7.009  13.946  1.00  0.00    -0.297 OA
HETATM   14  C23 UNL     1      -7.415   7.676  15.270  1.00  0.00     0.080 C 
HETATM   15  C24 UNL     1      -5.948   7.333  15.480  1.00  0.00     0.018 C 
HETATM   16  C25 UNL     1      -5.290   7.053  14.151  1.00  0.00    -0.026 A 
HETATM   17  C26 UNL     1      -4.792   8.291  13.452  1.00  0.00     0.021 A 
HETATM   18  C27 UNL     1      -3.781   7.249  13.897  1.00  0.00    -0.025 A 
HETATM   19  C28 UNL     1      -2.883   7.550  15.077  1.00  0.00     0.011 C 
HETATM   20  C29 UNL     1      -1.596   6.736  15.097  1.00  0.00     0.011 C 
HETATM   21  C30 UNL     1      -0.730   6.776  13.811  1.00  0.00    -0.032 C 
HETATM   22  C31 UNL     1       0.235   5.562  13.888  1.00  0.00     0.016 C 
ENDROOT
BRANCH   1  23
HETATM   23  C8  UNL     1       0.986   8.516  14.899  1.00  0.00    -0.010 C 
HETATM   24  C9  UNL     1       0.515   9.828  15.540  1.00  0.00     0.010 C 
BRANCH  23  25
HETATM   25  C7  UNL     1       2.493   8.675  14.569  1.00  0.00     0.031 C 
BRANCH  25  26
HETATM   26  C6  UNL     1       2.974   7.715  13.517  1.00  0.00    -0.027 C 
HETATM   27  C5  UNL     1       3.605   8.092  12.388  1.00  0.00     0.006 C 
BRANCH  27  28
HETATM   28  C2  UNL     1       4.086   7.186  11.269  1.00  0.00     0.070 C 
HETATM   29  C3  UNL     1       4.131   8.019   9.980  1.00  0.00     0.050 C 
HETATM   30  C4  UNL     1       5.489   6.684  11.641  1.00  0.00     0.050 C 
BRANCH  28  31
HETATM   31  O1  UNL     1       3.160   6.099  11.146  1.00  0.00    -0.382 OA
HETATM   32  C1  UNL     1       3.026   5.501   9.868  1.00  0.00     0.202 C 
ENDBRANCH  28  31
ENDBRANCH  27  28
ENDBRANCH  25  26
ENDBRANCH  23  25
ENDBRANCH   1  23
BRANCH   7  33
HETATM   33  O2  UNL     1      -2.619   4.165  13.575  1.00  0.00    -0.395 OA
HETATM   34  H28 UNL     1      -2.868   3.230  13.470  1.00  0.00     0.210 HD
ENDBRANCH   7  33
BRANCH  10  35
HETATM   35  C21 UNL     1      -8.146   4.938  12.573  1.00  0.00     0.181 C 
BRANCH  35  36
HETATM   36  O3  UNL     1      -8.766   3.698  12.885  1.00  0.00    -0.400 OA
HETATM   37  H37 UNL     1      -8.161   2.994  12.570  1.00  0.00     0.209 HD
ENDBRANCH  35  36
ENDBRANCH  10  35
TORSDOF 8
ENDMDL
MODEL 5
REMARK minimizedAffinity -8.56444836
REMARK  8 active torsions:
REMARK  status: ('A' for Active; 'I' for Inactive)
REMARK    1  A    between atoms: O1_2  and  C2_3 
REMARK    2  A    between atoms: C2_3  and  C5_6 
REMARK    3  A    between atoms: C6_7  and  C7_8 
REMARK    4  A    between atoms: C7_8  and  C8_9 
REMARK    5  A    between atoms: C8_9  and  C10_11 
REMARK    6  A    between atoms: C16_17  and  O2_18 
REMARK    7  A    between atoms: C19_21  and  C21_23 
REMARK    8  A    between atoms: C21_23  and  O3_24 
ROOT
HETATM    1  C10 UNL     1      -8.559   6.398  14.799  1.00  0.00    -0.002 C 
HETATM    2  C11 UNL     1      -7.627   6.308  15.994  1.00  0.00     0.006 C 
HETATM    3  C12 UNL     1      -6.905   4.985  15.782  1.00  0.00     0.011 C 
HETATM    4  C13 UNL     1      -6.861   4.691  14.235  1.00  0.00    -0.030 C 
HETATM    5  C14 UNL     1      -7.497   3.291  14.053  1.00  0.00     0.016 C 
HETATM    6  C15 UNL     1      -5.361   4.639  13.770  1.00  0.00     0.032 C 
HETATM    7  C16 UNL     1      -5.022   3.962  12.413  1.00  0.00     0.124 C 
HETATM    8  C17 UNL     1      -3.612   4.279  11.874  1.00  0.00     0.038 C 
HETATM    9  C18 UNL     1      -2.603   4.736  12.946  1.00  0.00     0.015 C 
HETATM   10  C19 UNL     1      -1.143   4.849  12.384  1.00  0.00     0.042 C 
HETATM   11  C20 UNL     1      -1.040   5.318  10.914  1.00  0.00     0.026 C 
HETATM   12  C22 UNL     1      -0.332   5.845  13.214  1.00  0.00     0.137 C 
HETATM   13  O4  UNL     1       0.831   5.605  13.563  1.00  0.00    -0.297 OA
HETATM   14  C23 UNL     1      -0.943   7.190  13.538  1.00  0.00     0.080 C 
HETATM   15  C24 UNL     1      -2.415   7.290  13.164  1.00  0.00     0.018 C 
HETATM   16  C25 UNL     1      -3.137   6.033  13.578  1.00  0.00    -0.026 A 
HETATM   17  C26 UNL     1      -3.608   6.051  15.009  1.00  0.00     0.021 A 
HETATM   18  C27 UNL     1      -4.645   5.992  13.902  1.00  0.00    -0.025 A 
HETATM   19  C28 UNL     1      -5.480   7.219  13.608  1.00  0.00     0.011 C 
HETATM   20  C29 UNL     1      -6.800   6.916  12.912  1.00  0.00     0.011 C 
HETATM   21  C30 UNL     1      -7.715   5.862  13.588  1.00  0.00    -0.032 C 
HETATM   22  C31 UNL     1      -8.729   5.397  12.508  1.00  0.00     0.016 C 
ENDROOT
BRANCH   1  23
HETATM   23  C8  UNL     1      -9.306   7.752  14.612  1.00  0.00    -0.010 C 
HETATM   24  C9  UNL     1      -8.650   8.958  15.298  1.00  0.00     0.010 C 
BRANCH  23  25
HETATM   25  C7  UNL     1     -10.773   7.676  15.111  1.00  0.00     0.031 C 
BRANCH  25  26
HETATM   26  C6  UNL     1     -11.764   8.223  14.122  1.00  0.00    -0.027 C 
HETATM   27  C5  UNL     1     -13.082   7.944  14.146  1.00  0.00     0.006 C 
BRANCH  27  28
HETATM   28  C2  UNL     1     -14.133   8.430  13.164  1.00  0.00     0.070 C 
HETATM   29  C3  UNL     1     -14.775   7.193  12.518  1.00  0.00     0.050 C 
HETATM   30  C4  UNL     1     -15.175   9.235  13.952  1.00  0.00     0.050 C 
BRANCH  28  31
HETATM   31  O1  UNL     1     -13.481   9.243  12.180  1.00  0.00    -0.382 OA
HETATM   32  C1  UNL     1     -13.701  10.642  12.244  1.00  0.00     0.202 C 
ENDBRANCH  28  31
ENDBRANCH  27  28
ENDBRANCH  25  26
ENDBRANCH  23  25
ENDBRANCH   1  23
BRANCH   7  33
HETATM   33  O2  UNL     1      -5.955   4.283  11.385  1.00  0.00    -0.395 OA
HETATM   34  H28 UNL     1      -5.752   3.725  10.615  1.00  0.00     0.210 HD
ENDBRANCH   7  33
BRANCH  10  35
HETATM   35  C21 UNL     1      -0.444   3.467  12.443  1.00  0.00     0.181 C 
BRANCH  35  36
HETATM   36  O3  UNL     1      -0.162   2.953  11.149  1.00  0.00    -0.400 OA
HETATM   37  H37 UNL     1      -0.892   2.339  10.924  1.00  0.00     0.209 HD
ENDBRANCH  35  36
ENDBRANCH  10  35
TORSDOF 8
ENDMDL
MODEL 6
REMARK minimizedAffinity -8.51424217
REMARK  8 active torsions:
REMARK  status: ('A' for Active; 'I' for Inactive)
REMARK    1  A    between atoms: O1_2  and  C2_3 
REMARK    2  A    between atoms: C2_3  and  C5_6 
REMARK    3  A    between atoms: C6_7  and  C7_8 
REMARK    4  A    between atoms: C7_8  and  C8_9 
REMARK    5  A    between atoms: C8_9  and  C10_11 
REMARK    6  A    between atoms: C16_17  and  O2_18 
REMARK    7  A    between atoms: C19_21  and  C21_23 
REMARK    8  A    between atoms: C21_23  and  O3_24 
ROOT
HETATM    1  C10 UNL     1      -3.190   5.930  13.452  1.00  0.00    -0.002 C 
HETATM    2  C11 UNL     1      -3.360   7.146  12.560  1.00  0.00     0.006 C 
HETATM    3  C12 UNL     1      -2.321   8.124  13.092  1.00  0.00     0.011 C 
HETATM    4  C13 UNL     1      -1.146   7.293  13.732  1.00  0.00    -0.030 C 
HETATM    5  C14 UNL     1      -1.001   7.815  15.183  1.00  0.00     0.016 C 
HETATM    6  C15 UNL     1       0.178   7.595  12.943  1.00  0.00     0.032 C 
HETATM    7  C16 UNL     1       1.540   7.248  13.607  1.00  0.00     0.124 C 
HETATM    8  C17 UNL     1       2.739   7.231  12.637  1.00  0.00     0.038 C 
HETATM    9  C18 UNL     1       2.532   8.048  11.346  1.00  0.00     0.015 C 
HETATM   10  C19 UNL     1       3.844   8.165  10.494  1.00  0.00     0.042 C 
HETATM   11  C20 UNL     1       4.766   6.924  10.536  1.00  0.00     0.026 C 
HETATM   12  C22 UNL     1       3.501   8.401   9.023  1.00  0.00     0.137 C 
HETATM   13  O4  UNL     1       4.108   9.236   8.340  1.00  0.00    -0.297 OA
HETATM   14  C23 UNL     1       2.453   7.527   8.371  1.00  0.00     0.080 C 
HETATM   15  C24 UNL     1       1.704   6.644   9.358  1.00  0.00     0.018 C 
HETATM   16  C25 UNL     1       1.340   7.440  10.586  1.00  0.00    -0.026 A 
HETATM   17  C26 UNL     1       0.048   8.204  10.450  1.00  0.00     0.021 A 
HETATM   18  C27 UNL     1       0.136   7.100  11.489  1.00  0.00    -0.025 A 
HETATM   19  C28 UNL     1      -0.603   5.802  11.248  1.00  0.00     0.011 C 
HETATM   20  C29 UNL     1      -0.905   5.018  12.518  1.00  0.00     0.011 C 
HETATM   21  C30 UNL     1      -1.638   5.787  13.649  1.00  0.00    -0.032 C 
HETATM   22  C31 UNL     1      -1.427   4.968  14.951  1.00  0.00     0.016 C 
ENDROOT
BRANCH   1  23
HETATM   23  C8  UNL     1      -3.983   4.655  13.034  1.00  0.00    -0.010 C 
HETATM   24  C9  UNL     1      -3.658   4.118  11.634  1.00  0.00     0.010 C 
BRANCH  23  25
HETATM   25  C7  UNL     1      -5.516   4.882  13.100  1.00  0.00     0.031 C 
BRANCH  25  26
HETATM   26  C6  UNL     1      -5.899   6.141  13.826  1.00  0.00    -0.027 C 
HETATM   27  C5  UNL     1      -6.947   6.236  14.666  1.00  0.00     0.006 C 
BRANCH  27  28
HETATM   28  C2  UNL     1      -7.412   7.478  15.404  1.00  0.00     0.070 C 
HETATM   29  C3  UNL     1      -7.709   7.074  16.856  1.00  0.00     0.050 C 
HETATM   30  C4  UNL     1      -6.278   8.510  15.348  1.00  0.00     0.050 C 
BRANCH  28  31
HETATM   31  O1  UNL     1      -8.594   7.966  14.756  1.00  0.00    -0.382 OA
HETATM   32  C1  UNL     1      -9.285   9.033  15.382  1.00  0.00     0.202 C 
ENDBRANCH  28  31
ENDBRANCH  27  28
ENDBRANCH  25  26
ENDBRANCH  23  25
ENDBRANCH   1  23
BRANCH   7  33
HETATM   33  O2  UNL     1       1.522   5.996  14.287  1.00  0.00    -0.395 OA
HETATM   34  H28 UNL     1       2.357   5.914  14.779  1.00  0.00     0.210 HD
ENDBRANCH   7  33
BRANCH  10  35
HETATM   35  C21 UNL     1       4.701   9.352  11.002  1.00  0.00     0.181 C 
BRANCH  35  36
HETATM   36  O3  UNL     1       4.236   9.857  12.245  1.00  0.00    -0.400 OA
HETATM   37  H37 UNL     1       3.668  10.628  12.041  1.00  0.00     0.209 HD
ENDBRANCH  35  36
ENDBRANCH  10  35
TORSDOF 8
ENDMDL
MODEL 7
REMARK minimizedAffinity -8.38411522
REMARK  8 active torsions:
REMARK  status: ('A' for Active; 'I' for Inactive)
REMARK    1  A    between atoms: O1_2  and  C2_3 
REMARK    2  A    between atoms: C2_3  and  C5_6 
REMARK    3  A    between atoms: C6_7  and  C7_8 
REMARK    4  A    between atoms: C7_8  and  C8_9 
REMARK    5  A    between atoms: C8_9  and  C10_11 
REMARK    6  A    between atoms: C16_17  and  O2_18 
REMARK    7  A    between atoms: C19_21  and  C21_23 
REMARK    8  A    between atoms: C21_23  and  O3_24 
ROOT
HETATM    1  C10 UNL     1      -0.090   8.480  13.693  1.00  0.00    -0.002 C 
HETATM    2  C11 UNL     1      -1.056   9.423  12.999  1.00  0.00     0.006 C 
HETATM    3  C12 UNL     1      -1.776   8.524  12.005  1.00  0.00     0.011 C 
HETATM    4  C13 UNL     1      -1.777   7.057  12.579  1.00  0.00    -0.030 C 
HETATM    5  C14 UNL     1      -1.142   6.173  11.478  1.00  0.00     0.016 C 
HETATM    6  C15 UNL     1      -3.263   6.603  12.809  1.00  0.00     0.032 C 
HETATM    7  C16 UNL     1      -3.566   5.086  12.963  1.00  0.00     0.124 C 
HETATM    8  C17 UNL     1      -4.958   4.767  13.544  1.00  0.00     0.038 C 
HETATM    9  C18 UNL     1      -5.996   5.895  13.380  1.00  0.00     0.015 C 
HETATM   10  C19 UNL     1      -7.440   5.448  13.801  1.00  0.00     0.042 C 
HETATM   11  C20 UNL     1      -7.498   4.450  14.981  1.00  0.00     0.026 C 
HETATM   12  C22 UNL     1      -8.270   6.662  14.218  1.00  0.00     0.137 C 
HETATM   13  O4  UNL     1      -9.443   6.804  13.851  1.00  0.00    -0.297 OA
HETATM   14  C23 UNL     1      -7.663   7.665  15.175  1.00  0.00     0.080 C 
HETATM   15  C24 UNL     1      -6.181   7.434  15.431  1.00  0.00     0.018 C 
HETATM   16  C25 UNL     1      -5.476   7.132  14.133  1.00  0.00    -0.026 A 
HETATM   17  C26 UNL     1      -5.045   8.363  13.379  1.00  0.00     0.021 A 
HETATM   18  C27 UNL     1      -3.977   7.417  13.898  1.00  0.00    -0.025 A 
HETATM   19  C28 UNL     1      -3.130   7.840  15.078  1.00  0.00     0.011 C 
HETATM   20  C29 UNL     1      -1.792   7.118  15.167  1.00  0.00     0.011 C 
HETATM   21  C30 UNL     1      -0.901   7.151  13.898  1.00  0.00    -0.032 C 
HETATM   22  C31 UNL     1       0.142   6.012  14.060  1.00  0.00     0.016 C 
ENDROOT
BRANCH   1  23
HETATM   23  C8  UNL     1       0.668   9.058  14.926  1.00  0.00    -0.010 C 
HETATM   24  C9  UNL     1       0.619   8.186  16.187  1.00  0.00     0.010 C 
BRANCH  23  25
HETATM   25  C7  UNL     1       0.148  10.467  15.315  1.00  0.00     0.031 C 
BRANCH  25  26
HETATM   26  C6  UNL     1      -1.204  10.439  15.971  1.00  0.00    -0.027 C 
HETATM   27  C5  UNL     1      -1.715  11.460  16.684  1.00  0.00     0.006 C 
BRANCH  27  28
HETATM   28  C2  UNL     1      -3.053  11.491  17.401  1.00  0.00     0.070 C 
HETATM   29  C3  UNL     1      -4.138  11.118  16.380  1.00  0.00     0.050 C 
HETATM   30  C4  UNL     1      -3.000  10.461  18.539  1.00  0.00     0.050 C 
BRANCH  28  31
HETATM   31  O1  UNL     1      -3.259  12.816  17.907  1.00  0.00    -0.382 OA
HETATM   32  C1  UNL     1      -3.902  12.939  19.164  1.00  0.00     0.202 C 
ENDBRANCH  28  31
ENDBRANCH  27  28
ENDBRANCH  25  26
ENDBRANCH  23  25
ENDBRANCH   1  23
BRANCH   7  33
HETATM   33  O2  UNL     1      -2.602   4.408  13.764  1.00  0.00    -0.395 OA
HETATM   34  H28 UNL     1      -2.786   3.454  13.705  1.00  0.00     0.210 HD
ENDBRANCH   7  33
BRANCH  10  35
HETATM   35  C21 UNL     1      -8.145   4.747  12.613  1.00  0.00     0.181 C 
BRANCH  35  36
HETATM   36  O3  UNL     1      -8.680   3.482  12.976  1.00  0.00    -0.400 OA
HETATM   37  H37 UNL     1      -8.020   2.809  12.708  1.00  0.00     0.209 HD
ENDBRANCH  35  36
ENDBRANCH  10  35
TORSDOF 8
ENDMDL
MODEL 8
REMARK minimizedAffinity -8.28944588
REMARK  8 active torsions:
REMARK  status: ('A' for Active; 'I' for Inactive)
REMARK    1  A    between atoms: O1_2  and  C2_3 
REMARK    2  A    between atoms: C2_3  and  C5_6 
REMARK    3  A    between atoms: C6_7  and  C7_8 
REMARK    4  A    between atoms: C7_8  and  C8_9 
REMARK    5  A    between atoms: C8_9  and  C10_11 
REMARK    6  A    between atoms: C16_17  and  O2_18 
REMARK    7  A    between atoms: C19_21  and  C21_23 
REMARK    8  A    between atoms: C21_23  and  O3_24 
ROOT
HETATM    1  C10 UNL     1      -0.355   9.148  14.137  1.00  0.00    -0.002 C 
HETATM    2  C11 UNL     1      -1.354   9.958  13.331  1.00  0.00     0.006 C 
HETATM    3  C12 UNL     1      -1.879   8.959  12.309  1.00  0.00     0.011 C 
HETATM    4  C13 UNL     1      -1.769   7.516  12.931  1.00  0.00    -0.030 C 
HETATM    5  C14 UNL     1      -0.944   6.683  11.919  1.00  0.00     0.016 C 
HETATM    6  C15 UNL     1      -3.210   6.902  13.048  1.00  0.00     0.032 C 
HETATM    7  C16 UNL     1      -3.355   5.364  13.227  1.00  0.00     0.124 C 
HETATM    8  C17 UNL     1      -4.750   4.904  13.697  1.00  0.00     0.038 C 
HETATM    9  C18 UNL     1      -5.888   5.903  13.406  1.00  0.00     0.015 C 
HETATM   10  C19 UNL     1      -7.304   5.305  13.717  1.00  0.00     0.042 C 
HETATM   11  C20 UNL     1      -7.357   4.335  14.920  1.00  0.00     0.026 C 
HETATM   12  C22 UNL     1      -8.298   6.426  14.019  1.00  0.00     0.137 C 
HETATM   13  O4  UNL     1      -9.442   6.426  13.549  1.00  0.00    -0.297 OA
HETATM   14  C23 UNL     1      -7.893   7.514  14.990  1.00  0.00     0.080 C 
HETATM   15  C24 UNL     1      -6.424   7.460  15.380  1.00  0.00     0.018 C 
HETATM   16  C25 UNL     1      -5.576   7.208  14.158  1.00  0.00    -0.026 A 
HETATM   17  C26 UNL     1      -5.220   8.462  13.402  1.00  0.00     0.021 A 
HETATM   18  C27 UNL     1      -4.104   7.656  14.043  1.00  0.00    -0.025 A 
HETATM   19  C28 UNL     1      -3.417   8.200  15.277  1.00  0.00     0.011 C 
HETATM   20  C29 UNL     1      -2.021   7.637  15.504  1.00  0.00     0.011 C 
HETATM   21  C30 UNL     1      -1.029   7.740  14.316  1.00  0.00    -0.032 C 
HETATM   22  C31 UNL     1       0.115   6.731  14.605  1.00  0.00     0.016 C 
ENDROOT
BRANCH   1  23
HETATM   23  C8  UNL     1       0.221   9.837  15.410  1.00  0.00    -0.010 C 
HETATM   24  C9  UNL     1      -0.801  10.620  16.245  1.00  0.00     0.010 C 
BRANCH  23  25
HETATM   25  C7  UNL     1       1.380  10.808  15.065  1.00  0.00     0.031 C 
BRANCH  25  26
HETATM   26  C6  UNL     1       2.724  10.312  15.520  1.00  0.00    -0.027 C 
HETATM   27  C5  UNL     1       3.696   9.901  14.684  1.00  0.00     0.006 C 
BRANCH  27  28
HETATM   28  C2  UNL     1       5.059   9.357  15.071  1.00  0.00     0.070 C 
HETATM   29  C3  UNL     1       4.959   7.825  15.103  1.00  0.00     0.050 C 
HETATM   30  C4  UNL     1       6.067   9.814  14.007  1.00  0.00     0.050 C 
BRANCH  28  31
HETATM   31  O1  UNL     1       5.396   9.876  16.364  1.00  0.00    -0.382 OA
HETATM   32  C1  UNL     1       6.306  10.962  16.413  1.00  0.00     0.202 C 
ENDBRANCH  28  31
ENDBRANCH  27  28
ENDBRANCH  25  26
ENDBRANCH  23  25
ENDBRANCH   1  23
BRANCH   7  33
HETATM   33  O2  UNL     1      -2.398   4.819  14.130  1.00  0.00    -0.395 OA
HETATM   34  H28 UNL     1      -2.468   3.850  14.087  1.00  0.00     0.210 HD
ENDBRANCH   7  33
BRANCH  10  35
HETATM   35  C21 UNL     1      -7.819   4.500  12.496  1.00  0.00     0.181 C 
BRANCH  35  36
HETATM   36  O3  UNL     1      -8.681   3.438  12.878  1.00  0.00    -0.400 OA
HETATM   37  H37 UNL     1      -8.132   2.628  12.915  1.00  0.00     0.209 HD
ENDBRANCH  35  36
ENDBRANCH  10  35
TORSDOF 8
ENDMDL
MODEL 9
REMARK minimizedAffinity -8.25763035
REMARK  8 active torsions:
REMARK  status: ('A' for Active; 'I' for Inactive)
REMARK    1  A    between atoms: O1_2  and  C2_3 
REMARK    2  A    between atoms: C2_3  and  C5_6 
REMARK    3  A    between atoms: C6_7  and  C7_8 
REMARK    4  A    between atoms: C7_8  and  C8_9 
REMARK    5  A    between atoms: C8_9  and  C10_11 
REMARK    6  A    between atoms: C16_17  and  O2_18 
REMARK    7  A    between atoms: C19_21  and  C21_23 
REMARK    8  A    between atoms: C21_23  and  O3_24 
ROOT
HETATM    1  C10 UNL     1      -1.629   6.996  13.425  1.00  0.00    -0.002 C 
HETATM    2  C11 UNL     1      -1.426   7.534  12.020  1.00  0.00     0.006 C 
HETATM    3  C12 UNL     1      -0.740   8.873  12.248  1.00  0.00     0.011 C 
HETATM    4  C13 UNL     1       0.066   8.789  13.599  1.00  0.00    -0.030 C 
HETATM    5  C14 UNL     1      -0.439   9.969  14.466  1.00  0.00     0.016 C 
HETATM    6  C15 UNL     1       1.593   8.991  13.294  1.00  0.00     0.032 C 
HETATM    7  C16 UNL     1       2.546   9.371  14.462  1.00  0.00     0.124 C 
HETATM    8  C17 UNL     1       4.045   9.187  14.151  1.00  0.00     0.038 C 
HETATM    9  C18 UNL     1       4.394   9.187  12.649  1.00  0.00     0.015 C 
HETATM   10  C19 UNL     1       5.941   9.201  12.393  1.00  0.00     0.042 C 
HETATM   11  C20 UNL     1       6.784   8.418  13.427  1.00  0.00     0.026 C 
HETATM   12  C22 UNL     1       6.258   8.593  11.026  1.00  0.00     0.137 C 
HETATM   13  O4  UNL     1       7.079   9.111  10.259  1.00  0.00    -0.297 OA
HETATM   14  C23 UNL     1       5.611   7.279  10.647  1.00  0.00     0.080 C 
HETATM   15  C24 UNL     1       4.531   6.834  11.621  1.00  0.00     0.018 C 
HETATM   16  C25 UNL     1       3.658   8.006  11.991  1.00  0.00    -0.026 A 
HETATM   17  C26 UNL     1       2.532   8.251  11.020  1.00  0.00     0.021 A 
HETATM   18  C27 UNL     1       2.190   7.858  12.446  1.00  0.00    -0.025 A 
HETATM   19  C28 UNL     1       1.657   6.469  12.719  1.00  0.00     0.011 C 
HETATM   20  C29 UNL     1       0.856   6.358  14.010  1.00  0.00     0.011 C 
HETATM   21  C30 UNL     1      -0.309   7.365  14.192  1.00  0.00    -0.032 C 
HETATM   22  C31 UNL     1      -0.658   7.370  15.705  1.00  0.00     0.016 C 
ENDROOT
BRANCH   1  23
HETATM   23  C8  UNL     1      -2.136   5.527  13.532  1.00  0.00    -0.010 C 
HETATM   24  C9  UNL     1      -2.055   4.715  12.232  1.00  0.00     0.010 C 
BRANCH  23  25
HETATM   25  C7  UNL     1      -3.602   5.457  14.032  1.00  0.00     0.031 C 
BRANCH  25  26
HETATM   26  C6  UNL     1      -4.512   4.709  13.099  1.00  0.00    -0.027 C 
HETATM   27  C5  UNL     1      -5.838   4.573  13.290  1.00  0.00     0.006 C 
BRANCH  27  28
HETATM   28  C2  UNL     1      -6.810   3.806  12.412  1.00  0.00     0.070 C 
HETATM   29  C3  UNL     1      -6.014   3.215  11.239  1.00  0.00     0.050 C 
HETATM   30  C4  UNL     1      -7.433   2.690  13.263  1.00  0.00     0.050 C 
BRANCH  28  31
HETATM   31  O1  UNL     1      -7.808   4.722  11.944  1.00  0.00    -0.382 OA
HETATM   32  C1  UNL     1      -8.118   5.827  12.776  1.00  0.00     0.202 C 
ENDBRANCH  28  31
ENDBRANCH  27  28
ENDBRANCH  25  26
ENDBRANCH  23  25
ENDBRANCH   1  23
BRANCH   7  33
HETATM   33  O2  UNL     1       2.266   8.652  15.660  1.00  0.00    -0.395 OA
HETATM   34  H28 UNL     1       2.810   9.035  16.369  1.00  0.00     0.210 HD
ENDBRANCH   7  33
BRANCH  10  35
HETATM   35  C21 UNL     1       6.470  10.657  12.425  1.00  0.00     0.181 C 
BRANCH  35  36
HETATM   36  O3  UNL     1       5.862  11.471  11.433  1.00  0.00    -0.400 OA
HETATM   37  H37 UNL     1       6.475  11.489  10.668  1.00  0.00     0.209 HD
ENDBRANCH  35  36
ENDBRANCH  10  35
TORSDOF 8
ENDMDL
