MODEL 1
REMARK minimizedAffinity -7.78739166
REMARK CNNscore 0.689489186
REMARK CNNaffinity 7.04788923
REMARK  2 active torsions:
REMARK  status: ('A' for Active; 'I' for Inactive)
REMARK    1  A    between atoms: C14_15  and  C15_16 
REMARK    2  A    between atoms: C19_21  and  O3_22 
ROOT
HETATM    1  C1  UNL     1      -3.332  51.094 -10.072  1.00  0.00     0.023 C 
HETATM    2  C2  UNL     1      -2.910  52.521 -10.481  1.00  0.00     0.017 C 
HETATM    3  C3  UNL     1      -4.132  53.439 -10.280  1.00  0.00     0.023 C 
HETATM    4  C4  UNL     1      -2.568  52.462 -11.975  1.00  0.00     0.135 C 
HETATM    5  O1  UNL     1      -3.423  52.564 -12.855  1.00  0.00    -0.297 OA
HETATM    6  C5  UNL     1      -1.134  52.172 -12.331  1.00  0.00     0.080 C 
HETATM    7  C6  UNL     1      -0.166  53.183 -11.725  1.00  0.00     0.017 C 
HETATM    8  C7  UNL     1      -0.661  53.919 -10.430  1.00  0.00    -0.035 C 
HETATM    9  C8  UNL     1      -1.356  55.218 -10.896  1.00  0.00     0.016 C 
HETATM   10  C9  UNL     1       0.602  54.207  -9.508  1.00  0.00     0.003 C 
HETATM   11  C10 UNL     1       1.712  55.047 -10.194  1.00  0.00     0.006 C 
HETATM   12  C11 UNL     1       3.002  55.174  -9.367  1.00  0.00     0.006 C 
HETATM   13  C12 UNL     1       2.678  55.680  -7.968  1.00  0.00    -0.000 C 
HETATM   14  C13 UNL     1       3.837  56.049  -7.044  1.00  0.00     0.008 C 
HETATM   15  C14 UNL     1       5.154  56.660  -7.538  1.00  0.00     0.030 C 
HETATM   16  C18 UNL     1       5.734  57.321  -6.249  1.00  0.00     0.040 C 
HETATM   17  C19 UNL     1       4.617  57.263  -5.179  1.00  0.00     0.127 C 
HETATM   18  C20 UNL     1       3.325  57.082  -6.000  1.00  0.00    -0.013 C 
HETATM   19  C21 UNL     1       2.950  58.480  -6.579  1.00  0.00     0.018 C 
HETATM   20  C22 UNL     1       2.077  56.547  -5.262  1.00  0.00     0.013 C 
HETATM   21  C23 UNL     1       1.573  55.151  -5.683  1.00  0.00     0.011 C 
HETATM   22  C24 UNL     1       1.701  54.712  -7.199  1.00  0.00    -0.032 C 
HETATM   23  C25 UNL     1       2.316  53.267  -7.114  1.00  0.00     0.016 C 
HETATM   24  C26 UNL     1       0.304  54.679  -8.020  1.00  0.00    -0.032 C 
HETATM   25  C27 UNL     1      -0.341  56.092  -7.969  1.00  0.00     0.016 C 
HETATM   26  C28 UNL     1      -0.710  53.677  -7.402  1.00  0.00     0.011 C 
HETATM   27  C29 UNL     1      -1.967  53.446  -8.247  1.00  0.00     0.007 C 
HETATM   28  C30 UNL     1      -1.636  52.951  -9.667  1.00  0.00     0.009 C 
ENDROOT
BRANCH  15  29
HETATM   29  C15 UNL     1       6.135  55.684  -8.157  1.00  0.00     0.083 A 
HETATM   30  C16 UNL     1       6.187  55.535  -9.649  1.00  0.00     0.049 C 
HETATM   31  C17 UNL     1       7.332  55.218  -7.346  1.00  0.00     0.207 A 
HETATM   32  O2  UNL     1       6.156  54.416  -7.471  1.00  0.00    -0.375 OA
ENDBRANCH  15  29
BRANCH  17  33
HETATM   33  O3  UNL     1       4.834  56.139  -4.330  1.00  0.00    -0.395 OA
HETATM   34  H30 UNL     1       5.678  56.284  -3.868  1.00  0.00     0.210 HD
ENDBRANCH  17  33
TORSDOF 2
ENDMDL
MODEL 2
REMARK minimizedAffinity -7.80974245
REMARK CNNscore 0.530850053
REMARK CNNaffinity 5.58525276
REMARK  2 active torsions:
REMARK  status: ('A' for Active; 'I' for Inactive)
REMARK    1  A    between atoms: C14_15  and  C15_16 
REMARK    2  A    between atoms: C19_21  and  O3_22 
ROOT
HETATM    1  C1  UNL     1       5.483  65.009 -37.101  1.00  0.00     0.023 C 
HETATM    2  C2  UNL     1       4.854  66.370 -36.735  1.00  0.00     0.017 C 
HETATM    3  C3  UNL     1       6.007  67.326 -36.368  1.00  0.00     0.023 C 
HETATM    4  C4  UNL     1       3.988  66.129 -35.492  1.00  0.00     0.135 C 
HETATM    5  O1  UNL     1       4.449  66.142 -34.350  1.00  0.00    -0.297 OA
HETATM    6  C5  UNL     1       2.544  65.775 -35.731  1.00  0.00     0.080 C 
HETATM    7  C6  UNL     1       1.811  66.833 -36.548  1.00  0.00     0.017 C 
HETATM    8  C7  UNL     1       2.704  67.726 -37.480  1.00  0.00    -0.035 C 
HETATM    9  C8  UNL     1       3.098  68.973 -36.656  1.00  0.00     0.016 C 
HETATM   10  C9  UNL     1       1.857  68.099 -38.772  1.00  0.00     0.003 C 
HETATM   11  C10 UNL     1       0.524  68.834 -38.469  1.00  0.00     0.006 C 
HETATM   12  C11 UNL     1      -0.374  69.035 -39.701  1.00  0.00     0.006 C 
HETATM   13  C12 UNL     1       0.413  69.708 -40.817  1.00  0.00    -0.000 C 
HETATM   14  C13 UNL     1      -0.341  70.164 -42.065  1.00  0.00     0.008 C 
HETATM   15  C14 UNL     1      -1.781  70.689 -42.040  1.00  0.00     0.030 C 
HETATM   16  C18 UNL     1      -1.882  71.488 -43.376  1.00  0.00     0.040 C 
HETATM   17  C19 UNL     1      -0.447  71.576 -43.949  1.00  0.00     0.127 C 
HETATM   18  C20 UNL     1       0.458  71.322 -42.728  1.00  0.00    -0.013 C 
HETATM   19  C21 UNL     1       0.508  72.647 -41.910  1.00  0.00     0.018 C 
HETATM   20  C22 UNL     1       1.920  70.898 -42.996  1.00  0.00     0.013 C 
HETATM   21  C23 UNL     1       2.315  69.472 -42.564  1.00  0.00     0.011 C 
HETATM   22  C24 UNL     1       1.662  68.854 -41.260  1.00  0.00    -0.032 C 
HETATM   23  C25 UNL     1       1.211  67.420 -41.717  1.00  0.00     0.016 C 
HETATM   24  C26 UNL     1       2.655  68.748 -39.983  1.00  0.00    -0.032 C 
HETATM   25  C27 UNL     1       3.188  70.169 -39.643  1.00  0.00     0.016 C 
HETATM   26  C28 UNL     1       3.885  67.844 -40.277  1.00  0.00     0.011 C 
HETATM   27  C29 UNL     1       4.751  67.536 -39.051  1.00  0.00     0.007 C 
HETATM   28  C30 UNL     1       3.948  66.872 -37.918  1.00  0.00     0.009 C 
ENDROOT
BRANCH  15  29
HETATM   29  C15 UNL     1      -2.861  69.631 -41.937  1.00  0.00     0.083 A 
HETATM   30  C16 UNL     1      -3.989  69.817 -40.964  1.00  0.00     0.049 C 
HETATM   31  C17 UNL     1      -3.056  68.653 -43.083  1.00  0.00     0.207 A 
HETATM   32  O2  UNL     1      -2.321  68.295 -41.910  1.00  0.00    -0.375 OA
ENDBRANCH  15  29
BRANCH  17  33
HETATM   33  O3  UNL     1      -0.267  70.556 -44.930  1.00  0.00    -0.395 OA
HETATM   34  H30 UNL     1      -0.887  70.741 -45.656  1.00  0.00     0.210 HD
ENDBRANCH  17  33
TORSDOF 2
ENDMDL
MODEL 3
REMARK minimizedAffinity -7.50773954
REMARK CNNscore 0.513451278
REMARK CNNaffinity 6.59538317
REMARK  2 active torsions:
REMARK  status: ('A' for Active; 'I' for Inactive)
REMARK    1  A    between atoms: C14_15  and  C15_16 
REMARK    2  A    between atoms: C19_21  and  O3_22 
ROOT
HETATM    1  C1  UNL     1      -4.161  50.773  -9.767  1.00  0.00     0.023 C 
HETATM    2  C2  UNL     1      -3.203  51.200 -10.900  1.00  0.00     0.017 C 
HETATM    3  C3  UNL     1      -3.914  52.296 -11.718  1.00  0.00     0.023 C 
HETATM    4  C4  UNL     1      -3.000  49.964 -11.786  1.00  0.00     0.135 C 
HETATM    5  O1  UNL     1      -3.781  49.661 -12.689  1.00  0.00    -0.297 OA
HETATM    6  C5  UNL     1      -1.841  49.067 -11.442  1.00  0.00     0.080 C 
HETATM    7  C6  UNL     1      -0.507  49.805 -11.450  1.00  0.00     0.017 C 
HETATM    8  C7  UNL     1      -0.576  51.353 -11.201  1.00  0.00    -0.035 C 
HETATM    9  C8  UNL     1      -0.686  52.022 -12.589  1.00  0.00     0.016 C 
HETATM   10  C9  UNL     1       0.741  51.790 -10.423  1.00  0.00     0.003 C 
HETATM   11  C10 UNL     1       2.061  51.438 -11.159  1.00  0.00     0.006 C 
HETATM   12  C11 UNL     1       3.329  51.700 -10.330  1.00  0.00     0.006 C 
HETATM   13  C12 UNL     1       3.325  53.130  -9.807  1.00  0.00    -0.000 C 
HETATM   14  C13 UNL     1       4.581  53.652  -9.111  1.00  0.00     0.008 C 
HETATM   15  C14 UNL     1       6.003  53.234  -9.503  1.00  0.00     0.030 C 
HETATM   16  C18 UNL     1       6.877  54.385  -8.915  1.00  0.00     0.040 C 
HETATM   17  C19 UNL     1       5.900  55.490  -8.450  1.00  0.00     0.127 C 
HETATM   18  C20 UNL     1       4.607  55.201  -9.239  1.00  0.00    -0.013 C 
HETATM   19  C21 UNL     1       4.821  55.744 -10.684  1.00  0.00     0.018 C 
HETATM   20  C22 UNL     1       3.292  55.819  -8.711  1.00  0.00     0.013 C 
HETATM   21  C23 UNL     1       2.228  54.834  -8.189  1.00  0.00     0.011 C 
HETATM   22  C24 UNL     1       2.076  53.423  -8.891  1.00  0.00    -0.032 C 
HETATM   23  C25 UNL     1       2.032  52.414  -7.685  1.00  0.00     0.016 C 
HETATM   24  C26 UNL     1       0.751  53.255  -9.809  1.00  0.00    -0.032 C 
HETATM   25  C27 UNL     1       0.761  54.355 -10.909  1.00  0.00     0.016 C 
HETATM   26  C28 UNL     1      -0.555  53.430  -8.983  1.00  0.00     0.011 C 
HETATM   27  C29 UNL     1      -1.837  53.081  -9.745  1.00  0.00     0.007 C 
HETATM   28  C30 UNL     1      -1.823  51.641 -10.289  1.00  0.00     0.009 C 
ENDROOT
BRANCH  15  29
HETATM   29  C15 UNL     1       6.449  51.877  -8.997  1.00  0.00     0.083 A 
HETATM   30  C16 UNL     1       6.803  50.800  -9.981  1.00  0.00     0.049 C 
HETATM   31  C17 UNL     1       6.963  51.746  -7.575  1.00  0.00     0.207 A 
HETATM   32  O2  UNL     1       5.622  51.393  -7.920  1.00  0.00    -0.375 OA
ENDBRANCH  15  29
BRANCH  17  33
HETATM   33  O3  UNL     1       5.672  55.361  -7.048  1.00  0.00    -0.395 OA
HETATM   34  H30 UNL     1       6.523  55.512  -6.602  1.00  0.00     0.210 HD
ENDBRANCH  17  33
TORSDOF 2
ENDMDL
MODEL 4
REMARK minimizedAffinity -7.38605118
REMARK CNNscore 0.480252981
REMARK CNNaffinity 6.04418516
REMARK  2 active torsions:
REMARK  status: ('A' for Active; 'I' for Inactive)
REMARK    1  A    between atoms: C14_15  and  C15_16 
REMARK    2  A    between atoms: C19_21  and  O3_22 
ROOT
HETATM    1  C1  UNL     1     -13.902  44.253 -24.775  1.00  0.00     0.023 C 
HETATM    2  C2  UNL     1     -13.714  45.601 -25.503  1.00  0.00     0.017 C 
HETATM    3  C3  UNL     1     -13.467  46.676 -24.426  1.00  0.00     0.023 C 
HETATM    4  C4  UNL     1     -15.039  45.899 -26.215  1.00  0.00     0.135 C 
HETATM    5  O1  UNL     1     -15.987  46.444 -25.649  1.00  0.00    -0.297 OA
HETATM    6  C5  UNL     1     -15.173  45.404 -27.631  1.00  0.00     0.080 C 
HETATM    7  C6  UNL     1     -14.081  45.946 -28.545  1.00  0.00     0.017 C 
HETATM    8  C7  UNL     1     -12.742  46.370 -27.843  1.00  0.00    -0.035 C 
HETATM    9  C8  UNL     1     -12.875  47.872 -27.504  1.00  0.00     0.016 C 
HETATM   10  C9  UNL     1     -11.542  46.082 -28.846  1.00  0.00     0.003 C 
HETATM   11  C10 UNL     1     -11.666  46.807 -30.212  1.00  0.00     0.006 C 
HETATM   12  C11 UNL     1     -10.603  46.390 -31.241  1.00  0.00     0.006 C 
HETATM   13  C12 UNL     1      -9.211  46.531 -30.639  1.00  0.00    -0.000 C 
HETATM   14  C13 UNL     1      -8.002  46.341 -31.554  1.00  0.00     0.008 C 
HETATM   15  C14 UNL     1      -7.985  46.750 -33.032  1.00  0.00     0.030 C 
HETATM   16  C18 UNL     1      -6.460  46.859 -33.343  1.00  0.00     0.040 C 
HETATM   17  C19 UNL     1      -5.722  46.753 -31.988  1.00  0.00     0.127 C 
HETATM   18  C20 UNL     1      -6.798  47.117 -30.948  1.00  0.00    -0.013 C 
HETATM   19  C21 UNL     1      -6.938  48.670 -30.956  1.00  0.00     0.018 C 
HETATM   20  C22 UNL     1      -6.552  46.692 -29.482  1.00  0.00     0.013 C 
HETATM   21  C23 UNL     1      -7.510  45.632 -28.901  1.00  0.00     0.011 C 
HETATM   22  C24 UNL     1      -9.026  45.633 -29.357  1.00  0.00    -0.032 C 
HETATM   23  C25 UNL     1      -9.308  44.124 -29.700  1.00  0.00     0.016 C 
HETATM   24  C26 UNL     1     -10.075  46.159 -28.240  1.00  0.00    -0.032 C 
HETATM   25  C27 UNL     1      -9.684  47.606 -27.827  1.00  0.00     0.016 C 
HETATM   26  C28 UNL     1     -10.048  45.281 -26.958  1.00  0.00     0.011 C 
HETATM   27  C29 UNL     1     -11.157  45.599 -25.950  1.00  0.00     0.007 C 
HETATM   28  C30 UNL     1     -12.562  45.473 -26.566  1.00  0.00     0.009 C 
ENDROOT
BRANCH  15  29
HETATM   29  C15 UNL     1      -8.684  45.797 -33.982  1.00  0.00     0.083 A 
HETATM   30  C16 UNL     1      -8.527  44.316 -33.792  1.00  0.00     0.049 C 
HETATM   31  C17 UNL     1      -9.860  46.295 -34.803  1.00  0.00     0.207 A 
HETATM   32  O2  UNL     1      -8.547  46.197 -35.360  1.00  0.00    -0.375 OA
ENDBRANCH  15  29
BRANCH  17  33
HETATM   33  O3  UNL     1      -5.274  45.412 -31.798  1.00  0.00    -0.395 OA
HETATM   34  H30 UNL     1      -4.630  45.221 -32.502  1.00  0.00     0.210 HD
ENDBRANCH  17  33
TORSDOF 2
ENDMDL
MODEL 5
REMARK minimizedAffinity -7.08801031
REMARK CNNscore 0.458635688
REMARK CNNaffinity 6.77501488
REMARK  2 active torsions:
REMARK  status: ('A' for Active; 'I' for Inactive)
REMARK    1  A    between atoms: C14_15  and  C15_16 
REMARK    2  A    between atoms: C19_21  and  O3_22 
ROOT
HETATM    1  C1  UNL     1       3.124  58.265  -5.733  1.00  0.00     0.023 C 
HETATM    2  C2  UNL     1       2.675  56.822  -5.422  1.00  0.00     0.017 C 
HETATM    3  C3  UNL     1       1.832  56.869  -4.132  1.00  0.00     0.023 C 
HETATM    4  C4  UNL     1       3.953  56.016  -5.157  1.00  0.00     0.135 C 
HETATM    5  O1  UNL     1       4.498  55.984  -4.053  1.00  0.00    -0.297 OA
HETATM    6  C5  UNL     1       4.580  55.332  -6.342  1.00  0.00     0.080 C 
HETATM    7  C6  UNL     1       3.622  54.370  -7.037  1.00  0.00     0.017 C 
HETATM    8  C7  UNL     1       2.092  54.669  -6.852  1.00  0.00    -0.035 C 
HETATM    9  C8  UNL     1       1.628  53.867  -5.616  1.00  0.00     0.016 C 
HETATM   10  C9  UNL     1       1.335  54.227  -8.178  1.00  0.00     0.003 C 
HETATM   11  C10 UNL     1       1.532  52.734  -8.555  1.00  0.00     0.006 C 
HETATM   12  C11 UNL     1       0.949  52.353  -9.926  1.00  0.00     0.006 C 
HETATM   13  C12 UNL     1      -0.510  52.779 -10.010  1.00  0.00    -0.000 C 
HETATM   14  C13 UNL     1      -1.329  52.332 -11.219  1.00  0.00     0.008 C 
HETATM   15  C14 UNL     1      -1.127  50.988 -11.929  1.00  0.00     0.030 C 
HETATM   16  C18 UNL     1      -2.479  50.788 -12.682  1.00  0.00     0.040 C 
HETATM   17  C19 UNL     1      -3.441  51.885 -12.167  1.00  0.00     0.127 C 
HETATM   18  C20 UNL     1      -2.831  52.310 -10.817  1.00  0.00    -0.013 C 
HETATM   19  C21 UNL     1      -3.223  51.221  -9.773  1.00  0.00     0.018 C 
HETATM   20  C22 UNL     1      -3.264  53.674 -10.233  1.00  0.00     0.013 C 
HETATM   21  C23 UNL     1      -2.175  54.763 -10.143  1.00  0.00     0.011 C 
HETATM   22  C24 UNL     1      -0.684  54.335  -9.823  1.00  0.00    -0.032 C 
HETATM   23  C25 UNL     1       0.161  55.113 -10.897  1.00  0.00     0.016 C 
HETATM   24  C26 UNL     1      -0.172  54.706  -8.331  1.00  0.00    -0.032 C 
HETATM   25  C27 UNL     1      -1.113  54.027  -7.295  1.00  0.00     0.016 C 
HETATM   26  C28 UNL     1      -0.210  56.237  -8.067  1.00  0.00     0.011 C 
HETATM   27  C29 UNL     1       0.453  56.669  -6.756  1.00  0.00     0.007 C 
HETATM   28  C30 UNL     1       1.923  56.221  -6.665  1.00  0.00     0.009 C 
ENDROOT
BRANCH  15  29
HETATM   29  C15 UNL     1       0.056  50.918 -12.873  1.00  0.00     0.083 A 
HETATM   30  C16 UNL     1       1.147  49.919 -12.619  1.00  0.00     0.049 C 
HETATM   31  C17 UNL     1      -0.071  51.503 -14.268  1.00  0.00     0.207 A 
HETATM   32  O2  UNL     1       0.567  52.223 -13.211  1.00  0.00    -0.375 OA
ENDBRANCH  15  29
BRANCH  17  33
HETATM   33  O3  UNL     1      -3.445  52.978 -13.083  1.00  0.00    -0.395 OA
HETATM   34  H30 UNL     1      -3.799  52.647 -13.926  1.00  0.00     0.210 HD
ENDBRANCH  17  33
TORSDOF 2
ENDMDL
MODEL 6
REMARK minimizedAffinity -7.77563238
REMARK CNNscore 0.433082104
REMARK CNNaffinity 6.22363424
REMARK  2 active torsions:
REMARK  status: ('A' for Active; 'I' for Inactive)
REMARK    1  A    between atoms: C14_15  and  C15_16 
REMARK    2  A    between atoms: C19_21  and  O3_22 
ROOT
HETATM    1  C1  UNL     1      -4.249  37.758 -32.648  1.00  0.00     0.023 C 
HETATM    2  C2  UNL     1      -4.279  38.924 -33.659  1.00  0.00     0.017 C 
HETATM    3  C3  UNL     1      -4.875  38.381 -34.973  1.00  0.00     0.023 C 
HETATM    4  C4  UNL     1      -2.820  39.329 -33.900  1.00  0.00     0.135 C 
HETATM    5  O1  UNL     1      -2.101  38.760 -34.723  1.00  0.00    -0.297 OA
HETATM    6  C5  UNL     1      -2.260  40.406 -33.009  1.00  0.00     0.080 C 
HETATM    7  C6  UNL     1      -3.064  41.699 -33.078  1.00  0.00     0.017 C 
HETATM    8  C7  UNL     1      -4.566  41.553 -33.510  1.00  0.00    -0.035 C 
HETATM    9  C8  UNL     1      -4.606  41.724 -35.045  1.00  0.00     0.016 C 
HETATM   10  C9  UNL     1      -5.411  42.670 -32.756  1.00  0.00     0.003 C 
HETATM   11  C10 UNL     1      -4.930  44.121 -33.025  1.00  0.00     0.006 C 
HETATM   12  C11 UNL     1      -5.631  45.182 -32.161  1.00  0.00     0.006 C 
HETATM   13  C12 UNL     1      -7.142  45.044 -32.288  1.00  0.00    -0.000 C 
HETATM   14  C13 UNL     1      -8.025  46.117 -31.654  1.00  0.00     0.008 C 
HETATM   15  C14 UNL     1      -7.632  47.597 -31.570  1.00  0.00     0.030 C 
HETATM   16  C18 UNL     1      -9.005  48.309 -31.362  1.00  0.00     0.040 C 
HETATM   17  C19 UNL     1     -10.098  47.237 -31.584  1.00  0.00     0.127 C 
HETATM   18  C20 UNL     1      -9.386  46.143 -32.405  1.00  0.00    -0.013 C 
HETATM   19  C21 UNL     1      -9.321  46.645 -33.879  1.00  0.00     0.018 C 
HETATM   20  C22 UNL     1     -10.026  44.737 -32.432  1.00  0.00     0.013 C 
HETATM   21  C23 UNL     1      -9.231  43.604 -31.753  1.00  0.00     0.011 C 
HETATM   22  C24 UNL     1      -7.649  43.626 -31.822  1.00  0.00    -0.032 C 
HETATM   23  C25 UNL     1      -7.211  43.349 -30.337  1.00  0.00     0.016 C 
HETATM   24  C26 UNL     1      -6.992  42.526 -32.814  1.00  0.00    -0.032 C 
HETATM   25  C27 UNL     1      -7.552  42.747 -34.248  1.00  0.00     0.016 C 
HETATM   26  C28 UNL     1      -7.350  41.074 -32.389  1.00  0.00     0.011 C 
HETATM   27  C29 UNL     1      -6.595  39.986 -33.159  1.00  0.00     0.007 C 
HETATM   28  C30 UNL     1      -5.067  40.138 -33.044  1.00  0.00     0.009 C 
ENDROOT
BRANCH  15  29
HETATM   29  C15 UNL     1      -6.646  47.951 -30.475  1.00  0.00     0.083 A 
HETATM   30  C16 UNL     1      -5.335  48.586 -30.837  1.00  0.00     0.049 C 
HETATM   31  C17 UNL     1      -7.141  48.090 -29.046  1.00  0.00     0.207 A 
HETATM   32  O2  UNL     1      -6.502  46.896 -29.503  1.00  0.00    -0.375 OA
ENDBRANCH  15  29
BRANCH  17  33
HETATM   33  O3  UNL     1     -10.521  46.723 -30.323  1.00  0.00    -0.395 OA
HETATM   34  H30 UNL     1     -10.924  47.459 -29.832  1.00  0.00     0.210 HD
ENDBRANCH  17  33
TORSDOF 2
ENDMDL
MODEL 7
REMARK minimizedAffinity -9.40619564
REMARK CNNscore 0.383138627
REMARK CNNaffinity 6.92678595
REMARK  2 active torsions:
REMARK  status: ('A' for Active; 'I' for Inactive)
REMARK    1  A    between atoms: C14_15  and  C15_16 
REMARK    2  A    between atoms: C19_21  and  O3_22 
ROOT
HETATM    1  C1  UNL     1      -6.329  48.554 -18.659  1.00  0.00     0.023 C 
HETATM    2  C2  UNL     1      -4.988  48.038 -19.224  1.00  0.00     0.017 C 
HETATM    3  C3  UNL     1      -5.213  46.585 -19.688  1.00  0.00     0.023 C 
HETATM    4  C4  UNL     1      -3.994  48.043 -18.056  1.00  0.00     0.135 C 
HETATM    5  O1  UNL     1      -3.908  47.111 -17.255  1.00  0.00    -0.297 OA
HETATM    6  C5  UNL     1      -3.180  49.295 -17.865  1.00  0.00     0.080 C 
HETATM    7  C6  UNL     1      -2.366  49.657 -19.102  1.00  0.00     0.017 C 
HETATM    8  C7  UNL     1      -2.916  49.119 -20.470  1.00  0.00    -0.035 C 
HETATM    9  C8  UNL     1      -2.239  47.752 -20.714  1.00  0.00     0.016 C 
HETATM   10  C9  UNL     1      -2.561  50.179 -21.601  1.00  0.00     0.003 C 
HETATM   11  C10 UNL     1      -1.046  50.485 -21.733  1.00  0.00     0.006 C 
HETATM   12  C11 UNL     1      -0.721  51.635 -22.700  1.00  0.00     0.006 C 
HETATM   13  C12 UNL     1      -1.377  51.383 -24.051  1.00  0.00    -0.000 C 
HETATM   14  C13 UNL     1      -1.032  52.314 -25.211  1.00  0.00     0.008 C 
HETATM   15  C14 UNL     1       0.349  52.953 -25.403  1.00  0.00     0.030 C 
HETATM   16  C18 UNL     1       0.350  53.329 -26.917  1.00  0.00     0.040 C 
HETATM   17  C19 UNL     1      -0.905  52.670 -27.538  1.00  0.00     0.127 C 
HETATM   18  C20 UNL     1      -1.268  51.549 -26.544  1.00  0.00    -0.013 C 
HETATM   19  C21 UNL     1      -0.290  50.365 -26.812  1.00  0.00     0.018 C 
HETATM   20  C22 UNL     1      -2.702  50.976 -26.603  1.00  0.00     0.013 C 
HETATM   21  C23 UNL     1      -3.600  51.238 -25.378  1.00  0.00     0.011 C 
HETATM   22  C24 UNL     1      -2.946  51.271 -23.936  1.00  0.00    -0.032 C 
HETATM   23  C25 UNL     1      -3.542  52.574 -23.290  1.00  0.00     0.016 C 
HETATM   24  C26 UNL     1      -3.274  49.985 -23.007  1.00  0.00    -0.032 C 
HETATM   25  C27 UNL     1      -2.791  48.701 -23.740  1.00  0.00     0.016 C 
HETATM   26  C28 UNL     1      -4.799  49.830 -22.746  1.00  0.00     0.011 C 
HETATM   27  C29 UNL     1      -5.158  48.760 -21.711  1.00  0.00     0.007 C 
HETATM   28  C30 UNL     1      -4.479  49.008 -20.352  1.00  0.00     0.009 C 
ENDROOT
BRANCH  15  29
HETATM   29  C15 UNL     1       0.641  54.155 -24.527  1.00  0.00     0.083 A 
HETATM   30  C16 UNL     1       0.219  55.522 -24.983  1.00  0.00     0.049 C 
HETATM   31  C17 UNL     1       0.927  53.948 -23.051  1.00  0.00     0.207 A 
HETATM   32  O2  UNL     1       1.981  54.137 -23.997  1.00  0.00    -0.375 OA
ENDBRANCH  15  29
BRANCH  17  33
HETATM   33  O3  UNL     1      -1.955  53.632 -27.615  1.00  0.00    -0.395 OA
HETATM   34  H30 UNL     1      -1.660  54.334 -28.219  1.00  0.00     0.210 HD
ENDBRANCH  17  33
TORSDOF 2
ENDMDL
MODEL 8
REMARK minimizedAffinity -6.7900672
REMARK CNNscore 0.377842426
REMARK CNNaffinity 5.92336702
REMARK  2 active torsions:
REMARK  status: ('A' for Active; 'I' for Inactive)
REMARK    1  A    between atoms: C14_15  and  C15_16 
REMARK    2  A    between atoms: C19_21  and  O3_22 
ROOT
HETATM    1  C1  UNL     1     -10.693  43.963 -40.437  1.00  0.00     0.023 C 
HETATM    2  C2  UNL     1     -10.944  45.280 -39.672  1.00  0.00     0.017 C 
HETATM    3  C3  UNL     1     -12.444  45.612 -39.804  1.00  0.00     0.023 C 
HETATM    4  C4  UNL     1     -10.126  46.361 -40.389  1.00  0.00     0.135 C 
HETATM    5  O1  UNL     1     -10.547  46.965 -41.377  1.00  0.00    -0.297 OA
HETATM    6  C5  UNL     1      -8.725  46.594 -39.889  1.00  0.00     0.080 C 
HETATM    7  C6  UNL     1      -8.686  46.959 -38.409  1.00  0.00     0.017 C 
HETATM    8  C7  UNL     1      -9.900  46.464 -37.545  1.00  0.00    -0.035 C 
HETATM    9  C8  UNL     1     -10.946  47.601 -37.556  1.00  0.00     0.016 C 
HETATM   10  C9  UNL     1      -9.370  46.144 -36.081  1.00  0.00     0.003 C 
HETATM   11  C10 UNL     1      -8.684  47.345 -35.376  1.00  0.00     0.006 C 
HETATM   12  C11 UNL     1      -8.018  46.989 -34.037  1.00  0.00     0.006 C 
HETATM   13  C12 UNL     1      -9.016  46.282 -33.129  1.00  0.00    -0.000 C 
HETATM   14  C13 UNL     1      -8.611  46.003 -31.683  1.00  0.00     0.008 C 
HETATM   15  C14 UNL     1      -7.712  46.934 -30.861  1.00  0.00     0.030 C 
HETATM   16  C18 UNL     1      -8.038  46.521 -29.392  1.00  0.00     0.040 C 
HETATM   17  C19 UNL     1      -9.259  45.574 -29.458  1.00  0.00     0.127 C 
HETATM   18  C20 UNL     1      -9.901  45.889 -30.823  1.00  0.00    -0.013 C 
HETATM   19  C21 UNL     1     -10.707  47.213 -30.657  1.00  0.00     0.018 C 
HETATM   20  C22 UNL     1     -10.868  44.841 -31.419  1.00  0.00     0.013 C 
HETATM   21  C23 UNL     1     -10.410  44.136 -32.712  1.00  0.00     0.011 C 
HETATM   22  C24 UNL     1      -9.561  44.949 -33.772  1.00  0.00    -0.032 C 
HETATM   23  C25 UNL     1      -8.371  43.980 -34.114  1.00  0.00     0.016 C 
HETATM   24  C26 UNL     1     -10.360  45.353 -35.123  1.00  0.00    -0.032 C 
HETATM   25  C27 UNL     1     -11.605  46.200 -34.734  1.00  0.00     0.016 C 
HETATM   26  C28 UNL     1     -10.865  44.102 -35.895  1.00  0.00     0.011 C 
HETATM   27  C29 UNL     1     -11.445  44.406 -37.280  1.00  0.00     0.007 C 
HETATM   28  C30 UNL     1     -10.441  45.136 -38.190  1.00  0.00     0.009 C 
ENDROOT
BRANCH  15  29
HETATM   29  C15 UNL     1      -6.228  46.837 -31.154  1.00  0.00     0.083 A 
HETATM   30  C16 UNL     1      -5.632  45.509 -31.522  1.00  0.00     0.049 C 
HETATM   31  C17 UNL     1      -5.457  48.094 -31.514  1.00  0.00     0.207 A 
HETATM   32  O2  UNL     1      -5.429  47.554 -30.191  1.00  0.00    -0.375 OA
ENDBRANCH  15  29
BRANCH  17  33
HETATM   33  O3  UNL     1      -8.811  44.221 -29.414  1.00  0.00    -0.395 OA
HETATM   34  H30 UNL     1      -8.380  44.087 -28.552  1.00  0.00     0.210 HD
ENDBRANCH  17  33
TORSDOF 2
ENDMDL
MODEL 9
REMARK minimizedAffinity -7.03858566
REMARK CNNscore 0.347610146
REMARK CNNaffinity 5.78032637
REMARK  2 active torsions:
REMARK  status: ('A' for Active; 'I' for Inactive)
REMARK    1  A    between atoms: C14_15  and  C15_16 
REMARK    2  A    between atoms: C19_21  and  O3_22 
ROOT
HETATM    1  C1  UNL     1      -8.127  41.273 -36.000  1.00  0.00     0.023 C 
HETATM    2  C2  UNL     1      -8.299  40.874 -34.519  1.00  0.00     0.017 C 
HETATM    3  C3  UNL     1      -7.057  40.055 -34.115  1.00  0.00     0.023 C 
HETATM    4  C4  UNL     1      -9.538  39.973 -34.453  1.00  0.00     0.135 C 
HETATM    5  O1  UNL     1      -9.490  38.762 -34.675  1.00  0.00    -0.297 OA
HETATM    6  C5  UNL     1     -10.857  40.652 -34.195  1.00  0.00     0.080 C 
HETATM    7  C6  UNL     1     -10.857  41.453 -32.897  1.00  0.00     0.017 C 
HETATM    8  C7  UNL     1      -9.455  41.945 -32.391  1.00  0.00    -0.035 C 
HETATM    9  C8  UNL     1      -8.918  40.852 -31.440  1.00  0.00     0.016 C 
HETATM   10  C9  UNL     1      -9.655  43.341 -31.655  1.00  0.00     0.003 C 
HETATM   11  C10 UNL     1     -10.652  43.297 -30.467  1.00  0.00     0.006 C 
HETATM   12  C11 UNL     1     -10.977  44.677 -29.872  1.00  0.00     0.006 C 
HETATM   13  C12 UNL     1      -9.690  45.409 -29.516  1.00  0.00    -0.000 C 
HETATM   14  C13 UNL     1      -9.791  46.723 -28.744  1.00  0.00     0.008 C 
HETATM   15  C14 UNL     1     -10.871  47.006 -27.693  1.00  0.00     0.030 C 
HETATM   16  C18 UNL     1     -10.247  48.169 -26.860  1.00  0.00     0.040 C 
HETATM   17  C19 UNL     1      -8.777  48.306 -27.322  1.00  0.00     0.127 C 
HETATM   18  C20 UNL     1      -8.461  46.943 -27.969  1.00  0.00    -0.013 C 
HETATM   19  C21 UNL     1      -8.194  45.936 -26.810  1.00  0.00     0.018 C 
HETATM   20  C22 UNL     1      -7.249  46.867 -28.925  1.00  0.00     0.013 C 
HETATM   21  C23 UNL     1      -7.557  46.584 -30.409  1.00  0.00     0.011 C 
HETATM   22  C24 UNL     1      -8.765  45.628 -30.774  1.00  0.00    -0.032 C 
HETATM   23  C25 UNL     1      -9.538  46.420 -31.891  1.00  0.00     0.016 C 
HETATM   24  C26 UNL     1      -8.337  44.164 -31.322  1.00  0.00    -0.032 C 
HETATM   25  C27 UNL     1      -7.461  43.462 -30.246  1.00  0.00     0.016 C 
HETATM   26  C28 UNL     1      -7.495  44.255 -32.626  1.00  0.00     0.011 C 
HETATM   27  C29 UNL     1      -7.235  42.907 -33.306  1.00  0.00     0.007 C 
HETATM   28  C30 UNL     1      -8.537  42.161 -33.648  1.00  0.00     0.009 C 
ENDROOT
BRANCH  15  29
HETATM   29  C15 UNL     1     -12.235  47.378 -28.240  1.00  0.00     0.083 A 
HETATM   30  C16 UNL     1     -12.340  48.008 -29.598  1.00  0.00     0.049 C 
HETATM   31  C17 UNL     1     -13.474  46.728 -27.652  1.00  0.00     0.207 A 
HETATM   32  O2  UNL     1     -13.060  48.038 -27.258  1.00  0.00    -0.375 OA
ENDBRANCH  15  29
BRANCH  17  33
HETATM   33  O3  UNL     1      -8.680  49.353 -28.285  1.00  0.00    -0.395 OA
HETATM   34  H30 UNL     1      -8.927  50.181 -27.838  1.00  0.00     0.210 HD
ENDBRANCH  17  33
TORSDOF 2
ENDMDL
