MODEL 1
REMARK minimizedAffinity -10.1300354
REMARK CNNscore 0.470788807
REMARK CNNaffinity 7.63776636
REMARK  12 active torsions:
REMARK  status: ('A' for Active; 'I' for Inactive)
REMARK    1  A    between atoms: C3_3  and  O1_4 
REMARK    2  A    between atoms: N1_14  and  O2_16 
REMARK    3  A    between atoms: O2_16  and  C13_17 
REMARK    4  A    between atoms: C13_17  and  C14_18 
REMARK       I    between atoms: C14_18  and  N2_20 
REMARK    5  A    between atoms: N2_20  and  C15_21 
REMARK    6  A    between atoms: C15_21  and  C16_22 
REMARK    7  A    between atoms: C15_21  and  C27_38 
REMARK       I    between atoms: C16_22  and  N3_24 
REMARK    8  A    between atoms: N3_24  and  C17_25 
REMARK    9  A    between atoms: C17_25  and  C18_26 
REMARK   10  A    between atoms: C17_25  and  C20_30 
REMARK   11  A    between atoms: C18_26  and  C19_27 
REMARK   12  A    between atoms: C19_27  and  O6_29 
ROOT
HETATM    1  C1  UNL     1      -3.432  50.265 -28.075  1.00  0.00     0.015 C 
HETATM    2  C2  UNL     1      -2.882  51.022 -27.319  1.00  0.00    -0.078 C 
HETATM    3  C3  UNL     1      -2.211  51.962 -26.386  1.00  0.00     0.128 C 
HETATM    4  C4  UNL     1      -3.202  52.388 -25.300  1.00  0.00     0.052 C 
HETATM    5  C5  UNL     1      -3.134  51.281 -24.253  1.00  0.00     0.010 C 
HETATM    6  C6  UNL     1      -1.733  50.637 -24.379  1.00  0.00     0.002 C 
HETATM    7  C7  UNL     1      -0.871  50.701 -23.102  1.00  0.00    -0.004 C 
HETATM    8  C8  UNL     1      -1.454  49.872 -21.956  1.00  0.00     0.010 C 
HETATM    9  C9  UNL     1      -0.466  49.817 -20.798  1.00  0.00     0.035 C 
HETATM   10  C10 UNL     1      -0.039  51.187 -20.321  1.00  0.00    -0.069 C 
HETATM   11  C11 UNL     1       0.057  51.420 -18.999  1.00  0.00     0.030 C 
HETATM   12  C12 UNL     1       0.659  52.675 -18.460  1.00  0.00     0.032 C 
HETATM   13  N1  UNL     1       1.029  52.871 -17.231  1.00  0.00    -0.271 N 
ATOM     14  H1  UNL     1       1.475  53.727 -16.901  1.00  0.00     0.194 HD
HETATM   15  C30 UNL     1       0.962  53.793 -19.435  1.00  0.00     0.060 C 
HETATM   16  C31 UNL     1       0.217  53.641 -20.750  1.00  0.00     0.020 C 
HETATM   17  C32 UNL     1       0.347  52.227 -21.384  1.00  0.00    -0.016 C 
HETATM   18  C33 UNL     1       1.813  51.961 -21.804  1.00  0.00     0.020 C 
HETATM   19  C34 UNL     1      -0.634  52.154 -22.617  1.00  0.00     0.002 C 
HETATM   20  C35 UNL     1      -0.274  53.096 -23.789  1.00  0.00     0.007 C 
HETATM   21  C36 UNL     1       0.038  52.368 -25.095  1.00  0.00     0.014 C 
HETATM   22  C37 UNL     1      -1.027  51.331 -25.582  1.00  0.00     0.003 C 
HETATM   23  C38 UNL     1      -0.241  50.293 -26.424  1.00  0.00     0.020 C 
ENDROOT
BRANCH   3  24
HETATM   24  O1  UNL     1      -1.800  53.101 -27.129  1.00  0.00    -0.377 OA
HETATM   25  H2  UNL     1      -2.566  53.392 -27.651  1.00  0.00     0.211 HD
ENDBRANCH   3  24
BRANCH  13  26
HETATM   26  O2  UNL     1       0.745  51.772 -16.409  1.00  0.00    -0.271 OA
BRANCH  26  27
HETATM   27  C13 UNL     1       1.522  51.868 -15.228  1.00  0.00     0.303 C 
BRANCH  27  28
HETATM   28  C14 UNL     1       0.821  51.486 -13.921  1.00  0.00     0.244 C 
HETATM   29  O3  UNL     1       0.403  50.362 -13.652  1.00  0.00    -0.271 OA
HETATM   30  N2  UNL     1       0.757  52.536 -13.020  1.00  0.00    -0.346 N 
HETATM   31  H16 UNL     1       1.181  53.428 -13.255  1.00  0.00     0.163 HD
BRANCH  30  32
HETATM   32  C15 UNL     1       0.116  52.416 -11.698  1.00  0.00     0.180 C 
BRANCH  32  33
HETATM   33  C16 UNL     1       1.045  53.022 -10.601  1.00  0.00     0.241 C 
HETATM   34  O4  UNL     1       0.634  53.438  -9.522  1.00  0.00    -0.271 OA
HETATM   35  N3  UNL     1       2.387  53.024 -10.924  1.00  0.00    -0.354 N 
HETATM   36  H18 UNL     1       2.644  52.450 -11.716  1.00  0.00     0.162 HD
BRANCH  35  37
HETATM   37  C17 UNL     1       3.469  53.382  -9.999  1.00  0.00     0.098 C 
BRANCH  37  38
HETATM   38  C18 UNL     1       4.498  52.237  -9.924  1.00  0.00     0.135 C 
BRANCH  38  39
HETATM   39  C19 UNL     1       4.036  50.977 -10.593  1.00  0.00     0.141 C 
HETATM   40  O5  UNL     1       3.707  50.829 -11.758  1.00  0.00    -0.650 OA
BRANCH  39  41
HETATM   41  O6  UNL     1       4.051  49.920  -9.754  1.00  0.00    -0.776 OA
HETATM   42  H22 UNL     1       3.759  49.171 -10.311  1.00  0.00     0.167 HD
ENDBRANCH  39  41
ENDBRANCH  38  39
ENDBRANCH  37  38
BRANCH  37  43
HETATM   43  C20 UNL     1       4.112  54.754 -10.381  1.00  0.00     0.014 C 
HETATM   44  C21 UNL     1       5.495  54.978  -9.762  1.00  0.00     0.033 C 
HETATM   45  C22 UNL     1       5.435  55.207  -8.254  1.00  0.00     0.169 C 
HETATM   46  O7  UNL     1       4.108  55.401  -7.772  1.00  0.00    -0.381 OA
HETATM   47  C23 UNL     1       3.303  56.334  -8.498  1.00  0.00     0.054 C 
HETATM   48  C24 UNL     1       3.819  57.764  -8.278  1.00  0.00     0.045 C 
HETATM   49  C25 UNL     1       1.899  56.227  -7.887  1.00  0.00     0.045 C 
HETATM   50  C26 UNL     1       3.256  55.984 -10.001  1.00  0.00     0.044 C 
ENDBRANCH  37  43
ENDBRANCH  35  37
ENDBRANCH  32  33
BRANCH  32  51
HETATM   51  C27 UNL     1      -1.283  53.087 -11.727  1.00  0.00     0.009 C 
HETATM   52  C28 UNL     1      -1.438  54.189 -10.670  1.00  0.00     0.012 C 
HETATM   53  C29 UNL     1      -2.400  52.049 -11.509  1.00  0.00     0.012 C 
ENDBRANCH  32  51
ENDBRANCH  30  32
ENDBRANCH  27  28
ENDBRANCH  26  27
ENDBRANCH  13  26
TORSDOF 12
ENDMDL
MODEL 2
REMARK minimizedAffinity -9.21487141
REMARK CNNscore 0.396746159
REMARK CNNaffinity 7.09858179
REMARK  12 active torsions:
REMARK  status: ('A' for Active; 'I' for Inactive)
REMARK    1  A    between atoms: C3_3  and  O1_4 
REMARK    2  A    between atoms: N1_14  and  O2_16 
REMARK    3  A    between atoms: O2_16  and  C13_17 
REMARK    4  A    between atoms: C13_17  and  C14_18 
REMARK       I    between atoms: C14_18  and  N2_20 
REMARK    5  A    between atoms: N2_20  and  C15_21 
REMARK    6  A    between atoms: C15_21  and  C16_22 
REMARK    7  A    between atoms: C15_21  and  C27_38 
REMARK       I    between atoms: C16_22  and  N3_24 
REMARK    8  A    between atoms: N3_24  and  C17_25 
REMARK    9  A    between atoms: C17_25  and  C18_26 
REMARK   10  A    between atoms: C17_25  and  C20_30 
REMARK   11  A    between atoms: C18_26  and  C19_27 
REMARK   12  A    between atoms: C19_27  and  O6_29 
ROOT
HETATM    1  C1  UNL     1      -0.922  49.471 -17.246  1.00  0.00     0.015 C 
HETATM    2  C2  UNL     1      -0.844  49.832 -18.391  1.00  0.00    -0.078 C 
HETATM    3  C3  UNL     1      -0.738  50.274 -19.805  1.00  0.00     0.128 C 
HETATM    4  C4  UNL     1      -0.179  49.127 -20.651  1.00  0.00     0.052 C 
HETATM    5  C5  UNL     1      -1.391  48.270 -20.997  1.00  0.00     0.010 C 
HETATM    6  C6  UNL     1      -2.623  49.203 -20.951  1.00  0.00     0.002 C 
HETATM    7  C7  UNL     1      -3.412  49.306 -22.272  1.00  0.00    -0.004 C 
HETATM    8  C8  UNL     1      -4.081  47.986 -22.662  1.00  0.00     0.010 C 
HETATM    9  C9  UNL     1      -4.996  48.201 -23.860  1.00  0.00     0.035 C 
HETATM   10  C10 UNL     1      -4.287  48.827 -25.040  1.00  0.00    -0.069 C 
HETATM   11  C11 UNL     1      -4.539  48.361 -26.278  1.00  0.00     0.030 C 
HETATM   12  C12 UNL     1      -4.034  49.053 -27.500  1.00  0.00     0.032 C 
HETATM   13  N1  UNL     1      -4.437  48.836 -28.716  1.00  0.00    -0.271 N 
ATOM     14  H1  UNL     1      -4.100  49.354 -29.527  1.00  0.00     0.194 HD
HETATM   15  C30 UNL     1      -3.035  50.176 -27.319  1.00  0.00     0.060 C 
HETATM   16  C31 UNL     1      -2.369  50.153 -25.953  1.00  0.00     0.020 C 
HETATM   17  C32 UNL     1      -3.370  50.029 -24.770  1.00  0.00    -0.016 C 
HETATM   18  C33 UNL     1      -4.255  51.296 -24.681  1.00  0.00     0.020 C 
HETATM   19  C34 UNL     1      -2.537  49.807 -23.449  1.00  0.00     0.002 C 
HETATM   20  C35 UNL     1      -1.650  51.004 -23.033  1.00  0.00     0.007 C 
HETATM   21  C36 UNL     1      -2.015  51.602 -21.675  1.00  0.00     0.014 C 
HETATM   22  C37 UNL     1      -2.112  50.598 -20.479  1.00  0.00     0.003 C 
HETATM   23  C38 UNL     1      -3.113  51.236 -19.481  1.00  0.00     0.020 C 
ENDROOT
BRANCH   3  24
HETATM   24  O1  UNL     1       0.151  51.380 -19.854  1.00  0.00    -0.377 OA
HETATM   25  H2  UNL     1       0.948  51.128 -19.360  1.00  0.00     0.211 HD
ENDBRANCH   3  24
BRANCH  13  26
HETATM   26  O2  UNL     1      -5.387  47.808 -28.784  1.00  0.00    -0.271 OA
BRANCH  26  27
HETATM   27  C13 UNL     1      -5.622  47.490 -30.145  1.00  0.00     0.303 C 
BRANCH  27  28
HETATM   28  C14 UNL     1      -6.567  46.315 -30.413  1.00  0.00     0.244 C 
HETATM   29  O3  UNL     1      -7.001  45.552 -29.552  1.00  0.00    -0.271 OA
HETATM   30  N2  UNL     1      -6.949  46.228 -31.742  1.00  0.00    -0.346 N 
HETATM   31  H16 UNL     1      -6.625  46.923 -32.406  1.00  0.00     0.163 HD
BRANCH  30  32
HETATM   32  C15 UNL     1      -7.845  45.171 -32.248  1.00  0.00     0.180 C 
BRANCH  32  33
HETATM   33  C16 UNL     1      -7.119  43.791 -32.199  1.00  0.00     0.241 C 
HETATM   34  O4  UNL     1      -7.175  43.032 -31.236  1.00  0.00    -0.271 OA
HETATM   35  N3  UNL     1      -6.427  43.466 -33.349  1.00  0.00    -0.354 N 
HETATM   36  H18 UNL     1      -6.638  44.035 -34.158  1.00  0.00     0.162 HD
BRANCH  35  37
HETATM   37  C17 UNL     1      -5.808  42.162 -33.611  1.00  0.00     0.098 C 
BRANCH  37  38
HETATM   38  C18 UNL     1      -6.524  41.466 -34.786  1.00  0.00     0.135 C 
BRANCH  38  39
HETATM   39  C19 UNL     1      -7.652  40.576 -34.351  1.00  0.00     0.141 C 
HETATM   40  O5  UNL     1      -8.434  40.760 -33.433  1.00  0.00    -0.650 OA
BRANCH  39  41
HETATM   41  O6  UNL     1      -7.775  39.489 -35.140  1.00  0.00    -0.776 OA
HETATM   42  H22 UNL     1      -8.548  39.015 -34.772  1.00  0.00     0.167 HD
ENDBRANCH  39  41
ENDBRANCH  38  39
ENDBRANCH  37  38
BRANCH  37  43
HETATM   43  C20 UNL     1      -4.267  42.298 -33.833  1.00  0.00     0.014 C 
HETATM   44  C21 UNL     1      -3.844  42.168 -35.299  1.00  0.00     0.033 C 
HETATM   45  C22 UNL     1      -3.989  40.744 -35.830  1.00  0.00     0.169 C 
HETATM   46  O7  UNL     1      -4.257  39.792 -34.804  1.00  0.00    -0.381 OA
HETATM   47  C23 UNL     1      -3.421  39.860 -33.645  1.00  0.00     0.054 C 
HETATM   48  C24 UNL     1      -1.997  39.403 -33.990  1.00  0.00     0.045 C 
HETATM   49  C25 UNL     1      -4.023  38.860 -32.647  1.00  0.00     0.045 C 
HETATM   50  C26 UNL     1      -3.419  41.280 -33.038  1.00  0.00     0.044 C 
ENDBRANCH  37  43
ENDBRANCH  35  37
ENDBRANCH  32  33
BRANCH  32  51
HETATM   51  C27 UNL     1      -9.170  45.172 -31.442  1.00  0.00     0.009 C 
HETATM   52  C28 UNL     1     -10.193  44.158 -31.974  1.00  0.00     0.012 C 
HETATM   53  C29 UNL     1      -9.823  46.567 -31.452  1.00  0.00     0.012 C 
ENDBRANCH  32  51
ENDBRANCH  30  32
ENDBRANCH  27  28
ENDBRANCH  26  27
ENDBRANCH  13  26
TORSDOF 12
ENDMDL
MODEL 3
REMARK minimizedAffinity -9.01621246
REMARK CNNscore 0.350435346
REMARK CNNaffinity 6.57904434
REMARK  12 active torsions:
REMARK  status: ('A' for Active; 'I' for Inactive)
REMARK    1  A    between atoms: C3_3  and  O1_4 
REMARK    2  A    between atoms: N1_14  and  O2_16 
REMARK    3  A    between atoms: O2_16  and  C13_17 
REMARK    4  A    between atoms: C13_17  and  C14_18 
REMARK       I    between atoms: C14_18  and  N2_20 
REMARK    5  A    between atoms: N2_20  and  C15_21 
REMARK    6  A    between atoms: C15_21  and  C16_22 
REMARK    7  A    between atoms: C15_21  and  C27_38 
REMARK       I    between atoms: C16_22  and  N3_24 
REMARK    8  A    between atoms: N3_24  and  C17_25 
REMARK    9  A    between atoms: C17_25  and  C18_26 
REMARK   10  A    between atoms: C17_25  and  C20_30 
REMARK   11  A    between atoms: C18_26  and  C19_27 
REMARK   12  A    between atoms: C19_27  and  O6_29 
ROOT
HETATM    1  C1  UNL     1       0.896  51.667 -28.042  1.00  0.00     0.015 C 
HETATM    2  C2  UNL     1      -0.197  51.837 -27.570  1.00  0.00    -0.078 C 
HETATM    3  C3  UNL     1      -1.551  52.046 -26.997  1.00  0.00     0.128 C 
HETATM    4  C4  UNL     1      -2.508  50.996 -27.567  1.00  0.00     0.052 C 
HETATM    5  C5  UNL     1      -2.311  49.767 -26.687  1.00  0.00     0.010 C 
HETATM    6  C6  UNL     1      -1.812  50.280 -25.315  1.00  0.00     0.002 C 
HETATM    7  C7  UNL     1      -2.712  49.916 -24.118  1.00  0.00    -0.004 C 
HETATM    8  C8  UNL     1      -2.755  48.410 -23.850  1.00  0.00     0.010 C 
HETATM    9  C9  UNL     1      -3.496  48.135 -22.548  1.00  0.00     0.035 C 
HETATM   10  C10 UNL     1      -4.883  48.737 -22.519  1.00  0.00    -0.069 C 
HETATM   11  C11 UNL     1      -5.899  48.015 -22.011  1.00  0.00     0.030 C 
HETATM   12  C12 UNL     1      -7.246  48.611 -21.768  1.00  0.00     0.032 C 
HETATM   13  N1  UNL     1      -8.192  48.081 -21.052  1.00  0.00    -0.271 N 
ATOM     14  H1  UNL     1      -9.088  48.532 -20.871  1.00  0.00     0.194 HD
HETATM   15  C30 UNL     1      -7.519  49.997 -22.313  1.00  0.00     0.060 C 
HETATM   16  C31 UNL     1      -6.532  50.405 -23.394  1.00  0.00     0.020 C 
HETATM   17  C32 UNL     1      -5.044  50.187 -22.999  1.00  0.00    -0.016 C 
HETATM   18  C33 UNL     1      -4.657  51.124 -21.830  1.00  0.00     0.020 C 
HETATM   19  C34 UNL     1      -4.157  50.452 -24.276  1.00  0.00     0.002 C 
HETATM   20  C35 UNL     1      -4.173  51.912 -24.785  1.00  0.00     0.007 C 
HETATM   21  C36 UNL     1      -2.805  52.592 -24.756  1.00  0.00     0.014 C 
HETATM   22  C37 UNL     1      -1.634  51.822 -25.451  1.00  0.00     0.003 C 
HETATM   23  C38 UNL     1      -0.344  52.287 -24.727  1.00  0.00     0.020 C 
ENDROOT
BRANCH   3  24
HETATM   24  O1  UNL     1      -1.992  53.344 -27.369  1.00  0.00    -0.377 OA
HETATM   25  H2  UNL     1      -1.847  53.430 -28.326  1.00  0.00     0.211 HD
ENDBRANCH   3  24
BRANCH  13  26
HETATM   26  O2  UNL     1      -7.838  46.818 -20.557  1.00  0.00    -0.271 OA
BRANCH  26  27
HETATM   27  C13 UNL     1      -8.681  46.501 -19.463  1.00  0.00     0.303 C 
BRANCH  27  28
HETATM   28  C14 UNL     1      -9.963  47.329 -19.332  1.00  0.00     0.244 C 
HETATM   29  O3  UNL     1     -10.019  48.470 -18.879  1.00  0.00    -0.271 OA
HETATM   30  N2  UNL     1     -11.074  46.680 -19.846  1.00  0.00    -0.346 N 
HETATM   31  H16 UNL     1     -10.970  45.767 -20.278  1.00  0.00     0.163 HD
BRANCH  30  32
HETATM   32  C15 UNL     1     -12.426  47.270 -19.822  1.00  0.00     0.180 C 
BRANCH  32  33
HETATM   33  C16 UNL     1     -13.133  47.030 -21.191  1.00  0.00     0.241 C 
HETATM   34  O4  UNL     1     -12.538  47.004 -22.264  1.00  0.00    -0.271 OA
HETATM   35  N3  UNL     1     -14.494  46.812 -21.102  1.00  0.00    -0.354 N 
HETATM   36  H18 UNL     1     -14.843  46.615 -20.174  1.00  0.00     0.162 HD
BRANCH  35  37
HETATM   37  C17 UNL     1     -15.349  46.399 -22.221  1.00  0.00     0.098 C 
BRANCH  37  38
HETATM   38  C18 UNL     1     -14.484  46.101 -23.463  1.00  0.00     0.135 C 
BRANCH  38  39
HETATM   39  C19 UNL     1     -14.857  46.926 -24.659  1.00  0.00     0.141 C 
HETATM   40  O5  UNL     1     -14.724  46.635 -25.836  1.00  0.00    -0.650 OA
BRANCH  39  41
HETATM   41  O6  UNL     1     -15.437  48.093 -24.311  1.00  0.00    -0.776 OA
HETATM   42  H22 UNL     1     -15.652  48.516 -25.166  1.00  0.00     0.167 HD
ENDBRANCH  39  41
ENDBRANCH  38  39
ENDBRANCH  37  38
BRANCH  37  43
HETATM   43  C20 UNL     1     -16.271  45.202 -21.821  1.00  0.00     0.014 C 
HETATM   44  C21 UNL     1     -17.505  45.052 -22.716  1.00  0.00     0.033 C 
HETATM   45  C22 UNL     1     -18.528  46.163 -22.499  1.00  0.00     0.169 C 
HETATM   46  O7  UNL     1     -18.243  46.969 -21.359  1.00  0.00    -0.381 OA
HETATM   47  C23 UNL     1     -17.935  46.267 -20.151  1.00  0.00     0.054 C 
HETATM   48  C24 UNL     1     -19.191  45.569 -19.608  1.00  0.00     0.045 C 
HETATM   49  C25 UNL     1     -17.508  47.347 -19.146  1.00  0.00     0.045 C 
HETATM   50  C26 UNL     1     -16.786  45.258 -20.366  1.00  0.00     0.044 C 
ENDBRANCH  37  43
ENDBRANCH  35  37
ENDBRANCH  32  33
BRANCH  32  51
HETATM   51  C27 UNL     1     -13.232  46.693 -18.629  1.00  0.00     0.009 C 
HETATM   52  C28 UNL     1     -13.322  47.665 -17.444  1.00  0.00     0.012 C 
HETATM   53  C29 UNL     1     -12.613  45.375 -18.127  1.00  0.00     0.012 C 
ENDBRANCH  32  51
ENDBRANCH  30  32
ENDBRANCH  27  28
ENDBRANCH  26  27
ENDBRANCH  13  26
TORSDOF 12
ENDMDL
MODEL 4
REMARK minimizedAffinity -8.49573517
REMARK CNNscore 0.32325545
REMARK CNNaffinity 6.8142128
REMARK  12 active torsions:
REMARK  status: ('A' for Active; 'I' for Inactive)
REMARK    1  A    between atoms: C3_3  and  O1_4 
REMARK    2  A    between atoms: N1_14  and  O2_16 
REMARK    3  A    between atoms: O2_16  and  C13_17 
REMARK    4  A    between atoms: C13_17  and  C14_18 
REMARK       I    between atoms: C14_18  and  N2_20 
REMARK    5  A    between atoms: N2_20  and  C15_21 
REMARK    6  A    between atoms: C15_21  and  C16_22 
REMARK    7  A    between atoms: C15_21  and  C27_38 
REMARK       I    between atoms: C16_22  and  N3_24 
REMARK    8  A    between atoms: N3_24  and  C17_25 
REMARK    9  A    between atoms: C17_25  and  C18_26 
REMARK   10  A    between atoms: C17_25  and  C20_30 
REMARK   11  A    between atoms: C18_26  and  C19_27 
REMARK   12  A    between atoms: C19_27  and  O6_29 
ROOT
HETATM    1  C1  UNL     1      -3.266  48.828 -24.787  1.00  0.00     0.015 C 
HETATM    2  C2  UNL     1      -3.342  48.531 -23.624  1.00  0.00    -0.078 C 
HETATM    3  C3  UNL     1      -3.431  48.154 -22.190  1.00  0.00     0.128 C 
HETATM    4  C4  UNL     1      -2.153  47.418 -21.780  1.00  0.00     0.052 C 
HETATM    5  C5  UNL     1      -1.158  48.522 -21.441  1.00  0.00     0.010 C 
HETATM    6  C6  UNL     1      -1.990  49.755 -21.018  1.00  0.00     0.002 C 
HETATM    7  C7  UNL     1      -1.714  50.267 -19.590  1.00  0.00    -0.004 C 
HETATM    8  C8  UNL     1      -0.298  50.822 -19.427  1.00  0.00     0.010 C 
HETATM    9  C9  UNL     1      -0.152  51.485 -18.063  1.00  0.00     0.035 C 
HETATM   10  C10 UNL     1      -0.517  50.567 -16.918  1.00  0.00    -0.069 C 
HETATM   11  C11 UNL     1       0.252  50.560 -15.814  1.00  0.00     0.030 C 
HETATM   12  C12 UNL     1      -0.153  49.834 -14.574  1.00  0.00     0.032 C 
HETATM   13  N1  UNL     1       0.380  49.984 -13.399  1.00  0.00    -0.271 N 
ATOM     14  H1  UNL     1       0.055  49.503 -12.561  1.00  0.00     0.194 HD
HETATM   15  C30 UNL     1      -1.351  48.912 -14.650  1.00  0.00     0.060 C 
HETATM   16  C31 UNL     1      -1.705  48.529 -16.077  1.00  0.00     0.020 C 
HETATM   17  C32 UNL     1      -1.808  49.743 -17.044  1.00  0.00    -0.016 C 
HETATM   18  C33 UNL     1      -2.995  50.650 -16.642  1.00  0.00     0.020 C 
HETATM   19  C34 UNL     1      -1.970  49.185 -18.510  1.00  0.00     0.002 C 
HETATM   20  C35 UNL     1      -3.289  48.420 -18.770  1.00  0.00     0.007 C 
HETATM   21  C36 UNL     1      -4.175  49.058 -19.840  1.00  0.00     0.014 C 
HETATM   22  C37 UNL     1      -3.489  49.373 -21.210  1.00  0.00     0.003 C 
HETATM   23  C38 UNL     1      -4.282  50.563 -21.808  1.00  0.00     0.020 C 
ENDROOT
BRANCH   3  24
HETATM   24  O1  UNL     1      -4.549  47.293 -22.030  1.00  0.00    -0.377 OA
HETATM   25  H2  UNL     1      -4.479  46.606 -22.713  1.00  0.00     0.211 HD
ENDBRANCH   3  24
BRANCH  13  26
HETATM   26  O2  UNL     1       1.456  50.884 -13.415  1.00  0.00    -0.271 OA
BRANCH  26  27
HETATM   27  C13 UNL     1       0.993  52.160 -13.008  1.00  0.00     0.303 C 
BRANCH  27  28
HETATM   28  C14 UNL     1       0.691  52.328 -11.517  1.00  0.00     0.244 C 
HETATM   29  O3  UNL     1       1.456  52.018 -10.606  1.00  0.00    -0.271 OA
HETATM   30  N2  UNL     1      -0.530  52.939 -11.284  1.00  0.00    -0.346 N 
HETATM   31  H16 UNL     1      -1.098  53.247 -12.067  1.00  0.00     0.163 HD
BRANCH  30  32
HETATM   32  C15 UNL     1      -1.048  53.198  -9.927  1.00  0.00     0.180 C 
BRANCH  32  33
HETATM   33  C16 UNL     1      -0.569  54.597  -9.434  1.00  0.00     0.241 C 
HETATM   34  O4  UNL     1      -1.186  55.636  -9.647  1.00  0.00    -0.271 OA
HETATM   35  N3  UNL     1       0.600  54.576  -8.698  1.00  0.00    -0.354 N 
HETATM   36  H18 UNL     1       0.895  53.664  -8.377  1.00  0.00     0.162 HD
BRANCH  35  37
HETATM   37  C17 UNL     1       1.160  55.731  -7.987  1.00  0.00     0.098 C 
BRANCH  37  38
HETATM   38  C18 UNL     1       0.166  56.222  -6.915  1.00  0.00     0.135 C 
BRANCH  38  39
HETATM   39  C19 UNL     1      -0.092  55.211  -5.836  1.00  0.00     0.141 C 
HETATM   40  O5  UNL     1       0.494  55.091  -4.772  1.00  0.00    -0.650 OA
BRANCH  39  41
HETATM   41  O6  UNL     1      -1.131  54.404  -6.132  1.00  0.00    -0.776 OA
HETATM   42  H22 UNL     1      -1.209  53.821  -5.351  1.00  0.00     0.167 HD
ENDBRANCH  39  41
ENDBRANCH  38  39
ENDBRANCH  37  38
BRANCH  37  43
HETATM   43  C20 UNL     1       2.573  55.409  -7.403  1.00  0.00     0.014 C 
HETATM   44  C21 UNL     1       3.383  56.655  -7.033  1.00  0.00     0.033 C 
HETATM   45  C22 UNL     1       3.855  57.436  -8.256  1.00  0.00     0.169 C 
HETATM   46  O7  UNL     1       3.653  56.732  -9.479  1.00  0.00    -0.381 OA
HETATM   47  C23 UNL     1       4.087  55.369  -9.501  1.00  0.00     0.054 C 
HETATM   48  C24 UNL     1       5.621  55.300  -9.468  1.00  0.00     0.045 C 
HETATM   49  C25 UNL     1       3.606  54.807 -10.847  1.00  0.00     0.045 C 
HETATM   50  C26 UNL     1       3.467  54.564  -8.338  1.00  0.00     0.044 C 
ENDBRANCH  37  43
ENDBRANCH  35  37
ENDBRANCH  32  33
BRANCH  32  51
HETATM   51  C27 UNL     1      -2.594  53.063  -9.918  1.00  0.00     0.009 C 
HETATM   52  C28 UNL     1      -3.066  51.635  -9.608  1.00  0.00     0.012 C 
HETATM   53  C29 UNL     1      -3.195  53.488 -11.271  1.00  0.00     0.012 C 
ENDBRANCH  32  51
ENDBRANCH  30  32
ENDBRANCH  27  28
ENDBRANCH  26  27
ENDBRANCH  13  26
TORSDOF 12
ENDMDL
MODEL 5
REMARK minimizedAffinity -8.84387398
REMARK CNNscore 0.308349371
REMARK CNNaffinity 6.24556494
REMARK  12 active torsions:
REMARK  status: ('A' for Active; 'I' for Inactive)
REMARK    1  A    between atoms: C3_3  and  O1_4 
REMARK    2  A    between atoms: N1_14  and  O2_16 
REMARK    3  A    between atoms: O2_16  and  C13_17 
REMARK    4  A    between atoms: C13_17  and  C14_18 
REMARK       I    between atoms: C14_18  and  N2_20 
REMARK    5  A    between atoms: N2_20  and  C15_21 
REMARK    6  A    between atoms: C15_21  and  C16_22 
REMARK    7  A    between atoms: C15_21  and  C27_38 
REMARK       I    between atoms: C16_22  and  N3_24 
REMARK    8  A    between atoms: N3_24  and  C17_25 
REMARK    9  A    between atoms: C17_25  and  C18_26 
REMARK   10  A    between atoms: C17_25  and  C20_30 
REMARK   11  A    between atoms: C18_26  and  C19_27 
REMARK   12  A    between atoms: C19_27  and  O6_29 
ROOT
HETATM    1  C1  UNL     1     -20.959  41.309 -26.303  1.00  0.00     0.015 C 
HETATM    2  C2  UNL     1     -20.113  41.833 -26.978  1.00  0.00    -0.078 C 
HETATM    3  C3  UNL     1     -19.075  42.486 -27.817  1.00  0.00     0.128 C 
HETATM    4  C4  UNL     1     -19.318  43.997 -27.834  1.00  0.00     0.052 C 
HETATM    5  C5  UNL     1     -18.642  44.516 -26.571  1.00  0.00     0.010 C 
HETATM    6  C6  UNL     1     -17.519  43.511 -26.223  1.00  0.00     0.002 C 
HETATM    7  C7  UNL     1     -16.099  44.110 -26.182  1.00  0.00    -0.004 C 
HETATM    8  C8  UNL     1     -15.921  45.124 -25.050  1.00  0.00     0.010 C 
HETATM    9  C9  UNL     1     -14.456  45.530 -24.941  1.00  0.00     0.035 C 
HETATM   10  C10 UNL     1     -13.891  46.055 -26.241  1.00  0.00    -0.069 C 
HETATM   11  C11 UNL     1     -13.091  47.137 -26.218  1.00  0.00     0.030 C 
HETATM   12  C12 UNL     1     -12.340  47.590 -27.426  1.00  0.00     0.032 C 
HETATM   13  N1  UNL     1     -11.361  48.444 -27.435  1.00  0.00    -0.271 N 
ATOM     14  H1  UNL     1     -10.841  48.704 -28.272  1.00  0.00     0.194 HD
HETATM   15  C30 UNL     1     -12.668  46.938 -28.752  1.00  0.00     0.060 C 
HETATM   16  C31 UNL     1     -14.008  46.222 -28.737  1.00  0.00     0.020 C 
HETATM   17  C32 UNL     1     -14.195  45.267 -27.524  1.00  0.00    -0.016 C 
HETATM   18  C33 UNL     1     -13.195  44.089 -27.611  1.00  0.00     0.020 C 
HETATM   19  C34 UNL     1     -15.690  44.763 -27.526  1.00  0.00     0.002 C 
HETATM   20  C35 UNL     1     -16.072  43.875 -28.733  1.00  0.00     0.007 C 
HETATM   21  C36 UNL     1     -16.504  42.461 -28.348  1.00  0.00     0.014 C 
HETATM   22  C37 UNL     1     -17.620  42.350 -27.257  1.00  0.00     0.003 C 
HETATM   23  C38 UNL     1     -17.389  40.982 -26.564  1.00  0.00     0.020 C 
ENDROOT
BRANCH   3  24
HETATM   24  O1  UNL     1     -19.186  41.970 -29.135  1.00  0.00    -0.377 OA
HETATM   25  H2  UNL     1     -20.123  42.025 -29.385  1.00  0.00     0.211 HD
ENDBRANCH   3  24
BRANCH  13  26
HETATM   26  O2  UNL     1     -11.102  48.968 -26.160  1.00  0.00    -0.271 OA
BRANCH  26  27
HETATM   27  C13 UNL     1      -9.751  49.392 -26.104  1.00  0.00     0.303 C 
BRANCH  27  28
HETATM   28  C14 UNL     1      -8.725  48.336 -25.688  1.00  0.00     0.244 C 
HETATM   29  O3  UNL     1      -8.739  47.161 -26.051  1.00  0.00    -0.271 OA
HETATM   30  N2  UNL     1      -7.714  48.854 -24.894  1.00  0.00    -0.346 N 
HETATM   31  H16 UNL     1      -7.701  49.846 -24.679  1.00  0.00     0.163 HD
BRANCH  30  32
HETATM   32  C15 UNL     1      -6.617  48.028 -24.358  1.00  0.00     0.180 C 
BRANCH  32  33
HETATM   33  C16 UNL     1      -5.252  48.751 -24.576  1.00  0.00     0.241 C 
HETATM   34  O4  UNL     1      -4.472  48.463 -25.478  1.00  0.00    -0.271 OA
HETATM   35  N3  UNL     1      -4.999  49.778 -23.687  1.00  0.00    -0.354 N 
HETATM   36  H18 UNL     1      -5.795  50.090 -23.146  1.00  0.00     0.162 HD
BRANCH  35  37
HETATM   37  C17 UNL     1      -3.872  50.711 -23.789  1.00  0.00     0.098 C 
BRANCH  37  38
HETATM   38  C18 UNL     1      -4.228  51.866 -24.746  1.00  0.00     0.135 C 
BRANCH  38  39
HETATM   39  C19 UNL     1      -3.277  51.997 -25.899  1.00  0.00     0.141 C 
HETATM   40  O5  UNL     1      -2.747  53.014 -26.317  1.00  0.00    -0.650 OA
BRANCH  39  41
HETATM   41  O6  UNL     1      -2.992  50.804 -26.462  1.00  0.00    -0.776 OA
HETATM   42  H22 UNL     1      -2.353  51.022 -27.170  1.00  0.00     0.167 HD
ENDBRANCH  39  41
ENDBRANCH  38  39
ENDBRANCH  37  38
BRANCH  37  43
HETATM   43  C20 UNL     1      -3.418  51.209 -22.379  1.00  0.00     0.014 C 
HETATM   44  C21 UNL     1      -2.175  52.104 -22.414  1.00  0.00     0.033 C 
HETATM   45  C22 UNL     1      -0.905  51.334 -22.764  1.00  0.00     0.169 C 
HETATM   46  O7  UNL     1      -1.088  49.921 -22.753  1.00  0.00    -0.381 OA
HETATM   47  C23 UNL     1      -1.757  49.380 -21.609  1.00  0.00     0.054 C 
HETATM   48  C24 UNL     1      -0.857  49.486 -20.369  1.00  0.00     0.045 C 
HETATM   49  C25 UNL     1      -1.973  47.893 -21.925  1.00  0.00     0.045 C 
HETATM   50  C26 UNL     1      -3.116  50.075 -21.373  1.00  0.00     0.044 C 
ENDBRANCH  37  43
ENDBRANCH  35  37
ENDBRANCH  32  33
BRANCH  32  51
HETATM   51  C27 UNL     1      -6.883  47.702 -22.864  1.00  0.00     0.009 C 
HETATM   52  C28 UNL     1      -7.310  48.934 -22.053  1.00  0.00     0.012 C 
HETATM   53  C29 UNL     1      -5.636  47.094 -22.198  1.00  0.00     0.012 C 
ENDBRANCH  32  51
ENDBRANCH  30  32
ENDBRANCH  27  28
ENDBRANCH  26  27
ENDBRANCH  13  26
TORSDOF 12
ENDMDL
MODEL 6
REMARK minimizedAffinity -9.28980064
REMARK CNNscore 0.262266666
REMARK CNNaffinity 7.08904028
REMARK  12 active torsions:
REMARK  status: ('A' for Active; 'I' for Inactive)
REMARK    1  A    between atoms: C3_3  and  O1_4 
REMARK    2  A    between atoms: N1_14  and  O2_16 
REMARK    3  A    between atoms: O2_16  and  C13_17 
REMARK    4  A    between atoms: C13_17  and  C14_18 
REMARK       I    between atoms: C14_18  and  N2_20 
REMARK    5  A    between atoms: N2_20  and  C15_21 
REMARK    6  A    between atoms: C15_21  and  C16_22 
REMARK    7  A    between atoms: C15_21  and  C27_38 
REMARK       I    between atoms: C16_22  and  N3_24 
REMARK    8  A    between atoms: N3_24  and  C17_25 
REMARK    9  A    between atoms: C17_25  and  C18_26 
REMARK   10  A    between atoms: C17_25  and  C20_30 
REMARK   11  A    between atoms: C18_26  and  C19_27 
REMARK   12  A    between atoms: C19_27  and  O6_29 
ROOT
HETATM    1  C1  UNL     1      -7.825  48.968 -24.197  1.00  0.00     0.015 C 
HETATM    2  C2  UNL     1      -6.682  49.340 -24.158  1.00  0.00    -0.078 C 
HETATM    3  C3  UNL     1      -5.273  49.807 -24.116  1.00  0.00     0.128 C 
HETATM    4  C4  UNL     1      -5.247  51.297 -23.764  1.00  0.00     0.052 C 
HETATM    5  C5  UNL     1      -5.320  51.341 -22.242  1.00  0.00     0.010 C 
HETATM    6  C6  UNL     1      -4.737  50.003 -21.731  1.00  0.00     0.002 C 
HETATM    7  C7  UNL     1      -3.512  50.138 -20.805  1.00  0.00    -0.004 C 
HETATM    8  C8  UNL     1      -3.850  50.817 -19.476  1.00  0.00     0.010 C 
HETATM    9  C9  UNL     1      -2.653  50.746 -18.536  1.00  0.00     0.035 C 
HETATM   10  C10 UNL     1      -1.392  51.321 -19.141  1.00  0.00    -0.069 C 
HETATM   11  C11 UNL     1      -0.595  52.094 -18.381  1.00  0.00     0.030 C 
HETATM   12  C12 UNL     1       0.756  52.531 -18.843  1.00  0.00     0.032 C 
HETATM   13  N1  UNL     1       1.684  53.044 -18.093  1.00  0.00    -0.271 N 
ATOM     14  H1  UNL     1       2.613  53.295 -18.431  1.00  0.00     0.194 HD
HETATM   15  C30 UNL     1       1.130  52.272 -20.286  1.00  0.00     0.060 C 
HETATM   16  C31 UNL     1      -0.078  51.993 -21.164  1.00  0.00     0.020 C 
HETATM   17  C32 UNL     1      -1.041  50.920 -20.582  1.00  0.00    -0.016 C 
HETATM   18  C33 UNL     1      -0.342  49.540 -20.537  1.00  0.00     0.020 C 
HETATM   19  C34 UNL     1      -2.336  50.888 -21.481  1.00  0.00     0.002 C 
HETATM   20  C35 UNL     1      -2.106  50.401 -22.931  1.00  0.00     0.007 C 
HETATM   21  C36 UNL     1      -2.876  49.130 -23.287  1.00  0.00     0.014 C 
HETATM   22  C37 UNL     1      -4.412  49.145 -22.990  1.00  0.00     0.003 C 
HETATM   23  C38 UNL     1      -4.803  47.663 -22.755  1.00  0.00     0.020 C 
ENDROOT
BRANCH   3  24
HETATM   24  O1  UNL     1      -4.705  49.611 -25.403  1.00  0.00    -0.377 OA
HETATM   25  H2  UNL     1      -5.326  49.987 -26.048  1.00  0.00     0.211 HD
ENDBRANCH   3  24
BRANCH  13  26
HETATM   26  O2  UNL     1       1.263  53.212 -16.766  1.00  0.00    -0.271 OA
BRANCH  26  27
HETATM   27  C13 UNL     1       1.914  52.252 -15.952  1.00  0.00     0.303 C 
BRANCH  27  28
HETATM   28  C14 UNL     1       1.339  52.052 -14.548  1.00  0.00     0.244 C 
HETATM   29  O3  UNL     1       0.151  51.863 -14.296  1.00  0.00    -0.271 OA
HETATM   30  N2  UNL     1       2.316  52.040 -13.566  1.00  0.00    -0.346 N 
HETATM   31  H16 UNL     1       3.294  52.126 -13.826  1.00  0.00     0.163 HD
BRANCH  30  32
HETATM   32  C15 UNL     1       2.007  51.876 -12.133  1.00  0.00     0.180 C 
BRANCH  32  33
HETATM   33  C16 UNL     1       1.358  53.180 -11.577  1.00  0.00     0.241 C 
HETATM   34  O4  UNL     1       0.149  53.392 -11.590  1.00  0.00    -0.271 OA
HETATM   35  N3  UNL     1       2.253  54.077 -11.029  1.00  0.00    -0.354 N 
HETATM   36  H18 UNL     1       3.179  53.712 -10.849  1.00  0.00     0.162 HD
BRANCH  35  37
HETATM   37  C17 UNL     1       1.876  55.291 -10.295  1.00  0.00     0.098 C 
BRANCH  37  38
HETATM   38  C18 UNL     1       1.285  54.914  -8.922  1.00  0.00     0.135 C 
BRANCH  38  39
HETATM   39  C19 UNL     1      -0.045  55.555  -8.651  1.00  0.00     0.141 C 
HETATM   40  O5  UNL     1      -0.414  56.100  -7.624  1.00  0.00    -0.650 OA
BRANCH  39  41
HETATM   41  O6  UNL     1      -0.856  55.519  -9.729  1.00  0.00    -0.776 OA
HETATM   42  H22 UNL     1      -1.664  55.984  -9.433  1.00  0.00     0.167 HD
ENDBRANCH  39  41
ENDBRANCH  38  39
ENDBRANCH  37  38
BRANCH  37  43
HETATM   43  C20 UNL     1       3.076  56.286 -10.188  1.00  0.00     0.014 C 
HETATM   44  C21 UNL     1       4.353  55.785 -10.868  1.00  0.00     0.033 C 
HETATM   45  C22 UNL     1       5.001  54.623 -10.120  1.00  0.00     0.169 C 
HETATM   46  O7  UNL     1       4.429  54.399  -8.834  1.00  0.00    -0.381 OA
HETATM   47  C23 UNL     1       4.262  55.554  -8.007  1.00  0.00     0.054 C 
HETATM   48  C24 UNL     1       5.629  56.076  -7.543  1.00  0.00     0.045 C 
HETATM   49  C25 UNL     1       3.484  55.069  -6.776  1.00  0.00     0.045 C 
HETATM   50  C26 UNL     1       3.464  56.657  -8.739  1.00  0.00     0.044 C 
ENDBRANCH  37  43
ENDBRANCH  35  37
ENDBRANCH  32  33
BRANCH  32  51
HETATM   51  C27 UNL     1       1.106  50.630 -11.927  1.00  0.00     0.009 C 
HETATM   52  C28 UNL     1       0.680  50.437 -10.465  1.00  0.00     0.012 C 
HETATM   53  C29 UNL     1       1.816  49.347 -12.397  1.00  0.00     0.012 C 
ENDBRANCH  32  51
ENDBRANCH  30  32
ENDBRANCH  27  28
ENDBRANCH  26  27
ENDBRANCH  13  26
TORSDOF 12
ENDMDL
MODEL 7
REMARK minimizedAffinity -8.49384975
REMARK CNNscore 0.246167406
REMARK CNNaffinity 7.12310839
REMARK  12 active torsions:
REMARK  status: ('A' for Active; 'I' for Inactive)
REMARK    1  A    between atoms: C3_3  and  O1_4 
REMARK    2  A    between atoms: N1_14  and  O2_16 
REMARK    3  A    between atoms: O2_16  and  C13_17 
REMARK    4  A    between atoms: C13_17  and  C14_18 
REMARK       I    between atoms: C14_18  and  N2_20 
REMARK    5  A    between atoms: N2_20  and  C15_21 
REMARK    6  A    between atoms: C15_21  and  C16_22 
REMARK    7  A    between atoms: C15_21  and  C27_38 
REMARK       I    between atoms: C16_22  and  N3_24 
REMARK    8  A    between atoms: N3_24  and  C17_25 
REMARK    9  A    between atoms: C17_25  and  C18_26 
REMARK   10  A    between atoms: C17_25  and  C20_30 
REMARK   11  A    between atoms: C18_26  and  C19_27 
REMARK   12  A    between atoms: C19_27  and  O6_29 
ROOT
HETATM    1  C1  UNL     1      -7.407  49.206 -24.003  1.00  0.00     0.015 C 
HETATM    2  C2  UNL     1      -6.327  49.735 -23.965  1.00  0.00    -0.078 C 
HETATM    3  C3  UNL     1      -4.998  50.397 -23.921  1.00  0.00     0.128 C 
HETATM    4  C4  UNL     1      -5.129  51.746 -23.209  1.00  0.00     0.052 C 
HETATM    5  C5  UNL     1      -5.028  51.416 -21.725  1.00  0.00     0.010 C 
HETATM    6  C6  UNL     1      -4.215  50.104 -21.616  1.00  0.00     0.002 C 
HETATM    7  C7  UNL     1      -2.918  50.210 -20.789  1.00  0.00    -0.004 C 
HETATM    8  C8  UNL     1      -3.184  50.492 -19.309  1.00  0.00     0.010 C 
HETATM    9  C9  UNL     1      -1.886  50.390 -18.519  1.00  0.00     0.035 C 
HETATM   10  C10 UNL     1      -0.794  51.285 -19.060  1.00  0.00    -0.069 C 
HETATM   11  C11 UNL     1      -0.023  51.972 -18.197  1.00  0.00     0.030 C 
HETATM   12  C12 UNL     1       1.193  52.715 -18.642  1.00  0.00     0.032 C 
HETATM   13  N1  UNL     1       2.127  53.176 -17.866  1.00  0.00    -0.271 N 
ATOM     14  H1  UNL     1       2.967  53.645 -18.204  1.00  0.00     0.194 HD
HETATM   15  C30 UNL     1       1.426  52.868 -20.130  1.00  0.00     0.060 C 
HETATM   16  C31 UNL     1       0.171  52.617 -20.948  1.00  0.00     0.020 C 
HETATM   17  C32 UNL     1      -0.565  51.298 -20.579  1.00  0.00    -0.016 C 
HETATM   18  C33 UNL     1       0.313  50.075 -20.940  1.00  0.00     0.020 C 
HETATM   19  C34 UNL     1      -1.941  51.275 -21.348  1.00  0.00     0.002 C 
HETATM   20  C35 UNL     1      -1.821  51.188 -22.888  1.00  0.00     0.007 C 
HETATM   21  C36 UNL     1      -2.451  49.932 -23.488  1.00  0.00     0.014 C 
HETATM   22  C37 UNL     1      -3.929  49.632 -23.073  1.00  0.00     0.003 C 
HETATM   23  C38 UNL     1      -4.088  48.094 -23.188  1.00  0.00     0.020 C 
ENDROOT
BRANCH   3  24
HETATM   24  O1  UNL     1      -4.565  50.604 -25.258  1.00  0.00    -0.377 OA
HETATM   25  H2  UNL     1      -5.302  51.019 -25.736  1.00  0.00     0.211 HD
ENDBRANCH   3  24
BRANCH  13  26
HETATM   26  O2  UNL     1       1.847  52.957 -16.510  1.00  0.00    -0.271 OA
BRANCH  26  27
HETATM   27  C13 UNL     1       2.940  52.276 -15.919  1.00  0.00     0.303 C 
BRANCH  27  28
HETATM   28  C14 UNL     1       2.615  51.382 -14.720  1.00  0.00     0.244 C 
HETATM   29  O3  UNL     1       3.402  50.596 -14.196  1.00  0.00    -0.271 OA
HETATM   30  N2  UNL     1       1.339  51.593 -14.225  1.00  0.00    -0.346 N 
HETATM   31  H16 UNL     1       0.748  52.306 -14.642  1.00  0.00     0.163 HD
BRANCH  30  32
HETATM   32  C15 UNL     1       0.791  50.842 -13.080  1.00  0.00     0.180 C 
BRANCH  32  33
HETATM   33  C16 UNL     1       0.203  51.831 -12.027  1.00  0.00     0.241 C 
HETATM   34  O4  UNL     1      -0.708  51.538 -11.260  1.00  0.00    -0.271 OA
HETATM   35  N3  UNL     1       0.818  53.067 -11.998  1.00  0.00    -0.354 N 
HETATM   36  H18 UNL     1       1.699  53.126 -12.490  1.00  0.00     0.162 HD
BRANCH  35  37
HETATM   37  C17 UNL     1       0.562  54.103 -10.990  1.00  0.00     0.098 C 
BRANCH  37  38
HETATM   38  C18 UNL     1      -0.584  53.660 -10.059  1.00  0.00     0.135 C 
BRANCH  38  39
HETATM   39  C19 UNL     1      -1.863  54.410 -10.291  1.00  0.00     0.141 C 
HETATM   40  O5  UNL     1      -3.003  53.997 -10.160  1.00  0.00    -0.650 OA
BRANCH  39  41
HETATM   41  O6  UNL     1      -1.643  55.694 -10.643  1.00  0.00    -0.776 OA
HETATM   42  H22 UNL     1      -2.540  56.071 -10.737  1.00  0.00     0.167 HD
ENDBRANCH  39  41
ENDBRANCH  38  39
ENDBRANCH  37  38
BRANCH  37  43
HETATM   43  C20 UNL     1       1.866  54.477 -10.215  1.00  0.00     0.014 C 
HETATM   44  C21 UNL     1       3.148  53.992 -10.899  1.00  0.00     0.033 C 
HETATM   45  C22 UNL     1       3.313  52.476 -10.833  1.00  0.00     0.169 C 
HETATM   46  O7  UNL     1       2.380  51.851  -9.956  1.00  0.00    -0.381 OA
HETATM   47  C23 UNL     1       2.237  52.441  -8.661  1.00  0.00     0.054 C 
HETATM   48  C24 UNL     1       3.503  52.202  -7.826  1.00  0.00     0.045 C 
HETATM   49  C25 UNL     1       1.071  51.696  -7.996  1.00  0.00     0.045 C 
HETATM   50  C26 UNL     1       1.914  53.948  -8.763  1.00  0.00     0.044 C 
ENDBRANCH  37  43
ENDBRANCH  35  37
ENDBRANCH  32  33
BRANCH  32  51
HETATM   51  C27 UNL     1      -0.259  49.814 -13.579  1.00  0.00     0.009 C 
HETATM   52  C28 UNL     1      -0.037  48.408 -13.003  1.00  0.00     0.012 C 
HETATM   53  C29 UNL     1      -0.250  49.713 -15.116  1.00  0.00     0.012 C 
ENDBRANCH  32  51
ENDBRANCH  30  32
ENDBRANCH  27  28
ENDBRANCH  26  27
ENDBRANCH  13  26
TORSDOF 12
ENDMDL
MODEL 8
REMARK minimizedAffinity -8.61231422
REMARK CNNscore 0.233747244
REMARK CNNaffinity 6.98646545
REMARK  12 active torsions:
REMARK  status: ('A' for Active; 'I' for Inactive)
REMARK    1  A    between atoms: C3_3  and  O1_4 
REMARK    2  A    between atoms: N1_14  and  O2_16 
REMARK    3  A    between atoms: O2_16  and  C13_17 
REMARK    4  A    between atoms: C13_17  and  C14_18 
REMARK       I    between atoms: C14_18  and  N2_20 
REMARK    5  A    between atoms: N2_20  and  C15_21 
REMARK    6  A    between atoms: C15_21  and  C16_22 
REMARK    7  A    between atoms: C15_21  and  C27_38 
REMARK       I    between atoms: C16_22  and  N3_24 
REMARK    8  A    between atoms: N3_24  and  C17_25 
REMARK    9  A    between atoms: C17_25  and  C18_26 
REMARK   10  A    between atoms: C17_25  and  C20_30 
REMARK   11  A    between atoms: C18_26  and  C19_27 
REMARK   12  A    between atoms: C19_27  and  O6_29 
ROOT
HETATM    1  C1  UNL     1      -7.774  48.886 -23.948  1.00  0.00     0.015 C 
HETATM    2  C2  UNL     1      -6.675  49.374 -23.926  1.00  0.00    -0.078 C 
HETATM    3  C3  UNL     1      -5.321  49.985 -23.903  1.00  0.00     0.128 C 
HETATM    4  C4  UNL     1      -5.418  51.405 -23.340  1.00  0.00     0.052 C 
HETATM    5  C5  UNL     1      -5.378  51.229 -21.826  1.00  0.00     0.010 C 
HETATM    6  C6  UNL     1      -4.625  49.906 -21.553  1.00  0.00     0.002 C 
HETATM    7  C7  UNL     1      -3.351  50.047 -20.696  1.00  0.00    -0.004 C 
HETATM    8  C8  UNL     1      -3.653  50.493 -19.263  1.00  0.00     0.010 C 
HETATM    9  C9  UNL     1      -2.386  50.425 -18.420  1.00  0.00     0.035 C 
HETATM   10  C10 UNL     1      -1.240  51.215 -19.011  1.00  0.00    -0.069 C 
HETATM   11  C11 UNL     1      -0.469  51.959 -18.197  1.00  0.00     0.030 C 
HETATM   12  C12 UNL     1       0.791  52.604 -18.673  1.00  0.00     0.032 C 
HETATM   13  N1  UNL     1       1.718  53.108 -17.915  1.00  0.00    -0.271 N 
ATOM     14  H1  UNL     1       2.587  53.506 -18.269  1.00  0.00     0.194 HD
HETATM   15  C30 UNL     1       1.077  52.591 -20.159  1.00  0.00     0.060 C 
HETATM   16  C31 UNL     1      -0.161  52.304 -20.992  1.00  0.00     0.020 C 
HETATM   17  C32 UNL     1      -0.963  51.060 -20.514  1.00  0.00    -0.016 C 
HETATM   18  C33 UNL     1      -0.127  49.773 -20.715  1.00  0.00     0.020 C 
HETATM   19  C34 UNL     1      -2.314  51.010 -21.326  1.00  0.00     0.002 C 
HETATM   20  C35 UNL     1      -2.149  50.757 -22.843  1.00  0.00     0.007 C 
HETATM   21  C36 UNL     1      -2.811  49.470 -23.333  1.00  0.00     0.014 C 
HETATM   22  C37 UNL     1      -4.313  49.272 -22.942  1.00  0.00     0.003 C 
HETATM   23  C38 UNL     1      -4.533  47.738 -22.903  1.00  0.00     0.020 C 
ENDROOT
BRANCH   3  24
HETATM   24  O1  UNL     1      -4.838  50.034 -25.238  1.00  0.00    -0.377 OA
HETATM   25  H2  UNL     1      -5.541  50.424 -25.782  1.00  0.00     0.211 HD
ENDBRANCH   3  24
BRANCH  13  26
HETATM   26  O2  UNL     1       1.386  53.042 -16.555  1.00  0.00    -0.271 OA
BRANCH  26  27
HETATM   27  C13 UNL     1       2.465  52.458 -15.846  1.00  0.00     0.303 C 
BRANCH  27  28
HETATM   28  C14 UNL     1       2.116  51.783 -14.517  1.00  0.00     0.244 C 
HETATM   29  O3  UNL     1       1.255  50.917 -14.373  1.00  0.00    -0.271 OA
HETATM   30  N2  UNL     1       2.927  52.202 -13.474  1.00  0.00    -0.346 N 
HETATM   31  H16 UNL     1       3.675  52.865 -13.653  1.00  0.00     0.163 HD
BRANCH  30  32
HETATM   32  C15 UNL     1       2.776  51.705 -12.095  1.00  0.00     0.180 C 
BRANCH  32  33
HETATM   33  C16 UNL     1       1.325  51.973 -11.589  1.00  0.00     0.241 C 
HETATM   34  O4  UNL     1       0.632  51.121 -11.041  1.00  0.00    -0.271 OA
HETATM   35  N3  UNL     1       0.884  53.268 -11.775  1.00  0.00    -0.354 N 
HETATM   36  H18 UNL     1       1.601  53.942 -12.008  1.00  0.00     0.162 HD
BRANCH  35  37
HETATM   37  C17 UNL     1      -0.370  53.809 -11.238  1.00  0.00     0.098 C 
BRANCH  37  38
HETATM   38  C18 UNL     1      -1.206  52.676 -10.609  1.00  0.00     0.135 C 
BRANCH  38  39
HETATM   39  C19 UNL     1      -2.264  52.138 -11.527  1.00  0.00     0.141 C 
HETATM   40  O5  UNL     1      -2.961  52.764 -12.309  1.00  0.00    -0.650 OA
BRANCH  39  41
HETATM   41  O6  UNL     1      -2.370  50.795 -11.451  1.00  0.00    -0.776 OA
HETATM   42  H22 UNL     1      -3.063  50.574 -12.105  1.00  0.00     0.167 HD
ENDBRANCH  39  41
ENDBRANCH  38  39
ENDBRANCH  37  38
BRANCH  37  43
HETATM   43  C20 UNL     1      -0.103  54.988 -10.248  1.00  0.00     0.014 C 
HETATM   44  C21 UNL     1       1.385  55.259 -10.003  1.00  0.00     0.033 C 
HETATM   45  C22 UNL     1       2.056  54.163  -9.181  1.00  0.00     0.169 C 
HETATM   46  O7  UNL     1       1.127  53.243  -8.614  1.00  0.00    -0.381 OA
HETATM   47  C23 UNL     1       0.001  53.816  -7.943  1.00  0.00     0.054 C 
HETATM   48  C24 UNL     1       0.448  54.495  -6.640  1.00  0.00     0.045 C 
HETATM   49  C25 UNL     1      -0.910  52.633  -7.585  1.00  0.00     0.045 C 
HETATM   50  C26 UNL     1      -0.752  54.807  -8.857  1.00  0.00     0.044 C 
ENDBRANCH  37  43
ENDBRANCH  35  37
ENDBRANCH  32  33
BRANCH  32  51
HETATM   51  C27 UNL     1       3.157  50.202 -12.031  1.00  0.00     0.009 C 
HETATM   52  C28 UNL     1       3.521  49.739 -10.614  1.00  0.00     0.012 C 
HETATM   53  C29 UNL     1       4.346  49.892 -12.961  1.00  0.00     0.012 C 
ENDBRANCH  32  51
ENDBRANCH  30  32
ENDBRANCH  27  28
ENDBRANCH  26  27
ENDBRANCH  13  26
TORSDOF 12
ENDMDL
MODEL 9
REMARK minimizedAffinity -9.11798573
REMARK CNNscore 0.218458056
REMARK CNNaffinity 7.00327301
REMARK  12 active torsions:
REMARK  status: ('A' for Active; 'I' for Inactive)
REMARK    1  A    between atoms: C3_3  and  O1_4 
REMARK    2  A    between atoms: N1_14  and  O2_16 
REMARK    3  A    between atoms: O2_16  and  C13_17 
REMARK    4  A    between atoms: C13_17  and  C14_18 
REMARK       I    between atoms: C14_18  and  N2_20 
REMARK    5  A    between atoms: N2_20  and  C15_21 
REMARK    6  A    between atoms: C15_21  and  C16_22 
REMARK    7  A    between atoms: C15_21  and  C27_38 
REMARK       I    between atoms: C16_22  and  N3_24 
REMARK    8  A    between atoms: N3_24  and  C17_25 
REMARK    9  A    between atoms: C17_25  and  C18_26 
REMARK   10  A    between atoms: C17_25  and  C20_30 
REMARK   11  A    between atoms: C18_26  and  C19_27 
REMARK   12  A    between atoms: C19_27  and  O6_29 
ROOT
HETATM    1  C1  UNL     1      -7.316  49.038 -24.063  1.00  0.00     0.015 C 
HETATM    2  C2  UNL     1      -6.269  49.625 -23.988  1.00  0.00    -0.078 C 
HETATM    3  C3  UNL     1      -4.981  50.359 -23.897  1.00  0.00     0.128 C 
HETATM    4  C4  UNL     1      -5.191  51.652 -23.106  1.00  0.00     0.052 C 
HETATM    5  C5  UNL     1      -5.073  51.239 -21.643  1.00  0.00     0.010 C 
HETATM    6  C6  UNL     1      -4.185  49.973 -21.610  1.00  0.00     0.002 C 
HETATM    7  C7  UNL     1      -2.897  50.103 -20.773  1.00  0.00    -0.004 C 
HETATM    8  C8  UNL     1      -3.181  50.279 -19.279  1.00  0.00     0.010 C 
HETATM    9  C9  UNL     1      -1.881  50.206 -18.490  1.00  0.00     0.035 C 
HETATM   10  C10 UNL     1      -0.842  51.193 -18.971  1.00  0.00    -0.069 C 
HETATM   11  C11 UNL     1      -0.113  51.871 -18.064  1.00  0.00     0.030 C 
HETATM   12  C12 UNL     1       1.058  52.708 -18.458  1.00  0.00     0.032 C 
HETATM   13  N1  UNL     1       1.962  53.175 -17.651  1.00  0.00    -0.271 N 
ATOM     14  H1  UNL     1       2.774  53.711 -17.956  1.00  0.00     0.194 HD
HETATM   15  C30 UNL     1       1.283  52.965 -19.933  1.00  0.00     0.060 C 
HETATM   16  C31 UNL     1       0.046  52.692 -20.771  1.00  0.00     0.020 C 
HETATM   17  C32 UNL     1      -0.612  51.312 -20.485  1.00  0.00    -0.016 C 
HETATM   18  C33 UNL     1       0.336  50.166 -20.916  1.00  0.00     0.020 C 
HETATM   19  C34 UNL     1      -1.984  51.256 -21.261  1.00  0.00     0.002 C 
HETATM   20  C35 UNL     1      -1.857  51.270 -22.803  1.00  0.00     0.007 C 
HETATM   21  C36 UNL     1      -2.411  50.018 -23.481  1.00  0.00     0.014 C 
HETATM   22  C37 UNL     1      -3.870  49.607 -23.092  1.00  0.00     0.003 C 
HETATM   23  C38 UNL     1      -3.939  48.072 -23.300  1.00  0.00     0.020 C 
ENDROOT
BRANCH   3  24
HETATM   24  O1  UNL     1      -4.559  50.672 -25.217  1.00  0.00    -0.377 OA
HETATM   25  H2  UNL     1      -5.318  51.071 -25.672  1.00  0.00     0.211 HD
ENDBRANCH   3  24
BRANCH  13  26
HETATM   26  O2  UNL     1       1.694  52.858 -16.312  1.00  0.00    -0.271 OA
BRANCH  26  27
HETATM   27  C13 UNL     1       2.844  52.259 -15.742  1.00  0.00     0.303 C 
BRANCH  27  28
HETATM   28  C14 UNL     1       2.595  51.175 -14.690  1.00  0.00     0.244 C 
HETATM   29  O3  UNL     1       3.411  50.818 -13.843  1.00  0.00    -0.271 OA
HETATM   30  N2  UNL     1       1.307  50.666 -14.740  1.00  0.00    -0.346 N 
HETATM   31  H16 UNL     1       0.642  51.043 -15.408  1.00  0.00     0.163 HD
BRANCH  30  32
HETATM   32  C15 UNL     1       0.833  49.603 -13.836  1.00  0.00     0.180 C 
BRANCH  32  33
HETATM   33  C16 UNL     1      -0.383  50.116 -13.004  1.00  0.00     0.241 C 
HETATM   34  O4  UNL     1      -0.930  49.454 -12.128  1.00  0.00    -0.271 OA
HETATM   35  N3  UNL     1      -0.782  51.403 -13.308  1.00  0.00    -0.354 N 
HETATM   36  H18 UNL     1      -0.129  51.941 -13.861  1.00  0.00     0.162 HD
BRANCH  35  37
HETATM   37  C17 UNL     1      -1.784  52.166 -12.555  1.00  0.00     0.098 C 
BRANCH  37  38
HETATM   38  C18 UNL     1      -3.179  51.967 -13.183  1.00  0.00     0.135 C 
BRANCH  38  39
HETATM   39  C19 UNL     1      -3.161  51.103 -14.409  1.00  0.00     0.141 C 
HETATM   40  O5  UNL     1      -2.907  51.439 -15.554  1.00  0.00    -0.650 OA
BRANCH  39  41
HETATM   41  O6  UNL     1      -3.426  49.811 -14.125  1.00  0.00    -0.776 OA
HETATM   42  H22 UNL     1      -3.359  49.359 -14.990  1.00  0.00     0.167 HD
ENDBRANCH  39  41
ENDBRANCH  38  39
ENDBRANCH  37  38
BRANCH  37  43
HETATM   43  C20 UNL     1      -1.746  51.809 -11.034  1.00  0.00     0.014 C 
HETATM   44  C21 UNL     1      -3.026  52.186 -10.282  1.00  0.00     0.033 C 
HETATM   45  C22 UNL     1      -3.190  53.695 -10.121  1.00  0.00     0.169 C 
HETATM   46  O7  UNL     1      -2.023  54.426 -10.486  1.00  0.00    -0.381 OA
HETATM   47  C23 UNL     1      -0.786  53.951  -9.945  1.00  0.00     0.054 C 
HETATM   48  C24 UNL     1      -0.734  54.212  -8.433  1.00  0.00     0.045 C 
HETATM   49  C25 UNL     1       0.307  54.793 -10.620  1.00  0.00     0.045 C 
HETATM   50  C26 UNL     1      -0.574  52.455 -10.261  1.00  0.00     0.044 C 
ENDBRANCH  37  43
ENDBRANCH  35  37
ENDBRANCH  32  33
BRANCH  32  51
HETATM   51  C27 UNL     1       0.496  48.327 -14.652  1.00  0.00     0.009 C 
HETATM   52  C28 UNL     1       0.208  48.625 -16.131  1.00  0.00     0.012 C 
HETATM   53  C29 UNL     1      -0.722  47.595 -14.060  1.00  0.00     0.012 C 
ENDBRANCH  32  51
ENDBRANCH  30  32
ENDBRANCH  27  28
ENDBRANCH  26  27
ENDBRANCH  13  26
TORSDOF 12
ENDMDL
