MODEL 1
REMARK minimizedAffinity -7.13113308
REMARK CNNscore 0.483772457
REMARK CNNaffinity 6.45791864
REMARK  6 active torsions:
REMARK  status: ('A' for Active; 'I' for Inactive)
REMARK    1  A    between atoms: C2_2  and  C4_4 
REMARK    2  A    between atoms: C10_11  and  O2_12 
REMARK    3  A    between atoms: C26_29  and  C27_30 
REMARK    4  A    between atoms: C27_30  and  O3_33 
REMARK    5  A    between atoms: C30_34  and  O4_35 
REMARK    6  A    between atoms: C37_43  and  O6_44 
ROOT
HETATM    1  C4  UNL     1     -18.707  -5.164  34.066  1.00  0.00     0.181 C 
HETATM    2  O1  UNL     1     -17.731  -6.169  33.751  1.00  0.00    -0.370 OA
HETATM    3  C5  UNL     1     -16.393  -5.652  33.629  1.00  0.00     0.163 C 
HETATM    4  C6  UNL     1     -15.516  -6.907  33.584  1.00  0.00     0.036 C 
HETATM    5  C7  UNL     1     -14.340  -6.868  32.626  1.00  0.00     0.016 C 
HETATM    6  C8  UNL     1     -14.722  -6.296  31.239  1.00  0.00     0.007 C 
HETATM    7  C9  UNL     1     -15.943  -7.108  30.667  1.00  0.00     0.020 C 
HETATM    8  C10 UNL     1     -15.158  -4.797  31.454  1.00  0.00     0.103 C 
HETATM    9  C11 UNL     1     -15.437  -4.092  30.092  1.00  0.00     0.046 C 
HETATM   10  C12 UNL     1     -14.313  -4.233  29.055  1.00  0.00     0.038 C 
HETATM   11  C13 UNL     1     -13.891  -5.656  28.942  1.00  0.00    -0.064 A 
HETATM   12  C14 UNL     1     -13.899  -6.510  27.884  1.00  0.00     0.018 A 
HETATM   13  C15 UNL     1     -13.543  -7.823  28.298  1.00  0.00     0.001 A 
HETATM   14  C16 UNL     1     -13.303  -7.749  29.644  1.00  0.00     0.034 A 
HETATM   15  N1  UNL     1     -12.892  -8.944  30.100  1.00  0.00    -0.357 N 
HETATM   16  C17 UNL     1     -12.879  -9.828  29.032  1.00  0.00     0.044 A 
HETATM   17  C18 UNL     1     -12.472 -11.163  29.049  1.00  0.00     0.031 A 
HETATM   18  C19 UNL     1     -12.485 -11.854  27.849  1.00  0.00     0.010 A 
HETATM   19  C20 UNL     1     -12.980 -11.260  26.683  1.00  0.00    -0.044 A 
HETATM   20  C21 UNL     1     -12.847 -12.045  25.397  1.00  0.00     0.073 C 
HETATM   21  C22 UNL     1     -13.840 -11.687  24.335  1.00  0.00    -0.078 C 
HETATM   22  C23 UNL     1     -14.480 -12.625  23.618  1.00  0.00     0.015 C 
HETATM   23  C24 UNL     1     -14.060 -10.227  24.069  1.00  0.00     0.054 C 
HETATM   24  C25 UNL     1     -15.496  -9.781  23.721  1.00  0.00     0.023 C 
HETATM   25  C26 UNL     1     -15.763  -9.534  25.224  1.00  0.00     0.060 C 
HETATM   26  C30 UNL     1     -14.181  -9.304  25.380  1.00  0.00     0.100 C 
HETATM   27  C31 UNL     1     -13.485  -9.924  26.674  1.00  0.00    -0.003 A 
HETATM   28  C32 UNL     1     -13.352  -9.161  27.871  1.00  0.00     0.013 A 
HETATM   29  C33 UNL     1     -13.492  -6.392  30.247  1.00  0.00     0.033 A 
HETATM   30  C34 UNL     1     -12.122  -5.894  30.760  1.00  0.00     0.028 C 
HETATM   31  C35 UNL     1     -16.340  -4.704  32.445  1.00  0.00     0.147 A 
HETATM   32  O5  UNL     1     -16.538  -3.321  32.886  1.00  0.00    -0.360 OA
HETATM   33  C36 UNL     1     -17.604  -3.899  32.140  1.00  0.00     0.194 A 
HETATM   34  C37 UNL     1     -18.861  -4.101  32.925  1.00  0.00     0.183 C 
HETATM   35  H21 UNL     1     -12.604  -9.169  31.041  1.00  0.00     0.166 HD
ENDROOT
BRANCH  25  36
HETATM   36  C27 UNL     1     -16.823  -8.454  25.501  1.00  0.00     0.057 C 
HETATM   37  C28 UNL     1     -16.483  -7.154  24.778  1.00  0.00     0.046 C 
HETATM   38  C29 UNL     1     -16.907  -8.172  27.008  1.00  0.00     0.046 C 
BRANCH  36  39
HETATM   39  O3  UNL     1     -18.101  -8.902  25.082  1.00  0.00    -0.390 OA
HETATM   40  H38 UNL     1     -17.993  -9.423  24.261  1.00  0.00     0.210 HD
ENDBRANCH  36  39
ENDBRANCH  25  36
BRANCH  26  41
HETATM   41  O4  UNL     1     -13.758  -7.932  25.123  1.00  0.00    -0.384 OA
HETATM   42  H39 UNL     1     -12.799  -7.949  25.256  1.00  0.00     0.211 HD
ENDBRANCH  26  41
BRANCH   8  43
HETATM   43  O2  UNL     1     -14.083  -4.060  32.064  1.00  0.00    -0.386 OA
HETATM   44  H15 UNL     1     -14.479  -3.215  32.356  1.00  0.00     0.210 HD
ENDBRANCH   8  43
BRANCH  34  45
HETATM   45  O6  UNL     1     -19.900  -4.414  31.985  1.00  0.00    -0.390 OA
HETATM   46  H45 UNL     1     -20.159  -3.577  31.561  1.00  0.00     0.210 HD
ENDBRANCH  34  45
BRANCH   1  47
HETATM   47  C2  UNL     1     -19.967  -5.919  34.481  1.00  0.00    -0.062 C 
HETATM   48  C1  UNL     1     -20.187  -7.217  34.163  1.00  0.00     0.016 C 
HETATM   49  C3  UNL     1     -21.017  -5.130  35.238  1.00  0.00     0.045 C 
ENDBRANCH   1  47
TORSDOF 6
ENDMDL
MODEL 2
REMARK minimizedAffinity -6.99307775
REMARK CNNscore 0.446853012
REMARK CNNaffinity 5.96889639
REMARK  6 active torsions:
REMARK  status: ('A' for Active; 'I' for Inactive)
REMARK    1  A    between atoms: C2_2  and  C4_4 
REMARK    2  A    between atoms: C10_11  and  O2_12 
REMARK    3  A    between atoms: C26_29  and  C27_30 
REMARK    4  A    between atoms: C27_30  and  O3_33 
REMARK    5  A    between atoms: C30_34  and  O4_35 
REMARK    6  A    between atoms: C37_43  and  O6_44 
ROOT
HETATM    1  C4  UNL     1     -12.010  18.908  23.321  1.00  0.00     0.181 C 
HETATM    2  O1  UNL     1     -11.864  17.653  24.001  1.00  0.00    -0.370 OA
HETATM    3  C5  UNL     1     -10.540  17.096  23.901  1.00  0.00     0.163 C 
HETATM    4  C6  UNL     1     -10.546  15.947  24.914  1.00  0.00     0.036 C 
HETATM    5  C7  UNL     1      -9.816  14.683  24.497  1.00  0.00     0.016 C 
HETATM    6  C8  UNL     1     -10.138  14.264  23.043  1.00  0.00     0.007 C 
HETATM    7  C9  UNL     1     -11.698  14.147  22.874  1.00  0.00     0.020 C 
HETATM    8  C10 UNL     1      -9.604  15.406  22.096  1.00  0.00     0.103 C 
HETATM    9  C11 UNL     1      -9.764  15.014  20.596  1.00  0.00     0.046 C 
HETATM   10  C12 UNL     1      -9.194  13.636  20.230  1.00  0.00     0.038 C 
HETATM   11  C13 UNL     1      -9.672  12.607  21.195  1.00  0.00    -0.064 A 
HETATM   12  C14 UNL     1     -10.406  11.477  21.007  1.00  0.00     0.018 A 
HETATM   13  C15 UNL     1     -10.749  10.891  22.256  1.00  0.00     0.001 A 
HETATM   14  C16 UNL     1     -10.193  11.688  23.220  1.00  0.00     0.034 A 
HETATM   15  N1  UNL     1     -10.417  11.159  24.435  1.00  0.00    -0.357 N 
HETATM   16  C17 UNL     1     -11.153   9.996  24.266  1.00  0.00     0.044 A 
HETATM   17  C18 UNL     1     -11.563   9.107  25.260  1.00  0.00     0.031 A 
HETATM   18  C19 UNL     1     -12.243   7.968  24.863  1.00  0.00     0.010 A 
HETATM   19  C20 UNL     1     -12.590   7.768  23.522  1.00  0.00    -0.044 A 
HETATM   20  C21 UNL     1     -13.227   6.445  23.162  1.00  0.00     0.073 C 
HETATM   21  C22 UNL     1     -14.077   6.470  21.929  1.00  0.00    -0.078 C 
HETATM   22  C23 UNL     1     -15.278   5.872  21.884  1.00  0.00     0.015 C 
HETATM   23  C24 UNL     1     -13.508   7.154  20.721  1.00  0.00     0.054 C 
HETATM   24  C25 UNL     1     -14.490   7.940  19.827  1.00  0.00     0.023 C 
HETATM   25  C26 UNL     1     -14.205   9.210  20.664  1.00  0.00     0.060 C 
HETATM   26  C30 UNL     1     -12.778   8.557  21.010  1.00  0.00     0.100 C 
HETATM   27  C31 UNL     1     -12.256   8.717  22.508  1.00  0.00    -0.003 A 
HETATM   28  C32 UNL     1     -11.440   9.824  22.885  1.00  0.00     0.013 A 
HETATM   29  C33 UNL     1      -9.448  12.879  22.704  1.00  0.00     0.033 A 
HETATM   30  C34 UNL     1      -7.957  12.717  23.075  1.00  0.00     0.028 C 
HETATM   31  C35 UNL     1     -10.257  16.762  22.448  1.00  0.00     0.147 A 
HETATM   32  O5  UNL     1      -9.543  17.864  21.798  1.00  0.00    -0.360 OA
HETATM   33  C36 UNL     1     -10.893  17.664  21.390  1.00  0.00     0.194 A 
HETATM   34  C37 UNL     1     -11.819  18.775  21.771  1.00  0.00     0.183 C 
HETATM   35  H21 UNL     1     -10.085  11.510  25.321  1.00  0.00     0.166 HD
ENDROOT
BRANCH  25  36
HETATM   36  C27 UNL     1     -14.386  10.524  19.886  1.00  0.00     0.057 C 
HETATM   37  C28 UNL     1     -13.522  10.541  18.628  1.00  0.00     0.046 C 
HETATM   38  C29 UNL     1     -13.994  11.717  20.770  1.00  0.00     0.046 C 
BRANCH  36  39
HETATM   39  O3  UNL     1     -15.746  10.696  19.522  1.00  0.00    -0.390 OA
HETATM   40  H38 UNL     1     -16.117   9.821  19.292  1.00  0.00     0.210 HD
ENDBRANCH  36  39
ENDBRANCH  25  36
BRANCH  26  41
HETATM   41  O4  UNL     1     -11.743   8.849  20.025  1.00  0.00    -0.384 OA
HETATM   42  H39 UNL     1     -10.956   8.399  20.365  1.00  0.00     0.211 HD
ENDBRANCH  26  41
BRANCH   8  43
HETATM   43  O2  UNL     1      -8.193  15.591  22.305  1.00  0.00    -0.386 OA
HETATM   44  H15 UNL     1      -7.970  16.431  21.857  1.00  0.00     0.210 HD
ENDBRANCH   8  43
BRANCH  34  45
HETATM   45  O6  UNL     1     -13.046  18.566  21.056  1.00  0.00    -0.390 OA
HETATM   46  H45 UNL     1     -12.892  18.851  20.139  1.00  0.00     0.210 HD
ENDBRANCH  34  45
BRANCH   1  47
HETATM   47  C2  UNL     1     -13.333  19.496  23.805  1.00  0.00    -0.062 C 
HETATM   48  C1  UNL     1     -13.613  20.820  23.756  1.00  0.00     0.016 C 
HETATM   49  C3  UNL     1     -14.332  18.526  24.405  1.00  0.00     0.045 C 
ENDBRANCH   1  47
TORSDOF 6
ENDMDL
MODEL 3
REMARK minimizedAffinity -7.14784908
REMARK CNNscore 0.385074317
REMARK CNNaffinity 5.94771624
REMARK  6 active torsions:
REMARK  status: ('A' for Active; 'I' for Inactive)
REMARK    1  A    between atoms: C2_2  and  C4_4 
REMARK    2  A    between atoms: C10_11  and  O2_12 
REMARK    3  A    between atoms: C26_29  and  C27_30 
REMARK    4  A    between atoms: C27_30  and  O3_33 
REMARK    5  A    between atoms: C30_34  and  O4_35 
REMARK    6  A    between atoms: C37_43  and  O6_44 
ROOT
HETATM    1  C4  UNL     1     -13.978  -7.061   6.979  1.00  0.00     0.181 C 
HETATM    2  O1  UNL     1     -13.318  -7.456   5.767  1.00  0.00    -0.370 OA
HETATM    3  C5  UNL     1     -13.566  -8.825   5.396  1.00  0.00     0.163 C 
HETATM    4  C6  UNL     1     -13.020  -8.925   3.969  1.00  0.00     0.036 C 
HETATM    5  C7  UNL     1     -12.295 -10.211   3.619  1.00  0.00     0.016 C 
HETATM    6  C8  UNL     1     -11.304 -10.655   4.722  1.00  0.00     0.007 C 
HETATM    7  C9  UNL     1     -10.318  -9.468   5.034  1.00  0.00     0.020 C 
HETATM    8  C10 UNL     1     -12.151 -10.971   6.013  1.00  0.00     0.103 C 
HETATM    9  C11 UNL     1     -11.253 -11.554   7.146  1.00  0.00     0.046 C 
HETATM   10  C12 UNL     1     -10.371 -12.736   6.720  1.00  0.00     0.038 C 
HETATM   11  C13 UNL     1      -9.648 -12.412   5.459  1.00  0.00    -0.064 A 
HETATM   12  C14 UNL     1      -8.318 -12.342   5.184  1.00  0.00     0.018 A 
HETATM   13  C15 UNL     1      -8.105 -11.841   3.870  1.00  0.00     0.001 A 
HETATM   14  C16 UNL     1      -9.346 -11.617   3.340  1.00  0.00     0.034 A 
HETATM   15  N1  UNL     1      -9.230 -11.203   2.066  1.00  0.00    -0.357 N 
HETATM   16  C17 UNL     1      -7.879 -11.138   1.759  1.00  0.00     0.044 A 
HETATM   17  C18 UNL     1      -7.310 -10.801   0.531  1.00  0.00     0.031 A 
HETATM   18  C19 UNL     1      -5.931 -10.856   0.425  1.00  0.00     0.010 A 
HETATM   19  C20 UNL     1      -5.135 -11.145   1.539  1.00  0.00    -0.044 A 
HETATM   20  C21 UNL     1      -3.648 -11.300   1.306  1.00  0.00     0.073 C 
HETATM   21  C22 UNL     1      -2.793 -11.038   2.506  1.00  0.00    -0.078 C 
HETATM   22  C23 UNL     1      -1.670 -10.305   2.430  1.00  0.00     0.015 C 
HETATM   23  C24 UNL     1      -3.216 -11.670   3.799  1.00  0.00     0.054 C 
HETATM   24  C25 UNL     1      -2.992 -10.856   5.091  1.00  0.00     0.023 C 
HETATM   25  C26 UNL     1      -4.409 -10.255   4.935  1.00  0.00     0.060 C 
HETATM   26  C30 UNL     1      -4.790 -11.586   4.118  1.00  0.00     0.100 C 
HETATM   27  C31 UNL     1      -5.703 -11.401   2.824  1.00  0.00    -0.003 A 
HETATM   28  C32 UNL     1      -7.124 -11.480   2.913  1.00  0.00     0.013 A 
HETATM   29  C33 UNL     1     -10.491 -11.929   4.252  1.00  0.00     0.033 A 
HETATM   30  C34 UNL     1     -11.293 -13.099   3.640  1.00  0.00     0.028 C 
HETATM   31  C35 UNL     1     -12.967  -9.734   6.454  1.00  0.00     0.147 A 
HETATM   32  O5  UNL     1     -13.980 -10.108   7.443  1.00  0.00    -0.360 OA
HETATM   33  C36 UNL     1     -12.962  -9.220   7.893  1.00  0.00     0.194 A 
HETATM   34  C37 UNL     1     -13.452  -7.846   8.229  1.00  0.00     0.183 C 
HETATM   35  H21 UNL     1      -9.980 -11.006   1.421  1.00  0.00     0.166 HD
ENDROOT
BRANCH  25  36
HETATM   36  C27 UNL     1      -5.063  -9.844   6.266  1.00  0.00     0.057 C 
HETATM   37  C28 UNL     1      -4.970 -10.968   7.294  1.00  0.00     0.046 C 
HETATM   38  C29 UNL     1      -6.543  -9.502   6.042  1.00  0.00     0.046 C 
BRANCH  36  39
HETATM   39  O3  UNL     1      -4.434  -8.683   6.783  1.00  0.00    -0.390 OA
HETATM   40  H38 UNL     1      -3.477  -8.738   6.591  1.00  0.00     0.210 HD
ENDBRANCH  36  39
ENDBRANCH  25  36
BRANCH  26  41
HETATM   41  O4  UNL     1      -5.237 -12.687   4.964  1.00  0.00    -0.384 OA
HETATM   42  H39 UNL     1      -5.428 -13.403   4.340  1.00  0.00     0.211 HD
ENDBRANCH  26  41
BRANCH   8  43
HETATM   43  O2  UNL     1     -13.124 -11.990   5.720  1.00  0.00    -0.386 OA
HETATM   44  H15 UNL     1     -13.739 -11.990   6.479  1.00  0.00     0.210 HD
ENDBRANCH   8  43
BRANCH  34  45
HETATM   45  O6  UNL     1     -12.388  -7.177   8.922  1.00  0.00    -0.390 OA
HETATM   46  H45 UNL     1     -12.380  -7.524   9.832  1.00  0.00     0.210 HD
ENDBRANCH  34  45
BRANCH   1  47
HETATM   47  C2  UNL     1     -13.885  -5.539   7.031  1.00  0.00    -0.062 C 
HETATM   48  C1  UNL     1     -13.436  -4.792   5.994  1.00  0.00     0.016 C 
HETATM   49  C3  UNL     1     -14.275  -4.875   8.337  1.00  0.00     0.045 C 
ENDBRANCH   1  47
TORSDOF 6
ENDMDL
MODEL 4
REMARK minimizedAffinity -8.15748024
REMARK CNNscore 0.34719637
REMARK CNNaffinity 5.79683065
REMARK  6 active torsions:
REMARK  status: ('A' for Active; 'I' for Inactive)
REMARK    1  A    between atoms: C2_2  and  C4_4 
REMARK    2  A    between atoms: C10_11  and  O2_12 
REMARK    3  A    between atoms: C26_29  and  C27_30 
REMARK    4  A    between atoms: C27_30  and  O3_33 
REMARK    5  A    between atoms: C30_34  and  O4_35 
REMARK    6  A    between atoms: C37_43  and  O6_44 
ROOT
HETATM    1  C4  UNL     1     -10.688  -2.685  -6.954  1.00  0.00     0.181 C 
HETATM    2  O1  UNL     1      -9.832  -3.671  -6.358  1.00  0.00    -0.370 OA
HETATM    3  C5  UNL     1     -10.147  -5.020  -6.753  1.00  0.00     0.163 C 
HETATM    4  C6  UNL     1      -8.959  -5.840  -6.243  1.00  0.00     0.036 C 
HETATM    5  C7  UNL     1      -9.287  -7.203  -5.662  1.00  0.00     0.016 C 
HETATM    6  C8  UNL     1     -10.504  -7.164  -4.706  1.00  0.00     0.007 C 
HETATM    7  C9  UNL     1     -10.252  -6.077  -3.597  1.00  0.00     0.020 C 
HETATM    8  C10 UNL     1     -11.759  -6.742  -5.561  1.00  0.00     0.103 C 
HETATM    9  C11 UNL     1     -13.064  -6.803  -4.712  1.00  0.00     0.046 C 
HETATM   10  C12 UNL     1     -13.282  -8.127  -3.965  1.00  0.00     0.038 C 
HETATM   11  C13 UNL     1     -12.046  -8.515  -3.231  1.00  0.00    -0.064 A 
HETATM   12  C14 UNL     1     -11.819  -8.716  -1.906  1.00  0.00     0.018 A 
HETATM   13  C15 UNL     1     -10.434  -8.924  -1.662  1.00  0.00     0.001 A 
HETATM   14  C16 UNL     1      -9.815  -8.857  -2.881  1.00  0.00     0.034 A 
HETATM   15  N1  UNL     1      -8.503  -9.113  -2.742  1.00  0.00    -0.357 N 
HETATM   16  C17 UNL     1      -8.251  -9.336  -1.397  1.00  0.00     0.044 A 
HETATM   17  C18 UNL     1      -7.031  -9.682  -0.815  1.00  0.00     0.031 A 
HETATM   18  C19 UNL     1      -7.014  -9.917   0.549  1.00  0.00     0.010 A 
HETATM   19  C20 UNL     1      -8.160  -9.720   1.328  1.00  0.00    -0.044 A 
HETATM   20  C21 UNL     1      -8.082 -10.113   2.786  1.00  0.00     0.073 C 
HETATM   21  C22 UNL     1      -9.044  -9.398   3.684  1.00  0.00    -0.078 C 
HETATM   22  C23 UNL     1      -8.670  -8.905   4.875  1.00  0.00     0.015 C 
HETATM   23  C24 UNL     1     -10.466  -9.294   3.216  1.00  0.00     0.054 C 
HETATM   24  C25 UNL     1     -11.224  -7.990   3.544  1.00  0.00     0.023 C 
HETATM   25  C26 UNL     1     -10.751  -7.398   2.195  1.00  0.00     0.060 C 
HETATM   26  C30 UNL     1     -10.650  -8.912   1.665  1.00  0.00     0.100 C 
HETATM   27  C31 UNL     1      -9.391  -9.276   0.756  1.00  0.00    -0.003 A 
HETATM   28  C32 UNL     1      -9.455  -9.161  -0.664  1.00  0.00     0.013 A 
HETATM   29  C33 UNL     1     -10.724  -8.583  -4.038  1.00  0.00     0.033 A 
HETATM   30  C34 UNL     1     -10.712  -9.817  -4.967  1.00  0.00     0.028 C 
HETATM   31  C35 UNL     1     -11.530  -5.371  -6.236  1.00  0.00     0.147 A 
HETATM   32  O5  UNL     1     -12.541  -5.127  -7.267  1.00  0.00    -0.360 OA
HETATM   33  C36 UNL     1     -12.552  -4.237  -6.155  1.00  0.00     0.194 A 
HETATM   34  C37 UNL     1     -12.179  -2.829  -6.494  1.00  0.00     0.183 C 
HETATM   35  H21 UNL     1      -7.815  -9.173  -3.477  1.00  0.00     0.166 HD
ENDROOT
BRANCH  25  36
HETATM   36  C27 UNL     1     -11.703  -6.341   1.609  1.00  0.00     0.057 C 
HETATM   37  C28 UNL     1     -12.003  -5.247   2.629  1.00  0.00     0.046 C 
HETATM   38  C29 UNL     1     -13.025  -7.000   1.189  1.00  0.00     0.046 C 
BRANCH  36  39
HETATM   39  O3  UNL     1     -11.133  -5.757   0.449  1.00  0.00    -0.390 OA
HETATM   40  H38 UNL     1     -10.169  -5.667   0.590  1.00  0.00     0.210 HD
ENDBRANCH  36  39
ENDBRANCH  25  36
BRANCH  26  41
HETATM   41  O4  UNL     1     -11.900  -9.429   1.119  1.00  0.00    -0.384 OA
HETATM   42  H39 UNL     1     -11.685 -10.332   0.844  1.00  0.00     0.211 HD
ENDBRANCH  26  41
BRANCH   8  43
HETATM   43  O2  UNL     1     -11.949  -7.676  -6.639  1.00  0.00    -0.386 OA
HETATM   44  H15 UNL     1     -12.595  -7.254  -7.240  1.00  0.00     0.210 HD
ENDBRANCH   8  43
BRANCH  34  45
HETATM   45  O6  UNL     1     -12.510  -2.019  -5.355  1.00  0.00    -0.390 OA
HETATM   46  H45 UNL     1     -13.474  -1.891  -5.369  1.00  0.00     0.210 HD
ENDBRANCH  34  45
BRANCH   1  47
HETATM   47  C2  UNL     1     -10.015  -1.338  -6.702  1.00  0.00    -0.062 C 
HETATM   48  C1  UNL     1      -9.765  -0.443  -7.687  1.00  0.00     0.016 C 
HETATM   49  C3  UNL     1      -9.578  -1.050  -5.279  1.00  0.00     0.045 C 
ENDBRANCH   1  47
TORSDOF 6
ENDMDL
MODEL 5
REMARK minimizedAffinity -7.35670519
REMARK CNNscore 0.30342418
REMARK CNNaffinity 5.32829332
REMARK  6 active torsions:
REMARK  status: ('A' for Active; 'I' for Inactive)
REMARK    1  A    between atoms: C2_2  and  C4_4 
REMARK    2  A    between atoms: C10_11  and  O2_12 
REMARK    3  A    between atoms: C26_29  and  C27_30 
REMARK    4  A    between atoms: C27_30  and  O3_33 
REMARK    5  A    between atoms: C30_34  and  O4_35 
REMARK    6  A    between atoms: C37_43  and  O6_44 
ROOT
HETATM    1  C4  UNL     1     -15.528  -2.976  14.982  1.00  0.00     0.181 C 
HETATM    2  O1  UNL     1     -14.306  -3.530  15.492  1.00  0.00    -0.370 OA
HETATM    3  C5  UNL     1     -13.677  -4.460  14.591  1.00  0.00     0.163 C 
HETATM    4  C6  UNL     1     -12.290  -4.683  15.202  1.00  0.00     0.036 C 
HETATM    5  C7  UNL     1     -11.754  -6.102  15.141  1.00  0.00     0.016 C 
HETATM    6  C8  UNL     1     -12.814  -7.156  15.541  1.00  0.00     0.007 C 
HETATM    7  C9  UNL     1     -13.397  -6.788  16.956  1.00  0.00     0.020 C 
HETATM    8  C10 UNL     1     -13.972  -7.084  14.474  1.00  0.00     0.103 C 
HETATM    9  C11 UNL     1     -15.030  -8.203  14.716  1.00  0.00     0.046 C 
HETATM   10  C12 UNL     1     -14.447  -9.616  14.853  1.00  0.00     0.038 C 
HETATM   11  C13 UNL     1     -13.313  -9.616  15.818  1.00  0.00    -0.064 A 
HETATM   12  C14 UNL     1     -13.135 -10.283  16.989  1.00  0.00     0.018 A 
HETATM   13  C15 UNL     1     -11.951  -9.841  17.641  1.00  0.00     0.001 A 
HETATM   14  C16 UNL     1     -11.398  -8.890  16.828  1.00  0.00     0.034 A 
HETATM   15  N1  UNL     1     -10.230  -8.469  17.346  1.00  0.00    -0.357 N 
HETATM   16  C17 UNL     1     -10.022  -9.149  18.537  1.00  0.00     0.044 A 
HETATM   17  C18 UNL     1      -8.912  -9.053  19.377  1.00  0.00     0.031 A 
HETATM   18  C19 UNL     1      -8.880  -9.870  20.494  1.00  0.00     0.010 A 
HETATM   19  C20 UNL     1      -9.968 -10.690  20.818  1.00  0.00    -0.044 A 
HETATM   20  C21 UNL     1      -9.800 -11.634  21.987  1.00  0.00     0.073 C 
HETATM   21  C22 UNL     1     -11.076 -12.048  22.651  1.00  0.00    -0.078 C 
HETATM   22  C23 UNL     1     -11.203 -12.081  23.987  1.00  0.00     0.015 C 
HETATM   23  C24 UNL     1     -12.204 -12.475  21.756  1.00  0.00     0.054 C 
HETATM   24  C25 UNL     1     -13.634 -12.091  22.192  1.00  0.00     0.023 C 
HETATM   25  C26 UNL     1     -13.507 -10.778  21.384  1.00  0.00     0.060 C 
HETATM   26  C30 UNL     1     -12.438 -11.548  20.464  1.00  0.00     0.100 C 
HETATM   27  C31 UNL     1     -11.148 -10.727  20.014  1.00  0.00    -0.003 A 
HETATM   28  C32 UNL     1     -11.136  -9.992  18.792  1.00  0.00     0.013 A 
HETATM   29  C33 UNL     1     -12.167  -8.601  15.577  1.00  0.00     0.033 A 
HETATM   30  C34 UNL     1     -11.304  -9.025  14.368  1.00  0.00     0.028 C 
HETATM   31  C35 UNL     1     -14.583  -5.665  14.420  1.00  0.00     0.147 A 
HETATM   32  O5  UNL     1     -15.425  -5.509  13.231  1.00  0.00    -0.360 OA
HETATM   33  C36 UNL     1     -16.090  -5.418  14.487  1.00  0.00     0.194 A 
HETATM   34  C37 UNL     1     -16.642  -4.061  14.790  1.00  0.00     0.183 C 
HETATM   35  H21 UNL     1      -9.589  -7.807  16.938  1.00  0.00     0.166 HD
ENDROOT
BRANCH  25  36
HETATM   36  C27 UNL     1     -14.849 -10.228  20.871  1.00  0.00     0.057 C 
HETATM   37  C28 UNL     1     -15.510  -9.331  21.913  1.00  0.00     0.046 C 
HETATM   38  C29 UNL     1     -15.802 -11.388  20.544  1.00  0.00     0.046 C 
BRANCH  36  39
HETATM   39  O3  UNL     1     -14.652  -9.492  19.675  1.00  0.00    -0.390 OA
HETATM   40  H38 UNL     1     -13.807  -9.005  19.747  1.00  0.00     0.210 HD
ENDBRANCH  36  39
ENDBRANCH  25  36
BRANCH  26  41
HETATM   41  O4  UNL     1     -13.039 -12.290  19.361  1.00  0.00    -0.384 OA
HETATM   42  H39 UNL     1     -12.285 -12.691  18.904  1.00  0.00     0.211 HD
ENDBRANCH  26  41
BRANCH   8  43
HETATM   43  O2  UNL     1     -13.439  -7.326  13.160  1.00  0.00    -0.386 OA
HETATM   44  H15 UNL     1     -14.148  -7.065  12.538  1.00  0.00     0.210 HD
ENDBRANCH   8  43
BRANCH  34  45
HETATM   45  O6  UNL     1     -17.509  -4.203  15.926  1.00  0.00    -0.390 OA
HETATM   46  H45 UNL     1     -18.338  -4.598  15.602  1.00  0.00     0.210 HD
ENDBRANCH  34  45
BRANCH   1  47
HETATM   47  C2  UNL     1     -15.865  -1.796  15.890  1.00  0.00    -0.062 C 
HETATM   48  C1  UNL     1     -15.836  -0.509  15.467  1.00  0.00     0.016 C 
HETATM   49  C3  UNL     1     -16.193  -2.117  17.335  1.00  0.00     0.045 C 
ENDBRANCH   1  47
TORSDOF 6
ENDMDL
MODEL 6
REMARK minimizedAffinity -6.87857628
REMARK CNNscore 0.297593683
REMARK CNNaffinity 6.11337852
REMARK  6 active torsions:
REMARK  status: ('A' for Active; 'I' for Inactive)
REMARK    1  A    between atoms: C2_2  and  C4_4 
REMARK    2  A    between atoms: C10_11  and  O2_12 
REMARK    3  A    between atoms: C26_29  and  C27_30 
REMARK    4  A    between atoms: C27_30  and  O3_33 
REMARK    5  A    between atoms: C30_34  and  O4_35 
REMARK    6  A    between atoms: C37_43  and  O6_44 
ROOT
HETATM    1  C4  UNL     1       4.507  12.556  21.431  1.00  0.00     0.181 C 
HETATM    2  O1  UNL     1       3.087  12.413  21.283  1.00  0.00    -0.370 OA
HETATM    3  C5  UNL     1       2.702  11.243  20.537  1.00  0.00     0.163 C 
HETATM    4  C6  UNL     1       1.190  11.148  20.756  1.00  0.00     0.036 C 
HETATM    5  C7  UNL     1       0.365  10.721  19.555  1.00  0.00     0.016 C 
HETATM    6  C8  UNL     1       0.785  11.451  18.257  1.00  0.00     0.007 C 
HETATM    7  C9  UNL     1       0.740  13.005  18.502  1.00  0.00     0.020 C 
HETATM    8  C10 UNL     1       2.269  11.025  17.939  1.00  0.00     0.103 C 
HETATM    9  C11 UNL     1       2.741  11.606  16.572  1.00  0.00     0.046 C 
HETATM   10  C12 UNL     1       1.789  11.336  15.398  1.00  0.00     0.038 C 
HETATM   11  C13 UNL     1       0.392  11.689  15.773  1.00  0.00    -0.064 A 
HETATM   12  C14 UNL     1      -0.476  12.590  15.242  1.00  0.00     0.018 A 
HETATM   13  C15 UNL     1      -1.650  12.684  16.039  1.00  0.00     0.001 A 
HETATM   14  C16 UNL     1      -1.483  11.803  17.073  1.00  0.00     0.034 A 
HETATM   15  N1  UNL     1      -2.587  11.783  17.839  1.00  0.00    -0.357 N 
HETATM   16  C17 UNL     1      -3.494  12.686  17.305  1.00  0.00     0.044 A 
HETATM   17  C18 UNL     1      -4.787  12.948  17.759  1.00  0.00     0.031 A 
HETATM   18  C19 UNL     1      -5.549  13.852  17.039  1.00  0.00     0.010 A 
HETATM   19  C20 UNL     1      -5.006  14.548  15.953  1.00  0.00    -0.044 A 
HETATM   20  C21 UNL     1      -5.943  15.425  15.153  1.00  0.00     0.073 C 
HETATM   21  C22 UNL     1      -5.279  16.546  14.415  1.00  0.00    -0.078 C 
HETATM   22  C23 UNL     1      -5.787  17.789  14.407  1.00  0.00     0.015 C 
HETATM   23  C24 UNL     1      -4.040  16.213  13.637  1.00  0.00     0.054 C 
HETATM   24  C25 UNL     1      -2.920  17.274  13.606  1.00  0.00     0.023 C 
HETATM   25  C26 UNL     1      -2.292  16.622  14.861  1.00  0.00     0.060 C 
HETATM   26  C30 UNL     1      -2.995  15.253  14.395  1.00  0.00     0.100 C 
HETATM   27  C31 UNL     1      -3.653  14.355  15.536  1.00  0.00    -0.003 A 
HETATM   28  C32 UNL     1      -2.903  13.330  16.186  1.00  0.00     0.013 A 
HETATM   29  C33 UNL     1      -0.184  11.059  17.067  1.00  0.00     0.033 A 
HETATM   30  C34 UNL     1      -0.485   9.558  16.859  1.00  0.00     0.028 C 
HETATM   31  C35 UNL     1       3.209  11.381  19.113  1.00  0.00     0.147 A 
HETATM   32  O5  UNL     1       4.503  10.714  18.962  1.00  0.00    -0.360 OA
HETATM   33  C36 UNL     1       4.522  12.136  18.911  1.00  0.00     0.194 A 
HETATM   34  C37 UNL     1       5.233  12.780  20.060  1.00  0.00     0.183 C 
HETATM   35  H21 UNL     1      -2.759  11.196  18.641  1.00  0.00     0.166 HD
ENDROOT
BRANCH  25  36
HETATM   36  C27 UNL     1      -0.770  16.815  14.970  1.00  0.00     0.057 C 
HETATM   37  C28 UNL     1      -0.217  16.126  16.214  1.00  0.00     0.046 C 
HETATM   38  C29 UNL     1      -0.434  18.311  15.044  1.00  0.00     0.046 C 
BRANCH  36  39
HETATM   39  O3  UNL     1      -0.126  16.292  13.820  1.00  0.00    -0.390 OA
HETATM   40  H38 UNL     1      -0.597  15.482  13.543  1.00  0.00     0.210 HD
ENDBRANCH  36  39
ENDBRANCH  25  36
BRANCH  26  41
HETATM   41  O4  UNL     1      -2.195  14.470  13.460  1.00  0.00    -0.384 OA
HETATM   42  H39 UNL     1      -2.739  13.690  13.277  1.00  0.00     0.211 HD
ENDBRANCH  26  41
BRANCH   8  43
HETATM   43  O2  UNL     1       2.346   9.594  17.803  1.00  0.00    -0.386 OA
HETATM   44  H15 UNL     1       3.301   9.381  17.817  1.00  0.00     0.210 HD
ENDBRANCH   8  43
BRANCH  34  45
HETATM   45  O6  UNL     1       5.412  14.164  19.723  1.00  0.00    -0.390 OA
HETATM   46  H45 UNL     1       6.149  14.209  19.089  1.00  0.00     0.210 HD
ENDBRANCH  34  45
BRANCH   1  47
HETATM   47  C2  UNL     1       4.712  13.625  22.501  1.00  0.00    -0.062 C 
HETATM   48  C1  UNL     1       3.708  14.410  22.960  1.00  0.00     0.016 C 
HETATM   49  C3  UNL     1       6.126  13.819  23.012  1.00  0.00     0.045 C 
ENDBRANCH   1  47
TORSDOF 6
ENDMDL
MODEL 7
REMARK minimizedAffinity -7.99107456
REMARK CNNscore 0.29569298
REMARK CNNaffinity 5.89143562
REMARK  6 active torsions:
REMARK  status: ('A' for Active; 'I' for Inactive)
REMARK    1  A    between atoms: C2_2  and  C4_4 
REMARK    2  A    between atoms: C10_11  and  O2_12 
REMARK    3  A    between atoms: C26_29  and  C27_30 
REMARK    4  A    between atoms: C27_30  and  O3_33 
REMARK    5  A    between atoms: C30_34  and  O4_35 
REMARK    6  A    between atoms: C37_43  and  O6_44 
ROOT
HETATM    1  C4  UNL     1      15.711  -7.602  -0.845  1.00  0.00     0.181 C 
HETATM    2  O1  UNL     1      16.255  -8.264   0.307  1.00  0.00    -0.370 OA
HETATM    3  C5  UNL     1      15.283  -9.036   1.038  1.00  0.00     0.163 C 
HETATM    4  C6  UNL     1      16.127  -9.859   2.016  1.00  0.00     0.036 C 
HETATM    5  C7  UNL     1      15.554 -10.034   3.410  1.00  0.00     0.016 C 
HETATM    6  C8  UNL     1      14.992  -8.715   3.993  1.00  0.00     0.007 C 
HETATM    7  C9  UNL     1      16.110  -7.609   3.931  1.00  0.00     0.020 C 
HETATM    8  C10 UNL     1      13.786  -8.275   3.079  1.00  0.00     0.103 C 
HETATM    9  C11 UNL     1      13.067  -7.021   3.661  1.00  0.00     0.046 C 
HETATM   10  C12 UNL     1      12.669  -7.139   5.140  1.00  0.00     0.038 C 
HETATM   11  C13 UNL     1      13.822  -7.624   5.947  1.00  0.00    -0.064 A 
HETATM   12  C14 UNL     1      14.487  -7.055   6.988  1.00  0.00     0.018 A 
HETATM   13  C15 UNL     1      15.626  -7.831   7.337  1.00  0.00     0.001 A 
HETATM   14  C16 UNL     1      15.636  -8.904   6.486  1.00  0.00     0.034 A 
HETATM   15  N1  UNL     1      16.652  -9.726   6.800  1.00  0.00    -0.357 N 
HETATM   16  C17 UNL     1      17.336  -9.171   7.871  1.00  0.00     0.044 A 
HETATM   17  C18 UNL     1      18.429  -9.717   8.545  1.00  0.00     0.031 A 
HETATM   18  C19 UNL     1      18.927  -9.019   9.632  1.00  0.00     0.010 A 
HETATM   19  C20 UNL     1      18.412  -7.765   9.979  1.00  0.00    -0.044 A 
HETATM   20  C21 UNL     1      18.934  -7.129  11.248  1.00  0.00     0.073 C 
HETATM   21  C22 UNL     1      18.829  -5.636  11.294  1.00  0.00    -0.078 C 
HETATM   22  C23 UNL     1      19.838  -4.867  11.732  1.00  0.00     0.015 C 
HETATM   23  C24 UNL     1      17.522  -5.031  10.872  1.00  0.00     0.054 C 
HETATM   24  C25 UNL     1      17.580  -3.693  10.104  1.00  0.00     0.023 C 
HETATM   25  C26 UNL     1      17.630  -4.480   8.773  1.00  0.00     0.060 C 
HETATM   26  C30 UNL     1      16.870  -5.667   9.547  1.00  0.00     0.100 C 
HETATM   27  C31 UNL     1      17.354  -7.154   9.239  1.00  0.00    -0.003 A 
HETATM   28  C32 UNL     1      16.746  -7.923   8.203  1.00  0.00     0.013 A 
HETATM   29  C33 UNL     1      14.520  -8.930   5.489  1.00  0.00     0.033 A 
HETATM   30  C34 UNL     1      13.633 -10.159   5.786  1.00  0.00     0.028 C 
HETATM   31  C35 UNL     1      14.242  -8.094   1.613  1.00  0.00     0.147 A 
HETATM   32  O5  UNL     1      13.086  -7.999   0.719  1.00  0.00    -0.360 OA
HETATM   33  C36 UNL     1      13.911  -6.842   0.801  1.00  0.00     0.194 A 
HETATM   34  C37 UNL     1      14.643  -6.521  -0.464  1.00  0.00     0.183 C 
HETATM   35  H21 UNL     1      16.871 -10.611   6.369  1.00  0.00     0.166 HD
ENDROOT
BRANCH  25  36
HETATM   36  C27 UNL     1      17.041  -3.718   7.574  1.00  0.00     0.057 C 
HETATM   37  C28 UNL     1      17.147  -4.541   6.294  1.00  0.00     0.046 C 
HETATM   38  C29 UNL     1      17.794  -2.394   7.372  1.00  0.00     0.046 C 
BRANCH  36  39
HETATM   39  O3  UNL     1      15.681  -3.399   7.816  1.00  0.00    -0.390 OA
HETATM   40  H38 UNL     1      15.269  -4.144   8.298  1.00  0.00     0.210 HD
ENDBRANCH  36  39
ENDBRANCH  25  36
BRANCH  26  41
HETATM   41  O4  UNL     1      15.417  -5.539   9.537  1.00  0.00    -0.384 OA
HETATM   42  H39 UNL     1      15.107  -6.313  10.030  1.00  0.00     0.211 HD
ENDBRANCH  26  41
BRANCH   8  43
HETATM   43  O2  UNL     1      12.794  -9.317   3.048  1.00  0.00    -0.386 OA
HETATM   44  H15 UNL     1      12.188  -9.079   2.318  1.00  0.00     0.210 HD
ENDBRANCH   8  43
BRANCH  34  45
HETATM   45  O6  UNL     1      15.189  -5.201  -0.312  1.00  0.00    -0.390 OA
HETATM   46  H45 UNL     1      14.455  -4.575  -0.439  1.00  0.00     0.210 HD
ENDBRANCH  34  45
BRANCH   1  47
HETATM   47  C2  UNL     1      16.911  -7.129  -1.661  1.00  0.00    -0.062 C 
HETATM   48  C1  UNL     1      16.843  -6.873  -2.990  1.00  0.00     0.016 C 
HETATM   49  C3  UNL     1      18.230  -6.999  -0.925  1.00  0.00     0.045 C 
ENDBRANCH   1  47
TORSDOF 6
ENDMDL
MODEL 8
REMARK minimizedAffinity -7.88497305
REMARK CNNscore 0.28126815
REMARK CNNaffinity 5.64532137
REMARK  6 active torsions:
REMARK  status: ('A' for Active; 'I' for Inactive)
REMARK    1  A    between atoms: C2_2  and  C4_4 
REMARK    2  A    between atoms: C10_11  and  O2_12 
REMARK    3  A    between atoms: C26_29  and  C27_30 
REMARK    4  A    between atoms: C27_30  and  O3_33 
REMARK    5  A    between atoms: C30_34  and  O4_35 
REMARK    6  A    between atoms: C37_43  and  O6_44 
ROOT
HETATM    1  C4  UNL     1      14.057  -5.516   6.884  1.00  0.00     0.181 C 
HETATM    2  O1  UNL     1      15.034  -4.526   6.532  1.00  0.00    -0.370 OA
HETATM    3  C5  UNL     1      16.384  -4.912   6.849  1.00  0.00     0.163 C 
HETATM    4  C6  UNL     1      17.244  -3.863   6.137  1.00  0.00     0.036 C 
HETATM    5  C7  UNL     1      18.473  -3.384   6.888  1.00  0.00     0.016 C 
HETATM    6  C8  UNL     1      18.177  -3.076   8.376  1.00  0.00     0.007 C 
HETATM    7  C9  UNL     1      16.978  -2.060   8.462  1.00  0.00     0.020 C 
HETATM    8  C10 UNL     1      17.751  -4.431   9.059  1.00  0.00     0.103 C 
HETATM    9  C11 UNL     1      17.558  -4.250  10.596  1.00  0.00     0.046 C 
HETATM   10  C12 UNL     1      18.736  -3.576  11.314  1.00  0.00     0.038 C 
HETATM   11  C13 UNL     1      19.144  -2.341  10.590  1.00  0.00    -0.064 A 
HETATM   12  C14 UNL     1      19.183  -1.042  10.989  1.00  0.00     0.018 A 
HETATM   13  C15 UNL     1      19.497  -0.191   9.894  1.00  0.00     0.001 A 
HETATM   14  C16 UNL     1      19.663  -1.008   8.809  1.00  0.00     0.034 A 
HETATM   15  N1  UNL     1      20.030  -0.280   7.741  1.00  0.00    -0.357 N 
HETATM   16  C17 UNL     1      20.090   1.050   8.130  1.00  0.00     0.044 A 
HETATM   17  C18 UNL     1      20.476   2.139   7.349  1.00  0.00     0.031 A 
HETATM   18  C19 UNL     1      20.521   3.382   7.957  1.00  0.00     0.010 A 
HETATM   19  C20 UNL     1      20.100   3.551   9.281  1.00  0.00    -0.044 A 
HETATM   20  C21 UNL     1      20.294   4.917   9.900  1.00  0.00     0.073 C 
HETATM   21  C22 UNL     1      19.366   5.233  11.032  1.00  0.00    -0.078 C 
HETATM   22  C23 UNL     1      18.754   6.423  11.137  1.00  0.00     0.015 C 
HETATM   23  C24 UNL     1      19.183   4.174  12.080  1.00  0.00     0.054 C 
HETATM   24  C25 UNL     1      17.775   4.027  12.695  1.00  0.00     0.023 C 
HETATM   25  C26 UNL     1      17.427   2.988  11.603  1.00  0.00     0.060 C 
HETATM   26  C30 UNL     1      19.002   2.679  11.517  1.00  0.00     0.100 C 
HETATM   27  C31 UNL     1      19.616   2.458  10.062  1.00  0.00    -0.003 A 
HETATM   28  C32 UNL     1      19.692   1.154   9.490  1.00  0.00     0.013 A 
HETATM   29  C33 UNL     1      19.459  -2.467   9.078  1.00  0.00     0.033 A 
HETATM   30  C34 UNL     1      20.805  -3.193   8.856  1.00  0.00     0.028 C 
HETATM   31  C35 UNL     1      16.517  -5.039   8.355  1.00  0.00     0.147 A 
HETATM   32  O5  UNL     1      16.315  -6.428   8.773  1.00  0.00    -0.360 OA
HETATM   33  C36 UNL     1      15.284  -5.511   9.125  1.00  0.00     0.194 A 
HETATM   34  C37 UNL     1      13.981  -5.758   8.431  1.00  0.00     0.183 C 
HETATM   35  H21 UNL     1      20.262  -0.624   6.821  1.00  0.00     0.166 HD
ENDROOT
BRANCH  25  36
HETATM   36  C27 UNL     1      16.369   1.958  12.035  1.00  0.00     0.057 C 
HETATM   37  C28 UNL     1      16.192   0.875  10.976  1.00  0.00     0.046 C 
HETATM   38  C29 UNL     1      15.019   2.654  12.259  1.00  0.00     0.046 C 
BRANCH  36  39
HETATM   39  O3  UNL     1      16.745   1.356  13.263  1.00  0.00    -0.390 OA
HETATM   40  H38 UNL     1      17.715   1.237  13.266  1.00  0.00     0.210 HD
ENDBRANCH  36  39
ENDBRANCH  25  36
BRANCH  26  41
HETATM   41  O4  UNL     1      19.458   1.676  12.473  1.00  0.00    -0.384 OA
HETATM   42  H39 UNL     1      20.408   1.598  12.302  1.00  0.00     0.211 HD
ENDBRANCH  26  41
BRANCH   8  43
HETATM   43  O2  UNL     1      18.800  -5.404   8.908  1.00  0.00    -0.386 OA
HETATM   44  H15 UNL     1      18.401  -6.260   9.159  1.00  0.00     0.210 HD
ENDBRANCH   8  43
BRANCH  34  45
HETATM   45  O6  UNL     1      12.992  -4.953   9.091  1.00  0.00    -0.390 OA
HETATM   46  H45 UNL     1      12.769  -5.405   9.924  1.00  0.00     0.210 HD
ENDBRANCH  34  45
BRANCH   1  47
HETATM   47  C2  UNL     1      12.765  -5.097   6.188  1.00  0.00    -0.062 C 
HETATM   48  C1  UNL     1      11.603  -5.780   6.318  1.00  0.00     0.016 C 
HETATM   49  C3  UNL     1      12.840  -3.885   5.280  1.00  0.00     0.045 C 
ENDBRANCH   1  47
TORSDOF 6
ENDMDL
MODEL 9
REMARK minimizedAffinity -7.90836906
REMARK CNNscore 0.261968434
REMARK CNNaffinity 5.49292612
REMARK  6 active torsions:
REMARK  status: ('A' for Active; 'I' for Inactive)
REMARK    1  A    between atoms: C2_2  and  C4_4 
REMARK    2  A    between atoms: C10_11  and  O2_12 
REMARK    3  A    between atoms: C26_29  and  C27_30 
REMARK    4  A    between atoms: C27_30  and  O3_33 
REMARK    5  A    between atoms: C30_34  and  O4_35 
REMARK    6  A    between atoms: C37_43  and  O6_44 
ROOT
HETATM    1  C4  UNL     1      -9.969 -13.589  13.942  1.00  0.00     0.181 C 
HETATM    2  O1  UNL     1      -8.730 -13.106  13.402  1.00  0.00    -0.370 OA
HETATM    3  C5  UNL     1      -8.583 -11.676  13.490  1.00  0.00     0.163 C 
HETATM    4  C6  UNL     1      -7.113 -11.435  13.136  1.00  0.00     0.036 C 
HETATM    5  C7  UNL     1      -6.823 -10.215  12.281  1.00  0.00     0.016 C 
HETATM    6  C8  UNL     1      -7.806 -10.073  11.093  1.00  0.00     0.007 C 
HETATM    7  C9  UNL     1      -7.804 -11.410  10.263  1.00  0.00     0.020 C 
HETATM    8  C10 UNL     1      -9.243  -9.848  11.699  1.00  0.00     0.103 C 
HETATM    9  C11 UNL     1     -10.288  -9.562  10.578  1.00  0.00     0.046 C 
HETATM   10  C12 UNL     1      -9.885  -8.453   9.595  1.00  0.00     0.038 C 
HETATM   11  C13 UNL     1      -8.496  -8.675   9.107  1.00  0.00    -0.064 A 
HETATM   12  C14 UNL     1      -8.010  -8.874   7.853  1.00  0.00     0.018 A 
HETATM   13  C15 UNL     1      -6.625  -9.196   7.899  1.00  0.00     0.001 A 
HETATM   14  C16 UNL     1      -6.271  -9.176   9.221  1.00  0.00     0.034 A 
HETATM   15  N1  UNL     1      -4.951  -9.406   9.343  1.00  0.00    -0.357 N 
HETATM   16  C17 UNL     1      -4.432  -9.597   8.071  1.00  0.00     0.044 A 
HETATM   17  C18 UNL     1      -3.096  -9.817   7.733  1.00  0.00     0.031 A 
HETATM   18  C19 UNL     1      -2.784  -9.925   6.388  1.00  0.00     0.010 A 
HETATM   19  C20 UNL     1      -3.788  -9.912   5.413  1.00  0.00    -0.044 A 
HETATM   20  C21 UNL     1      -3.348  -9.917   3.966  1.00  0.00     0.073 C 
HETATM   21  C22 UNL     1      -4.355 -10.465   3.004  1.00  0.00    -0.078 C 
HETATM   22  C23 UNL     1      -4.011 -11.317   2.025  1.00  0.00     0.015 C 
HETATM   23  C24 UNL     1      -5.769  -9.984   3.147  1.00  0.00     0.054 C 
HETATM   24  C25 UNL     1      -6.894 -11.005   2.874  1.00  0.00     0.023 C 
HETATM   25  C26 UNL     1      -6.885 -11.388   4.373  1.00  0.00     0.060 C 
HETATM   26  C30 UNL     1      -6.317  -9.912   4.657  1.00  0.00     0.100 C 
HETATM   27  C31 UNL     1      -5.168  -9.780   5.756  1.00  0.00    -0.003 A 
HETATM   28  C32 UNL     1      -5.487  -9.533   7.124  1.00  0.00     0.013 A 
HETATM   29  C33 UNL     1      -7.383  -8.858  10.170  1.00  0.00     0.033 A 
HETATM   30  C34 UNL     1      -7.060  -7.516  10.864  1.00  0.00     0.028 C 
HETATM   31  C35 UNL     1      -9.642 -11.021  12.623  1.00  0.00     0.147 A 
HETATM   32  O5  UNL     1     -10.818 -10.672  13.424  1.00  0.00    -0.360 OA
HETATM   33  C36 UNL     1     -10.985 -11.741  12.499  1.00  0.00     0.194 A 
HETATM   34  C37 UNL     1     -11.213 -13.075  13.139  1.00  0.00     0.183 C 
HETATM   35  H21 UNL     1      -4.411  -9.405  10.195  1.00  0.00     0.166 HD
ENDROOT
BRANCH  25  36
HETATM   36  C27 UNL     1      -8.237 -11.906   4.892  1.00  0.00     0.057 C 
HETATM   37  C28 UNL     1      -8.383 -13.404   4.647  1.00  0.00     0.046 C 
HETATM   38  C29 UNL     1      -9.388 -11.176   4.183  1.00  0.00     0.046 C 
BRANCH  36  39
HETATM   39  O3  UNL     1      -8.362 -11.644   6.281  1.00  0.00    -0.390 OA
HETATM   40  H38 UNL     1      -7.486 -11.765   6.698  1.00  0.00     0.210 HD
ENDBRANCH  36  39
ENDBRANCH  25  36
BRANCH  26  41
HETATM   41  O4  UNL     1      -7.357  -8.901   4.814  1.00  0.00    -0.384 OA
HETATM   42  H39 UNL     1      -6.869  -8.081   4.979  1.00  0.00     0.211 HD
ENDBRANCH  26  41
BRANCH   8  43
HETATM   43  O2  UNL     1      -9.240  -8.679  12.539  1.00  0.00    -0.386 OA
HETATM   44  H15 UNL     1     -10.080  -8.713  13.038  1.00  0.00     0.210 HD
ENDBRANCH   8  43
BRANCH  34  45
HETATM   45  O6  UNL     1     -11.639 -13.972  12.103  1.00  0.00    -0.390 OA
HETATM   46  H45 UNL     1     -12.573 -13.769  11.918  1.00  0.00     0.210 HD
ENDBRANCH  34  45
BRANCH   1  47
HETATM   47  C2  UNL     1      -9.809 -15.101  14.072  1.00  0.00    -0.062 C 
HETATM   48  C1  UNL     1     -10.632 -15.867  14.827  1.00  0.00     0.016 C 
HETATM   49  C3  UNL     1      -8.635 -15.728  13.347  1.00  0.00     0.045 C 
ENDBRANCH   1  47
TORSDOF 6
ENDMDL
