MODEL 1
REMARK minimizedAffinity -7.60144806
REMARK CNNscore 0.69212538
REMARK CNNaffinity 7.13714409
REMARK  10 active torsions:
REMARK  status: ('A' for Active; 'I' for Inactive)
REMARK    1  A    between atoms: C19_20  and  O2_21 
REMARK    2  A    between atoms: C19_20  and  C20_22 
REMARK    3  A    between atoms: C20_22  and  C21_24 
REMARK    4  A    between atoms: C21_24  and  O4_25 
REMARK    5  A    between atoms: O4_25  and  C22_26 
REMARK    6  A    between atoms: C22_26  and  C23_28 
REMARK    7  A    between atoms: C23_28  and  C24_29 
REMARK    8  A    between atoms: C24_29  and  C25_30 
REMARK       I    between atoms: C25_30  and  N1_32 
REMARK    9  A    between atoms: N1_32  and  C26_33 
REMARK   10  A    between atoms: C26_33  and  C27_34 
ROOT
HETATM    1  C1  UNL     1      -7.024   7.071  13.818  1.00  0.00     0.020 C 
HETATM    2  C2  UNL     1      -8.169   6.119  14.231  1.00  0.00    -0.016 C 
HETATM    3  C3  UNL     1      -7.578   4.972  15.105  1.00  0.00     0.022 C 
HETATM    4  C4  UNL     1      -6.762   3.959  14.313  1.00  0.00     0.084 C 
HETATM    5  C5  UNL     1      -7.589   3.385  13.195  1.00  0.00     0.149 C 
HETATM    6  O1  UNL     1      -7.458   2.231  12.802  1.00  0.00    -0.293 OA
HETATM    7  C6  UNL     1      -8.542   4.288  12.509  1.00  0.00     0.053 C 
HETATM    8  C7  UNL     1      -8.786   5.534  12.953  1.00  0.00    -0.068 C 
HETATM    9  C8  UNL     1      -9.694   6.440  12.157  1.00  0.00     0.035 C 
HETATM   10  C9  UNL     1     -10.764   7.083  13.032  1.00  0.00     0.010 C 
HETATM   11  C10 UNL     1     -10.134   7.841  14.208  1.00  0.00    -0.004 C 
HETATM   12  C11 UNL     1      -9.276   6.867  15.070  1.00  0.00     0.002 C 
HETATM   13  C12 UNL     1      -8.736   7.559  16.348  1.00  0.00     0.007 C 
HETATM   14  C13 UNL     1      -9.805   8.338  17.143  1.00  0.00     0.013 C 
HETATM   15  C14 UNL     1     -10.607   9.311  16.257  1.00  0.00    -0.002 C 
HETATM   16  C15 UNL     1      -9.679  10.457  15.769  1.00  0.00     0.019 C 
HETATM   17  C16 UNL     1     -11.209   8.482  15.099  1.00  0.00     0.002 C 
HETATM   18  C17 UNL     1     -12.222   9.427  14.458  1.00  0.00     0.009 C 
HETATM   19  C18 UNL     1     -12.723  10.322  15.613  1.00  0.00     0.047 C 
HETATM   20  C19 UNL     1     -11.915   9.904  16.861  1.00  0.00     0.128 C 
ENDROOT
BRANCH  20  21
HETATM   21  O2  UNL     1     -12.689   8.884  17.517  1.00  0.00    -0.381 OA
HETATM   22  H27 UNL     1     -12.170   8.587  18.288  1.00  0.00     0.211 HD
ENDBRANCH  20  21
BRANCH  20  23
HETATM   23  C20 UNL     1     -11.687  10.970  17.947  1.00  0.00     0.185 C 
HETATM   24  O3  UNL     1     -11.708  12.170  17.640  1.00  0.00    -0.292 OA
BRANCH  23  25
HETATM   25  C21 UNL     1     -11.352  10.514  19.364  1.00  0.00     0.260 C 
BRANCH  25  26
HETATM   26  O4  UNL     1     -12.518  10.305  20.165  1.00  0.00    -0.314 OA
BRANCH  26  27
HETATM   27  C22 UNL     1     -12.296   9.536  21.266  1.00  0.00     0.259 C 
HETATM   28  O5  UNL     1     -11.577   9.849  22.208  1.00  0.00    -0.265 OA
BRANCH  27  29
HETATM   29  C23 UNL     1     -13.076   8.256  21.182  1.00  0.00     0.120 C 
BRANCH  29  30
HETATM   30  C24 UNL     1     -12.887   7.431  22.444  1.00  0.00     0.112 C 
BRANCH  30  31
HETATM   31  C25 UNL     1     -13.831   6.248  22.477  1.00  0.00     0.218 C 
HETATM   32  O6  UNL     1     -14.558   5.937  21.540  1.00  0.00    -0.274 OA
HETATM   33  N1  UNL     1     -13.782   5.556  23.664  1.00  0.00    -0.357 N 
HETATM   34  H34 UNL     1     -13.101   5.813  24.365  1.00  0.00     0.162 HD
BRANCH  33  35
HETATM   35  C26 UNL     1     -14.584   4.372  23.893  1.00  0.00     0.162 C 
BRANCH  35  36
HETATM   36  C27 UNL     1     -13.718   3.191  24.210  1.00  0.00    -0.025 A 
HETATM   37  C28 UNL     1     -12.325   3.305  24.270  1.00  0.00     0.011 A 
HETATM   38  C29 UNL     1     -11.548   2.193  24.579  1.00  0.00     0.018 A 
HETATM   39  C30 UNL     1     -12.196   0.996  24.829  1.00  0.00     0.087 A 
HETATM   40  N2  UNL     1     -13.538   0.845  24.790  1.00  0.00    -0.375 N 
HETATM   41  C31 UNL     1     -14.264   1.942  24.477  1.00  0.00     0.096 A 
ATOM     42  H2  UNL     1     -13.981  -0.051  24.988  1.00  0.00     0.164 HD
ENDBRANCH  35  36
ENDBRANCH  33  35
ENDBRANCH  30  31
ENDBRANCH  29  30
ENDBRANCH  27  29
ENDBRANCH  26  27
ENDBRANCH  25  26
ENDBRANCH  23  25
ENDBRANCH  20  23
TORSDOF 10
ENDMDL
MODEL 2
REMARK minimizedAffinity -7.81326485
REMARK CNNscore 0.598955631
REMARK CNNaffinity 7.09789705
REMARK  10 active torsions:
REMARK  status: ('A' for Active; 'I' for Inactive)
REMARK    1  A    between atoms: C19_20  and  O2_21 
REMARK    2  A    between atoms: C19_20  and  C20_22 
REMARK    3  A    between atoms: C20_22  and  C21_24 
REMARK    4  A    between atoms: C21_24  and  O4_25 
REMARK    5  A    between atoms: O4_25  and  C22_26 
REMARK    6  A    between atoms: C22_26  and  C23_28 
REMARK    7  A    between atoms: C23_28  and  C24_29 
REMARK    8  A    between atoms: C24_29  and  C25_30 
REMARK       I    between atoms: C25_30  and  N1_32 
REMARK    9  A    between atoms: N1_32  and  C26_33 
REMARK   10  A    between atoms: C26_33  and  C27_34 
ROOT
HETATM    1  C1  UNL     1       0.054   7.985  10.052  1.00  0.00     0.020 C 
HETATM    2  C2  UNL     1       0.778   7.351  11.260  1.00  0.00    -0.016 C 
HETATM    3  C3  UNL     1       2.135   8.085  11.476  1.00  0.00     0.022 C 
HETATM    4  C4  UNL     1       3.185   7.750  10.424  1.00  0.00     0.084 C 
HETATM    5  C5  UNL     1       3.405   6.262  10.365  1.00  0.00     0.149 C 
HETATM    6  O1  UNL     1       4.494   5.766  10.102  1.00  0.00    -0.293 OA
HETATM    7  C6  UNL     1       2.229   5.384  10.565  1.00  0.00     0.053 C 
HETATM    8  C7  UNL     1       1.033   5.871  10.939  1.00  0.00    -0.068 C 
HETATM    9  C8  UNL     1      -0.151   4.939  11.033  1.00  0.00     0.035 C 
HETATM   10  C9  UNL     1      -0.888   5.088  12.359  1.00  0.00     0.010 C 
HETATM   11  C10 UNL     1      -1.321   6.542  12.591  1.00  0.00    -0.004 C 
HETATM   12  C11 UNL     1      -0.073   7.476  12.583  1.00  0.00     0.002 C 
HETATM   13  C12 UNL     1      -0.449   8.934  12.953  1.00  0.00     0.007 C 
HETATM   14  C13 UNL     1      -1.328   9.057  14.216  1.00  0.00     0.013 C 
HETATM   15  C14 UNL     1      -2.566   8.140  14.166  1.00  0.00    -0.002 C 
HETATM   16  C15 UNL     1      -3.534   8.633  13.056  1.00  0.00     0.019 C 
HETATM   17  C16 UNL     1      -2.055   6.700  13.930  1.00  0.00     0.002 C 
HETATM   18  C17 UNL     1      -3.279   5.828  14.202  1.00  0.00     0.009 C 
HETATM   19  C18 UNL     1      -4.095   6.600  15.261  1.00  0.00     0.047 C 
HETATM   20  C19 UNL     1      -3.344   7.928  15.498  1.00  0.00     0.128 C 
ENDROOT
BRANCH  20  21
HETATM   21  O2  UNL     1      -2.439   7.687  16.591  1.00  0.00    -0.381 OA
HETATM   22  H27 UNL     1      -1.932   8.510  16.725  1.00  0.00     0.211 HD
ENDBRANCH  20  21
BRANCH  20  23
HETATM   23  C20 UNL     1      -4.174   9.142  15.949  1.00  0.00     0.185 C 
HETATM   24  O3  UNL     1      -5.324   9.291  15.513  1.00  0.00    -0.292 OA
BRANCH  23  25
HETATM   25  C21 UNL     1      -3.524  10.180  16.857  1.00  0.00     0.260 C 
BRANCH  25  26
HETATM   26  O4  UNL     1      -3.937  11.515  16.553  1.00  0.00    -0.314 OA
BRANCH  26  27
HETATM   27  C22 UNL     1      -4.038  12.320  17.646  1.00  0.00     0.259 C 
HETATM   28  O5  UNL     1      -3.822  11.969  18.800  1.00  0.00    -0.265 OA
BRANCH  27  29
HETATM   29  C23 UNL     1      -4.429  13.712  17.242  1.00  0.00     0.120 C 
BRANCH  29  30
HETATM   30  C24 UNL     1      -5.437  13.675  16.104  1.00  0.00     0.112 C 
BRANCH  30  31
HETATM   31  C25 UNL     1      -6.857  13.656  16.626  1.00  0.00     0.218 C 
HETATM   32  O6  UNL     1      -7.147  13.829  17.806  1.00  0.00    -0.274 OA
HETATM   33  N1  UNL     1      -7.788  13.430  15.639  1.00  0.00    -0.357 N 
HETATM   34  H34 UNL     1      -7.491  13.379  14.675  1.00  0.00     0.162 HD
BRANCH  33  35
HETATM   35  C26 UNL     1      -9.209  13.403  15.920  1.00  0.00     0.162 C 
BRANCH  35  36
HETATM   36  C27 UNL     1      -9.849  12.188  15.321  1.00  0.00    -0.025 A 
HETATM   37  C28 UNL     1      -9.318  10.910  15.524  1.00  0.00     0.011 A 
HETATM   38  C29 UNL     1      -9.943   9.799  14.966  1.00  0.00     0.018 A 
HETATM   39  C30 UNL     1     -11.093  10.004  14.223  1.00  0.00     0.087 A 
HETATM   40  N2  UNL     1     -11.643  11.220  14.011  1.00  0.00    -0.375 N 
HETATM   41  C31 UNL     1     -11.007  12.280  14.558  1.00  0.00     0.096 A 
ATOM     42  H2  UNL     1     -12.496  11.332  13.464  1.00  0.00     0.164 HD
ENDBRANCH  35  36
ENDBRANCH  33  35
ENDBRANCH  30  31
ENDBRANCH  29  30
ENDBRANCH  27  29
ENDBRANCH  26  27
ENDBRANCH  25  26
ENDBRANCH  23  25
ENDBRANCH  20  23
TORSDOF 10
ENDMDL
MODEL 3
REMARK minimizedAffinity -8.26932526
REMARK CNNscore 0.491702288
REMARK CNNaffinity 7.45808029
REMARK  10 active torsions:
REMARK  status: ('A' for Active; 'I' for Inactive)
REMARK    1  A    between atoms: C19_20  and  O2_21 
REMARK    2  A    between atoms: C19_20  and  C20_22 
REMARK    3  A    between atoms: C20_22  and  C21_24 
REMARK    4  A    between atoms: C21_24  and  O4_25 
REMARK    5  A    between atoms: O4_25  and  C22_26 
REMARK    6  A    between atoms: C22_26  and  C23_28 
REMARK    7  A    between atoms: C23_28  and  C24_29 
REMARK    8  A    between atoms: C24_29  and  C25_30 
REMARK       I    between atoms: C25_30  and  N1_32 
REMARK    9  A    between atoms: N1_32  and  C26_33 
REMARK   10  A    between atoms: C26_33  and  C27_34 
ROOT
HETATM    1  C1  UNL     1      -7.797   4.252  14.614  1.00  0.00     0.020 C 
HETATM    2  C2  UNL     1      -7.218   5.612  14.166  1.00  0.00    -0.016 C 
HETATM    3  C3  UNL     1      -6.351   5.393  12.889  1.00  0.00     0.022 C 
HETATM    4  C4  UNL     1      -5.024   4.699  13.164  1.00  0.00     0.084 C 
HETATM    5  C5  UNL     1      -4.240   5.464  14.197  1.00  0.00     0.149 C 
HETATM    6  O1  UNL     1      -3.015   5.518  14.191  1.00  0.00    -0.293 OA
HETATM    7  C6  UNL     1      -4.996   6.110  15.295  1.00  0.00     0.053 C 
HETATM    8  C7  UNL     1      -6.340   6.154  15.303  1.00  0.00    -0.068 C 
HETATM    9  C8  UNL     1      -7.056   6.741  16.496  1.00  0.00     0.035 C 
HETATM   10  C9  UNL     1      -8.103   7.767  16.082  1.00  0.00     0.010 C 
HETATM   11  C10 UNL     1      -9.106   7.164  15.089  1.00  0.00    -0.004 C 
HETATM   12  C11 UNL     1      -8.357   6.649  13.824  1.00  0.00     0.002 C 
HETATM   13  C12 UNL     1      -9.345   6.159  12.734  1.00  0.00     0.007 C 
HETATM   14  C13 UNL     1     -10.493   7.147  12.435  1.00  0.00     0.013 C 
HETATM   15  C14 UNL     1     -11.226   7.605  13.712  1.00  0.00    -0.002 C 
HETATM   16  C15 UNL     1     -11.993   6.404  14.331  1.00  0.00     0.019 C 
HETATM   17  C16 UNL     1     -10.158   8.197  14.661  1.00  0.00     0.002 C 
HETATM   18  C17 UNL     1     -10.978   8.899  15.741  1.00  0.00     0.009 C 
HETATM   19  C18 UNL     1     -12.268   9.361  15.030  1.00  0.00     0.047 C 
HETATM   20  C19 UNL     1     -12.173   8.835  13.582  1.00  0.00     0.128 C 
ENDROOT
BRANCH  20  21
HETATM   21  O2  UNL     1     -11.555   9.882  12.814  1.00  0.00    -0.381 OA
HETATM   22  H27 UNL     1     -11.456   9.545  11.904  1.00  0.00     0.211 HD
ENDBRANCH  20  21
BRANCH  20  23
HETATM   23  C20 UNL     1     -13.491   8.546  12.845  1.00  0.00     0.185 C 
HETATM   24  O3  UNL     1     -13.915   9.356  12.009  1.00  0.00    -0.292 OA
BRANCH  23  25
HETATM   25  C21 UNL     1     -14.290   7.304  13.228  1.00  0.00     0.260 C 
BRANCH  25  26
HETATM   26  O4  UNL     1     -15.660   7.384  12.827  1.00  0.00    -0.314 OA
BRANCH  26  27
HETATM   27  C22 UNL     1     -16.348   6.220  12.986  1.00  0.00     0.259 C 
HETATM   28  O5  UNL     1     -17.295   5.864  12.295  1.00  0.00    -0.265 OA
BRANCH  27  29
HETATM   29  C23 UNL     1     -15.771   5.416  14.115  1.00  0.00     0.120 C 
BRANCH  29  30
HETATM   30  C24 UNL     1     -16.879   4.841  14.982  1.00  0.00     0.112 C 
BRANCH  30  31
HETATM   31  C25 UNL     1     -16.529   3.453  15.476  1.00  0.00     0.218 C 
HETATM   32  O6  UNL     1     -16.864   3.022  16.573  1.00  0.00    -0.274 OA
HETATM   33  N1  UNL     1     -15.802   2.726  14.562  1.00  0.00    -0.357 N 
HETATM   34  H34 UNL     1     -15.630   3.109  13.643  1.00  0.00     0.162 HD
BRANCH  33  35
HETATM   35  C26 UNL     1     -15.390   1.363  14.823  1.00  0.00     0.162 C 
BRANCH  35  36
HETATM   36  C27 UNL     1     -15.844   0.447  13.727  1.00  0.00    -0.025 A 
HETATM   37  C28 UNL     1     -15.693  -0.940  13.828  1.00  0.00     0.011 A 
HETATM   38  C29 UNL     1     -16.135  -1.765  12.799  1.00  0.00     0.018 A 
HETATM   39  C30 UNL     1     -16.728  -1.171  11.698  1.00  0.00     0.087 A 
HETATM   40  N2  UNL     1     -16.900   0.162  11.565  1.00  0.00    -0.375 N 
HETATM   41  C31 UNL     1     -16.450   0.937  12.577  1.00  0.00     0.096 A 
ATOM     42  H2  UNL     1     -17.348   0.563  10.742  1.00  0.00     0.164 HD
ENDBRANCH  35  36
ENDBRANCH  33  35
ENDBRANCH  30  31
ENDBRANCH  29  30
ENDBRANCH  27  29
ENDBRANCH  26  27
ENDBRANCH  25  26
ENDBRANCH  23  25
ENDBRANCH  20  23
TORSDOF 10
ENDMDL
MODEL 4
REMARK minimizedAffinity -8.903018
REMARK CNNscore 0.474955678
REMARK CNNaffinity 6.70545053
REMARK  10 active torsions:
REMARK  status: ('A' for Active; 'I' for Inactive)
REMARK    1  A    between atoms: C19_20  and  O2_21 
REMARK    2  A    between atoms: C19_20  and  C20_22 
REMARK    3  A    between atoms: C20_22  and  C21_24 
REMARK    4  A    between atoms: C21_24  and  O4_25 
REMARK    5  A    between atoms: O4_25  and  C22_26 
REMARK    6  A    between atoms: C22_26  and  C23_28 
REMARK    7  A    between atoms: C23_28  and  C24_29 
REMARK    8  A    between atoms: C24_29  and  C25_30 
REMARK       I    between atoms: C25_30  and  N1_32 
REMARK    9  A    between atoms: N1_32  and  C26_33 
REMARK   10  A    between atoms: C26_33  and  C27_34 
ROOT
HETATM    1  C1  UNL     1      -6.483   6.425  16.238  1.00  0.00     0.020 C 
HETATM    2  C2  UNL     1      -6.613   7.189  14.901  1.00  0.00    -0.016 C 
HETATM    3  C3  UNL     1      -7.778   8.216  15.019  1.00  0.00     0.022 C 
HETATM    4  C4  UNL     1      -9.160   7.576  15.011  1.00  0.00     0.084 C 
HETATM    5  C5  UNL     1      -9.335   6.734  13.776  1.00  0.00     0.149 C 
HETATM    6  O1  UNL     1     -10.418   6.600  13.216  1.00  0.00    -0.293 OA
HETATM    7  C6  UNL     1      -8.156   5.990  13.276  1.00  0.00     0.053 C 
HETATM    8  C7  UNL     1      -6.930   6.168  13.799  1.00  0.00    -0.068 C 
HETATM    9  C8  UNL     1      -5.785   5.311  13.313  1.00  0.00     0.035 C 
HETATM   10  C9  UNL     1      -4.566   6.148  12.943  1.00  0.00     0.010 C 
HETATM   11  C10 UNL     1      -4.124   7.030  14.119  1.00  0.00    -0.004 C 
HETATM   12  C11 UNL     1      -5.290   7.972  14.544  1.00  0.00     0.002 C 
HETATM   13  C12 UNL     1      -4.843   8.978  15.636  1.00  0.00     0.007 C 
HETATM   14  C13 UNL     1      -3.520   9.708  15.317  1.00  0.00     0.013 C 
HETATM   15  C14 UNL     1      -2.388   8.735  14.932  1.00  0.00    -0.002 C 
HETATM   16  C15 UNL     1      -1.990   7.884  16.169  1.00  0.00     0.019 C 
HETATM   17  C16 UNL     1      -2.903   7.883  13.748  1.00  0.00     0.002 C 
HETATM   18  C17 UNL     1      -1.650   7.182  13.230  1.00  0.00     0.009 C 
HETATM   19  C18 UNL     1      -0.491   8.158  13.526  1.00  0.00     0.047 C 
HETATM   20  C19 UNL     1      -1.117   9.353  14.277  1.00  0.00     0.128 C 
ENDROOT
BRANCH  20  21
HETATM   21  O2  UNL     1      -1.472  10.318  13.271  1.00  0.00    -0.381 OA
HETATM   22  H27 UNL     1      -1.903  11.062  13.732  1.00  0.00     0.211 HD
ENDBRANCH  20  21
BRANCH  20  23
HETATM   23  C20 UNL     1      -0.214  10.129  15.251  1.00  0.00     0.185 C 
HETATM   24  O3  UNL     1      -0.421  11.335  15.446  1.00  0.00    -0.292 OA
BRANCH  23  25
HETATM   25  C21 UNL     1       0.971   9.410  15.887  1.00  0.00     0.260 C 
BRANCH  25  26
HETATM   26  O4  UNL     1       1.096   9.682  17.285  1.00  0.00    -0.314 OA
BRANCH  26  27
HETATM   27  C22 UNL     1       2.207  10.400  17.607  1.00  0.00     0.259 C 
HETATM   28  O5  UNL     1       3.328  10.200  17.155  1.00  0.00    -0.265 OA
BRANCH  27  29
HETATM   29  C23 UNL     1       1.866  11.493  18.578  1.00  0.00     0.120 C 
BRANCH  29  30
HETATM   30  C24 UNL     1       1.182  10.920  19.809  1.00  0.00     0.112 C 
BRANCH  30  31
HETATM   31  C25 UNL     1       2.191  10.389  20.803  1.00  0.00     0.218 C 
HETATM   32  O6  UNL     1       2.824   9.351  20.636  1.00  0.00    -0.274 OA
HETATM   33  N1  UNL     1       2.329  11.194  21.910  1.00  0.00    -0.357 N 
HETATM   34  H34 UNL     1       1.841  12.078  21.948  1.00  0.00     0.162 HD
BRANCH  33  35
HETATM   35  C26 UNL     1       3.266  10.884  22.970  1.00  0.00     0.162 C 
BRANCH  35  36
HETATM   36  C27 UNL     1       4.426  11.832  22.953  1.00  0.00    -0.025 A 
HETATM   37  C28 UNL     1       5.744  11.370  23.037  1.00  0.00     0.011 A 
HETATM   38  C29 UNL     1       6.802  12.274  23.007  1.00  0.00     0.018 A 
HETATM   39  C30 UNL     1       6.504  13.621  22.883  1.00  0.00     0.087 A 
HETATM   40  N2  UNL     1       5.247  14.106  22.791  1.00  0.00    -0.375 N 
HETATM   41  C31 UNL     1       4.241  13.204  22.834  1.00  0.00     0.096 A 
ATOM     42  H2  UNL     1       5.065  15.105  22.694  1.00  0.00     0.164 HD
ENDBRANCH  35  36
ENDBRANCH  33  35
ENDBRANCH  30  31
ENDBRANCH  29  30
ENDBRANCH  27  29
ENDBRANCH  26  27
ENDBRANCH  25  26
ENDBRANCH  23  25
ENDBRANCH  20  23
TORSDOF 10
ENDMDL
MODEL 5
REMARK minimizedAffinity -8.48447418
REMARK CNNscore 0.4270899
REMARK CNNaffinity 7.07260275
REMARK  10 active torsions:
REMARK  status: ('A' for Active; 'I' for Inactive)
REMARK    1  A    between atoms: C19_20  and  O2_21 
REMARK    2  A    between atoms: C19_20  and  C20_22 
REMARK    3  A    between atoms: C20_22  and  C21_24 
REMARK    4  A    between atoms: C21_24  and  O4_25 
REMARK    5  A    between atoms: O4_25  and  C22_26 
REMARK    6  A    between atoms: C22_26  and  C23_28 
REMARK    7  A    between atoms: C23_28  and  C24_29 
REMARK    8  A    between atoms: C24_29  and  C25_30 
REMARK       I    between atoms: C25_30  and  N1_32 
REMARK    9  A    between atoms: N1_32  and  C26_33 
REMARK   10  A    between atoms: C26_33  and  C27_34 
ROOT
HETATM    1  C1  UNL     1      -4.798   3.952  10.114  1.00  0.00     0.020 C 
HETATM    2  C2  UNL     1      -4.562   3.426  11.547  1.00  0.00    -0.016 C 
HETATM    3  C3  UNL     1      -4.589   1.868  11.522  1.00  0.00     0.022 C 
HETATM    4  C4  UNL     1      -5.983   1.285  11.330  1.00  0.00     0.084 C 
HETATM    5  C5  UNL     1      -6.915   1.802  12.393  1.00  0.00     0.149 C 
HETATM    6  O1  UNL     1      -7.836   1.132  12.846  1.00  0.00    -0.293 OA
HETATM    7  C6  UNL     1      -6.738   3.203  12.840  1.00  0.00     0.053 C 
HETATM    8  C7  UNL     1      -5.696   3.951  12.440  1.00  0.00    -0.068 C 
HETATM    9  C8  UNL     1      -5.622   5.402  12.853  1.00  0.00     0.035 C 
HETATM   10  C9  UNL     1      -4.261   5.757  13.439  1.00  0.00     0.010 C 
HETATM   11  C10 UNL     1      -3.130   5.412  12.460  1.00  0.00    -0.004 C 
HETATM   12  C11 UNL     1      -3.167   3.892  12.119  1.00  0.00     0.002 C 
HETATM   13  C12 UNL     1      -1.958   3.474  11.243  1.00  0.00     0.007 C 
HETATM   14  C13 UNL     1      -0.596   3.974  11.769  1.00  0.00     0.013 C 
HETATM   15  C14 UNL     1      -0.596   5.487  12.063  1.00  0.00    -0.002 C 
HETATM   16  C15 UNL     1      -0.732   6.276  10.731  1.00  0.00     0.019 C 
HETATM   17  C16 UNL     1      -1.755   5.758  13.050  1.00  0.00     0.002 C 
HETATM   18  C17 UNL     1      -1.502   7.186  13.529  1.00  0.00     0.009 C 
HETATM   19  C18 UNL     1       0.031   7.360  13.479  1.00  0.00     0.047 C 
HETATM   20  C19 UNL     1       0.594   6.047  12.897  1.00  0.00     0.128 C 
ENDROOT
BRANCH  20  21
HETATM   21  O2  UNL     1       0.879   5.197  14.023  1.00  0.00    -0.381 OA
HETATM   22  H27 UNL     1       1.201   4.350  13.663  1.00  0.00     0.211 HD
ENDBRANCH  20  21
BRANCH  20  23
HETATM   23  C20 UNL     1       1.925   6.125  12.130  1.00  0.00     0.185 C 
HETATM   24  O3  UNL     1       2.241   5.207  11.359  1.00  0.00    -0.292 OA
BRANCH  23  25
HETATM   25  C21 UNL     1       2.865   7.294  12.406  1.00  0.00     0.260 C 
BRANCH  25  26
HETATM   26  O4  UNL     1       2.640   8.402  11.530  1.00  0.00    -0.314 OA
BRANCH  26  27
HETATM   27  C22 UNL     1       2.787   8.098  10.212  1.00  0.00     0.259 C 
HETATM   28  O5  UNL     1       1.924   8.251   9.355  1.00  0.00    -0.265 OA
BRANCH  27  29
HETATM   29  C23 UNL     1       4.167   7.571   9.942  1.00  0.00     0.120 C 
BRANCH  29  30
HETATM   30  C24 UNL     1       5.219   8.547  10.442  1.00  0.00     0.112 C 
BRANCH  30  31
HETATM   31  C25 UNL     1       6.338   7.829  11.165  1.00  0.00     0.218 C 
HETATM   32  O6  UNL     1       7.207   7.180  10.592  1.00  0.00    -0.274 OA
HETATM   33  N1  UNL     1       6.283   7.987  12.531  1.00  0.00    -0.357 N 
HETATM   34  H34 UNL     1       5.591   8.603  12.934  1.00  0.00     0.162 HD
BRANCH  33  35
HETATM   35  C26 UNL     1       7.277   7.407  13.408  1.00  0.00     0.162 C 
BRANCH  35  36
HETATM   36  C27 UNL     1       8.428   8.345  13.609  1.00  0.00    -0.025 A 
HETATM   37  C28 UNL     1       9.735   7.872  13.766  1.00  0.00     0.011 A 
HETATM   38  C29 UNL     1      10.784   8.770  13.939  1.00  0.00     0.018 A 
HETATM   39  C30 UNL     1      10.490  10.122  13.940  1.00  0.00     0.087 A 
HETATM   40  N2  UNL     1       9.244  10.620  13.784  1.00  0.00    -0.375 N 
HETATM   41  C31 UNL     1       8.245   9.723  13.630  1.00  0.00     0.096 A 
ATOM     42  H2  UNL     1       9.066  11.624  13.784  1.00  0.00     0.164 HD
ENDBRANCH  35  36
ENDBRANCH  33  35
ENDBRANCH  30  31
ENDBRANCH  29  30
ENDBRANCH  27  29
ENDBRANCH  26  27
ENDBRANCH  25  26
ENDBRANCH  23  25
ENDBRANCH  20  23
TORSDOF 10
ENDMDL
MODEL 6
REMARK minimizedAffinity -9.52923489
REMARK CNNscore 0.368859231
REMARK CNNaffinity 7.18799639
REMARK  10 active torsions:
REMARK  status: ('A' for Active; 'I' for Inactive)
REMARK    1  A    between atoms: C19_20  and  O2_21 
REMARK    2  A    between atoms: C19_20  and  C20_22 
REMARK    3  A    between atoms: C20_22  and  C21_24 
REMARK    4  A    between atoms: C21_24  and  O4_25 
REMARK    5  A    between atoms: O4_25  and  C22_26 
REMARK    6  A    between atoms: C22_26  and  C23_28 
REMARK    7  A    between atoms: C23_28  and  C24_29 
REMARK    8  A    between atoms: C24_29  and  C25_30 
REMARK       I    between atoms: C25_30  and  N1_32 
REMARK    9  A    between atoms: N1_32  and  C26_33 
REMARK   10  A    between atoms: C26_33  and  C27_34 
ROOT
HETATM    1  C1  UNL     1       0.099   7.879  10.004  1.00  0.00     0.020 C 
HETATM    2  C2  UNL     1       0.875   7.480  11.278  1.00  0.00    -0.016 C 
HETATM    3  C3  UNL     1       2.059   8.473  11.477  1.00  0.00     0.022 C 
HETATM    4  C4  UNL     1       3.198   8.271  10.487  1.00  0.00     0.084 C 
HETATM    5  C5  UNL     1       3.696   6.852  10.549  1.00  0.00     0.149 C 
HETATM    6  O1  UNL     1       4.870   6.554  10.357  1.00  0.00    -0.293 OA
HETATM    7  C6  UNL     1       2.698   5.782  10.780  1.00  0.00     0.053 C 
HETATM    8  C7  UNL     1       1.417   6.057  11.080  1.00  0.00    -0.068 C 
HETATM    9  C8  UNL     1       0.426   4.926  11.210  1.00  0.00     0.035 C 
HETATM   10  C9  UNL     1      -0.383   5.024  12.497  1.00  0.00     0.010 C 
HETATM   11  C10 UNL     1      -1.091   6.381  12.604  1.00  0.00    -0.004 C 
HETATM   12  C11 UNL     1      -0.042   7.533  12.562  1.00  0.00     0.002 C 
HETATM   13  C12 UNL     1      -0.700   8.915  12.807  1.00  0.00     0.007 C 
HETATM   14  C13 UNL     1      -1.641   8.957  14.030  1.00  0.00     0.013 C 
HETATM   15  C14 UNL     1      -2.681   7.820  14.013  1.00  0.00    -0.002 C 
HETATM   16  C15 UNL     1      -3.676   8.040  12.841  1.00  0.00     0.019 C 
HETATM   17  C16 UNL     1      -1.899   6.490  13.905  1.00  0.00     0.002 C 
HETATM   18  C17 UNL     1      -2.949   5.422  14.206  1.00  0.00     0.009 C 
HETATM   19  C18 UNL     1      -3.941   6.097  15.178  1.00  0.00     0.047 C 
HETATM   20  C19 UNL     1      -3.463   7.556  15.335  1.00  0.00     0.128 C 
ENDROOT
BRANCH  20  21
HETATM   21  O2  UNL     1      -2.578   7.570  16.469  1.00  0.00    -0.381 OA
HETATM   22  H27 UNL     1      -2.242   8.481  16.554  1.00  0.00     0.211 HD
ENDBRANCH  20  21
BRANCH  20  23
HETATM   23  C20 UNL     1      -4.526   8.618  15.666  1.00  0.00     0.185 C 
HETATM   24  O3  UNL     1      -4.210   9.609  16.339  1.00  0.00    -0.292 OA
BRANCH  23  25
HETATM   25  C21 UNL     1      -5.967   8.378  15.227  1.00  0.00     0.260 C 
BRANCH  25  26
HETATM   26  O4  UNL     1      -6.647   7.435  16.060  1.00  0.00    -0.314 OA
BRANCH  26  27
HETATM   27  C22 UNL     1      -7.920   7.168  15.660  1.00  0.00     0.259 C 
HETATM   28  O5  UNL     1      -8.931   7.546  16.241  1.00  0.00    -0.265 OA
BRANCH  27  29
HETATM   29  C23 UNL     1      -7.919   6.364  14.393  1.00  0.00     0.120 C 
BRANCH  29  30
HETATM   30  C24 UNL     1      -7.377   4.967  14.646  1.00  0.00     0.112 C 
BRANCH  30  31
HETATM   31  C25 UNL     1      -7.489   4.100  13.411  1.00  0.00     0.218 C 
HETATM   32  O6  UNL     1      -8.536   3.930  12.796  1.00  0.00    -0.274 OA
HETATM   33  N1  UNL     1      -6.291   3.528  13.047  1.00  0.00    -0.357 N 
HETATM   34  H34 UNL     1      -5.449   3.775  13.546  1.00  0.00     0.162 HD
BRANCH  33  35
HETATM   35  C26 UNL     1      -6.170   2.686  11.876  1.00  0.00     0.162 C 
BRANCH  35  36
HETATM   36  C27 UNL     1      -4.742   2.580  11.437  1.00  0.00    -0.025 A 
HETATM   37  C28 UNL     1      -4.104   3.633  10.773  1.00  0.00     0.011 A 
HETATM   38  C29 UNL     1      -2.773   3.510  10.389  1.00  0.00     0.018 A 
HETATM   39  C30 UNL     1      -2.114   2.330  10.692  1.00  0.00     0.087 A 
HETATM   40  N2  UNL     1      -2.691   1.293  11.338  1.00  0.00    -0.375 N 
HETATM   41  C31 UNL     1      -3.988   1.440  11.689  1.00  0.00     0.096 A 
ATOM     42  H2  UNL     1      -2.172   0.442  11.551  1.00  0.00     0.164 HD
ENDBRANCH  35  36
ENDBRANCH  33  35
ENDBRANCH  30  31
ENDBRANCH  29  30
ENDBRANCH  27  29
ENDBRANCH  26  27
ENDBRANCH  25  26
ENDBRANCH  23  25
ENDBRANCH  20  23
TORSDOF 10
ENDMDL
MODEL 7
REMARK minimizedAffinity -7.51192141
REMARK CNNscore 0.342961997
REMARK CNNaffinity 6.07728624
REMARK  10 active torsions:
REMARK  status: ('A' for Active; 'I' for Inactive)
REMARK    1  A    between atoms: C19_20  and  O2_21 
REMARK    2  A    between atoms: C19_20  and  C20_22 
REMARK    3  A    between atoms: C20_22  and  C21_24 
REMARK    4  A    between atoms: C21_24  and  O4_25 
REMARK    5  A    between atoms: O4_25  and  C22_26 
REMARK    6  A    between atoms: C22_26  and  C23_28 
REMARK    7  A    between atoms: C23_28  and  C24_29 
REMARK    8  A    between atoms: C24_29  and  C25_30 
REMARK       I    between atoms: C25_30  and  N1_32 
REMARK    9  A    between atoms: N1_32  and  C26_33 
REMARK   10  A    between atoms: C26_33  and  C27_34 
ROOT
HETATM    1  C1  UNL     1       0.070   7.862  10.000  1.00  0.00     0.020 C 
HETATM    2  C2  UNL     1       0.807   7.342  11.253  1.00  0.00    -0.016 C 
HETATM    3  C3  UNL     1       2.085   8.205  11.480  1.00  0.00     0.022 C 
HETATM    4  C4  UNL     1       3.195   7.929  10.474  1.00  0.00     0.084 C 
HETATM    5  C5  UNL     1       3.550   6.466  10.480  1.00  0.00     0.149 C 
HETATM    6  O1  UNL     1       4.688   6.061  10.269  1.00  0.00    -0.293 OA
HETATM    7  C6  UNL     1       2.452   5.491  10.680  1.00  0.00     0.053 C 
HETATM    8  C7  UNL     1       1.205   5.881  10.999  1.00  0.00    -0.068 C 
HETATM    9  C8  UNL     1       0.108   4.849  11.095  1.00  0.00     0.035 C 
HETATM   10  C9  UNL     1      -0.683   4.978  12.392  1.00  0.00     0.010 C 
HETATM   11  C10 UNL     1      -1.252   6.394  12.553  1.00  0.00    -0.004 C 
HETATM   12  C11 UNL     1      -0.095   7.437  12.545  1.00  0.00     0.002 C 
HETATM   13  C12 UNL     1      -0.612   8.867  12.845  1.00  0.00     0.007 C 
HETATM   14  C13 UNL     1      -1.540   8.957  14.076  1.00  0.00     0.013 C 
HETATM   15  C14 UNL     1      -2.687   7.929  14.026  1.00  0.00    -0.002 C 
HETATM   16  C15 UNL     1      -3.660   8.290  12.869  1.00  0.00     0.019 C 
HETATM   17  C16 UNL     1      -2.041   6.533  13.863  1.00  0.00     0.002 C 
HETATM   18  C17 UNL     1      -3.190   5.564  14.133  1.00  0.00     0.009 C 
HETATM   19  C18 UNL     1      -4.107   6.297  15.135  1.00  0.00     0.047 C 
HETATM   20  C19 UNL     1      -3.486   7.695  15.342  1.00  0.00     0.128 C 
ENDROOT
BRANCH  20  21
HETATM   21  O2  UNL     1      -2.600   7.579  16.470  1.00  0.00    -0.381 OA
HETATM   22  H27 UNL     1      -2.175   8.449  16.586  1.00  0.00     0.211 HD
ENDBRANCH  20  21
BRANCH  20  23
HETATM   23  C20 UNL     1      -4.437   8.844  15.719  1.00  0.00     0.185 C 
HETATM   24  O3  UNL     1      -5.662   8.657  15.695  1.00  0.00    -0.292 OA
BRANCH  23  25
HETATM   25  C21 UNL     1      -3.846  10.215  16.031  1.00  0.00     0.260 C 
BRANCH  25  26
HETATM   26  O4  UNL     1      -3.281  10.287  17.342  1.00  0.00    -0.314 OA
BRANCH  26  27
HETATM   27  C22 UNL     1      -2.330  11.252  17.478  1.00  0.00     0.259 C 
HETATM   28  O5  UNL     1      -1.373  11.404  16.728  1.00  0.00    -0.265 OA
BRANCH  27  29
HETATM   29  C23 UNL     1      -2.627  12.123  18.664  1.00  0.00     0.120 C 
BRANCH  29  30
HETATM   30  C24 UNL     1      -4.056  11.914  19.136  1.00  0.00     0.112 C 
BRANCH  30  31
HETATM   31  C25 UNL     1      -4.685  13.215  19.585  1.00  0.00     0.218 C 
HETATM   32  O6  UNL     1      -5.866  13.324  19.897  1.00  0.00    -0.274 OA
HETATM   33  N1  UNL     1      -3.791  14.261  19.614  1.00  0.00    -0.357 N 
HETATM   34  H34 UNL     1      -2.814  14.087  19.426  1.00  0.00     0.162 HD
BRANCH  33  35
HETATM   35  C26 UNL     1      -4.180  15.588  20.044  1.00  0.00     0.162 C 
BRANCH  35  36
HETATM   36  C27 UNL     1      -3.846  15.802  21.488  1.00  0.00    -0.025 A 
HETATM   37  C28 UNL     1      -4.744  15.455  22.503  1.00  0.00     0.011 A 
HETATM   38  C29 UNL     1      -4.400  15.655  23.836  1.00  0.00     0.018 A 
HETATM   39  C30 UNL     1      -3.155  16.192  24.113  1.00  0.00     0.087 A 
HETATM   40  N2  UNL     1      -2.256  16.533  23.165  1.00  0.00    -0.375 N 
HETATM   41  C31 UNL     1      -2.624  16.336  21.879  1.00  0.00     0.096 A 
ATOM     42  H2  UNL     1      -1.344  16.919  23.407  1.00  0.00     0.164 HD
ENDBRANCH  35  36
ENDBRANCH  33  35
ENDBRANCH  30  31
ENDBRANCH  29  30
ENDBRANCH  27  29
ENDBRANCH  26  27
ENDBRANCH  25  26
ENDBRANCH  23  25
ENDBRANCH  20  23
TORSDOF 10
ENDMDL
MODEL 8
REMARK minimizedAffinity -8.09240341
REMARK CNNscore 0.328677863
REMARK CNNaffinity 6.21989202
REMARK  10 active torsions:
REMARK  status: ('A' for Active; 'I' for Inactive)
REMARK    1  A    between atoms: C19_20  and  O2_21 
REMARK    2  A    between atoms: C19_20  and  C20_22 
REMARK    3  A    between atoms: C20_22  and  C21_24 
REMARK    4  A    between atoms: C21_24  and  O4_25 
REMARK    5  A    between atoms: O4_25  and  C22_26 
REMARK    6  A    between atoms: C22_26  and  C23_28 
REMARK    7  A    between atoms: C23_28  and  C24_29 
REMARK    8  A    between atoms: C24_29  and  C25_30 
REMARK       I    between atoms: C25_30  and  N1_32 
REMARK    9  A    between atoms: N1_32  and  C26_33 
REMARK   10  A    between atoms: C26_33  and  C27_34 
ROOT
HETATM    1  C1  UNL     1       0.074   7.859  10.002  1.00  0.00     0.020 C 
HETATM    2  C2  UNL     1       0.832   7.347  11.247  1.00  0.00    -0.016 C 
HETATM    3  C3  UNL     1       2.108   8.217  11.452  1.00  0.00     0.022 C 
HETATM    4  C4  UNL     1       3.205   7.943  10.432  1.00  0.00     0.084 C 
HETATM    5  C5  UNL     1       3.568   6.482  10.439  1.00  0.00     0.149 C 
HETATM    6  O1  UNL     1       4.705   6.082  10.213  1.00  0.00    -0.293 OA
HETATM    7  C6  UNL     1       2.478   5.503  10.657  1.00  0.00     0.053 C 
HETATM    8  C7  UNL     1       1.234   5.888  10.993  1.00  0.00    -0.068 C 
HETATM    9  C8  UNL     1       0.143   4.850  11.108  1.00  0.00     0.035 C 
HETATM   10  C9  UNL     1      -0.630   4.981  12.415  1.00  0.00     0.010 C 
HETATM   11  C10 UNL     1      -1.205   6.394  12.579  1.00  0.00    -0.004 C 
HETATM   12  C11 UNL     1      -0.052   7.443  12.550  1.00  0.00     0.002 C 
HETATM   13  C12 UNL     1      -0.573   8.872  12.853  1.00  0.00     0.007 C 
HETATM   14  C13 UNL     1      -1.483   8.961  14.096  1.00  0.00     0.013 C 
HETATM   15  C14 UNL     1      -2.626   7.928  14.066  1.00  0.00    -0.002 C 
HETATM   16  C15 UNL     1      -3.616   8.279  12.922  1.00  0.00     0.019 C 
HETATM   17  C16 UNL     1      -1.975   6.535  13.899  1.00  0.00     0.002 C 
HETATM   18  C17 UNL     1      -3.115   5.561  14.188  1.00  0.00     0.009 C 
HETATM   19  C18 UNL     1      -4.022   6.293  15.202  1.00  0.00     0.047 C 
HETATM   20  C19 UNL     1      -3.406   7.695  15.394  1.00  0.00     0.128 C 
ENDROOT
BRANCH  20  21
HETATM   21  O2  UNL     1      -2.503   7.588  16.510  1.00  0.00    -0.381 OA
HETATM   22  H27 UNL     1      -2.080   8.460  16.616  1.00  0.00     0.211 HD
ENDBRANCH  20  21
BRANCH  20  23
HETATM   23  C20 UNL     1      -4.357   8.840  15.781  1.00  0.00     0.185 C 
HETATM   24  O3  UNL     1      -5.581   8.675  15.689  1.00  0.00    -0.292 OA
BRANCH  23  25
HETATM   25  C21 UNL     1      -3.761  10.185  16.186  1.00  0.00     0.260 C 
BRANCH  25  26
HETATM   26  O4  UNL     1      -3.540  10.288  17.595  1.00  0.00    -0.314 OA
BRANCH  26  27
HETATM   27  C22 UNL     1      -2.423  10.994  17.925  1.00  0.00     0.259 C 
HETATM   28  O5  UNL     1      -1.279  10.685  17.612  1.00  0.00    -0.265 OA
BRANCH  27  29
HETATM   29  C23 UNL     1      -2.787  12.222  18.707  1.00  0.00     0.120 C 
BRANCH  29  30
HETATM   30  C24 UNL     1      -4.222  12.632  18.420  1.00  0.00     0.112 C 
BRANCH  30  31
HETATM   31  C25 UNL     1      -4.728  13.624  19.446  1.00  0.00     0.218 C 
HETATM   32  O6  UNL     1      -4.737  14.837  19.267  1.00  0.00    -0.274 OA
HETATM   33  N1  UNL     1      -5.182  13.021  20.596  1.00  0.00    -0.357 N 
HETATM   34  H34 UNL     1      -5.226  12.014  20.648  1.00  0.00     0.162 HD
BRANCH  33  35
HETATM   35  C26 UNL     1      -5.736  13.787  21.693  1.00  0.00     0.162 C 
BRANCH  35  36
HETATM   36  C27 UNL     1      -7.144  13.364  21.984  1.00  0.00    -0.025 A 
HETATM   37  C28 UNL     1      -7.577  13.123  23.292  1.00  0.00     0.011 A 
HETATM   38  C29 UNL     1      -8.894  12.744  23.531  1.00  0.00     0.018 A 
HETATM   39  C30 UNL     1      -9.745  12.626  22.445  1.00  0.00     0.087 A 
HETATM   40  N2  UNL     1      -9.369  12.857  21.169  1.00  0.00    -0.375 N 
HETATM   41  C31 UNL     1      -8.081  13.213  20.968  1.00  0.00     0.096 A 
ATOM     42  H2  UNL     1     -10.026  12.767  20.394  1.00  0.00     0.164 HD
ENDBRANCH  35  36
ENDBRANCH  33  35
ENDBRANCH  30  31
ENDBRANCH  29  30
ENDBRANCH  27  29
ENDBRANCH  26  27
ENDBRANCH  25  26
ENDBRANCH  23  25
ENDBRANCH  20  23
TORSDOF 10
ENDMDL
MODEL 9
REMARK minimizedAffinity -9.17522049
REMARK CNNscore 0.29792127
REMARK CNNaffinity 6.57909012
REMARK  10 active torsions:
REMARK  status: ('A' for Active; 'I' for Inactive)
REMARK    1  A    between atoms: C19_20  and  O2_21 
REMARK    2  A    between atoms: C19_20  and  C20_22 
REMARK    3  A    between atoms: C20_22  and  C21_24 
REMARK    4  A    between atoms: C21_24  and  O4_25 
REMARK    5  A    between atoms: O4_25  and  C22_26 
REMARK    6  A    between atoms: C22_26  and  C23_28 
REMARK    7  A    between atoms: C23_28  and  C24_29 
REMARK    8  A    between atoms: C24_29  and  C25_30 
REMARK       I    between atoms: C25_30  and  N1_32 
REMARK    9  A    between atoms: N1_32  and  C26_33 
REMARK   10  A    between atoms: C26_33  and  C27_34 
ROOT
HETATM    1  C1  UNL     1      -7.837   6.843  16.469  1.00  0.00     0.020 C 
HETATM    2  C2  UNL     1      -7.819   7.503  15.072  1.00  0.00    -0.016 C 
HETATM    3  C3  UNL     1      -8.288   8.983  15.209  1.00  0.00     0.022 C 
HETATM    4  C4  UNL     1      -9.781   9.129  15.472  1.00  0.00     0.084 C 
HETATM    5  C5  UNL     1     -10.569   8.433  14.394  1.00  0.00     0.149 C 
HETATM    6  O1  UNL     1     -11.660   8.837  14.009  1.00  0.00    -0.293 OA
HETATM    7  C6  UNL     1     -10.019   7.172  13.844  1.00  0.00     0.053 C 
HETATM    8  C7  UNL     1      -8.791   6.731  14.169  1.00  0.00    -0.068 C 
HETATM    9  C8  UNL     1      -8.324   5.392  13.652  1.00  0.00     0.035 C 
HETATM   10  C9  UNL     1      -6.943   5.479  13.013  1.00  0.00     0.010 C 
HETATM   11  C10 UNL     1      -5.919   6.072  13.990  1.00  0.00    -0.004 C 
HETATM   12  C11 UNL     1      -6.374   7.493  14.440  1.00  0.00     0.002 C 
HETATM   13  C12 UNL     1      -5.299   8.186  15.318  1.00  0.00     0.007 C 
HETATM   14  C13 UNL     1      -3.873   8.131  14.729  1.00  0.00     0.013 C 
HETATM   15  C14 UNL     1      -3.455   6.703  14.328  1.00  0.00    -0.002 C 
HETATM   16  C15 UNL     1      -3.305   5.827  15.603  1.00  0.00     0.019 C 
HETATM   17  C16 UNL     1      -4.527   6.172  13.349  1.00  0.00     0.002 C 
HETATM   18  C17 UNL     1      -3.898   4.910  12.764  1.00  0.00     0.009 C 
HETATM   19  C18 UNL     1      -2.378   5.180  12.769  1.00  0.00     0.047 C 
HETATM   20  C19 UNL     1      -2.189   6.561  13.432  1.00  0.00     0.128 C 
ENDROOT
BRANCH  20  21
HETATM   21  O2  UNL     1      -2.203   7.525  12.363  1.00  0.00    -0.381 OA
HETATM   22  H27 UNL     1      -2.122   8.405  12.775  1.00  0.00     0.211 HD
ENDBRANCH  20  21
BRANCH  20  23
HETATM   23  C20 UNL     1      -0.861   6.821  14.163  1.00  0.00     0.185 C 
HETATM   24  O3  UNL     1      -0.825   7.638  15.094  1.00  0.00    -0.292 OA
BRANCH  23  25
HETATM   25  C21 UNL     1       0.402   6.126  13.663  1.00  0.00     0.260 C 
BRANCH  25  26
HETATM   26  O4  UNL     1       1.590   6.629  14.280  1.00  0.00    -0.314 OA
BRANCH  26  27
HETATM   27  C22 UNL     1       2.117   7.715  13.652  1.00  0.00     0.259 C 
HETATM   28  O5  UNL     1       2.582   8.697  14.219  1.00  0.00    -0.265 OA
BRANCH  27  29
HETATM   29  C23 UNL     1       2.076   7.535  12.162  1.00  0.00     0.120 C 
BRANCH  29  30
HETATM   30  C24 UNL     1       3.265   8.219  11.508  1.00  0.00     0.112 C 
BRANCH  30  31
HETATM   31  C25 UNL     1       3.282   7.984  10.013  1.00  0.00     0.218 C 
HETATM   32  O6  UNL     1       4.050   8.557   9.247  1.00  0.00    -0.274 OA
HETATM   33  N1  UNL     1       2.353   7.056   9.605  1.00  0.00    -0.357 N 
HETATM   34  H34 UNL     1       1.809   6.558  10.295  1.00  0.00     0.162 HD
BRANCH  33  35
HETATM   35  C26 UNL     1       2.224   6.661   8.217  1.00  0.00     0.162 C 
BRANCH  35  36
HETATM   36  C27 UNL     1       3.002   5.412   7.941  1.00  0.00    -0.025 A 
HETATM   37  C28 UNL     1       3.083   4.874   6.652  1.00  0.00     0.011 A 
HETATM   38  C29 UNL     1       3.824   3.718   6.425  1.00  0.00     0.018 A 
HETATM   39  C30 UNL     1       4.473   3.139   7.502  1.00  0.00     0.087 A 
HETATM   40  N2  UNL     1       4.427   3.630   8.759  1.00  0.00    -0.375 N 
HETATM   41  C31 UNL     1       3.690   4.748   8.950  1.00  0.00     0.096 A 
ATOM     42  H2  UNL     1       4.924   3.181   9.528  1.00  0.00     0.164 HD
ENDBRANCH  35  36
ENDBRANCH  33  35
ENDBRANCH  30  31
ENDBRANCH  29  30
ENDBRANCH  27  29
ENDBRANCH  26  27
ENDBRANCH  25  26
ENDBRANCH  23  25
ENDBRANCH  20  23
TORSDOF 10
ENDMDL
