MODEL 1
REMARK minimizedAffinity -6.09095669
REMARK CNNscore 0.809391201
REMARK CNNaffinity 6.08603907
REMARK  10 active torsions:
REMARK  status: ('A' for Active; 'I' for Inactive)
REMARK    1  A    between atoms: C2_2  and  O1_3 
REMARK    2  A    between atoms: O1_3  and  C3_4 
REMARK    3  A    between atoms: C3_4  and  C4_6 
REMARK    4  A    between atoms: C4_6  and  C5_7 
REMARK    5  A    between atoms: C5_7  and  C6_8 
REMARK    6  A    between atoms: C6_8  and  C8_10 
REMARK    7  A    between atoms: C13_15  and  O3_16 
REMARK    8  A    between atoms: C17_21  and  O4_22 
REMARK    9  A    between atoms: C24_29  and  O5_30 
REMARK   10  A    between atoms: O5_30  and  C25_31 
ROOT
HETATM    1  C8  UNL     1      14.185  -5.444   6.503  1.00  0.00     0.000 C 
HETATM    2  C9  UNL     1      13.772  -6.905   6.139  1.00  0.00     0.006 C 
HETATM    3  C10 UNL     1      13.938  -7.078   4.631  1.00  0.00     0.006 C 
HETATM    4  C11 UNL     1      14.750  -5.863   4.221  1.00  0.00     0.003 C 
HETATM    5  C12 UNL     1      14.905  -5.565   2.712  1.00  0.00     0.025 C 
HETATM    6  C13 UNL     1      13.631  -5.753   1.852  1.00  0.00     0.137 C 
HETATM    7  C14 UNL     1      13.500  -4.844   0.622  1.00  0.00     0.092 C 
HETATM    8 BR1  UNL     1      12.542  -5.717  -0.862  1.00  0.00    -0.088 Br
HETATM    9  C15 UNL     1      14.785  -4.162   0.145  1.00  0.00     0.013 C 
HETATM   10  C16 UNL     1      15.791  -5.135  -0.523  1.00  0.00     0.038 C 
HETATM   11  C17 UNL     1      17.184  -4.535  -0.756  1.00  0.00     0.118 C 
HETATM   12  C18 UNL     1      17.185  -3.023  -0.597  1.00  0.00     0.032 C 
HETATM   13  C19 UNL     1      16.705  -2.596   0.797  1.00  0.00     0.012 C 
HETATM   14  C20 UNL     1      15.420  -3.339   1.311  1.00  0.00    -0.035 C 
HETATM   15  C21 UNL     1      14.450  -2.227   1.780  1.00  0.00     0.016 C 
HETATM   16  C22 UNL     1      15.786  -4.300   2.498  1.00  0.00     0.003 C 
HETATM   17  C23 UNL     1      16.213  -3.616   3.819  1.00  0.00     0.039 C 
HETATM   18  C24 UNL     1      15.168  -3.473   4.953  1.00  0.00     0.141 C 
HETATM   19  C27 UNL     1      14.213  -4.706   5.110  1.00  0.00    -0.009 C 
HETATM   20  C28 UNL     1      12.779  -4.268   4.728  1.00  0.00     0.018 C 
ENDROOT
BRANCH   1  21
HETATM   21  C6  UNL     1      13.283  -4.906   7.662  1.00  0.00    -0.013 C 
HETATM   22  C7  UNL     1      11.932  -5.647   7.667  1.00  0.00     0.010 C 
BRANCH  21  23
HETATM   23  C5  UNL     1      13.934  -5.007   9.059  1.00  0.00     0.014 C 
BRANCH  23  24
HETATM   24  C4  UNL     1      15.338  -4.408   9.170  1.00  0.00     0.111 C 
BRANCH  24  25
HETATM   25  C3  UNL     1      16.286  -5.337   9.888  1.00  0.00     0.258 C 
HETATM   26  O2  UNL     1      16.406  -6.528   9.641  1.00  0.00    -0.265 OA
BRANCH  25  27
HETATM   27  O1  UNL     1      17.012  -4.646  10.812  1.00  0.00    -0.322 OA
BRANCH  27  28
HETATM   28  C2  UNL     1      18.359  -5.103  10.966  1.00  0.00     0.174 C 
HETATM   29  C1  UNL     1      18.807  -4.784  12.379  1.00  0.00     0.034 C 
ENDBRANCH  27  28
ENDBRANCH  25  27
ENDBRANCH  24  25
ENDBRANCH  23  24
ENDBRANCH  21  23
ENDBRANCH   1  21
BRANCH  18  30
HETATM   30  O5  UNL     1      15.919  -3.259   6.171  1.00  0.00    -0.316 OA
BRANCH  30  31
HETATM   31  C25 UNL     1      16.710  -2.151   6.212  1.00  0.00     0.255 C 
HETATM   32  C26 UNL     1      18.098  -2.523   6.642  1.00  0.00     0.126 C 
HETATM   33  O6  UNL     1      16.356  -1.010   5.948  1.00  0.00    -0.266 OA
ENDBRANCH  30  31
ENDBRANCH  18  30
BRANCH   6  34
HETATM   34  O3  UNL     1      13.566  -7.156   1.529  1.00  0.00    -0.394 OA
HETATM   35  H22 UNL     1      13.216  -7.244   0.626  1.00  0.00     0.210 HD
ENDBRANCH   6  34
BRANCH  11  36
HETATM   36  O4  UNL     1      18.090  -5.126   0.170  1.00  0.00    -0.396 OA
HETATM   37  H28 UNL     1      18.934  -4.635   0.129  1.00  0.00     0.210 HD
ENDBRANCH  11  36
TORSDOF 10
ENDMDL
MODEL 2
REMARK minimizedAffinity -8.4043045
REMARK CNNscore 0.781123221
REMARK CNNaffinity 7.25649405
REMARK  10 active torsions:
REMARK  status: ('A' for Active; 'I' for Inactive)
REMARK    1  A    between atoms: C2_2  and  O1_3 
REMARK    2  A    between atoms: O1_3  and  C3_4 
REMARK    3  A    between atoms: C3_4  and  C4_6 
REMARK    4  A    between atoms: C4_6  and  C5_7 
REMARK    5  A    between atoms: C5_7  and  C6_8 
REMARK    6  A    between atoms: C6_8  and  C8_10 
REMARK    7  A    between atoms: C13_15  and  O3_16 
REMARK    8  A    between atoms: C17_21  and  O4_22 
REMARK    9  A    between atoms: C24_29  and  O5_30 
REMARK   10  A    between atoms: O5_30  and  C25_31 
ROOT
HETATM    1  C8  UNL     1      -5.071   6.628  13.407  1.00  0.00     0.000 C 
HETATM    2  C9  UNL     1      -5.265   8.157  13.661  1.00  0.00     0.006 C 
HETATM    3  C10 UNL     1      -3.903   8.833  13.527  1.00  0.00     0.006 C 
HETATM    4  C11 UNL     1      -3.040   7.767  12.874  1.00  0.00     0.003 C 
HETATM    5  C12 UNL     1      -1.514   8.006  12.806  1.00  0.00     0.025 C 
HETATM    6  C13 UNL     1      -0.867   8.606  14.078  1.00  0.00     0.137 C 
HETATM    7  C14 UNL     1       0.590   8.205  14.355  1.00  0.00     0.092 C 
HETATM    8 BR1  UNL     1       1.607   9.632  15.255  1.00  0.00    -0.088 Br
HETATM    9  C15 UNL     1       1.364   7.615  13.173  1.00  0.00     0.013 C 
HETATM   10  C16 UNL     1       1.724   8.660  12.085  1.00  0.00     0.038 C 
HETATM   11  C17 UNL     1       2.250   8.049  10.779  1.00  0.00     0.118 C 
HETATM   12  C18 UNL     1       2.624   6.585  10.946  1.00  0.00     0.032 C 
HETATM   13  C19 UNL     1       1.434   5.743  11.424  1.00  0.00     0.012 C 
HETATM   14  C20 UNL     1       0.604   6.378  12.597  1.00  0.00    -0.035 C 
HETATM   15  C21 UNL     1       0.480   5.269  13.672  1.00  0.00     0.016 C 
HETATM   16  C22 UNL     1      -0.813   6.820  12.084  1.00  0.00     0.003 C 
HETATM   17  C23 UNL     1      -1.781   5.677  11.694  1.00  0.00     0.039 C 
HETATM   18  C24 UNL     1      -2.868   5.245  12.709  1.00  0.00     0.141 C 
HETATM   19  C27 UNL     1      -3.510   6.429  13.510  1.00  0.00    -0.009 C 
HETATM   20  C28 UNL     1      -3.104   6.293  14.997  1.00  0.00     0.018 C 
ENDROOT
BRANCH   1  21
HETATM   21  C6  UNL     1      -6.034   5.806  14.324  1.00  0.00    -0.013 C 
HETATM   22  C7  UNL     1      -5.976   6.345  15.767  1.00  0.00     0.010 C 
BRANCH  21  23
HETATM   23  C5  UNL     1      -7.499   5.789  13.837  1.00  0.00     0.014 C 
BRANCH  23  24
HETATM   24  C4  UNL     1      -7.716   5.194  12.443  1.00  0.00     0.111 C 
BRANCH  24  25
HETATM   25  C3  UNL     1      -7.831   3.690  12.490  1.00  0.00     0.258 C 
HETATM   26  O2  UNL     1      -8.847   3.084  12.799  1.00  0.00    -0.265 OA
BRANCH  25  27
HETATM   27  O1  UNL     1      -6.659   3.116  12.098  1.00  0.00    -0.322 OA
BRANCH  27  28
HETATM   28  C2  UNL     1      -6.625   1.692  12.232  1.00  0.00     0.174 C 
HETATM   29  C1  UNL     1      -6.159   1.104  10.914  1.00  0.00     0.034 C 
ENDBRANCH  27  28
ENDBRANCH  25  27
ENDBRANCH  24  25
ENDBRANCH  23  24
ENDBRANCH  21  23
ENDBRANCH   1  21
BRANCH  18  30
HETATM   30  O5  UNL     1      -3.879   4.545  11.947  1.00  0.00    -0.316 OA
BRANCH  30  31
HETATM   31  C25 UNL     1      -3.438   3.592  11.080  1.00  0.00     0.255 C 
HETATM   32  C26 UNL     1      -2.872   2.427  11.835  1.00  0.00     0.126 C 
HETATM   33  O6  UNL     1      -3.482   3.663   9.859  1.00  0.00    -0.266 OA
ENDBRANCH  30  31
ENDBRANCH  18  30
BRANCH   6  34
HETATM   34  O3  UNL     1      -1.055  10.032  13.993  1.00  0.00    -0.394 OA
HETATM   35  H22 UNL     1      -0.265  10.465  14.361  1.00  0.00     0.210 HD
ENDBRANCH   6  34
BRANCH  11  36
HETATM   36  O4  UNL     1       1.245   8.187   9.780  1.00  0.00    -0.396 OA
HETATM   37  H28 UNL     1       1.513   7.664   9.000  1.00  0.00     0.210 HD
ENDBRANCH  11  36
TORSDOF 10
ENDMDL
MODEL 3
REMARK minimizedAffinity -6.7697854
REMARK CNNscore 0.737659454
REMARK CNNaffinity 6.42343378
REMARK  10 active torsions:
REMARK  status: ('A' for Active; 'I' for Inactive)
REMARK    1  A    between atoms: C2_2  and  O1_3 
REMARK    2  A    between atoms: O1_3  and  C3_4 
REMARK    3  A    between atoms: C3_4  and  C4_6 
REMARK    4  A    between atoms: C4_6  and  C5_7 
REMARK    5  A    between atoms: C5_7  and  C6_8 
REMARK    6  A    between atoms: C6_8  and  C8_10 
REMARK    7  A    between atoms: C13_15  and  O3_16 
REMARK    8  A    between atoms: C17_21  and  O4_22 
REMARK    9  A    between atoms: C24_29  and  O5_30 
REMARK   10  A    between atoms: O5_30  and  C25_31 
ROOT
HETATM    1  C8  UNL     1      13.729  -8.249   6.021  1.00  0.00     0.000 C 
HETATM    2  C9  UNL     1      14.593  -9.486   5.618  1.00  0.00     0.006 C 
HETATM    3  C10 UNL     1      15.983  -9.306   6.222  1.00  0.00     0.006 C 
HETATM    4  C11 UNL     1      15.793  -8.178   7.221  1.00  0.00     0.003 C 
HETATM    5  C12 UNL     1      17.053  -7.545   7.854  1.00  0.00     0.025 C 
HETATM    6  C13 UNL     1      18.243  -7.302   6.894  1.00  0.00     0.137 C 
HETATM    7  C14 UNL     1      19.150  -6.108   7.223  1.00  0.00     0.092 C 
HETATM    8 BR1  UNL     1      21.023  -6.416   6.696  1.00  0.00    -0.088 Br
HETATM    9  C15 UNL     1      19.045  -5.551   8.646  1.00  0.00     0.013 C 
HETATM   10  C16 UNL     1      19.664  -6.481   9.722  1.00  0.00     0.038 C 
HETATM   11  C17 UNL     1      19.328  -6.081  11.165  1.00  0.00     0.118 C 
HETATM   12  C18 UNL     1      18.751  -4.676  11.245  1.00  0.00     0.032 C 
HETATM   13  C19 UNL     1      17.478  -4.534  10.399  1.00  0.00     0.012 C 
HETATM   14  C20 UNL     1      17.567  -5.159   8.961  1.00  0.00    -0.035 C 
HETATM   15  C21 UNL     1      17.081  -4.053   7.991  1.00  0.00     0.016 C 
HETATM   16  C22 UNL     1      16.650  -6.431   8.862  1.00  0.00     0.003 C 
HETATM   17  C23 UNL     1      15.125  -6.175   8.921  1.00  0.00     0.039 C 
HETATM   18  C24 UNL     1      14.325  -6.147   7.595  1.00  0.00     0.141 C 
HETATM   19  C27 UNL     1      14.792  -7.205   6.537  1.00  0.00    -0.009 C 
HETATM   20  C28 UNL     1      15.407  -6.456   5.332  1.00  0.00     0.018 C 
ENDROOT
BRANCH   1  21
HETATM   21  C6  UNL     1      12.755  -7.874   4.857  1.00  0.00    -0.013 C 
HETATM   22  C7  UNL     1      13.277  -6.630   4.112  1.00  0.00     0.010 C 
BRANCH  21  23
HETATM   23  C5  UNL     1      12.515  -9.019   3.849  1.00  0.00     0.014 C 
BRANCH  23  24
HETATM   24  C4  UNL     1      11.350  -9.953   4.187  1.00  0.00     0.111 C 
BRANCH  24  25
HETATM   25  C3  UNL     1      10.823 -10.654   2.960  1.00  0.00     0.258 C 
HETATM   26  O2  UNL     1      11.388 -10.669   1.876  1.00  0.00    -0.265 OA
BRANCH  25  27
HETATM   27  O1  UNL     1       9.657 -11.298   3.250  1.00  0.00    -0.322 OA
BRANCH  27  28
HETATM   28  C2  UNL     1       8.606 -11.075   2.304  1.00  0.00     0.174 C 
HETATM   29  C1  UNL     1       7.704  -9.985   2.850  1.00  0.00     0.034 C 
ENDBRANCH  27  28
ENDBRANCH  25  27
ENDBRANCH  24  25
ENDBRANCH  23  24
ENDBRANCH  21  23
ENDBRANCH   1  21
BRANCH  18  30
HETATM   30  O5  UNL     1      12.940  -6.367   7.952  1.00  0.00    -0.316 OA
BRANCH  30  31
HETATM   31  C25 UNL     1      12.347  -5.407   8.714  1.00  0.00     0.255 C 
HETATM   32  C26 UNL     1      11.493  -6.041   9.771  1.00  0.00     0.126 C 
HETATM   33  O6  UNL     1      12.473  -4.199   8.565  1.00  0.00    -0.266 OA
ENDBRANCH  30  31
ENDBRANCH  18  30
BRANCH   6  34
HETATM   34  O3  UNL     1      18.957  -8.550   6.812  1.00  0.00    -0.394 OA
HETATM   35  H22 UNL     1      19.908  -8.353   6.750  1.00  0.00     0.210 HD
ENDBRANCH   6  34
BRANCH  11  36
HETATM   36  O4  UNL     1      18.400  -7.023  11.690  1.00  0.00    -0.396 OA
HETATM   37  H28 UNL     1      18.069  -6.684  12.545  1.00  0.00     0.210 HD
ENDBRANCH  11  36
TORSDOF 10
ENDMDL
MODEL 4
REMARK minimizedAffinity -6.32209301
REMARK CNNscore 0.708439946
REMARK CNNaffinity 6.73072672
REMARK  10 active torsions:
REMARK  status: ('A' for Active; 'I' for Inactive)
REMARK    1  A    between atoms: C2_2  and  O1_3 
REMARK    2  A    between atoms: O1_3  and  C3_4 
REMARK    3  A    between atoms: C3_4  and  C4_6 
REMARK    4  A    between atoms: C4_6  and  C5_7 
REMARK    5  A    between atoms: C5_7  and  C6_8 
REMARK    6  A    between atoms: C6_8  and  C8_10 
REMARK    7  A    between atoms: C13_15  and  O3_16 
REMARK    8  A    between atoms: C17_21  and  O4_22 
REMARK    9  A    between atoms: C24_29  and  O5_30 
REMARK   10  A    between atoms: O5_30  and  C25_31 
ROOT
HETATM    1  C8  UNL     1      -2.573  11.635  17.356  1.00  0.00     0.000 C 
HETATM    2  C9  UNL     1      -3.056  10.596  18.417  1.00  0.00     0.006 C 
HETATM    3  C10 UNL     1      -2.814   9.198  17.851  1.00  0.00     0.006 C 
HETATM    4  C11 UNL     1      -1.904   9.450  16.661  1.00  0.00     0.003 C 
HETATM    5  C12 UNL     1      -1.644   8.281  15.683  1.00  0.00     0.025 C 
HETATM    6  C13 UNL     1      -2.875   7.414  15.324  1.00  0.00     0.137 C 
HETATM    7  C14 UNL     1      -2.877   6.781  13.925  1.00  0.00     0.092 C 
HETATM    8 BR1  UNL     1      -3.800   5.041  13.886  1.00  0.00    -0.088 Br
HETATM    9  C15 UNL     1      -1.525   6.723  13.208  1.00  0.00     0.013 C 
HETATM   10  C16 UNL     1      -0.546   5.685  13.815  1.00  0.00     0.038 C 
HETATM   11  C17 UNL     1       0.894   5.802  13.297  1.00  0.00     0.118 C 
HETATM   12  C18 UNL     1       0.981   6.679  12.057  1.00  0.00     0.032 C 
HETATM   13  C19 UNL     1       0.449   8.094  12.321  1.00  0.00     0.012 C 
HETATM   14  C20 UNL     1      -0.908   8.154  13.110  1.00  0.00    -0.035 C 
HETATM   15  C21 UNL     1      -1.831   9.088  12.288  1.00  0.00     0.016 C 
HETATM   16  C22 UNL     1      -0.673   8.729  14.552  1.00  0.00     0.003 C 
HETATM   17  C23 UNL     1      -0.281  10.224  14.633  1.00  0.00     0.039 C 
HETATM   18  C24 UNL     1      -1.379  11.263  14.971  1.00  0.00     0.141 C 
HETATM   19  C27 UNL     1      -2.418  10.779  16.040  1.00  0.00    -0.009 C 
HETATM   20  C28 UNL     1      -3.796  10.631  15.354  1.00  0.00     0.018 C 
ENDROOT
BRANCH   1  21
HETATM   21  C6  UNL     1      -3.505  12.891  17.375  1.00  0.00    -0.013 C 
HETATM   22  C7  UNL     1      -4.080  13.142  15.967  1.00  0.00     0.010 C 
BRANCH  21  23
HETATM   23  C5  UNL     1      -4.658  12.799  18.396  1.00  0.00     0.014 C 
BRANCH  23  24
HETATM   24  C4  UNL     1      -4.877  14.051  19.249  1.00  0.00     0.111 C 
BRANCH  24  25
HETATM   25  C3  UNL     1      -5.750  13.766  20.445  1.00  0.00     0.258 C 
HETATM   26  O2  UNL     1      -5.420  13.066  21.392  1.00  0.00    -0.265 OA
BRANCH  25  27
HETATM   27  O1  UNL     1      -6.932  14.436  20.335  1.00  0.00    -0.322 OA
BRANCH  27  28
HETATM   28  C2  UNL     1      -7.992  13.672  19.750  1.00  0.00     0.174 C 
HETATM   29  C1  UNL     1      -8.841  13.107  20.872  1.00  0.00     0.034 C 
ENDBRANCH  27  28
ENDBRANCH  25  27
ENDBRANCH  24  25
ENDBRANCH  23  24
ENDBRANCH  21  23
ENDBRANCH   1  21
BRANCH  18  30
HETATM   30  O5  UNL     1      -0.688  12.445  15.437  1.00  0.00    -0.316 OA
BRANCH  30  31
HETATM   31  C25 UNL     1      -0.680  13.517  14.598  1.00  0.00     0.255 C 
HETATM   32  C26 UNL     1       0.451  14.438  14.947  1.00  0.00     0.126 C 
HETATM   33  O6  UNL     1      -1.476  13.720  13.691  1.00  0.00    -0.266 OA
ENDBRANCH  30  31
ENDBRANCH  18  30
BRANCH   6  34
HETATM   34  O3  UNL     1      -3.010   6.446  16.383  1.00  0.00    -0.394 OA
HETATM   35  H22 UNL     1      -3.311   5.608  15.992  1.00  0.00     0.210 HD
ENDBRANCH   6  34
BRANCH  11  36
HETATM   36  O4  UNL     1       1.705   6.340  14.335  1.00  0.00    -0.396 OA
HETATM   37  H28 UNL     1       2.580   6.560  13.959  1.00  0.00     0.210 HD
ENDBRANCH  11  36
TORSDOF 10
ENDMDL
MODEL 5
REMARK minimizedAffinity -6.26221323
REMARK CNNscore 0.623717248
REMARK CNNaffinity 6.31685877
REMARK  10 active torsions:
REMARK  status: ('A' for Active; 'I' for Inactive)
REMARK    1  A    between atoms: C2_2  and  O1_3 
REMARK    2  A    between atoms: O1_3  and  C3_4 
REMARK    3  A    between atoms: C3_4  and  C4_6 
REMARK    4  A    between atoms: C4_6  and  C5_7 
REMARK    5  A    between atoms: C5_7  and  C6_8 
REMARK    6  A    between atoms: C6_8  and  C8_10 
REMARK    7  A    between atoms: C13_15  and  O3_16 
REMARK    8  A    between atoms: C17_21  and  O4_22 
REMARK    9  A    between atoms: C24_29  and  O5_30 
REMARK   10  A    between atoms: O5_30  and  C25_31 
ROOT
HETATM    1  C8  UNL     1       4.161  13.136  20.922  1.00  0.00     0.000 C 
HETATM    2  C9  UNL     1       4.273  14.631  20.484  1.00  0.00     0.006 C 
HETATM    3  C10 UNL     1       3.080  14.949  19.585  1.00  0.00     0.006 C 
HETATM    4  C11 UNL     1       2.149  13.769  19.801  1.00  0.00     0.003 C 
HETATM    5  C12 UNL     1       0.934  13.617  18.856  1.00  0.00     0.025 C 
HETATM    6  C13 UNL     1       1.202  13.904  17.359  1.00  0.00     0.137 C 
HETATM    7  C14 UNL     1       0.348  13.121  16.352  1.00  0.00     0.092 C 
HETATM    8 BR1  UNL     1      -0.010  14.146  14.709  1.00  0.00    -0.088 Br
HETATM    9  C15 UNL     1      -0.925  12.473  16.905  1.00  0.00     0.013 C 
HETATM   10  C16 UNL     1      -2.040  13.494  17.251  1.00  0.00     0.038 C 
HETATM   11  C17 UNL     1      -3.205  12.902  18.056  1.00  0.00     0.118 C 
HETATM   12  C18 UNL     1      -3.184  11.382  18.050  1.00  0.00     0.032 C 
HETATM   13  C19 UNL     1      -1.874  10.827  18.625  1.00  0.00     0.012 C 
HETATM   14  C20 UNL     1      -0.571  11.533  18.101  1.00  0.00    -0.035 C 
HETATM   15  C21 UNL     1       0.367  10.392  17.636  1.00  0.00     0.016 C 
HETATM   16  C22 UNL     1       0.094  12.369  19.253  1.00  0.00     0.003 C 
HETATM   17  C23 UNL     1       0.711  11.554  20.415  1.00  0.00     0.039 C 
HETATM   18  C24 UNL     1       2.241  11.314  20.423  1.00  0.00     0.141 C 
HETATM   19  C27 UNL     1       3.089  12.538  19.932  1.00  0.00    -0.009 C 
HETATM   20  C28 UNL     1       3.774  12.157  18.598  1.00  0.00     0.018 C 
ENDROOT
BRANCH   1  21
HETATM   21  C6  UNL     1       5.585  12.500  21.022  1.00  0.00    -0.013 C 
HETATM   22  C7  UNL     1       6.626  13.430  20.367  1.00  0.00     0.010 C 
BRANCH  21  23
HETATM   23  C5  UNL     1       6.023  12.168  22.465  1.00  0.00     0.014 C 
BRANCH  23  24
HETATM   24  C4  UNL     1       7.183  13.007  23.004  1.00  0.00     0.111 C 
BRANCH  24  25
HETATM   25  C3  UNL     1       8.442  12.188  23.152  1.00  0.00     0.258 C 
HETATM   26  O2  UNL     1       8.463  10.993  23.409  1.00  0.00    -0.265 OA
BRANCH  25  27
HETATM   27  O1  UNL     1       9.538  12.963  22.913  1.00  0.00    -0.322 OA
BRANCH  27  28
HETATM   28  C2  UNL     1       9.687  13.372  21.550  1.00  0.00     0.174 C 
HETATM   29  C1  UNL     1      10.332  12.234  20.783  1.00  0.00     0.034 C 
ENDBRANCH  27  28
ENDBRANCH  25  27
ENDBRANCH  24  25
ENDBRANCH  23  24
ENDBRANCH  21  23
ENDBRANCH   1  21
BRANCH  18  30
HETATM   30  O5  UNL     1       2.590  10.973  21.785  1.00  0.00    -0.316 OA
BRANCH  30  31
HETATM   31  C25 UNL     1       2.761   9.650  22.057  1.00  0.00     0.255 C 
HETATM   32  C26 UNL     1       3.604   9.479  23.285  1.00  0.00     0.126 C 
HETATM   33  O6  UNL     1       2.306   8.722  21.402  1.00  0.00    -0.266 OA
ENDBRANCH  30  31
ENDBRANCH  18  30
BRANCH   6  34
HETATM   34  O3  UNL     1       1.101  15.332  17.197  1.00  0.00    -0.394 OA
HETATM   35  H22 UNL     1       0.695  15.512  16.332  1.00  0.00     0.210 HD
ENDBRANCH   6  34
BRANCH  11  36
HETATM   36  O4  UNL     1      -3.123  13.388  19.391  1.00  0.00    -0.396 OA
HETATM   37  H28 UNL     1      -3.765  12.894  19.938  1.00  0.00     0.210 HD
ENDBRANCH  11  36
TORSDOF 10
ENDMDL
MODEL 6
REMARK minimizedAffinity -7.03917408
REMARK CNNscore 0.58790338
REMARK CNNaffinity 6.10493469
REMARK  10 active torsions:
REMARK  status: ('A' for Active; 'I' for Inactive)
REMARK    1  A    between atoms: C2_2  and  O1_3 
REMARK    2  A    between atoms: O1_3  and  C3_4 
REMARK    3  A    between atoms: C3_4  and  C4_6 
REMARK    4  A    between atoms: C4_6  and  C5_7 
REMARK    5  A    between atoms: C5_7  and  C6_8 
REMARK    6  A    between atoms: C6_8  and  C8_10 
REMARK    7  A    between atoms: C13_15  and  O3_16 
REMARK    8  A    between atoms: C17_21  and  O4_22 
REMARK    9  A    between atoms: C24_29  and  O5_30 
REMARK   10  A    between atoms: O5_30  and  C25_31 
ROOT
HETATM    1  C8  UNL     1       2.368  10.799  18.550  1.00  0.00     0.000 C 
HETATM    2  C9  UNL     1       2.808  11.470  17.211  1.00  0.00     0.006 C 
HETATM    3  C10 UNL     1       4.087  12.260  17.479  1.00  0.00     0.006 C 
HETATM    4  C11 UNL     1       4.536  11.758  18.840  1.00  0.00     0.003 C 
HETATM    5  C12 UNL     1       5.676  12.518  19.557  1.00  0.00     0.025 C 
HETATM    6  C13 UNL     1       5.612  14.063  19.478  1.00  0.00     0.137 C 
HETATM    7  C14 UNL     1       6.198  14.831  20.672  1.00  0.00     0.092 C 
HETATM    8 BR1  UNL     1       6.986  16.558  20.144  1.00  0.00    -0.088 Br
HETATM    9  C15 UNL     1       7.131  14.039  21.592  1.00  0.00     0.013 C 
HETATM   10  C16 UNL     1       8.510  13.724  20.954  1.00  0.00     0.038 C 
HETATM   11  C17 UNL     1       9.347  12.706  21.740  1.00  0.00     0.118 C 
HETATM   12  C18 UNL     1       8.800  12.482  23.141  1.00  0.00     0.032 C 
HETATM   13  C19 UNL     1       7.347  11.988  23.113  1.00  0.00     0.012 C 
HETATM   14  C20 UNL     1       6.404  12.763  22.124  1.00  0.00    -0.035 C 
HETATM   15  C21 UNL     1       5.157  13.156  22.954  1.00  0.00     0.016 C 
HETATM   16  C22 UNL     1       6.005  11.840  20.918  1.00  0.00     0.003 C 
HETATM   17  C23 UNL     1       5.076  10.648  21.253  1.00  0.00     0.039 C 
HETATM   18  C24 UNL     1       3.560  10.784  20.965  1.00  0.00     0.141 C 
HETATM   19  C27 UNL     1       3.221  11.552  19.642  1.00  0.00    -0.009 C 
HETATM   20  C28 UNL     1       2.526  12.884  20.013  1.00  0.00     0.018 C 
ENDROOT
BRANCH   1  21
HETATM   21  C6  UNL     1       0.808  10.772  18.648  1.00  0.00    -0.013 C 
HETATM   22  C7  UNL     1       0.366  10.992  20.108  1.00  0.00     0.010 C 
BRANCH  21  23
HETATM   23  C5  UNL     1       0.106  11.801  17.735  1.00  0.00     0.014 C 
BRANCH  23  24
HETATM   24  C4  UNL     1      -0.744  11.202  16.611  1.00  0.00     0.111 C 
BRANCH  24  25
HETATM   25  C3  UNL     1      -1.266   9.834  16.975  1.00  0.00     0.258 C 
HETATM   26  O2  UNL     1      -0.863   8.788  16.488  1.00  0.00    -0.265 OA
BRANCH  25  27
HETATM   27  O1  UNL     1      -2.213   9.937  17.950  1.00  0.00    -0.322 OA
BRANCH  27  28
HETATM   28  C2  UNL     1      -3.351  10.726  17.590  1.00  0.00     0.174 C 
HETATM   29  C1  UNL     1      -3.716  11.599  18.775  1.00  0.00     0.034 C 
ENDBRANCH  27  28
ENDBRANCH  25  27
ENDBRANCH  24  25
ENDBRANCH  23  24
ENDBRANCH  21  23
ENDBRANCH   1  21
BRANCH  18  30
HETATM   30  O5  UNL     1       3.035   9.436  20.915  1.00  0.00    -0.316 OA
BRANCH  30  31
HETATM   31  C25 UNL     1       2.513   8.941  22.071  1.00  0.00     0.255 C 
HETATM   32  C26 UNL     1       2.879   9.828  23.224  1.00  0.00     0.126 C 
HETATM   33  O6  UNL     1       1.848   7.920  22.174  1.00  0.00    -0.266 OA
ENDBRANCH  30  31
ENDBRANCH  18  30
BRANCH   6  34
HETATM   34  O3  UNL     1       6.212  14.428  18.220  1.00  0.00    -0.394 OA
HETATM   35  H22 UNL     1       6.705  15.257  18.348  1.00  0.00     0.210 HD
ENDBRANCH   6  34
BRANCH  11  36
HETATM   36  O4  UNL     1       9.362  11.480  21.018  1.00  0.00    -0.396 OA
HETATM   37  H28 UNL     1       9.759  10.792  21.588  1.00  0.00     0.210 HD
ENDBRANCH  11  36
TORSDOF 10
ENDMDL
MODEL 7
REMARK minimizedAffinity -6.81407928
REMARK CNNscore 0.558236837
REMARK CNNaffinity 6.03501749
REMARK  10 active torsions:
REMARK  status: ('A' for Active; 'I' for Inactive)
REMARK    1  A    between atoms: C2_2  and  O1_3 
REMARK    2  A    between atoms: O1_3  and  C3_4 
REMARK    3  A    between atoms: C3_4  and  C4_6 
REMARK    4  A    between atoms: C4_6  and  C5_7 
REMARK    5  A    between atoms: C5_7  and  C6_8 
REMARK    6  A    between atoms: C6_8  and  C8_10 
REMARK    7  A    between atoms: C13_15  and  O3_16 
REMARK    8  A    between atoms: C17_21  and  O4_22 
REMARK    9  A    between atoms: C24_29  and  O5_30 
REMARK   10  A    between atoms: O5_30  and  C25_31 
ROOT
HETATM    1  C8  UNL     1       9.643   9.689  15.490  1.00  0.00     0.000 C 
HETATM    2  C9  UNL     1       9.314   8.553  16.509  1.00  0.00     0.006 C 
HETATM    3  C10 UNL     1       8.032   7.864  16.047  1.00  0.00     0.006 C 
HETATM    4  C11 UNL     1       7.848   8.371  14.627  1.00  0.00     0.003 C 
HETATM    5  C12 UNL     1       6.506   8.079  13.917  1.00  0.00     0.025 C 
HETATM    6  C13 UNL     1       5.233   8.243  14.783  1.00  0.00     0.137 C 
HETATM    7  C14 UNL     1       3.959   8.677  14.044  1.00  0.00     0.092 C 
HETATM    8 BR1  UNL     1       2.326   7.934  14.857  1.00  0.00    -0.088 Br
HETATM    9  C15 UNL     1       3.967   8.502  12.523  1.00  0.00     0.013 C 
HETATM   10  C16 UNL     1       3.878   7.021  12.070  1.00  0.00     0.038 C 
HETATM   11  C17 UNL     1       4.161   6.803  10.578  1.00  0.00     0.118 C 
HETATM   12  C18 UNL     1       4.132   8.108   9.798  1.00  0.00     0.032 C 
HETATM   13  C19 UNL     1       5.154   9.118  10.338  1.00  0.00     0.012 C 
HETATM   14  C20 UNL     1       5.187   9.254  11.902  1.00  0.00    -0.035 C 
HETATM   15  C21 UNL     1       5.094  10.772  12.194  1.00  0.00     0.016 C 
HETATM   16  C22 UNL     1       6.522   8.655  12.472  1.00  0.00     0.003 C 
HETATM   17  C23 UNL     1       7.815   9.436  12.135  1.00  0.00     0.039 C 
HETATM   18  C24 UNL     1       8.406  10.390  13.202  1.00  0.00     0.141 C 
HETATM   19  C27 UNL     1       8.305   9.856  14.672  1.00  0.00    -0.009 C 
HETATM   20  C28 UNL     1       7.329  10.764  15.458  1.00  0.00     0.018 C 
ENDROOT
BRANCH   1  21
HETATM   21  C6  UNL     1      10.270  10.912  16.236  1.00  0.00    -0.013 C 
HETATM   22  C7  UNL     1       9.471  12.191  15.916  1.00  0.00     0.010 C 
BRANCH  21  23
HETATM   23  C5  UNL     1      10.365  10.730  17.766  1.00  0.00     0.014 C 
BRANCH  23  24
HETATM   24  C4  UNL     1       9.439  11.630  18.589  1.00  0.00     0.111 C 
BRANCH  24  25
HETATM   25  C3  UNL     1       9.875  11.707  20.031  1.00  0.00     0.258 C 
HETATM   26  O2  UNL     1      10.972  11.355  20.442  1.00  0.00    -0.265 OA
BRANCH  25  27
HETATM   27  O1  UNL     1       8.890  12.265  20.791  1.00  0.00    -0.322 OA
BRANCH  27  28
HETATM   28  C2  UNL     1       9.330  12.756  22.062  1.00  0.00     0.174 C 
HETATM   29  C1  UNL     1       8.677  11.918  23.143  1.00  0.00     0.034 C 
ENDBRANCH  27  28
ENDBRANCH  25  27
ENDBRANCH  24  25
ENDBRANCH  23  24
ENDBRANCH  21  23
ENDBRANCH   1  21
BRANCH  18  30
HETATM   30  O5  UNL     1       9.791  10.600  12.836  1.00  0.00    -0.316 OA
BRANCH  30  31
HETATM   31  C25 UNL     1      10.029  11.495  11.838  1.00  0.00     0.255 C 
HETATM   32  C26 UNL     1       9.672  12.880  12.290  1.00  0.00     0.126 C 
HETATM   33  O6  UNL     1      10.462  11.226  10.726  1.00  0.00    -0.266 OA
ENDBRANCH  30  31
ENDBRANCH  18  30
BRANCH   6  34
HETATM   34  O3  UNL     1       5.075   7.009  15.508  1.00  0.00    -0.394 OA
HETATM   35  H22 UNL     1       4.124   6.817  15.577  1.00  0.00     0.210 HD
ENDBRANCH   6  34
BRANCH  11  36
HETATM   36  O4  UNL     1       5.434   6.182  10.445  1.00  0.00    -0.396 OA
HETATM   37  H28 UNL     1       5.682   6.186   9.500  1.00  0.00     0.210 HD
ENDBRANCH  11  36
TORSDOF 10
ENDMDL
MODEL 8
REMARK minimizedAffinity -8.8735981
REMARK CNNscore 0.527216673
REMARK CNNaffinity 6.86638117
REMARK  10 active torsions:
REMARK  status: ('A' for Active; 'I' for Inactive)
REMARK    1  A    between atoms: C2_2  and  O1_3 
REMARK    2  A    between atoms: O1_3  and  C3_4 
REMARK    3  A    between atoms: C3_4  and  C4_6 
REMARK    4  A    between atoms: C4_6  and  C5_7 
REMARK    5  A    between atoms: C5_7  and  C6_8 
REMARK    6  A    between atoms: C6_8  and  C8_10 
REMARK    7  A    between atoms: C13_15  and  O3_16 
REMARK    8  A    between atoms: C17_21  and  O4_22 
REMARK    9  A    between atoms: C24_29  and  O5_30 
REMARK   10  A    between atoms: O5_30  and  C25_31 
ROOT
HETATM    1  C8  UNL     1      -5.432   6.301  13.771  1.00  0.00     0.000 C 
HETATM    2  C9  UNL     1      -5.737   7.827  13.644  1.00  0.00     0.006 C 
HETATM    3  C10 UNL     1      -4.433   8.539  13.288  1.00  0.00     0.006 C 
HETATM    4  C11 UNL     1      -3.508   7.404  12.886  1.00  0.00     0.003 C 
HETATM    5  C12 UNL     1      -2.006   7.721  12.697  1.00  0.00     0.025 C 
HETATM    6  C13 UNL     1      -1.376   8.665  13.750  1.00  0.00     0.137 C 
HETATM    7  C14 UNL     1       0.112   8.446  14.057  1.00  0.00     0.092 C 
HETATM    8 BR1  UNL     1       1.039  10.119  14.528  1.00  0.00    -0.088 Br
HETATM    9  C15 UNL     1       0.901   7.631  13.028  1.00  0.00     0.013 C 
HETATM   10  C16 UNL     1       1.155   8.389  11.699  1.00  0.00     0.038 C 
HETATM   11  C17 UNL     1       1.694   7.506  10.566  1.00  0.00     0.118 C 
HETATM   12  C18 UNL     1       2.183   6.161  11.078  1.00  0.00     0.032 C 
HETATM   13  C19 UNL     1       1.072   5.388  11.801  1.00  0.00     0.012 C 
HETATM   14  C20 UNL     1       0.224   6.240  12.812  1.00  0.00    -0.035 C 
HETATM   15  C21 UNL     1       0.210   5.432  14.134  1.00  0.00     0.016 C 
HETATM   16  C22 UNL     1      -1.234   6.441  12.265  1.00  0.00     0.003 C 
HETATM   17  C23 UNL     1      -2.121   5.174  12.214  1.00  0.00     0.039 C 
HETATM   18  C24 UNL     1      -3.147   4.939  13.350  1.00  0.00     0.141 C 
HETATM   19  C27 UNL     1      -3.859   6.241  13.856  1.00  0.00    -0.009 C 
HETATM   20  C28 UNL     1      -3.409   6.512  15.311  1.00  0.00     0.018 C 
ENDROOT
BRANCH   1  21
HETATM   21  C6  UNL     1      -6.308   5.674  14.905  1.00  0.00    -0.013 C 
HETATM   22  C7  UNL     1      -6.840   6.781  15.835  1.00  0.00     0.010 C 
BRANCH  21  23
HETATM   23  C5  UNL     1      -7.488   4.823  14.385  1.00  0.00     0.014 C 
BRANCH  23  24
HETATM   24  C4  UNL     1      -7.648   4.790  12.863  1.00  0.00     0.111 C 
BRANCH  24  25
HETATM   25  C3  UNL     1      -8.741   5.721  12.398  1.00  0.00     0.258 C 
HETATM   26  O2  UNL     1      -9.004   5.946  11.225  1.00  0.00    -0.265 OA
BRANCH  25  27
HETATM   27  O1  UNL     1      -9.412   6.232  13.469  1.00  0.00    -0.322 OA
BRANCH  27  28
HETATM   28  C2  UNL     1     -10.537   7.048  13.127  1.00  0.00     0.174 C 
HETATM   29  C1  UNL     1     -11.657   6.740  14.102  1.00  0.00     0.034 C 
ENDBRANCH  27  28
ENDBRANCH  25  27
ENDBRANCH  24  25
ENDBRANCH  23  24
ENDBRANCH  21  23
ENDBRANCH   1  21
BRANCH  18  30
HETATM   30  O5  UNL     1      -4.120   4.002  12.830  1.00  0.00    -0.316 OA
BRANCH  30  31
HETATM   31  C25 UNL     1      -3.987   3.648  11.522  1.00  0.00     0.255 C 
HETATM   32  C26 UNL     1      -5.212   2.921  11.056  1.00  0.00     0.126 C 
HETATM   33  O6  UNL     1      -3.013   3.876  10.816  1.00  0.00    -0.266 OA
ENDBRANCH  30  31
ENDBRANCH  18  30
BRANCH   6  34
HETATM   34  O3  UNL     1      -1.675  10.007  13.319  1.00  0.00    -0.394 OA
HETATM   35  H22 UNL     1      -0.912  10.571  13.534  1.00  0.00     0.210 HD
ENDBRANCH   6  34
BRANCH  11  36
HETATM   36  O4  UNL     1       0.658   7.319   9.608  1.00  0.00    -0.396 OA
HETATM   37  H28 UNL     1       0.948   6.636   8.972  1.00  0.00     0.210 HD
ENDBRANCH  11  36
TORSDOF 10
ENDMDL
MODEL 9
REMARK minimizedAffinity -6.09133863
REMARK CNNscore 0.458168447
REMARK CNNaffinity 6.2463913
REMARK  10 active torsions:
REMARK  status: ('A' for Active; 'I' for Inactive)
REMARK    1  A    between atoms: C2_2  and  O1_3 
REMARK    2  A    between atoms: O1_3  and  C3_4 
REMARK    3  A    between atoms: C3_4  and  C4_6 
REMARK    4  A    between atoms: C4_6  and  C5_7 
REMARK    5  A    between atoms: C5_7  and  C6_8 
REMARK    6  A    between atoms: C6_8  and  C8_10 
REMARK    7  A    between atoms: C13_15  and  O3_16 
REMARK    8  A    between atoms: C17_21  and  O4_22 
REMARK    9  A    between atoms: C24_29  and  O5_30 
REMARK   10  A    between atoms: O5_30  and  C25_31 
ROOT
HETATM    1  C8  UNL     1      -2.188  11.798  17.546  1.00  0.00     0.000 C 
HETATM    2  C9  UNL     1      -2.808  10.781  18.556  1.00  0.00     0.006 C 
HETATM    3  C10 UNL     1      -2.672   9.382  17.958  1.00  0.00     0.006 C 
HETATM    4  C11 UNL     1      -1.694   9.579  16.813  1.00  0.00     0.003 C 
HETATM    5  C12 UNL     1      -1.503   8.417  15.811  1.00  0.00     0.025 C 
HETATM    6  C13 UNL     1      -2.792   7.677  15.379  1.00  0.00     0.137 C 
HETATM    7  C14 UNL     1      -2.795   7.084  13.963  1.00  0.00     0.092 C 
HETATM    8 BR1  UNL     1      -3.871   5.439  13.837  1.00  0.00    -0.088 Br
HETATM    9  C15 UNL     1      -1.426   6.919  13.297  1.00  0.00     0.013 C 
HETATM   10  C16 UNL     1      -0.572   5.779  13.911  1.00  0.00     0.038 C 
HETATM   11  C17 UNL     1       0.893   5.775  13.452  1.00  0.00     0.118 C 
HETATM   12  C18 UNL     1       1.111   6.672  12.243  1.00  0.00     0.032 C 
HETATM   13  C19 UNL     1       0.701   8.123  12.528  1.00  0.00     0.012 C 
HETATM   14  C20 UNL     1      -0.676   8.289  13.265  1.00  0.00    -0.035 C 
HETATM   15  C21 UNL     1      -1.475   9.325  12.436  1.00  0.00     0.016 C 
HETATM   16  C22 UNL     1      -0.449   8.801  14.733  1.00  0.00     0.003 C 
HETATM   17  C23 UNL     1       0.075  10.251  14.872  1.00  0.00     0.039 C 
HETATM   18  C24 UNL     1      -0.936  11.378  15.198  1.00  0.00     0.141 C 
HETATM   19  C27 UNL     1      -2.057  10.966  16.212  1.00  0.00    -0.009 C 
HETATM   20  C28 UNL     1      -3.414  10.964  15.469  1.00  0.00     0.018 C 
ENDROOT
BRANCH   1  21
HETATM   21  C6  UNL     1      -3.000  13.134  17.566  1.00  0.00    -0.013 C 
HETATM   22  C7  UNL     1      -4.423  12.879  18.099  1.00  0.00     0.010 C 
BRANCH  21  23
HETATM   23  C5  UNL     1      -2.333  14.258  18.387  1.00  0.00     0.014 C 
BRANCH  23  24
HETATM   24  C4  UNL     1      -3.060  14.641  19.679  1.00  0.00     0.111 C 
BRANCH  24  25
HETATM   25  C3  UNL     1      -2.189  15.481  20.581  1.00  0.00     0.258 C 
HETATM   26  O2  UNL     1      -0.995  15.291  20.761  1.00  0.00    -0.265 OA
BRANCH  25  27
HETATM   27  O1  UNL     1      -2.917  16.499  21.122  1.00  0.00    -0.322 OA
BRANCH  27  28
HETATM   28  C2  UNL     1      -2.789  16.628  22.541  1.00  0.00     0.174 C 
HETATM   29  C1  UNL     1      -3.792  15.695  23.192  1.00  0.00     0.034 C 
ENDBRANCH  27  28
ENDBRANCH  25  27
ENDBRANCH  24  25
ENDBRANCH  23  24
ENDBRANCH  21  23
ENDBRANCH   1  21
BRANCH  18  30
HETATM   30  O5  UNL     1      -0.159  12.479  15.726  1.00  0.00    -0.316 OA
BRANCH  30  31
HETATM   31  C25 UNL     1       0.013  13.552  14.906  1.00  0.00     0.255 C 
HETATM   32  C26 UNL     1      -1.270  13.873  14.200  1.00  0.00     0.126 C 
HETATM   33  O6  UNL     1       1.057  14.172  14.750  1.00  0.00    -0.266 OA
ENDBRANCH  30  31
ENDBRANCH  18  30
BRANCH   6  34
HETATM   34  O3  UNL     1      -3.059   6.699  16.403  1.00  0.00    -0.394 OA
HETATM   35  H22 UNL     1      -3.420   5.903  15.976  1.00  0.00     0.210 HD
ENDBRANCH   6  34
BRANCH  11  36
HETATM   36  O4  UNL     1       1.707   6.208  14.536  1.00  0.00    -0.396 OA
HETATM   37  H28 UNL     1       2.613   6.356  14.201  1.00  0.00     0.210 HD
ENDBRANCH  11  36
TORSDOF 10
ENDMDL
