MODEL 1
REMARK minimizedAffinity -8.97595692
REMARK CNNscore 0.807512939
REMARK CNNaffinity 7.11078978
REMARK  10 active torsions:
REMARK  status: ('A' for Active; 'I' for Inactive)
REMARK    1  A    between atoms: C3_3  and  O1_4 
REMARK    2  A    between atoms: N1_14  and  O2_16 
REMARK    3  A    between atoms: O2_16  and  C13_17 
REMARK    4  A    between atoms: C13_17  and  C14_18 
REMARK       I    between atoms: C14_18  and  N2_20 
REMARK    5  A    between atoms: N2_20  and  C15_21 
REMARK    6  A    between atoms: C15_21  and  C16_22 
REMARK       I    between atoms: C16_22  and  N3_24 
REMARK    7  A    between atoms: N3_24  and  C17_25 
REMARK    8  A    between atoms: C17_25  and  C18_26 
REMARK    9  A    between atoms: C17_25  and  C19_29 
REMARK   10  A    between atoms: C18_26  and  O6_28 
ROOT
HETATM    1  C1  UNL     1       5.270   5.518  10.247  1.00  0.00     0.015 C 
HETATM    2  C2  UNL     1       4.237   6.131  10.268  1.00  0.00    -0.078 C 
HETATM    3  C3  UNL     1       2.985   6.903  10.293  1.00  0.00     0.128 C 
HETATM    4  C4  UNL     1       2.371   7.050   8.898  1.00  0.00     0.052 C 
HETATM    5  C5  UNL     1       0.974   7.576   9.209  1.00  0.00     0.010 C 
HETATM    6  C6  UNL     1       0.522   6.722  10.399  1.00  0.00     0.002 C 
HETATM    7  C7  UNL     1      -0.619   7.299  11.268  1.00  0.00    -0.004 C 
HETATM    8  C8  UNL     1      -0.548   8.799  11.603  1.00  0.00     0.010 C 
HETATM    9  C9  UNL     1      -1.748   9.256  12.433  1.00  0.00     0.035 C 
HETATM   10  C10 UNL     1      -2.039   8.384  13.636  1.00  0.00    -0.069 C 
HETATM   11  C11 UNL     1      -2.318   8.954  14.823  1.00  0.00     0.030 C 
HETATM   12  C12 UNL     1      -2.768   8.147  15.996  1.00  0.00     0.032 C 
HETATM   13  N1  UNL     1      -2.988   8.599  17.192  1.00  0.00    -0.271 N 
ATOM     14  H1  UNL     1      -3.328   8.027  17.966  1.00  0.00     0.194 HD
HETATM   15  C22 UNL     1      -3.064   6.680  15.752  1.00  0.00     0.060 C 
HETATM   16  C23 UNL     1      -2.075   6.098  14.753  1.00  0.00     0.020 C 
HETATM   17  C24 UNL     1      -2.042   6.874  13.402  1.00  0.00    -0.016 C 
HETATM   18  C25 UNL     1      -3.330   6.503  12.621  1.00  0.00     0.020 C 
HETATM   19  C26 UNL     1      -0.772   6.458  12.562  1.00  0.00     0.002 C 
HETATM   20  C27 UNL     1       0.544   6.460  13.386  1.00  0.00     0.007 C 
HETATM   21  C28 UNL     1       1.833   6.748  12.609  1.00  0.00     0.014 C 
HETATM   22  C29 UNL     1       1.824   6.275  11.147  1.00  0.00     0.003 C 
HETATM   23  C30 UNL     1       1.878   4.722  11.132  1.00  0.00     0.020 C 
ENDROOT
BRANCH   3  24
HETATM   24  O1  UNL     1       3.292   8.222  10.755  1.00  0.00    -0.377 OA
HETATM   25  H2  UNL     1       4.062   8.530  10.246  1.00  0.00     0.211 HD
ENDBRANCH   3  24
BRANCH  13  26
HETATM   26  O2  UNL     1      -2.703   9.970  17.292  1.00  0.00    -0.271 OA
BRANCH  26  27
HETATM   27  C13 UNL     1      -2.561  10.304  18.664  1.00  0.00     0.303 C 
BRANCH  27  28
HETATM   28  C14 UNL     1      -1.428  11.306  18.871  1.00  0.00     0.244 C 
HETATM   29  O3  UNL     1      -1.588  12.520  18.951  1.00  0.00    -0.271 OA
HETATM   30  N2  UNL     1      -0.177  10.718  18.945  1.00  0.00    -0.350 N 
HETATM   31  H16 UNL     1      -0.133   9.734  19.182  1.00  0.00     0.163 HD
BRANCH  30  32
HETATM   32  C15 UNL     1       0.985  11.524  19.302  1.00  0.00     0.225 C 
BRANCH  32  33
HETATM   33  C16 UNL     1       2.092  10.681  19.938  1.00  0.00     0.236 C 
HETATM   34  O4  UNL     1       2.711   9.824  19.316  1.00  0.00    -0.272 OA
HETATM   35  N3  UNL     1       2.275  10.909  21.284  1.00  0.00    -0.345 N 
HETATM   36  H19 UNL     1       1.526  11.387  21.781  1.00  0.00     0.163 HD
BRANCH  35  37
HETATM   37  C17 UNL     1       3.188  10.104  22.104  1.00  0.00     0.185 C 
BRANCH  37  38
HETATM   38  C18 UNL     1       2.419   8.919  22.711  1.00  0.00     0.163 C 
HETATM   39  O5  UNL     1       1.745   8.097  22.114  1.00  0.00    -0.648 OA
BRANCH  38  40
HETATM   40  O6  UNL     1       2.547   8.829  24.057  1.00  0.00    -0.775 OA
HETATM   41  H21 UNL     1       1.993   8.049  24.285  1.00  0.00     0.167 HD
ENDBRANCH  38  40
ENDBRANCH  37  38
BRANCH  37  42
HETATM   42  C19 UNL     1       3.882  10.986  23.167  1.00  0.00     0.010 C 
HETATM   43  C20 UNL     1       3.217  12.359  23.301  1.00  0.00     0.012 C 
HETATM   44  C21 UNL     1       5.386  11.147  22.920  1.00  0.00     0.012 C 
ENDBRANCH  37  42
ENDBRANCH  35  37
ENDBRANCH  32  33
ENDBRANCH  30  32
ENDBRANCH  27  28
ENDBRANCH  26  27
ENDBRANCH  13  26
TORSDOF 10
ENDMDL
MODEL 2
REMARK minimizedAffinity -6.96793365
REMARK CNNscore 0.503113866
REMARK CNNaffinity 6.71554375
REMARK  10 active torsions:
REMARK  status: ('A' for Active; 'I' for Inactive)
REMARK    1  A    between atoms: C3_3  and  O1_4 
REMARK    2  A    between atoms: N1_14  and  O2_16 
REMARK    3  A    between atoms: O2_16  and  C13_17 
REMARK    4  A    between atoms: C13_17  and  C14_18 
REMARK       I    between atoms: C14_18  and  N2_20 
REMARK    5  A    between atoms: N2_20  and  C15_21 
REMARK    6  A    between atoms: C15_21  and  C16_22 
REMARK       I    between atoms: C16_22  and  N3_24 
REMARK    7  A    between atoms: N3_24  and  C17_25 
REMARK    8  A    between atoms: C17_25  and  C18_26 
REMARK    9  A    between atoms: C17_25  and  C19_29 
REMARK   10  A    between atoms: C18_26  and  O6_28 
ROOT
HETATM    1  C1  UNL     1       4.525   4.607   9.947  1.00  0.00     0.015 C 
HETATM    2  C2  UNL     1       3.628   5.399  10.050  1.00  0.00    -0.078 C 
HETATM    3  C3  UNL     1       2.545   6.388  10.176  1.00  0.00     0.128 C 
HETATM    4  C4  UNL     1       1.888   6.697   8.827  1.00  0.00     0.052 C 
HETATM    5  C5  UNL     1       0.635   7.460   9.241  1.00  0.00     0.010 C 
HETATM    6  C6  UNL     1       0.102   6.660  10.436  1.00  0.00     0.002 C 
HETATM    7  C7  UNL     1      -0.859   7.406  11.391  1.00  0.00    -0.004 C 
HETATM    8  C8  UNL     1      -0.490   8.853  11.759  1.00  0.00     0.010 C 
HETATM    9  C9  UNL     1      -1.533   9.493  12.676  1.00  0.00     0.035 C 
HETATM   10  C10 UNL     1      -1.910   8.646  13.872  1.00  0.00    -0.069 C 
HETATM   11  C11 UNL     1      -2.008   9.213  15.089  1.00  0.00     0.030 C 
HETATM   12  C12 UNL     1      -2.531   8.460  16.267  1.00  0.00     0.032 C 
HETATM   13  N1  UNL     1      -2.593   8.900  17.487  1.00  0.00    -0.271 N 
ATOM     14  H1  UNL     1      -2.987   8.373  18.266  1.00  0.00     0.194 HD
HETATM   15  C22 UNL     1      -3.109   7.083  16.006  1.00  0.00     0.060 C 
HETATM   16  C23 UNL     1      -2.306   6.366  14.931  1.00  0.00     0.020 C 
HETATM   17  C24 UNL     1      -2.209   7.172  13.601  1.00  0.00    -0.016 C 
HETATM   18  C25 UNL     1      -3.587   7.074  12.895  1.00  0.00     0.020 C 
HETATM   19  C26 UNL     1      -1.090   6.560  12.671  1.00  0.00     0.002 C 
HETATM   20  C27 UNL     1       0.250   6.289  13.407  1.00  0.00     0.007 C 
HETATM   21  C28 UNL     1       1.522   6.363  12.557  1.00  0.00     0.014 C 
HETATM   22  C29 UNL     1       1.339   5.953  11.087  1.00  0.00     0.003 C 
HETATM   23  C30 UNL     1       1.101   4.419  11.029  1.00  0.00     0.020 C 
ENDROOT
BRANCH   3  24
HETATM   24  O1  UNL     1       3.119   7.609  10.650  1.00  0.00    -0.377 OA
HETATM   25  H2  UNL     1       3.901   7.788  10.101  1.00  0.00     0.211 HD
ENDBRANCH   3  24
BRANCH  13  26
HETATM   26  O2  UNL     1      -2.051  10.191  17.603  1.00  0.00    -0.271 OA
BRANCH  26  27
HETATM   27  C13 UNL     1      -1.489  10.331  18.898  1.00  0.00     0.303 C 
BRANCH  27  28
HETATM   28  C14 UNL     1      -0.457  11.456  18.930  1.00  0.00     0.244 C 
HETATM   29  O3  UNL     1      -0.435  12.394  18.140  1.00  0.00    -0.271 OA
HETATM   30  N2  UNL     1       0.484  11.314  19.936  1.00  0.00    -0.350 N 
HETATM   31  H16 UNL     1       0.246  10.721  20.723  1.00  0.00     0.163 HD
BRANCH  30  32
HETATM   32  C15 UNL     1       1.436  12.388  20.198  1.00  0.00     0.225 C 
BRANCH  32  33
HETATM   33  C16 UNL     1       2.455  12.000  21.272  1.00  0.00     0.236 C 
HETATM   34  O4  UNL     1       2.309  11.024  22.000  1.00  0.00    -0.272 OA
HETATM   35  N3  UNL     1       3.501  12.885  21.405  1.00  0.00    -0.345 N 
HETATM   36  H19 UNL     1       3.383  13.811  20.998  1.00  0.00     0.163 HD
BRANCH  35  37
HETATM   37  C17 UNL     1       4.505  12.766  22.470  1.00  0.00     0.185 C 
BRANCH  37  38
HETATM   38  C18 UNL     1       4.853  14.167  22.999  1.00  0.00     0.163 C 
HETATM   39  O5  UNL     1       4.117  14.930  23.601  1.00  0.00    -0.648 OA
BRANCH  38  40
HETATM   40  O6  UNL     1       6.133  14.534  22.745  1.00  0.00    -0.775 OA
HETATM   41  H21 UNL     1       6.187  15.440  23.123  1.00  0.00     0.167 HD
ENDBRANCH  38  40
ENDBRANCH  37  38
BRANCH  37  42
HETATM   42  C19 UNL     1       5.738  11.982  21.967  1.00  0.00     0.010 C 
HETATM   43  C20 UNL     1       6.858  11.937  23.011  1.00  0.00     0.012 C 
HETATM   44  C21 UNL     1       6.277  12.508  20.633  1.00  0.00     0.012 C 
ENDBRANCH  37  42
ENDBRANCH  35  37
ENDBRANCH  32  33
ENDBRANCH  30  32
ENDBRANCH  27  28
ENDBRANCH  26  27
ENDBRANCH  13  26
TORSDOF 10
ENDMDL
MODEL 3
REMARK minimizedAffinity -7.37890053
REMARK CNNscore 0.427611053
REMARK CNNaffinity 6.97217417
REMARK  10 active torsions:
REMARK  status: ('A' for Active; 'I' for Inactive)
REMARK    1  A    between atoms: C3_3  and  O1_4 
REMARK    2  A    between atoms: N1_14  and  O2_16 
REMARK    3  A    between atoms: O2_16  and  C13_17 
REMARK    4  A    between atoms: C13_17  and  C14_18 
REMARK       I    between atoms: C14_18  and  N2_20 
REMARK    5  A    between atoms: N2_20  and  C15_21 
REMARK    6  A    between atoms: C15_21  and  C16_22 
REMARK       I    between atoms: C16_22  and  N3_24 
REMARK    7  A    between atoms: N3_24  and  C17_25 
REMARK    8  A    between atoms: C17_25  and  C18_26 
REMARK    9  A    between atoms: C17_25  and  C19_29 
REMARK   10  A    between atoms: C18_26  and  O6_28 
ROOT
HETATM    1  C1  UNL     1       0.373   9.539  14.044  1.00  0.00     0.015 C 
HETATM    2  C2  UNL     1      -0.470   8.707  13.848  1.00  0.00    -0.078 C 
HETATM    3  C3  UNL     1      -1.501   7.690  13.585  1.00  0.00     0.128 C 
HETATM    4  C4  UNL     1      -0.932   6.269  13.627  1.00  0.00     0.052 C 
HETATM    5  C5  UNL     1      -2.192   5.412  13.653  1.00  0.00     0.010 C 
HETATM    6  C6  UNL     1      -3.103   6.139  14.651  1.00  0.00     0.002 C 
HETATM    7  C7  UNL     1      -4.615   5.831  14.554  1.00  0.00    -0.004 C 
HETATM    8  C8  UNL     1      -5.220   5.751  13.143  1.00  0.00     0.010 C 
HETATM    9  C9  UNL     1      -6.709   5.405  13.179  1.00  0.00     0.035 C 
HETATM   10  C10 UNL     1      -7.521   6.254  14.134  1.00  0.00    -0.069 C 
HETATM   11  C11 UNL     1      -8.708   6.753  13.742  1.00  0.00     0.030 C 
HETATM   12  C12 UNL     1      -9.617   7.457  14.694  1.00  0.00     0.032 C 
HETATM   13  N1  UNL     1     -10.741   8.031  14.390  1.00  0.00    -0.271 N 
ATOM     14  H1  UNL     1     -11.358   8.476  15.070  1.00  0.00     0.194 HD
HETATM   15  C22 UNL     1      -9.230   7.440  16.159  1.00  0.00     0.060 C 
HETATM   16  C23 UNL     1      -7.721   7.556  16.311  1.00  0.00     0.020 C 
HETATM   17  C24 UNL     1      -6.942   6.452  15.534  1.00  0.00    -0.016 C 
HETATM   18  C25 UNL     1      -7.103   5.126  16.323  1.00  0.00     0.020 C 
HETATM   19  C26 UNL     1      -5.412   6.829  15.434  1.00  0.00     0.002 C 
HETATM   20  C27 UNL     1      -5.162   8.293  14.980  1.00  0.00     0.007 C 
HETATM   21  C28 UNL     1      -3.859   8.557  14.220  1.00  0.00     0.014 C 
HETATM   22  C29 UNL     1      -2.684   7.649  14.618  1.00  0.00     0.003 C 
HETATM   23  C30 UNL     1      -2.215   8.048  16.044  1.00  0.00     0.020 C 
ENDROOT
BRANCH   3  24
HETATM   24  O1  UNL     1      -1.996   7.902  12.260  1.00  0.00    -0.377 OA
HETATM   25  H2  UNL     1      -1.223   7.996  11.678  1.00  0.00     0.211 HD
ENDBRANCH   3  24
BRANCH  13  26
HETATM   26  O2  UNL     1     -11.006   7.964  13.012  1.00  0.00    -0.271 OA
BRANCH  26  27
HETATM   27  C13 UNL     1     -12.214   7.247  12.817  1.00  0.00     0.303 C 
BRANCH  27  28
HETATM   28  C14 UNL     1     -13.296   7.719  13.786  1.00  0.00     0.244 C 
HETATM   29  O3  UNL     1     -13.456   8.888  14.122  1.00  0.00    -0.271 OA
HETATM   30  N2  UNL     1     -14.084   6.692  14.277  1.00  0.00    -0.350 N 
HETATM   31  H16 UNL     1     -14.114   5.828  13.748  1.00  0.00     0.163 HD
BRANCH  30  32
HETATM   32  C15 UNL     1     -15.260   7.001  15.084  1.00  0.00     0.225 C 
BRANCH  32  33
HETATM   33  C16 UNL     1     -16.352   5.940  14.932  1.00  0.00     0.236 C 
HETATM   34  O4  UNL     1     -17.542   6.224  14.846  1.00  0.00    -0.272 OA
HETATM   35  N3  UNL     1     -15.892   4.643  14.986  1.00  0.00    -0.345 N 
HETATM   36  H19 UNL     1     -14.962   4.494  15.372  1.00  0.00     0.163 HD
BRANCH  35  37
HETATM   37  C17 UNL     1     -16.795   3.486  15.000  1.00  0.00     0.185 C 
BRANCH  37  38
HETATM   38  C18 UNL     1     -17.120   3.112  16.456  1.00  0.00     0.163 C 
HETATM   39  O5  UNL     1     -17.116   3.853  17.424  1.00  0.00    -0.648 OA
BRANCH  38  40
HETATM   40  O6  UNL     1     -17.445   1.806  16.615  1.00  0.00    -0.775 OA
HETATM   41  H21 UNL     1     -17.603   1.729  17.582  1.00  0.00     0.167 HD
ENDBRANCH  38  40
ENDBRANCH  37  38
BRANCH  37  42
HETATM   42  C19 UNL     1     -16.189   2.315  14.193  1.00  0.00     0.010 C 
HETATM   43  C20 UNL     1     -17.215   1.212  13.917  1.00  0.00     0.012 C 
HETATM   44  C21 UNL     1     -14.936   1.724  14.848  1.00  0.00     0.012 C 
ENDBRANCH  37  42
ENDBRANCH  35  37
ENDBRANCH  32  33
ENDBRANCH  30  32
ENDBRANCH  27  28
ENDBRANCH  26  27
ENDBRANCH  13  26
TORSDOF 10
ENDMDL
MODEL 4
REMARK minimizedAffinity -6.85763741
REMARK CNNscore 0.387413442
REMARK CNNaffinity 6.72368765
REMARK  10 active torsions:
REMARK  status: ('A' for Active; 'I' for Inactive)
REMARK    1  A    between atoms: C3_3  and  O1_4 
REMARK    2  A    between atoms: N1_14  and  O2_16 
REMARK    3  A    between atoms: O2_16  and  C13_17 
REMARK    4  A    between atoms: C13_17  and  C14_18 
REMARK       I    between atoms: C14_18  and  N2_20 
REMARK    5  A    between atoms: N2_20  and  C15_21 
REMARK    6  A    between atoms: C15_21  and  C16_22 
REMARK       I    between atoms: C16_22  and  N3_24 
REMARK    7  A    between atoms: N3_24  and  C17_25 
REMARK    8  A    between atoms: C17_25  and  C18_26 
REMARK    9  A    between atoms: C17_25  and  C19_29 
REMARK   10  A    between atoms: C18_26  and  O6_28 
ROOT
HETATM    1  C1  UNL     1     -10.578   7.490  14.784  1.00  0.00     0.015 C 
HETATM    2  C2  UNL     1      -9.479   7.059  15.005  1.00  0.00    -0.078 C 
HETATM    3  C3  UNL     1      -8.136   6.535  15.300  1.00  0.00     0.128 C 
HETATM    4  C4  UNL     1      -8.127   5.008  15.420  1.00  0.00     0.052 C 
HETATM    5  C5  UNL     1      -6.636   4.688  15.398  1.00  0.00     0.010 C 
HETATM    6  C6  UNL     1      -6.088   5.592  14.288  1.00  0.00     0.002 C 
HETATM    7  C7  UNL     1      -4.569   5.884  14.324  1.00  0.00    -0.004 C 
HETATM    8  C8  UNL     1      -3.952   6.186  15.699  1.00  0.00     0.010 C 
HETATM    9  C9  UNL     1      -2.443   6.420  15.609  1.00  0.00     0.035 C 
HETATM   10  C10 UNL     1      -2.032   7.404  14.535  1.00  0.00    -0.069 C 
HETATM   11  C11 UNL     1      -1.113   8.349  14.811  1.00  0.00     0.030 C 
HETATM   12  C12 UNL     1      -0.556   9.237  13.748  1.00  0.00     0.032 C 
HETATM   13  N1  UNL     1       0.274  10.218  13.932  1.00  0.00    -0.271 N 
ATOM     14  H1  UNL     1       0.663  10.787  13.180  1.00  0.00     0.194 HD
HETATM   15  C22 UNL     1      -0.937   8.922  12.315  1.00  0.00     0.060 C 
HETATM   16  C23 UNL     1      -2.381   8.448  12.241  1.00  0.00     0.020 C 
HETATM   17  C24 UNL     1      -2.669   7.223  13.159  1.00  0.00    -0.016 C 
HETATM   18  C25 UNL     1      -2.034   5.977  12.485  1.00  0.00     0.020 C 
HETATM   19  C26 UNL     1      -4.226   7.008  13.312  1.00  0.00     0.002 C 
HETATM   20  C27 UNL     1      -5.002   8.312  13.645  1.00  0.00     0.007 C 
HETATM   21  C28 UNL     1      -6.293   8.148  14.453  1.00  0.00     0.014 C 
HETATM   22  C29 UNL     1      -7.045   6.830  14.207  1.00  0.00     0.003 C 
HETATM   23  C30 UNL     1      -7.658   6.871  12.781  1.00  0.00     0.020 C 
ENDROOT
BRANCH   3  24
HETATM   24  O1  UNL     1      -7.731   7.056  16.569  1.00  0.00    -0.377 OA
HETATM   25  H2  UNL     1      -8.471   6.915  17.184  1.00  0.00     0.211 HD
ENDBRANCH   3  24
BRANCH  13  26
HETATM   26  O2  UNL     1       0.570  10.401  15.293  1.00  0.00    -0.271 OA
BRANCH  26  27
HETATM   27  C13 UNL     1       0.973  11.747  15.491  1.00  0.00     0.303 C 
BRANCH  27  28
HETATM   28  C14 UNL     1       2.332  11.817  16.185  1.00  0.00     0.244 C 
HETATM   29  O3  UNL     1       3.354  11.295  15.751  1.00  0.00    -0.271 OA
HETATM   30  N2  UNL     1       2.307  12.519  17.378  1.00  0.00    -0.350 N 
HETATM   31  H16 UNL     1       1.546  13.171  17.525  1.00  0.00     0.163 HD
BRANCH  30  32
HETATM   32  C15 UNL     1       3.555  12.812  18.074  1.00  0.00     0.225 C 
BRANCH  32  33
HETATM   33  C16 UNL     1       3.647  12.082  19.416  1.00  0.00     0.236 C 
HETATM   34  O4  UNL     1       3.704  10.860  19.502  1.00  0.00    -0.272 OA
HETATM   35  N3  UNL     1       3.576  12.908  20.515  1.00  0.00    -0.345 N 
HETATM   36  H19 UNL     1       3.215  13.849  20.369  1.00  0.00     0.163 HD
BRANCH  35  37
HETATM   37  C17 UNL     1       3.505  12.392  21.887  1.00  0.00     0.185 C 
BRANCH  37  38
HETATM   38  C18 UNL     1       3.051  13.516  22.832  1.00  0.00     0.163 C 
HETATM   39  O5  UNL     1       2.442  13.395  23.882  1.00  0.00    -0.648 OA
BRANCH  38  40
HETATM   40  O6  UNL     1       3.399  14.754  22.400  1.00  0.00    -0.775 OA
HETATM   41  H21 UNL     1       3.027  15.346  23.091  1.00  0.00     0.167 HD
ENDBRANCH  38  40
ENDBRANCH  37  38
BRANCH  37  42
HETATM   42  C19 UNL     1       4.854  11.760  22.299  1.00  0.00     0.010 C 
HETATM   43  C20 UNL     1       4.667  10.429  23.034  1.00  0.00     0.012 C 
HETATM   44  C21 UNL     1       5.728  12.706  23.129  1.00  0.00     0.012 C 
ENDBRANCH  37  42
ENDBRANCH  35  37
ENDBRANCH  32  33
ENDBRANCH  30  32
ENDBRANCH  27  28
ENDBRANCH  26  27
ENDBRANCH  13  26
TORSDOF 10
ENDMDL
MODEL 5
REMARK minimizedAffinity -8.96345329
REMARK CNNscore 0.384910911
REMARK CNNaffinity 7.26784325
REMARK  10 active torsions:
REMARK  status: ('A' for Active; 'I' for Inactive)
REMARK    1  A    between atoms: C3_3  and  O1_4 
REMARK    2  A    between atoms: N1_14  and  O2_16 
REMARK    3  A    between atoms: O2_16  and  C13_17 
REMARK    4  A    between atoms: C13_17  and  C14_18 
REMARK       I    between atoms: C14_18  and  N2_20 
REMARK    5  A    between atoms: N2_20  and  C15_21 
REMARK    6  A    between atoms: C15_21  and  C16_22 
REMARK       I    between atoms: C16_22  and  N3_24 
REMARK    7  A    between atoms: N3_24  and  C17_25 
REMARK    8  A    between atoms: C17_25  and  C18_26 
REMARK    9  A    between atoms: C17_25  and  C19_29 
REMARK   10  A    between atoms: C18_26  and  O6_28 
ROOT
HETATM    1  C1  UNL     1       2.659   5.849   7.191  1.00  0.00     0.015 C 
HETATM    2  C2  UNL     1       2.556   5.965   8.382  1.00  0.00    -0.078 C 
HETATM    3  C3  UNL     1       2.430   6.082   9.843  1.00  0.00     0.128 C 
HETATM    4  C4  UNL     1       3.766   6.425  10.510  1.00  0.00     0.052 C 
HETATM    5  C5  UNL     1       3.338   6.805  11.923  1.00  0.00     0.010 C 
HETATM    6  C6  UNL     1       2.095   7.675  11.704  1.00  0.00     0.002 C 
HETATM    7  C7  UNL     1       1.136   7.823  12.908  1.00  0.00    -0.004 C 
HETATM    8  C8  UNL     1       0.839   6.552  13.721  1.00  0.00     0.010 C 
HETATM    9  C9  UNL     1      -0.089   6.835  14.903  1.00  0.00     0.035 C 
HETATM   10  C10 UNL     1      -1.330   7.622  14.543  1.00  0.00    -0.069 C 
HETATM   11  C11 UNL     1      -2.527   7.245  15.032  1.00  0.00     0.030 C 
HETATM   12  C12 UNL     1      -3.751   8.077  14.840  1.00  0.00     0.032 C 
HETATM   13  N1  UNL     1      -4.954   7.759  15.211  1.00  0.00    -0.271 N 
ATOM     14  H1  UNL     1      -5.766   8.365  15.096  1.00  0.00     0.194 HD
HETATM   15  C22 UNL     1      -3.565   9.448  14.220  1.00  0.00     0.060 C 
HETATM   16  C23 UNL     1      -2.491   9.402  13.144  1.00  0.00     0.020 C 
HETATM   17  C24 UNL     1      -1.128   8.855  13.663  1.00  0.00    -0.016 C 
HETATM   18  C25 UNL     1      -0.476   9.969  14.524  1.00  0.00     0.020 C 
HETATM   19  C26 UNL     1      -0.183   8.498  12.450  1.00  0.00     0.002 C 
HETATM   20  C27 UNL     1      -0.882   7.661  11.344  1.00  0.00     0.007 C 
HETATM   21  C28 UNL     1       0.016   6.723  10.531  1.00  0.00     0.014 C 
HETATM   22  C29 UNL     1       1.461   7.212  10.347  1.00  0.00     0.003 C 
HETATM   23  C30 UNL     1       1.450   8.430   9.382  1.00  0.00     0.020 C 
ENDROOT
BRANCH   3  24
HETATM   24  O1  UNL     1       2.025   4.808  10.352  1.00  0.00    -0.377 OA
HETATM   25  H2  UNL     1       2.608   4.142   9.950  1.00  0.00     0.211 HD
ENDBRANCH   3  24
BRANCH  13  26
HETATM   26  O2  UNL     1      -5.000   6.481  15.791  1.00  0.00    -0.271 OA
BRANCH  26  27
HETATM   27  C13 UNL     1      -6.358   6.118  15.979  1.00  0.00     0.303 C 
BRANCH  27  28
HETATM   28  C14 UNL     1      -7.027   5.784  14.648  1.00  0.00     0.244 C 
HETATM   29  O3  UNL     1      -6.945   6.482  13.641  1.00  0.00    -0.271 OA
HETATM   30  N2  UNL     1      -7.765   4.613  14.678  1.00  0.00    -0.350 N 
HETATM   31  H16 UNL     1      -7.550   3.941  15.405  1.00  0.00     0.163 HD
BRANCH  30  32
HETATM   32  C15 UNL     1      -8.328   4.077  13.444  1.00  0.00     0.225 C 
BRANCH  32  33
HETATM   33  C16 UNL     1      -7.331   3.186  12.700  1.00  0.00     0.236 C 
HETATM   34  O4  UNL     1      -7.315   1.965  12.824  1.00  0.00    -0.272 OA
HETATM   35  N3  UNL     1      -6.407   3.875  11.949  1.00  0.00    -0.345 N 
HETATM   36  H19 UNL     1      -6.289   4.867  12.150  1.00  0.00     0.163 HD
BRANCH  35  37
HETATM   37  C17 UNL     1      -5.284   3.212  11.276  1.00  0.00     0.185 C 
BRANCH  37  38
HETATM   38  C18 UNL     1      -5.815   2.037  10.438  1.00  0.00     0.163 C 
HETATM   39  O5  UNL     1      -6.138   0.933  10.841  1.00  0.00    -0.648 OA
BRANCH  38  40
HETATM   40  O6  UNL     1      -5.918   2.323   9.117  1.00  0.00    -0.775 OA
HETATM   41  H21 UNL     1      -6.246   1.482   8.729  1.00  0.00     0.167 HD
ENDBRANCH  38  40
ENDBRANCH  37  38
BRANCH  37  42
HETATM   42  C19 UNL     1      -4.209   2.789  12.303  1.00  0.00     0.010 C 
HETATM   43  C20 UNL     1      -3.511   3.995  12.938  1.00  0.00     0.012 C 
HETATM   44  C21 UNL     1      -3.173   1.823  11.719  1.00  0.00     0.012 C 
ENDBRANCH  37  42
ENDBRANCH  35  37
ENDBRANCH  32  33
ENDBRANCH  30  32
ENDBRANCH  27  28
ENDBRANCH  26  27
ENDBRANCH  13  26
TORSDOF 10
ENDMDL
MODEL 6
REMARK minimizedAffinity -7.6720047
REMARK CNNscore 0.365597308
REMARK CNNaffinity 6.19340897
REMARK  10 active torsions:
REMARK  status: ('A' for Active; 'I' for Inactive)
REMARK    1  A    between atoms: C3_3  and  O1_4 
REMARK    2  A    between atoms: N1_14  and  O2_16 
REMARK    3  A    between atoms: O2_16  and  C13_17 
REMARK    4  A    between atoms: C13_17  and  C14_18 
REMARK       I    between atoms: C14_18  and  N2_20 
REMARK    5  A    between atoms: N2_20  and  C15_21 
REMARK    6  A    between atoms: C15_21  and  C16_22 
REMARK       I    between atoms: C16_22  and  N3_24 
REMARK    7  A    between atoms: N3_24  and  C17_25 
REMARK    8  A    between atoms: C17_25  and  C18_26 
REMARK    9  A    between atoms: C17_25  and  C19_29 
REMARK   10  A    between atoms: C18_26  and  O6_28 
ROOT
HETATM    1  C1  UNL     1      -4.517   4.969  13.087  1.00  0.00     0.015 C 
HETATM    2  C2  UNL     1      -3.915   5.683  13.842  1.00  0.00    -0.078 C 
HETATM    3  C3  UNL     1      -3.179   6.541  14.785  1.00  0.00     0.128 C 
HETATM    4  C4  UNL     1      -1.668   6.499  14.541  1.00  0.00     0.052 C 
HETATM    5  C5  UNL     1      -1.168   7.667  15.383  1.00  0.00     0.010 C 
HETATM    6  C6  UNL     1      -2.182   8.781  15.094  1.00  0.00     0.002 C 
HETATM    7  C7  UNL     1      -2.265   9.924  16.133  1.00  0.00    -0.004 C 
HETATM    8  C8  UNL     1      -2.230   9.520  17.616  1.00  0.00     0.010 C 
HETATM    9  C9  UNL     1      -2.282  10.736  18.541  1.00  0.00     0.035 C 
HETATM   10  C10 UNL     1      -3.384  11.720  18.211  1.00  0.00    -0.069 C 
HETATM   11  C11 UNL     1      -4.138  12.235  19.201  1.00  0.00     0.030 C 
HETATM   12  C12 UNL     1      -5.126  13.326  18.949  1.00  0.00     0.032 C 
HETATM   13  N1  UNL     1      -5.942  13.831  19.822  1.00  0.00    -0.271 N 
ATOM     14  H1  UNL     1      -6.583  14.600  19.627  1.00  0.00     0.194 HD
HETATM   15  C22 UNL     1      -5.128  13.950  17.567  1.00  0.00     0.060 C 
HETATM   16  C23 UNL     1      -4.865  12.892  16.506  1.00  0.00     0.020 C 
HETATM   17  C24 UNL     1      -3.540  12.107  16.742  1.00  0.00    -0.016 C 
HETATM   18  C25 UNL     1      -2.367  13.047  16.356  1.00  0.00     0.020 C 
HETATM   19  C26 UNL     1      -3.502  10.812  15.839  1.00  0.00     0.002 C 
HETATM   20  C27 UNL     1      -4.811   9.979  15.894  1.00  0.00     0.007 C 
HETATM   21  C28 UNL     1      -4.670   8.473  15.658  1.00  0.00     0.014 C 
HETATM   22  C29 UNL     1      -3.526   8.072  14.712  1.00  0.00     0.003 C 
HETATM   23  C30 UNL     1      -3.905   8.507  13.269  1.00  0.00     0.020 C 
ENDROOT
BRANCH   3  24
HETATM   24  O1  UNL     1      -3.403   6.036  16.104  1.00  0.00    -0.377 OA
HETATM   25  H2  UNL     1      -3.249   5.077  16.072  1.00  0.00     0.211 HD
ENDBRANCH   3  24
BRANCH  13  26
HETATM   26  O2  UNL     1      -5.835  13.191  21.068  1.00  0.00    -0.271 OA
BRANCH  26  27
HETATM   27  C13 UNL     1      -6.883  13.651  21.905  1.00  0.00     0.303 C 
BRANCH  27  28
HETATM   28  C14 UNL     1      -8.235  13.121  21.434  1.00  0.00     0.244 C 
HETATM   29  O3  UNL     1      -8.648  13.215  20.282  1.00  0.00    -0.271 OA
HETATM   30  N2  UNL     1      -8.979  12.531  22.442  1.00  0.00    -0.350 N 
HETATM   31  H16 UNL     1      -8.484  12.209  23.265  1.00  0.00     0.163 HD
BRANCH  30  32
HETATM   32  C15 UNL     1     -10.219  11.835  22.117  1.00  0.00     0.225 C 
BRANCH  32  33
HETATM   33  C16 UNL     1     -11.035  11.507  23.369  1.00  0.00     0.236 C 
HETATM   34  O4  UNL     1     -10.679  11.835  24.496  1.00  0.00    -0.272 OA
HETATM   35  N3  UNL     1     -12.156  10.743  23.131  1.00  0.00    -0.345 N 
HETATM   36  H19 UNL     1     -12.205  10.254  22.239  1.00  0.00     0.163 HD
BRANCH  35  37
HETATM   37  C17 UNL     1     -12.991  10.207  24.212  1.00  0.00     0.185 C 
BRANCH  37  38
HETATM   38  C18 UNL     1     -13.385  11.348  25.164  1.00  0.00     0.163 C 
HETATM   39  O5  UNL     1     -13.362  11.329  26.383  1.00  0.00    -0.648 OA
BRANCH  38  40
HETATM   40  O6  UNL     1     -13.788  12.470  24.520  1.00  0.00    -0.775 OA
HETATM   41  H21 UNL     1     -14.017  13.082  25.254  1.00  0.00     0.167 HD
ENDBRANCH  38  40
ENDBRANCH  37  38
BRANCH  37  42
HETATM   42  C19 UNL     1     -12.270   9.041  24.926  1.00  0.00     0.010 C 
HETATM   43  C20 UNL     1     -11.271   8.331  24.008  1.00  0.00     0.012 C 
HETATM   44  C21 UNL     1     -13.240   8.026  25.541  1.00  0.00     0.012 C 
ENDBRANCH  37  42
ENDBRANCH  35  37
ENDBRANCH  32  33
ENDBRANCH  30  32
ENDBRANCH  27  28
ENDBRANCH  26  27
ENDBRANCH  13  26
TORSDOF 10
ENDMDL
MODEL 7
REMARK minimizedAffinity -8.26298523
REMARK CNNscore 0.291918874
REMARK CNNaffinity 6.45907068
REMARK  10 active torsions:
REMARK  status: ('A' for Active; 'I' for Inactive)
REMARK    1  A    between atoms: C3_3  and  O1_4 
REMARK    2  A    between atoms: N1_14  and  O2_16 
REMARK    3  A    between atoms: O2_16  and  C13_17 
REMARK    4  A    between atoms: C13_17  and  C14_18 
REMARK       I    between atoms: C14_18  and  N2_20 
REMARK    5  A    between atoms: N2_20  and  C15_21 
REMARK    6  A    between atoms: C15_21  and  C16_22 
REMARK       I    between atoms: C16_22  and  N3_24 
REMARK    7  A    between atoms: N3_24  and  C17_25 
REMARK    8  A    between atoms: C17_25  and  C18_26 
REMARK    9  A    between atoms: C17_25  and  C19_29 
REMARK   10  A    between atoms: C18_26  and  O6_28 
ROOT
HETATM    1  C1  UNL     1      -7.231   8.207  15.513  1.00  0.00     0.015 C 
HETATM    2  C2  UNL     1      -6.306   7.517  15.181  1.00  0.00    -0.078 C 
HETATM    3  C3  UNL     1      -5.172   6.661  14.797  1.00  0.00     0.128 C 
HETATM    4  C4  UNL     1      -5.627   5.404  14.049  1.00  0.00     0.052 C 
HETATM    5  C5  UNL     1      -4.316   4.865  13.488  1.00  0.00     0.010 C 
HETATM    6  C6  UNL     1      -3.603   6.118  12.965  1.00  0.00     0.002 C 
HETATM    7  C7  UNL     1      -2.072   6.014  12.780  1.00  0.00    -0.004 C 
HETATM    8  C8  UNL     1      -1.284   5.300  13.891  1.00  0.00     0.010 C 
HETATM    9  C9  UNL     1       0.211   5.228  13.576  1.00  0.00     0.035 C 
HETATM   10  C10 UNL     1       0.821   6.549  13.160  1.00  0.00    -0.069 C 
HETATM   11  C11 UNL     1       2.005   6.930  13.674  1.00  0.00     0.030 C 
HETATM   12  C12 UNL     1       2.724   8.140  13.178  1.00  0.00     0.032 C 
HETATM   13  N1  UNL     1       3.829   8.621  13.660  1.00  0.00    -0.271 N 
ATOM     14  H1  UNL     1       4.315   9.433  13.277  1.00  0.00     0.194 HD
HETATM   15  C22 UNL     1       2.153   8.831  11.955  1.00  0.00     0.060 C 
HETATM   16  C23 UNL     1       0.632   8.802  11.991  1.00  0.00     0.020 C 
HETATM   17  C24 UNL     1       0.052   7.362  12.119  1.00  0.00    -0.016 C 
HETATM   18  C25 UNL     1       0.214   6.670  10.740  1.00  0.00     0.020 C 
HETATM   19  C26 UNL     1      -1.478   7.421  12.508  1.00  0.00     0.002 C 
HETATM   20  C27 UNL     1      -1.783   8.389  13.682  1.00  0.00     0.007 C 
HETATM   21  C28 UNL     1      -2.993   8.043  14.555  1.00  0.00     0.014 C 
HETATM   22  C29 UNL     1      -4.133   7.321  13.819  1.00  0.00     0.003 C 
HETATM   23  C30 UNL     1      -4.814   8.331  12.855  1.00  0.00     0.020 C 
ENDROOT
BRANCH   3  24
HETATM   24  O1  UNL     1      -4.527   6.223  15.996  1.00  0.00    -0.377 OA
HETATM   25  H2  UNL     1      -5.223   5.897  16.591  1.00  0.00     0.211 HD
ENDBRANCH   3  24
BRANCH  13  26
HETATM   26  O2  UNL     1       4.275   7.889  14.773  1.00  0.00    -0.271 OA
BRANCH  26  27
HETATM   27  C13 UNL     1       5.688   7.783  14.709  1.00  0.00     0.303 C 
BRANCH  27  28
HETATM   28  C14 UNL     1       6.353   9.133  14.963  1.00  0.00     0.244 C 
HETATM   29  O3  UNL     1       6.188  10.125  14.259  1.00  0.00    -0.271 OA
HETATM   30  N2  UNL     1       7.190   9.139  16.066  1.00  0.00    -0.350 N 
HETATM   31  H16 UNL     1       7.050   8.419  16.765  1.00  0.00     0.163 HD
BRANCH  30  32
HETATM   32  C15 UNL     1       7.769  10.393  16.532  1.00  0.00     0.225 C 
BRANCH  32  33
HETATM   33  C16 UNL     1       9.053  10.168  17.334  1.00  0.00     0.236 C 
HETATM   34  O4  UNL     1       9.388   9.063  17.748  1.00  0.00    -0.272 OA
HETATM   35  N3  UNL     1       9.751  11.319  17.620  1.00  0.00    -0.345 N 
HETATM   36  H19 UNL     1       9.254  12.202  17.522  1.00  0.00     0.163 HD
BRANCH  35  37
HETATM   37  C17 UNL     1      10.930  11.330  18.494  1.00  0.00     0.185 C 
BRANCH  37  38
HETATM   38  C18 UNL     1      10.510  11.761  19.909  1.00  0.00     0.163 C 
HETATM   39  O5  UNL     1       9.613  11.289  20.586  1.00  0.00    -0.648 OA
BRANCH  38  40
HETATM   40  O6  UNL     1      11.259  12.777  20.406  1.00  0.00    -0.775 OA
HETATM   41  H21 UNL     1      10.859  12.941  21.289  1.00  0.00     0.167 HD
ENDBRANCH  38  40
ENDBRANCH  37  38
BRANCH  37  42
HETATM   42  C19 UNL     1      12.043  12.219  17.893  1.00  0.00     0.010 C 
HETATM   43  C20 UNL     1      13.221  12.398  18.855  1.00  0.00     0.012 C 
HETATM   44  C21 UNL     1      11.529  13.584  17.423  1.00  0.00     0.012 C 
ENDBRANCH  37  42
ENDBRANCH  35  37
ENDBRANCH  32  33
ENDBRANCH  30  32
ENDBRANCH  27  28
ENDBRANCH  26  27
ENDBRANCH  13  26
TORSDOF 10
ENDMDL
MODEL 8
REMARK minimizedAffinity -7.50325012
REMARK CNNscore 0.289789289
REMARK CNNaffinity 5.44619799
REMARK  10 active torsions:
REMARK  status: ('A' for Active; 'I' for Inactive)
REMARK    1  A    between atoms: C3_3  and  O1_4 
REMARK    2  A    between atoms: N1_14  and  O2_16 
REMARK    3  A    between atoms: O2_16  and  C13_17 
REMARK    4  A    between atoms: C13_17  and  C14_18 
REMARK       I    between atoms: C14_18  and  N2_20 
REMARK    5  A    between atoms: N2_20  and  C15_21 
REMARK    6  A    between atoms: C15_21  and  C16_22 
REMARK       I    between atoms: C16_22  and  N3_24 
REMARK    7  A    between atoms: N3_24  and  C17_25 
REMARK    8  A    between atoms: C17_25  and  C18_26 
REMARK    9  A    between atoms: C17_25  and  C19_29 
REMARK   10  A    between atoms: C18_26  and  O6_28 
ROOT
HETATM    1  C1  UNL     1       6.147  19.342  23.700  1.00  0.00     0.015 C 
HETATM    2  C2  UNL     1       6.454  18.231  23.363  1.00  0.00    -0.078 C 
HETATM    3  C3  UNL     1       6.841  16.878  22.932  1.00  0.00     0.128 C 
HETATM    4  C4  UNL     1       8.083  16.372  23.671  1.00  0.00     0.052 C 
HETATM    5  C5  UNL     1       8.095  14.890  23.313  1.00  0.00     0.010 C 
HETATM    6  C6  UNL     1       6.627  14.471  23.454  1.00  0.00     0.002 C 
HETATM    7  C7  UNL     1       6.202  13.185  22.709  1.00  0.00    -0.004 C 
HETATM    8  C8  UNL     1       6.741  12.998  21.281  1.00  0.00     0.010 C 
HETATM    9  C9  UNL     1       6.283  11.675  20.666  1.00  0.00     0.035 C 
HETATM   10  C10 UNL     1       4.797  11.417  20.786  1.00  0.00    -0.069 C 
HETATM   11  C11 UNL     1       4.110  10.953  19.725  1.00  0.00     0.030 C 
HETATM   12  C12 UNL     1       2.683  10.531  19.836  1.00  0.00     0.032 C 
HETATM   13  N1  UNL     1       1.925  10.141  18.857  1.00  0.00    -0.271 N 
ATOM     14  H1  UNL     1       0.961   9.827  18.970  1.00  0.00     0.194 HD
HETATM   15  C22 UNL     1       2.083  10.483  21.227  1.00  0.00     0.060 C 
HETATM   16  C23 UNL     1       2.612  11.632  22.073  1.00  0.00     0.020 C 
HETATM   17  C24 UNL     1       4.167  11.663  22.157  1.00  0.00    -0.016 C 
HETATM   18  C25 UNL     1       4.606  10.519  23.109  1.00  0.00     0.020 C 
HETATM   19  C26 UNL     1       4.657  13.050  22.731  1.00  0.00     0.002 C 
HETATM   20  C27 UNL     1       3.983  14.274  22.055  1.00  0.00     0.007 C 
HETATM   21  C28 UNL     1       4.804  15.566  22.012  1.00  0.00     0.014 C 
HETATM   22  C29 UNL     1       5.770  15.757  23.192  1.00  0.00     0.003 C 
HETATM   23  C30 UNL     1       4.935  16.046  24.470  1.00  0.00     0.020 C 
ENDROOT
BRANCH   3  24
HETATM   24  O1  UNL     1       7.178  16.940  21.543  1.00  0.00    -0.377 OA
HETATM   25  H2  UNL     1       7.780  17.695  21.430  1.00  0.00     0.211 HD
ENDBRANCH   3  24
BRANCH  13  26
HETATM   26  O2  UNL     1       2.593  10.206  17.623  1.00  0.00    -0.271 OA
BRANCH  26  27
HETATM   27  C13 UNL     1       2.040   9.229  16.757  1.00  0.00     0.303 C 
BRANCH  27  28
HETATM   28  C14 UNL     1       2.051   9.709  15.308  1.00  0.00     0.244 C 
HETATM   29  O3  UNL     1       1.488  10.726  14.914  1.00  0.00    -0.271 OA
HETATM   30  N2  UNL     1       2.749   8.872  14.453  1.00  0.00    -0.350 N 
HETATM   31  H16 UNL     1       3.431   8.245  14.863  1.00  0.00     0.163 HD
BRANCH  30  32
HETATM   32  C15 UNL     1       2.987   9.278  13.073  1.00  0.00     0.225 C 
BRANCH  32  33
HETATM   33  C16 UNL     1       2.139   8.473  12.085  1.00  0.00     0.236 C 
HETATM   34  O4  UNL     1       1.058   7.981  12.390  1.00  0.00    -0.272 OA
HETATM   35  N3  UNL     1       2.731   8.280  10.857  1.00  0.00    -0.345 N 
HETATM   36  H19 UNL     1       3.735   8.439  10.793  1.00  0.00     0.163 HD
BRANCH  35  37
HETATM   37  C17 UNL     1       2.142   7.420   9.824  1.00  0.00     0.185 C 
BRANCH  37  38
HETATM   38  C18 UNL     1       3.172   6.361   9.396  1.00  0.00     0.163 C 
HETATM   39  O5  UNL     1       4.366   6.353   9.644  1.00  0.00    -0.648 OA
BRANCH  38  40
HETATM   40  O6  UNL     1       2.632   5.349   8.672  1.00  0.00    -0.775 OA
HETATM   41  H21 UNL     1       3.408   4.781   8.467  1.00  0.00     0.167 HD
ENDBRANCH  38  40
ENDBRANCH  37  38
BRANCH  37  42
HETATM   42  C19 UNL     1       1.618   8.270   8.644  1.00  0.00     0.010 C 
HETATM   43  C20 UNL     1       0.090   8.358   8.631  1.00  0.00     0.012 C 
HETATM   44  C21 UNL     1       2.134   7.787   7.285  1.00  0.00     0.012 C 
ENDBRANCH  37  42
ENDBRANCH  35  37
ENDBRANCH  32  33
ENDBRANCH  30  32
ENDBRANCH  27  28
ENDBRANCH  26  27
ENDBRANCH  13  26
TORSDOF 10
ENDMDL
MODEL 9
REMARK minimizedAffinity -8.46895218
REMARK CNNscore 0.287538677
REMARK CNNaffinity 6.89746332
REMARK  10 active torsions:
REMARK  status: ('A' for Active; 'I' for Inactive)
REMARK    1  A    between atoms: C3_3  and  O1_4 
REMARK    2  A    between atoms: N1_14  and  O2_16 
REMARK    3  A    between atoms: O2_16  and  C13_17 
REMARK    4  A    between atoms: C13_17  and  C14_18 
REMARK       I    between atoms: C14_18  and  N2_20 
REMARK    5  A    between atoms: N2_20  and  C15_21 
REMARK    6  A    between atoms: C15_21  and  C16_22 
REMARK       I    between atoms: C16_22  and  N3_24 
REMARK    7  A    between atoms: N3_24  and  C17_25 
REMARK    8  A    between atoms: C17_25  and  C18_26 
REMARK    9  A    between atoms: C17_25  and  C19_29 
REMARK   10  A    between atoms: C18_26  and  O6_28 
ROOT
HETATM    1  C1  UNL     1      -7.752   8.020  15.866  1.00  0.00     0.015 C 
HETATM    2  C2  UNL     1      -6.827   7.365  15.470  1.00  0.00    -0.078 C 
HETATM    3  C3  UNL     1      -5.692   6.551  15.006  1.00  0.00     0.128 C 
HETATM    4  C4  UNL     1      -6.147   5.366  14.149  1.00  0.00     0.052 C 
HETATM    5  C5  UNL     1      -4.837   4.883  13.537  1.00  0.00     0.010 C 
HETATM    6  C6  UNL     1      -4.129   6.180  13.127  1.00  0.00     0.002 C 
HETATM    7  C7  UNL     1      -2.598   6.097  12.929  1.00  0.00    -0.004 C 
HETATM    8  C8  UNL     1      -1.805   5.287  13.968  1.00  0.00     0.010 C 
HETATM    9  C9  UNL     1      -0.311   5.248  13.642  1.00  0.00     0.035 C 
HETATM   10  C10 UNL     1       0.295   6.603  13.345  1.00  0.00    -0.069 C 
HETATM   11  C11 UNL     1       1.480   6.939  13.888  1.00  0.00     0.030 C 
HETATM   12  C12 UNL     1       2.195   8.191  13.501  1.00  0.00     0.032 C 
HETATM   13  N1  UNL     1       3.300   8.630  14.021  1.00  0.00    -0.271 N 
ATOM     14  H1  UNL     1       3.782   9.473  13.712  1.00  0.00     0.194 HD
HETATM   15  C22 UNL     1       1.617   8.988  12.347  1.00  0.00     0.060 C 
HETATM   16  C23 UNL     1       0.096   8.952  12.386  1.00  0.00     0.020 C 
HETATM   17  C24 UNL     1      -0.480   7.505  12.385  1.00  0.00    -0.016 C 
HETATM   18  C25 UNL     1      -0.321   6.941  10.949  1.00  0.00     0.020 C 
HETATM   19  C26 UNL     1      -2.008   7.524  12.783  1.00  0.00     0.002 C 
HETATM   20  C27 UNL     1      -2.311   8.382  14.041  1.00  0.00     0.007 C 
HETATM   21  C28 UNL     1      -3.517   7.954  14.883  1.00  0.00     0.014 C 
HETATM   22  C29 UNL     1      -4.658   7.299  14.088  1.00  0.00     0.003 C 
HETATM   23  C30 UNL     1      -5.345   8.391  13.222  1.00  0.00     0.020 C 
ENDROOT
BRANCH   3  24
HETATM   24  O1  UNL     1      -5.042   6.008  16.158  1.00  0.00    -0.377 OA
HETATM   25  H2  UNL     1      -5.735   5.627  16.724  1.00  0.00     0.211 HD
ENDBRANCH   3  24
BRANCH  13  26
HETATM   26  O2  UNL     1       3.751   7.801  15.061  1.00  0.00    -0.271 OA
BRANCH  26  27
HETATM   27  C13 UNL     1       5.075   8.180  15.400  1.00  0.00     0.303 C 
BRANCH  27  28
HETATM   28  C14 UNL     1       6.031   7.943  14.233  1.00  0.00     0.244 C 
HETATM   29  O3  UNL     1       6.731   8.814  13.728  1.00  0.00    -0.271 OA
HETATM   30  N2  UNL     1       6.024   6.638  13.770  1.00  0.00    -0.350 N 
HETATM   31  H16 UNL     1       5.682   5.918  14.397  1.00  0.00     0.163 HD
BRANCH  30  32
HETATM   32  C15 UNL     1       6.998   6.217  12.769  1.00  0.00     0.225 C 
BRANCH  32  33
HETATM   33  C16 UNL     1       6.526   6.525  11.347  1.00  0.00     0.236 C 
HETATM   34  O4  UNL     1       7.243   7.074  10.516  1.00  0.00    -0.272 OA
HETATM   35  N3  UNL     1       5.208   6.209  11.108  1.00  0.00    -0.345 N 
HETATM   36  H19 UNL     1       4.609   6.062  11.918  1.00  0.00     0.163 HD
BRANCH  35  37
HETATM   37  C17 UNL     1       4.529   6.555   9.853  1.00  0.00     0.185 C 
BRANCH  37  38
HETATM   38  C18 UNL     1       3.994   7.994   9.943  1.00  0.00     0.163 C 
HETATM   39  O5  UNL     1       4.570   8.965  10.405  1.00  0.00    -0.648 OA
BRANCH  38  40
HETATM   40  O6  UNL     1       2.747   8.137   9.433  1.00  0.00    -0.775 OA
HETATM   41  H21 UNL     1       2.550   9.089   9.581  1.00  0.00     0.167 HD
ENDBRANCH  38  40
ENDBRANCH  37  38
BRANCH  37  42
HETATM   42  C19 UNL     1       3.429   5.519   9.528  1.00  0.00     0.010 C 
HETATM   43  C20 UNL     1       2.710   5.834   8.213  1.00  0.00     0.012 C 
HETATM   44  C21 UNL     1       2.413   5.349  10.662  1.00  0.00     0.012 C 
ENDBRANCH  37  42
ENDBRANCH  35  37
ENDBRANCH  32  33
ENDBRANCH  30  32
ENDBRANCH  27  28
ENDBRANCH  26  27
ENDBRANCH  13  26
TORSDOF 10
ENDMDL
