MODEL 1
REMARK minimizedAffinity -8.76409435
REMARK  5 active torsions:
REMARK  status: ('A' for Active; 'I' for Inactive)
REMARK    1  A    between atoms: C2_2  and  C4_4 
REMARK    2  A    between atoms: C7_7  and  C8_8 
REMARK    3  A    between atoms: C8_8  and  O2_10 
REMARK    4  A    between atoms: C11_13  and  C12_14 
REMARK    5  A    between atoms: C12_14  and  O4_16 
ROOT
HETATM    1  C4  UNL     1      -0.701  10.991  15.809  1.00  0.00     0.019 C 
HETATM    2  C5  UNL     1       0.347  11.202  14.714  1.00  0.00     0.011 C 
HETATM    3  C6  UNL     1       1.274  10.010  14.909  1.00  0.00     0.021 C 
HETATM    4  C7  UNL     1       0.329   8.808  15.154  1.00  0.00     0.050 C 
HETATM    5  C9  UNL     1       0.029   8.116  13.815  1.00  0.00     0.022 C 
HETATM    6  C10 UNL     1      -1.199   7.209  13.843  1.00  0.00     0.023 C 
HETATM    7  C11 UNL     1      -2.499   7.903  14.315  1.00  0.00     0.057 C 
HETATM    8  C13 UNL     1      -2.257   8.670  15.660  1.00  0.00     0.011 C 
HETATM    9  C14 UNL     1      -3.529   9.390  16.130  1.00  0.00     0.007 C 
HETATM   10  C15 UNL     1      -4.748   8.465  16.252  1.00  0.00     0.006 C 
HETATM   11  C16 UNL     1      -5.003   7.616  14.984  1.00  0.00     0.003 C 
HETATM   12  C17 UNL     1      -6.371   6.799  14.979  1.00  0.00    -0.035 C 
HETATM   13  C18 UNL     1      -6.466   5.824  16.174  1.00  0.00     0.016 C 
HETATM   14  C19 UNL     1      -7.552   7.812  15.094  1.00  0.00     0.017 C 
HETATM   15  C20 UNL     1      -8.928   7.207  14.847  1.00  0.00     0.080 C 
HETATM   16  C21 UNL     1      -8.992   6.473  13.532  1.00  0.00     0.135 C 
HETATM   17  O5  UNL     1      -9.967   6.631  12.794  1.00  0.00    -0.297 OA
HETATM   18  C22 UNL     1      -7.877   5.460  13.221  1.00  0.00     0.017 C 
HETATM   19  C23 UNL     1      -8.191   4.151  13.961  1.00  0.00     0.023 C 
HETATM   20  C24 UNL     1      -7.942   5.150  11.703  1.00  0.00     0.023 C 
HETATM   21  C25 UNL     1      -6.491   6.103  13.570  1.00  0.00     0.009 C 
HETATM   22  C26 UNL     1      -5.288   5.176  13.304  1.00  0.00     0.007 C 
HETATM   23  C27 UNL     1      -3.963   5.944  13.299  1.00  0.00     0.011 C 
HETATM   24  C28 UNL     1      -3.703   6.815  14.565  1.00  0.00    -0.022 C 
HETATM   25  C29 UNL     1      -3.303   5.790  15.679  1.00  0.00     0.017 C 
HETATM   26  C30 UNL     1      -0.914   9.439  15.878  1.00  0.00     0.018 C 
ENDROOT
BRANCH   4  27
HETATM   27  C8  UNL     1       1.001   7.776  16.061  1.00  0.00     0.149 C 
HETATM   28  O1  UNL     1       2.106   7.869  16.570  1.00  0.00    -0.649 OA
BRANCH  27  29
HETATM   29  O2  UNL     1       0.221   6.716  16.347  1.00  0.00    -0.776 OA
HETATM   30  H11 UNL     1       0.769   6.174  16.953  1.00  0.00     0.167 HD
ENDBRANCH  27  29
ENDBRANCH   4  27
BRANCH   1  31
HETATM   31  C2  UNL     1      -1.819  12.010  15.903  1.00  0.00    -0.088 C 
HETATM   32  C1  UNL     1      -2.183  12.504  17.102  1.00  0.00     0.014 C 
HETATM   33  C3  UNL     1      -2.445  12.570  14.657  1.00  0.00     0.043 C 
ENDBRANCH   1  31
BRANCH   7  34
HETATM   34  C12 UNL     1      -2.901   8.886  13.183  1.00  0.00     0.149 C 
HETATM   35  O3  UNL     1      -3.985   9.018  12.641  1.00  0.00    -0.649 OA
BRANCH  34  36
HETATM   36  O4  UNL     1      -1.892   9.642  12.729  1.00  0.00    -0.776 OA
HETATM   37  H16 UNL     1      -2.309  10.163  12.011  1.00  0.00     0.167 HD
ENDBRANCH  34  36
ENDBRANCH   7  34
TORSDOF 5
ENDMDL
MODEL 2
REMARK minimizedAffinity -8.59082603
REMARK  5 active torsions:
REMARK  status: ('A' for Active; 'I' for Inactive)
REMARK    1  A    between atoms: C2_2  and  C4_4 
REMARK    2  A    between atoms: C7_7  and  C8_8 
REMARK    3  A    between atoms: C8_8  and  O2_10 
REMARK    4  A    between atoms: C11_13  and  C12_14 
REMARK    5  A    between atoms: C12_14  and  O4_16 
ROOT
HETATM    1  C4  UNL     1      -6.505   4.678  12.529  1.00  0.00     0.019 C 
HETATM    2  C5  UNL     1      -6.314   3.243  13.026  1.00  0.00     0.011 C 
HETATM    3  C6  UNL     1      -5.058   2.801  12.289  1.00  0.00     0.021 C 
HETATM    4  C7  UNL     1      -4.099   4.013  12.378  1.00  0.00     0.050 C 
HETATM    5  C9  UNL     1      -3.199   3.859  13.615  1.00  0.00     0.022 C 
HETATM    6  C10 UNL     1      -2.523   5.154  14.058  1.00  0.00     0.023 C 
HETATM    7  C11 UNL     1      -3.496   6.327  14.329  1.00  0.00     0.057 C 
HETATM    8  C13 UNL     1      -4.479   6.516  13.122  1.00  0.00     0.011 C 
HETATM    9  C14 UNL     1      -5.472   7.656  13.384  1.00  0.00     0.007 C 
HETATM   10  C15 UNL     1      -4.798   8.989  13.739  1.00  0.00     0.006 C 
HETATM   11  C16 UNL     1      -3.754   8.863  14.874  1.00  0.00     0.003 C 
HETATM   12  C17 UNL     1      -3.181  10.244  15.424  1.00  0.00    -0.035 C 
HETATM   13  C18 UNL     1      -2.504  11.073  14.308  1.00  0.00     0.016 C 
HETATM   14  C19 UNL     1      -4.369  11.084  15.988  1.00  0.00     0.017 C 
HETATM   15  C20 UNL     1      -3.951  12.318  16.776  1.00  0.00     0.080 C 
HETATM   16  C21 UNL     1      -2.979  11.979  17.877  1.00  0.00     0.135 C 
HETATM   17  O5  UNL     1      -3.131  12.472  18.996  1.00  0.00    -0.297 OA
HETATM   18  C22 UNL     1      -1.759  11.113  17.516  1.00  0.00     0.017 C 
HETATM   19  C23 UNL     1      -0.700  12.014  16.864  1.00  0.00     0.023 C 
HETATM   20  C24 UNL     1      -1.154  10.588  18.844  1.00  0.00     0.023 C 
HETATM   21  C25 UNL     1      -2.234   9.905  16.637  1.00  0.00     0.009 C 
HETATM   22  C26 UNL     1      -1.094   8.962  16.206  1.00  0.00     0.007 C 
HETATM   23  C27 UNL     1      -1.625   7.624  15.680  1.00  0.00     0.011 C 
HETATM   24  C28 UNL     1      -2.689   7.739  14.547  1.00  0.00    -0.022 C 
HETATM   25  C29 UNL     1      -1.868   8.113  13.266  1.00  0.00     0.017 C 
HETATM   26  C30 UNL     1      -5.055   5.259  12.392  1.00  0.00     0.018 C 
ENDROOT
BRANCH   4  27
HETATM   27  C8  UNL     1      -3.185   4.062  11.152  1.00  0.00     0.149 C 
HETATM   28  O1  UNL     1      -2.024   4.438  11.127  1.00  0.00    -0.649 OA
BRANCH  27  29
HETATM   29  O2  UNL     1      -3.749   3.564  10.034  1.00  0.00    -0.776 OA
HETATM   30  H11 UNL     1      -3.042   3.632   9.359  1.00  0.00     0.167 HD
ENDBRANCH  27  29
ENDBRANCH   4  27
BRANCH   1  31
HETATM   31  C2  UNL     1      -7.684   5.452  13.083  1.00  0.00    -0.088 C 
HETATM   32  C1  UNL     1      -7.856   5.560  14.414  1.00  0.00     0.014 C 
HETATM   33  C3  UNL     1      -8.600   6.208  12.161  1.00  0.00     0.043 C 
ENDBRANCH   1  31
BRANCH   7  34
HETATM   34  C12 UNL     1      -4.273   5.956  15.620  1.00  0.00     0.149 C 
HETATM   35  O3  UNL     1      -5.475   5.993  15.821  1.00  0.00    -0.649 OA
BRANCH  34  36
HETATM   36  O4  UNL     1      -3.491   5.599  16.648  1.00  0.00    -0.776 OA
HETATM   37  H16 UNL     1      -4.132   5.440  17.372  1.00  0.00     0.167 HD
ENDBRANCH  34  36
ENDBRANCH   7  34
TORSDOF 5
ENDMDL
MODEL 3
REMARK minimizedAffinity -8.40597534
REMARK  5 active torsions:
REMARK  status: ('A' for Active; 'I' for Inactive)
REMARK    1  A    between atoms: C2_2  and  C4_4 
REMARK    2  A    between atoms: C7_7  and  C8_8 
REMARK    3  A    between atoms: C8_8  and  O2_10 
REMARK    4  A    between atoms: C11_13  and  C12_14 
REMARK    5  A    between atoms: C12_14  and  O4_16 
ROOT
HETATM    1  C4  UNL     1      -2.230   4.566  11.644  1.00  0.00     0.019 C 
HETATM    2  C5  UNL     1      -1.321   3.383  11.989  1.00  0.00     0.011 C 
HETATM    3  C6  UNL     1      -0.010   3.766  11.317  1.00  0.00     0.021 C 
HETATM    4  C7  UNL     1       0.170   5.272  11.626  1.00  0.00     0.050 C 
HETATM    5  C9  UNL     1       0.999   5.432  12.911  1.00  0.00     0.022 C 
HETATM    6  C10 UNL     1       0.889   6.811  13.556  1.00  0.00     0.023 C 
HETATM    7  C11 UNL     1      -0.559   7.258  13.873  1.00  0.00     0.057 C 
HETATM    8  C13 UNL     1      -1.478   7.080  12.616  1.00  0.00     0.011 C 
HETATM    9  C14 UNL     1      -2.925   7.491  12.918  1.00  0.00     0.007 C 
HETATM   10  C15 UNL     1      -3.055   8.914  13.480  1.00  0.00     0.006 C 
HETATM   11  C16 UNL     1      -2.116   9.187  14.680  1.00  0.00     0.003 C 
HETATM   12  C17 UNL     1      -2.361  10.570  15.431  1.00  0.00    -0.035 C 
HETATM   13  C18 UNL     1      -2.204  11.779  14.480  1.00  0.00     0.016 C 
HETATM   14  C19 UNL     1      -3.820  10.584  15.982  1.00  0.00     0.017 C 
HETATM   15  C20 UNL     1      -4.123  11.729  16.939  1.00  0.00     0.080 C 
HETATM   16  C21 UNL     1      -3.133  11.789  18.074  1.00  0.00     0.135 C 
HETATM   17  O5  UNL     1      -3.537  11.967  19.225  1.00  0.00    -0.297 OA
HETATM   18  C22 UNL     1      -1.636  11.742  17.724  1.00  0.00     0.017 C 
HETATM   19  C23 UNL     1      -1.198  13.143  17.273  1.00  0.00     0.023 C 
HETATM   20  C24 UNL     1      -0.863  11.422  19.030  1.00  0.00     0.023 C 
HETATM   21  C25 UNL     1      -1.394  10.601  16.675  1.00  0.00     0.009 C 
HETATM   22  C26 UNL     1       0.077  10.457  16.239  1.00  0.00     0.007 C 
HETATM   23  C27 UNL     1       0.334   9.129  15.520  1.00  0.00     0.011 C 
HETATM   24  C28 UNL     1      -0.616   8.837  14.319  1.00  0.00    -0.022 C 
HETATM   25  C29 UNL     1      -0.095   9.759  13.165  1.00  0.00     0.017 C 
HETATM   26  C30 UNL     1      -1.298   5.826  11.700  1.00  0.00     0.018 C 
ENDROOT
BRANCH   4  27
HETATM   27  C8  UNL     1       0.938   5.961  10.497  1.00  0.00     0.149 C 
HETATM   28  O1  UNL     1       0.693   7.056  10.017  1.00  0.00    -0.649 OA
BRANCH  27  29
HETATM   29  O2  UNL     1       2.021   5.276  10.081  1.00  0.00    -0.776 OA
HETATM   30  H11 UNL     1       2.418   5.852   9.395  1.00  0.00     0.167 HD
ENDBRANCH  27  29
ENDBRANCH   4  27
BRANCH   1  31
HETATM   31  C2  UNL     1      -3.647   4.529  12.178  1.00  0.00    -0.088 C 
HETATM   32  C1  UNL     1      -4.396   3.419  12.032  1.00  0.00     0.014 C 
HETATM   33  C3  UNL     1      -4.188   5.678  12.983  1.00  0.00     0.043 C 
ENDBRANCH   1  31
BRANCH   7  34
HETATM   34  C12 UNL     1      -1.043   6.360  15.041  1.00  0.00     0.149 C 
HETATM   35  O3  UNL     1      -2.094   5.749  15.146  1.00  0.00    -0.649 OA
BRANCH  34  36
HETATM   36  O4  UNL     1      -0.198   6.305  16.080  1.00  0.00    -0.776 OA
HETATM   37  H16 UNL     1      -0.671   5.738  16.724  1.00  0.00     0.167 HD
ENDBRANCH  34  36
ENDBRANCH   7  34
TORSDOF 5
ENDMDL
MODEL 4
REMARK minimizedAffinity -7.91431475
REMARK  5 active torsions:
REMARK  status: ('A' for Active; 'I' for Inactive)
REMARK    1  A    between atoms: C2_2  and  C4_4 
REMARK    2  A    between atoms: C7_7  and  C8_8 
REMARK    3  A    between atoms: C8_8  and  O2_10 
REMARK    4  A    between atoms: C11_13  and  C12_14 
REMARK    5  A    between atoms: C12_14  and  O4_16 
ROOT
HETATM    1  C4  UNL     1      -2.991   6.638  12.910  1.00  0.00     0.019 C 
HETATM    2  C5  UNL     1      -2.829   5.142  13.192  1.00  0.00     0.011 C 
HETATM    3  C6  UNL     1      -1.717   4.743  12.232  1.00  0.00     0.021 C 
HETATM    4  C7  UNL     1      -0.677   5.884  12.332  1.00  0.00     0.050 C 
HETATM    5  C9  UNL     1       0.371   5.526  13.397  1.00  0.00     0.022 C 
HETATM    6  C10 UNL     1       1.185   6.718  13.896  1.00  0.00     0.023 C 
HETATM    7  C11 UNL     1       0.337   7.889  14.447  1.00  0.00     0.057 C 
HETATM    8  C13 UNL     1      -0.787   8.283  13.428  1.00  0.00     0.011 C 
HETATM    9  C14 UNL     1      -1.658   9.425  13.969  1.00  0.00     0.007 C 
HETATM   10  C15 UNL     1      -0.855  10.665  14.385  1.00  0.00     0.006 C 
HETATM   11  C16 UNL     1       0.324  10.341  15.334  1.00  0.00     0.003 C 
HETATM   12  C17 UNL     1       1.056  11.609  15.962  1.00  0.00    -0.035 C 
HETATM   13  C18 UNL     1       1.627  12.544  14.872  1.00  0.00     0.016 C 
HETATM   14  C19 UNL     1       0.014  12.423  16.791  1.00  0.00     0.017 C 
HETATM   15  C20 UNL     1       0.616  13.520  17.657  1.00  0.00     0.080 C 
HETATM   16  C21 UNL     1       1.705  12.993  18.556  1.00  0.00     0.135 C 
HETATM   17  O5  UNL     1       1.740  13.341  19.738  1.00  0.00    -0.297 OA
HETATM   18  C22 UNL     1       2.804  12.126  17.920  1.00  0.00     0.017 C 
HETATM   19  C23 UNL     1       3.822  13.053  17.238  1.00  0.00     0.023 C 
HETATM   20  C24 UNL     1       3.549  11.401  19.070  1.00  0.00     0.023 C 
HETATM   21  C25 UNL     1       2.135  11.067  16.975  1.00  0.00     0.009 C 
HETATM   22  C26 UNL     1       3.141  10.136  16.270  1.00  0.00     0.007 C 
HETATM   23  C27 UNL     1       2.456   8.907  15.665  1.00  0.00     0.011 C 
HETATM   24  C28 UNL     1       1.258   9.221  14.720  1.00  0.00    -0.022 C 
HETATM   25  C29 UNL     1       1.919   9.721  13.390  1.00  0.00     0.017 C 
HETATM   26  C30 UNL     1      -1.539   7.162  12.638  1.00  0.00     0.018 C 
ENDROOT
BRANCH   4  27
HETATM   27  C8  UNL     1       0.061   6.052  11.003  1.00  0.00     0.149 C 
HETATM   28  O1  UNL     1       0.066   7.047  10.296  1.00  0.00    -0.649 OA
BRANCH  27  29
HETATM   29  O2  UNL     1       0.819   4.990  10.665  1.00  0.00    -0.776 OA
HETATM   30  H11 UNL     1       1.246   5.260   9.826  1.00  0.00     0.167 HD
ENDBRANCH  27  29
ENDBRANCH   4  27
BRANCH   1  31
HETATM   31  C2  UNL     1      -4.030   7.387  13.719  1.00  0.00    -0.088 C 
HETATM   32  C1  UNL     1      -4.760   8.362  13.143  1.00  0.00     0.014 C 
HETATM   33  C3  UNL     1      -4.345   6.970  15.128  1.00  0.00     0.043 C 
ENDBRANCH   1  31
BRANCH   7  34
HETATM   34  C12 UNL     1      -0.278   7.389  15.781  1.00  0.00     0.149 C 
HETATM   35  O3  UNL     1      -1.408   7.562  16.209  1.00  0.00    -0.649 OA
BRANCH  34  36
HETATM   36  O4  UNL     1       0.580   6.725  16.567  1.00  0.00    -0.776 OA
HETATM   37  H16 UNL     1       0.044   6.522  17.362  1.00  0.00     0.167 HD
ENDBRANCH  34  36
ENDBRANCH   7  34
TORSDOF 5
ENDMDL
MODEL 5
REMARK minimizedAffinity -7.91094971
REMARK  5 active torsions:
REMARK  status: ('A' for Active; 'I' for Inactive)
REMARK    1  A    between atoms: C2_2  and  C4_4 
REMARK    2  A    between atoms: C7_7  and  C8_8 
REMARK    3  A    between atoms: C8_8  and  O2_10 
REMARK    4  A    between atoms: C11_13  and  C12_14 
REMARK    5  A    between atoms: C12_14  and  O4_16 
ROOT
HETATM    1  C4  UNL     1      -5.996   4.536  12.895  1.00  0.00     0.019 C 
HETATM    2  C5  UNL     1      -7.253   5.257  12.403  1.00  0.00     0.011 C 
HETATM    3  C6  UNL     1      -7.976   5.585  13.702  1.00  0.00     0.021 C 
HETATM    4  C7  UNL     1      -6.865   6.080  14.660  1.00  0.00     0.050 C 
HETATM    5  C9  UNL     1      -6.748   7.609  14.558  1.00  0.00     0.022 C 
HETATM    6  C10 UNL     1      -5.439   8.173  15.105  1.00  0.00     0.023 C 
HETATM    7  C11 UNL     1      -4.164   7.561  14.475  1.00  0.00     0.057 C 
HETATM    8  C13 UNL     1      -4.232   5.995  14.504  1.00  0.00     0.011 C 
HETATM    9  C14 UNL     1      -2.989   5.370  13.857  1.00  0.00     0.007 C 
HETATM   10  C15 UNL     1      -1.667   5.861  14.466  1.00  0.00     0.006 C 
HETATM   11  C16 UNL     1      -1.563   7.403  14.541  1.00  0.00     0.003 C 
HETATM   12  C17 UNL     1      -0.134   7.965  14.965  1.00  0.00    -0.035 C 
HETATM   13  C18 UNL     1       0.306   7.437  16.350  1.00  0.00     0.016 C 
HETATM   14  C19 UNL     1       0.918   7.487  13.917  1.00  0.00     0.017 C 
HETATM   15  C20 UNL     1       2.282   8.151  14.044  1.00  0.00     0.080 C 
HETATM   16  C21 UNL     1       2.179   9.655  14.036  1.00  0.00     0.135 C 
HETATM   17  O5  UNL     1       2.967  10.316  13.357  1.00  0.00    -0.297 OA
HETATM   18  C22 UNL     1       1.154  10.309  14.979  1.00  0.00     0.017 C 
HETATM   19  C23 UNL     1       1.758  10.363  16.390  1.00  0.00     0.023 C 
HETATM   20  C24 UNL     1       0.962  11.775  14.511  1.00  0.00     0.023 C 
HETATM   21  C25 UNL     1      -0.206   9.536  14.869  1.00  0.00     0.009 C 
HETATM   22  C26 UNL     1      -1.317  10.098  15.777  1.00  0.00     0.007 C 
HETATM   23  C27 UNL     1      -2.701   9.573  15.380  1.00  0.00     0.011 C 
HETATM   24  C28 UNL     1      -2.814   8.022  15.286  1.00  0.00    -0.022 C 
HETATM   25  C29 UNL     1      -2.866   7.536  16.774  1.00  0.00     0.017 C 
HETATM   26  C30 UNL     1      -5.590   5.277  14.216  1.00  0.00     0.018 C 
ENDROOT
BRANCH   4  27
HETATM   27  C8  UNL     1      -7.221   5.745  16.110  1.00  0.00     0.149 C 
HETATM   28  O1  UNL     1      -7.096   6.480  17.075  1.00  0.00    -0.649 OA
BRANCH  27  29
HETATM   29  O2  UNL     1      -7.789   4.532  16.262  1.00  0.00    -0.776 OA
HETATM   30  H11 UNL     1      -7.987   4.482  17.221  1.00  0.00     0.167 HD
ENDBRANCH  27  29
ENDBRANCH   4  27
BRANCH   1  31
HETATM   31  C2  UNL     1      -5.010   4.066  11.844  1.00  0.00    -0.088 C 
HETATM   32  C1  UNL     1      -3.687   4.133  12.082  1.00  0.00     0.014 C 
HETATM   33  C3  UNL     1      -5.497   3.410  10.582  1.00  0.00     0.043 C 
ENDBRANCH   1  31
BRANCH   7  34
HETATM   34  C12 UNL     1      -4.109   8.084  13.015  1.00  0.00     0.149 C 
HETATM   35  O3  UNL     1      -5.021   8.505  12.323  1.00  0.00    -0.649 OA
BRANCH  34  36
HETATM   36  O4  UNL     1      -2.896   8.006  12.449  1.00  0.00    -0.776 OA
HETATM   37  H16 UNL     1      -3.052   8.336  11.539  1.00  0.00     0.167 HD
ENDBRANCH  34  36
ENDBRANCH   7  34
TORSDOF 5
ENDMDL
MODEL 6
REMARK minimizedAffinity -7.75706625
REMARK  5 active torsions:
REMARK  status: ('A' for Active; 'I' for Inactive)
REMARK    1  A    between atoms: C2_2  and  C4_4 
REMARK    2  A    between atoms: C7_7  and  C8_8 
REMARK    3  A    between atoms: C8_8  and  O2_10 
REMARK    4  A    between atoms: C11_13  and  C12_14 
REMARK    5  A    between atoms: C12_14  and  O4_16 
ROOT
HETATM    1  C4  UNL     1      -0.594   8.884  13.280  1.00  0.00     0.019 C 
HETATM    2  C5  UNL     1      -1.149   7.460  13.192  1.00  0.00     0.011 C 
HETATM    3  C6  UNL     1      -0.782   7.049  11.773  1.00  0.00     0.021 C 
HETATM    4  C7  UNL     1       0.666   7.557  11.575  1.00  0.00     0.050 C 
HETATM    5  C9  UNL     1       1.654   6.441  11.953  1.00  0.00     0.022 C 
HETATM    6  C10 UNL     1       3.076   6.930  12.215  1.00  0.00     0.023 C 
HETATM    7  C11 UNL     1       3.187   8.038  13.289  1.00  0.00     0.057 C 
HETATM    8  C13 UNL     1       2.172   9.196  12.993  1.00  0.00     0.011 C 
HETATM    9  C14 UNL     1       2.247  10.292  14.064  1.00  0.00     0.007 C 
HETATM   10  C15 UNL     1       3.660  10.857  14.268  1.00  0.00     0.006 C 
HETATM   11  C16 UNL     1       4.731   9.762  14.490  1.00  0.00     0.003 C 
HETATM   12  C17 UNL     1       6.169  10.298  14.915  1.00  0.00    -0.035 C 
HETATM   13  C18 UNL     1       6.758  11.268  13.865  1.00  0.00     0.016 C 
HETATM   14  C19 UNL     1       6.030  11.079  16.259  1.00  0.00     0.017 C 
HETATM   15  C20 UNL     1       7.353  11.434  16.923  1.00  0.00     0.080 C 
HETATM   16  C21 UNL     1       8.232  10.222  17.108  1.00  0.00     0.135 C 
HETATM   17  O5  UNL     1       8.819  10.054  18.179  1.00  0.00    -0.297 OA
HETATM   18  C22 UNL     1       8.450   9.302  15.895  1.00  0.00     0.017 C 
HETATM   19  C23 UNL     1       9.520   9.935  14.991  1.00  0.00     0.023 C 
HETATM   20  C24 UNL     1       9.035   7.967  16.424  1.00  0.00     0.023 C 
HETATM   21  C25 UNL     1       7.069   9.036  15.201  1.00  0.00     0.009 C 
HETATM   22  C26 UNL     1       7.159   8.125  13.961  1.00  0.00     0.007 C 
HETATM   23  C27 UNL     1       5.785   7.595  13.540  1.00  0.00     0.011 C 
HETATM   24  C28 UNL     1       4.694   8.687  13.329  1.00  0.00    -0.022 C 
HETATM   25  C29 UNL     1       5.052   9.347  11.954  1.00  0.00     0.017 C 
HETATM   26  C30 UNL     1       0.743   8.852  12.461  1.00  0.00     0.018 C 
ENDROOT
BRANCH   4  27
HETATM   27  C8  UNL     1       0.913   7.908  10.106  1.00  0.00     0.149 C 
HETATM   28  O1  UNL     1       0.381   8.808   9.477  1.00  0.00    -0.649 OA
BRANCH  27  29
HETATM   29  O2  UNL     1       1.872   7.161   9.524  1.00  0.00    -0.776 OA
HETATM   30  H11 UNL     1       1.935   7.522   8.615  1.00  0.00     0.167 HD
ENDBRANCH  27  29
ENDBRANCH   4  27
BRANCH   1  31
HETATM   31  C2  UNL     1      -0.770   9.616  14.595  1.00  0.00    -0.088 C 
HETATM   32  C1  UNL     1      -1.285  10.861  14.611  1.00  0.00     0.014 C 
HETATM   33  C3  UNL     1      -0.493   8.920  15.898  1.00  0.00     0.043 C 
ENDBRANCH   1  31
BRANCH   7  34
HETATM   34  C12 UNL     1       2.867   7.359  14.647  1.00  0.00     0.149 C 
HETATM   35  O3  UNL     1       3.345   7.592  15.745  1.00  0.00    -0.649 OA
BRANCH  34  36
HETATM   36  O4  UNL     1       1.982   6.356  14.565  1.00  0.00    -0.776 OA
HETATM   37  H16 UNL     1       1.930   6.027  15.487  1.00  0.00     0.167 HD
ENDBRANCH  34  36
ENDBRANCH   7  34
TORSDOF 5
ENDMDL
MODEL 7
REMARK minimizedAffinity -7.72929668
REMARK  5 active torsions:
REMARK  status: ('A' for Active; 'I' for Inactive)
REMARK    1  A    between atoms: C2_2  and  C4_4 
REMARK    2  A    between atoms: C7_7  and  C8_8 
REMARK    3  A    between atoms: C8_8  and  O2_10 
REMARK    4  A    between atoms: C11_13  and  C12_14 
REMARK    5  A    between atoms: C12_14  and  O4_16 
ROOT
HETATM    1  C4  UNL     1       5.425  11.354  16.879  1.00  0.00     0.019 C 
HETATM    2  C5  UNL     1       6.508  12.419  16.689  1.00  0.00     0.011 C 
HETATM    3  C6  UNL     1       7.781  11.588  16.616  1.00  0.00     0.021 C 
HETATM    4  C7  UNL     1       7.416  10.380  15.720  1.00  0.00     0.050 C 
HETATM    5  C9  UNL     1       7.770  10.705  14.260  1.00  0.00     0.022 C 
HETATM    6  C10 UNL     1       7.084   9.804  13.236  1.00  0.00     0.023 C 
HETATM    7  C11 UNL     1       5.541   9.764  13.348  1.00  0.00     0.057 C 
HETATM    8  C13 UNL     1       5.102   9.480  14.826  1.00  0.00     0.011 C 
HETATM    9  C14 UNL     1       3.574   9.465  14.962  1.00  0.00     0.007 C 
HETATM   10  C15 UNL     1       2.880   8.490  14.001  1.00  0.00     0.006 C 
HETATM   11  C16 UNL     1       3.324   8.662  12.528  1.00  0.00     0.003 C 
HETATM   12  C17 UNL     1       2.485   7.824  11.465  1.00  0.00    -0.035 C 
HETATM   13  C18 UNL     1       2.537   6.307  11.755  1.00  0.00     0.016 C 
HETATM   14  C19 UNL     1       0.993   8.274  11.546  1.00  0.00     0.017 C 
HETATM   15  C20 UNL     1       0.113   7.748  10.421  1.00  0.00     0.080 C 
HETATM   16  C21 UNL     1       0.685   8.069   9.063  1.00  0.00     0.135 C 
HETATM   17  O5  UNL     1      -0.057   8.496   8.176  1.00  0.00    -0.297 OA
HETATM   18  C22 UNL     1       2.165   7.736   8.811  1.00  0.00     0.017 C 
HETATM   19  C23 UNL     1       2.279   6.237   8.499  1.00  0.00     0.023 C 
HETATM   20  C24 UNL     1       2.602   8.500   7.534  1.00  0.00     0.023 C 
HETATM   21  C25 UNL     1       3.014   8.225  10.036  1.00  0.00     0.009 C 
HETATM   22  C26 UNL     1       4.523   7.941   9.902  1.00  0.00     0.007 C 
HETATM   23  C27 UNL     1       5.348   8.743  10.913  1.00  0.00     0.011 C 
HETATM   24  C28 UNL     1       4.900   8.589  12.397  1.00  0.00    -0.022 C 
HETATM   25  C29 UNL     1       5.425   7.178  12.828  1.00  0.00     0.017 C 
HETATM   26  C30 UNL     1       5.891  10.138  16.004  1.00  0.00     0.018 C 
ENDROOT
BRANCH   4  27
HETATM   27  C8  UNL     1       8.230   9.149  16.124  1.00  0.00     0.149 C 
HETATM   28  O1  UNL     1       9.443   9.028  16.058  1.00  0.00    -0.649 OA
BRANCH  27  29
HETATM   29  O2  UNL     1       7.489   8.162  16.664  1.00  0.00    -0.776 OA
HETATM   30  H11 UNL     1       8.145   7.473  16.898  1.00  0.00     0.167 HD
ENDBRANCH  27  29
ENDBRANCH   4  27
BRANCH   1  31
HETATM   31  C2  UNL     1       3.991  11.834  16.977  1.00  0.00    -0.088 C 
HETATM   32  C1  UNL     1       3.152  11.274  17.869  1.00  0.00     0.014 C 
HETATM   33  C3  UNL     1       3.526  13.016  16.173  1.00  0.00     0.043 C 
ENDBRANCH   1  31
BRANCH   7  34
HETATM   34  C12 UNL     1       5.037  11.155  12.881  1.00  0.00     0.149 C 
HETATM   35  O3  UNL     1       4.149  11.842  13.360  1.00  0.00    -0.649 OA
BRANCH  34  36
HETATM   36  O4  UNL     1       5.641  11.617  11.778  1.00  0.00    -0.776 OA
HETATM   37  H16 UNL     1       5.183  12.468  11.611  1.00  0.00     0.167 HD
ENDBRANCH  34  36
ENDBRANCH   7  34
TORSDOF 5
ENDMDL
MODEL 8
REMARK minimizedAffinity -7.66754961
REMARK  5 active torsions:
REMARK  status: ('A' for Active; 'I' for Inactive)
REMARK    1  A    between atoms: C2_2  and  C4_4 
REMARK    2  A    between atoms: C7_7  and  C8_8 
REMARK    3  A    between atoms: C8_8  and  O2_10 
REMARK    4  A    between atoms: C11_13  and  C12_14 
REMARK    5  A    between atoms: C12_14  and  O4_16 
ROOT
HETATM    1  C4  UNL     1       4.118   7.882  10.166  1.00  0.00     0.019 C 
HETATM    2  C5  UNL     1       5.208   6.912  10.628  1.00  0.00     0.011 C 
HETATM    3  C6  UNL     1       5.940   7.718  11.691  1.00  0.00     0.021 C 
HETATM    4  C7  UNL     1       4.821   8.407  12.508  1.00  0.00     0.050 C 
HETATM    5  C9  UNL     1       4.448   7.520  13.707  1.00  0.00     0.022 C 
HETATM    6  C10 UNL     1       3.097   7.857  14.335  1.00  0.00     0.023 C 
HETATM    7  C11 UNL     1       1.907   7.836  13.347  1.00  0.00     0.057 C 
HETATM    8  C13 UNL     1       2.234   8.688  12.072  1.00  0.00     0.011 C 
HETATM    9  C14 UNL     1       1.075   8.656  11.066  1.00  0.00     0.007 C 
HETATM   10  C15 UNL     1      -0.271   9.085  11.666  1.00  0.00     0.006 C 
HETATM   11  C16 UNL     1      -0.625   8.338  12.974  1.00  0.00     0.003 C 
HETATM   12  C17 UNL     1      -2.099   8.590  13.521  1.00  0.00    -0.035 C 
HETATM   13  C18 UNL     1      -2.365  10.088  13.797  1.00  0.00     0.016 C 
HETATM   14  C19 UNL     1      -3.118   8.118  12.437  1.00  0.00     0.017 C 
HETATM   15  C20 UNL     1      -4.563   8.059  12.912  1.00  0.00     0.080 C 
HETATM   16  C21 UNL     1      -4.710   7.234  14.165  1.00  0.00     0.135 C 
HETATM   17  O5  UNL     1      -5.635   6.424  14.255  1.00  0.00    -0.297 OA
HETATM   18  C22 UNL     1      -3.754   7.528  15.334  1.00  0.00     0.017 C 
HETATM   19  C23 UNL     1      -4.276   8.759  16.090  1.00  0.00     0.023 C 
HETATM   20  C24 UNL     1      -3.834   6.327  16.312  1.00  0.00     0.023 C 
HETATM   21  C25 UNL     1      -2.294   7.660  14.778  1.00  0.00     0.009 C 
HETATM   22  C26 UNL     1      -1.240   7.962  15.861  1.00  0.00     0.007 C 
HETATM   23  C27 UNL     1       0.186   7.719  15.356  1.00  0.00     0.011 C 
HETATM   24  C28 UNL     1       0.548   8.454  14.030  1.00  0.00    -0.022 C 
HETATM   25  C29 UNL     1       0.767   9.947  14.450  1.00  0.00     0.017 C 
HETATM   26  C30 UNL     1       3.673   8.643  11.463  1.00  0.00     0.018 C 
ENDROOT
BRANCH   4  27
HETATM   27  C8  UNL     1       5.312   9.745  13.065  1.00  0.00     0.149 C 
HETATM   28  O1  UNL     1       5.858   9.926  14.141  1.00  0.00    -0.649 OA
BRANCH  27  29
HETATM   29  O2  UNL     1       5.164  10.775  12.210  1.00  0.00    -0.776 OA
HETATM   30  H11 UNL     1       5.549  11.539  12.688  1.00  0.00     0.167 HD
ENDBRANCH  27  29
ENDBRANCH   4  27
BRANCH   1  31
HETATM   31  C2  UNL     1       3.164   7.394   9.095  1.00  0.00    -0.088 C 
HETATM   32  C1  UNL     1       2.702   8.248   8.162  1.00  0.00     0.014 C 
HETATM   33  C3  UNL     1       2.823   5.934   8.986  1.00  0.00     0.043 C 
ENDBRANCH   1  31
BRANCH   7  34
HETATM   34  C12 UNL     1       1.680   6.348  12.972  1.00  0.00     0.149 C 
HETATM   35  O3  UNL     1       1.730   5.825  11.871  1.00  0.00    -0.649 OA
BRANCH  34  36
HETATM   36  O4  UNL     1       1.340   5.567  14.006  1.00  0.00    -0.776 OA
HETATM   37  H16 UNL     1       1.203   4.690  13.589  1.00  0.00     0.167 HD
ENDBRANCH  34  36
ENDBRANCH   7  34
TORSDOF 5
ENDMDL
MODEL 9
REMARK minimizedAffinity -7.47846985
REMARK  5 active torsions:
REMARK  status: ('A' for Active; 'I' for Inactive)
REMARK    1  A    between atoms: C2_2  and  C4_4 
REMARK    2  A    between atoms: C7_7  and  C8_8 
REMARK    3  A    between atoms: C8_8  and  O2_10 
REMARK    4  A    between atoms: C11_13  and  C12_14 
REMARK    5  A    between atoms: C12_14  and  O4_16 
ROOT
HETATM    1  C4  UNL     1      -2.112   4.900  12.795  1.00  0.00     0.019 C 
HETATM    2  C5  UNL     1      -3.357   5.201  11.958  1.00  0.00     0.011 C 
HETATM    3  C6  UNL     1      -4.399   5.528  13.019  1.00  0.00     0.021 C 
HETATM    4  C7  UNL     1      -3.657   6.422  14.041  1.00  0.00     0.050 C 
HETATM    5  C9  UNL     1      -3.853   7.899  13.663  1.00  0.00     0.022 C 
HETATM    6  C10 UNL     1      -2.847   8.847  14.311  1.00  0.00     0.023 C 
HETATM    7  C11 UNL     1      -1.365   8.488  14.049  1.00  0.00     0.057 C 
HETATM    8  C13 UNL     1      -1.098   6.978  14.372  1.00  0.00     0.011 C 
HETATM    9  C14 UNL     1       0.361   6.595  14.090  1.00  0.00     0.007 C 
HETATM   10  C15 UNL     1       1.380   7.485  14.814  1.00  0.00     0.006 C 
HETATM   11  C16 UNL     1       1.131   8.998  14.602  1.00  0.00     0.003 C 
HETATM   12  C17 UNL     1       2.277   9.957  15.154  1.00  0.00    -0.035 C 
HETATM   13  C18 UNL     1       2.508   9.768  16.670  1.00  0.00     0.016 C 
HETATM   14  C19 UNL     1       3.610   9.608  14.422  1.00  0.00     0.017 C 
HETATM   15  C20 UNL     1       4.738  10.603  14.655  1.00  0.00     0.080 C 
HETATM   16  C21 UNL     1       4.317  12.015  14.334  1.00  0.00     0.135 C 
HETATM   17  O5  UNL     1       5.073  12.743  13.688  1.00  0.00    -0.297 OA
HETATM   18  C22 UNL     1       2.996  12.524  14.934  1.00  0.00     0.017 C 
HETATM   19  C23 UNL     1       3.252  12.937  16.391  1.00  0.00     0.023 C 
HETATM   20  C24 UNL     1       2.599  13.808  14.161  1.00  0.00     0.023 C 
HETATM   21  C25 UNL     1       1.891  11.428  14.740  1.00  0.00     0.009 C 
HETATM   22  C26 UNL     1       0.515  11.822  15.309  1.00  0.00     0.007 C 
HETATM   23  C27 UNL     1      -0.603  10.914  14.785  1.00  0.00     0.011 C 
HETATM   24  C28 UNL     1      -0.356   9.388  14.979  1.00  0.00    -0.022 C 
HETATM   25  C29 UNL     1      -0.625   9.131  16.501  1.00  0.00     0.017 C 
HETATM   26  C30 UNL     1      -2.174   5.907  13.995  1.00  0.00     0.018 C 
ENDROOT
BRANCH   4  27
HETATM   27  C8  UNL     1      -4.240   6.228  15.442  1.00  0.00     0.149 C 
HETATM   28  O1  UNL     1      -5.424   6.184  15.735  1.00  0.00    -0.649 OA
BRANCH  27  29
HETATM   29  O2  UNL     1      -3.309   6.019  16.394  1.00  0.00    -0.776 OA
HETATM   30  H11 UNL     1      -3.831   5.880  17.211  1.00  0.00     0.167 HD
ENDBRANCH  27  29
ENDBRANCH   4  27
BRANCH   1  31
HETATM   31  C2  UNL     1      -0.844   4.541  12.047  1.00  0.00    -0.088 C 
HETATM   32  C1  UNL     1      -0.263   3.342  12.240  1.00  0.00     0.014 C 
HETATM   33  C3  UNL     1      -0.294   5.463  10.995  1.00  0.00     0.043 C 
ENDBRANCH   1  31
BRANCH   7  34
HETATM   34  C12 UNL     1      -1.107   8.785  12.548  1.00  0.00     0.149 C 
HETATM   35  O3  UNL     1      -0.063   8.692  11.923  1.00  0.00    -0.649 OA
BRANCH  34  36
HETATM   36  O4  UNL     1      -2.176   9.249  11.887  1.00  0.00    -0.776 OA
HETATM   37  H16 UNL     1      -1.829   9.413  10.985  1.00  0.00     0.167 HD
ENDBRANCH  34  36
ENDBRANCH   7  34
TORSDOF 5
ENDMDL
