MODEL 1
REMARK minimizedAffinity -9.83901787
REMARK  9 active torsions:
REMARK  status: ('A' for Active; 'I' for Inactive)
REMARK    1  A    between atoms: C3_3  and  O1_4 
REMARK    2  A    between atoms: N1_14  and  O2_16 
REMARK    3  A    between atoms: O2_16  and  C13_17 
REMARK    4  A    between atoms: C13_17  and  C14_18 
REMARK       I    between atoms: C14_18  and  N2_20 
REMARK    5  A    between atoms: N2_20  and  C15_21 
REMARK    6  A    between atoms: C15_21  and  C16_22 
REMARK    7  A    between atoms: C15_21  and  C17_25 
REMARK    8  A    between atoms: C16_22  and  O5_24 
REMARK    9  A    between atoms: C17_25  and  C19_27 
ROOT
HETATM    1  C1  UNL     1      -2.164  51.011 -27.583  1.00  0.00     0.015 C 
HETATM    2  C2  UNL     1      -1.399  51.327 -26.713  1.00  0.00    -0.078 C 
HETATM    3  C3  UNL     1      -0.444  51.690 -25.655  1.00  0.00     0.128 C 
HETATM    4  C4  UNL     1       0.135  53.114 -25.841  1.00  0.00     0.052 C 
HETATM    5  C5  UNL     1       0.370  53.675 -24.421  1.00  0.00     0.010 C 
HETATM    6  C6  UNL     1       0.085  52.499 -23.490  1.00  0.00     0.002 C 
HETATM    7  C7  UNL     1      -0.230  52.783 -22.015  1.00  0.00    -0.004 C 
HETATM    8  C8  UNL     1       0.902  53.569 -21.342  1.00  0.00     0.010 C 
HETATM    9  C9  UNL     1       0.603  53.817 -19.869  1.00  0.00     0.035 C 
HETATM   10  C10 UNL     1       0.320  52.532 -19.126  1.00  0.00    -0.069 C 
HETATM   11  C11 UNL     1       0.977  52.270 -17.981  1.00  0.00     0.030 C 
HETATM   12  C12 UNL     1       0.658  51.085 -17.144  1.00  0.00     0.032 C 
HETATM   13  N1  UNL     1       1.390  50.869 -16.089  1.00  0.00    -0.271 N 
ATOM     14  H1  UNL     1       2.193  51.438 -15.819  1.00  0.00     0.194 HD
HETATM   15  C21 UNL     1      -0.538  50.247 -17.547  1.00  0.00     0.060 C 
HETATM   16  C22 UNL     1      -0.663  50.200 -19.064  1.00  0.00     0.020 C 
HETATM   17  C23 UNL     1      -0.736  51.601 -19.736  1.00  0.00    -0.016 C 
HETATM   18  C24 UNL     1      -2.131  52.211 -19.472  1.00  0.00     0.020 C 
HETATM   19  C25 UNL     1      -0.451  51.425 -21.277  1.00  0.00     0.002 C 
HETATM   20  C26 UNL     1      -1.488  50.532 -22.011  1.00  0.00     0.007 C 
HETATM   21  C27 UNL     1      -1.198  50.368 -23.514  1.00  0.00     0.014 C 
HETATM   22  C28 UNL     1      -1.041  51.726 -24.219  1.00  0.00     0.003 C 
HETATM   23  C29 UNL     1      -2.403  52.476 -24.206  1.00  0.00     0.020 C 
ENDROOT
BRANCH   3  24
HETATM   24  O1  UNL     1       0.648  50.766 -25.710  1.00  0.00    -0.377 OA
HETATM   25  H2  UNL     1       0.929  50.716 -26.641  1.00  0.00     0.211 HD
ENDBRANCH   3  24
BRANCH  13  26
HETATM   26  O2  UNL     1       0.932  49.755 -15.370  1.00  0.00    -0.271 OA
BRANCH  26  27
HETATM   27  C13 UNL     1       0.775  50.116 -14.007  1.00  0.00     0.303 C 
BRANCH  27  28
HETATM   28  C14 UNL     1      -0.676  49.933 -13.566  1.00  0.00     0.244 C 
HETATM   29  O3  UNL     1      -1.214  48.842 -13.406  1.00  0.00    -0.271 OA
HETATM   30  N2  UNL     1      -1.340  51.131 -13.346  1.00  0.00    -0.344 N 
HETATM   31  H16 UNL     1      -0.973  51.937 -13.838  1.00  0.00     0.163 HD
BRANCH  30  32
HETATM   32  C15 UNL     1      -2.783  51.140 -13.093  1.00  0.00     0.186 C 
BRANCH  32  33
HETATM   33  C16 UNL     1      -3.447  51.941 -14.218  1.00  0.00     0.163 C 
HETATM   34  O4  UNL     1      -3.571  51.584 -15.382  1.00  0.00    -0.648 OA
BRANCH  33  35
HETATM   35  O5  UNL     1      -3.874  53.159 -13.827  1.00  0.00    -0.775 OA
HETATM   36  H18 UNL     1      -4.290  53.538 -14.630  1.00  0.00     0.167 HD
ENDBRANCH  33  35
ENDBRANCH  32  33
BRANCH  32  37
HETATM   37  C17 UNL     1      -3.162  51.731 -11.714  1.00  0.00     0.014 C 
HETATM   38  C18 UNL     1      -4.099  50.832 -10.897  1.00  0.00     0.012 C 
BRANCH  37  39
HETATM   39  C19 UNL     1      -3.699  53.177 -11.809  1.00  0.00     0.002 C 
HETATM   40  C20 UNL     1      -4.008  53.871 -10.490  1.00  0.00     0.005 C 
ENDBRANCH  37  39
ENDBRANCH  32  37
ENDBRANCH  30  32
ENDBRANCH  27  28
ENDBRANCH  26  27
ENDBRANCH  13  26
TORSDOF 9
ENDMDL
MODEL 2
REMARK minimizedAffinity -9.48221302
REMARK  9 active torsions:
REMARK  status: ('A' for Active; 'I' for Inactive)
REMARK    1  A    between atoms: C3_3  and  O1_4 
REMARK    2  A    between atoms: N1_14  and  O2_16 
REMARK    3  A    between atoms: O2_16  and  C13_17 
REMARK    4  A    between atoms: C13_17  and  C14_18 
REMARK       I    between atoms: C14_18  and  N2_20 
REMARK    5  A    between atoms: N2_20  and  C15_21 
REMARK    6  A    between atoms: C15_21  and  C16_22 
REMARK    7  A    between atoms: C15_21  and  C17_25 
REMARK    8  A    between atoms: C16_22  and  O5_24 
REMARK    9  A    between atoms: C17_25  and  C19_27 
ROOT
HETATM    1  C1  UNL     1      -0.292  53.416 -28.167  1.00  0.00     0.015 C 
HETATM    2  C2  UNL     1      -0.980  52.803 -27.398  1.00  0.00    -0.078 C 
HETATM    3  C3  UNL     1      -1.844  52.075 -26.456  1.00  0.00     0.128 C 
HETATM    4  C4  UNL     1      -2.281  50.692 -26.999  1.00  0.00     0.052 C 
HETATM    5  C5  UNL     1      -2.393  49.760 -25.772  1.00  0.00     0.010 C 
HETATM    6  C6  UNL     1      -2.188  50.679 -24.571  1.00  0.00     0.002 C 
HETATM    7  C7  UNL     1      -1.779  50.061 -23.227  1.00  0.00    -0.004 C 
HETATM    8  C8  UNL     1      -2.793  49.006 -22.765  1.00  0.00     0.010 C 
HETATM    9  C9  UNL     1      -2.403  48.421 -21.413  1.00  0.00     0.035 C 
HETATM   10  C10 UNL     1      -2.221  49.493 -20.364  1.00  0.00    -0.069 C 
HETATM   11  C11 UNL     1      -2.849  49.375 -19.180  1.00  0.00     0.030 C 
HETATM   12  C12 UNL     1      -2.616  50.331 -18.066  1.00  0.00     0.032 C 
HETATM   13  N1  UNL     1      -3.318  50.183 -16.980  1.00  0.00    -0.271 N 
ATOM     14  H1  UNL     1      -4.045  49.479 -16.855  1.00  0.00     0.194 HD
HETATM   15  C21 UNL     1      -1.532  51.372 -18.256  1.00  0.00     0.060 C 
HETATM   16  C22 UNL     1      -1.481  51.823 -19.709  1.00  0.00     0.020 C 
HETATM   17  C23 UNL     1      -1.295  50.661 -20.727  1.00  0.00    -0.016 C 
HETATM   18  C24 UNL     1       0.166  50.162 -20.655  1.00  0.00     0.020 C 
HETATM   19  C25 UNL     1      -1.666  51.197 -22.163  1.00  0.00     0.002 C 
HETATM   20  C26 UNL     1      -0.761  52.359 -22.654  1.00  0.00     0.007 C 
HETATM   21  C27 UNL     1      -1.134  52.873 -24.056  1.00  0.00     0.014 C 
HETATM   22  C28 UNL     1      -1.182  51.735 -25.090  1.00  0.00     0.003 C 
HETATM   23  C29 UNL     1       0.250  51.163 -25.297  1.00  0.00     0.020 C 
ENDROOT
BRANCH   3  24
HETATM   24  O1  UNL     1      -3.026  52.854 -26.248  1.00  0.00    -0.377 OA
HETATM   25  H2  UNL     1      -3.352  53.112 -27.129  1.00  0.00     0.211 HD
ENDBRANCH   3  24
BRANCH  13  26
HETATM   26  O2  UNL     1      -2.945  51.117 -16.002  1.00  0.00    -0.271 OA
BRANCH  26  27
HETATM   27  C13 UNL     1      -1.714  50.714 -15.423  1.00  0.00     0.303 C 
BRANCH  27  28
HETATM   28  C14 UNL     1      -1.744  50.910 -13.907  1.00  0.00     0.244 C 
HETATM   29  O3  UNL     1      -1.347  50.077 -13.099  1.00  0.00    -0.271 OA
HETATM   30  N2  UNL     1      -2.257  52.139 -13.521  1.00  0.00    -0.344 N 
HETATM   31  H16 UNL     1      -2.881  52.586 -14.183  1.00  0.00     0.163 HD
BRANCH  30  32
HETATM   32  C15 UNL     1      -2.522  52.417 -12.106  1.00  0.00     0.186 C 
BRANCH  32  33
HETATM   33  C16 UNL     1      -3.886  53.110 -12.017  1.00  0.00     0.163 C 
HETATM   34  O4  UNL     1      -4.683  53.018 -11.092  1.00  0.00    -0.648 OA
BRANCH  33  35
HETATM   35  O5  UNL     1      -4.188  53.839 -13.110  1.00  0.00    -0.775 OA
HETATM   36  H18 UNL     1      -5.061  54.236 -12.903  1.00  0.00     0.167 HD
ENDBRANCH  33  35
ENDBRANCH  32  33
BRANCH  32  37
HETATM   37  C17 UNL     1      -1.431  53.284 -11.435  1.00  0.00     0.014 C 
HETATM   38  C18 UNL     1      -0.255  52.471 -10.881  1.00  0.00     0.012 C 
BRANCH  37  39
HETATM   39  C19 UNL     1      -2.003  54.253 -10.376  1.00  0.00     0.002 C 
HETATM   40  C20 UNL     1      -1.167  55.488 -10.068  1.00  0.00     0.005 C 
ENDBRANCH  37  39
ENDBRANCH  32  37
ENDBRANCH  30  32
ENDBRANCH  27  28
ENDBRANCH  26  27
ENDBRANCH  13  26
TORSDOF 9
ENDMDL
MODEL 3
REMARK minimizedAffinity -9.44743919
REMARK  9 active torsions:
REMARK  status: ('A' for Active; 'I' for Inactive)
REMARK    1  A    between atoms: C3_3  and  O1_4 
REMARK    2  A    between atoms: N1_14  and  O2_16 
REMARK    3  A    between atoms: O2_16  and  C13_17 
REMARK    4  A    between atoms: C13_17  and  C14_18 
REMARK       I    between atoms: C14_18  and  N2_20 
REMARK    5  A    between atoms: N2_20  and  C15_21 
REMARK    6  A    between atoms: C15_21  and  C16_22 
REMARK    7  A    between atoms: C15_21  and  C17_25 
REMARK    8  A    between atoms: C16_22  and  O5_24 
REMARK    9  A    between atoms: C17_25  and  C19_27 
ROOT
HETATM    1  C1  UNL     1      -2.136  51.042 -27.602  1.00  0.00     0.015 C 
HETATM    2  C2  UNL     1      -1.362  51.341 -26.734  1.00  0.00    -0.078 C 
HETATM    3  C3  UNL     1      -0.397  51.684 -25.679  1.00  0.00     0.128 C 
HETATM    4  C4  UNL     1       0.245  53.077 -25.889  1.00  0.00     0.052 C 
HETATM    5  C5  UNL     1       0.498  53.656 -24.480  1.00  0.00     0.010 C 
HETATM    6  C6  UNL     1       0.157  52.514 -23.527  1.00  0.00     0.002 C 
HETATM    7  C7  UNL     1      -0.152  52.841 -22.060  1.00  0.00    -0.004 C 
HETATM    8  C8  UNL     1       1.010  53.591 -21.397  1.00  0.00     0.010 C 
HETATM    9  C9  UNL     1       0.715  53.882 -19.931  1.00  0.00     0.035 C 
HETATM   10  C10 UNL     1       0.373  52.626 -19.163  1.00  0.00    -0.069 C 
HETATM   11  C11 UNL     1       1.012  52.359 -18.010  1.00  0.00     0.030 C 
HETATM   12  C12 UNL     1       0.637  51.207 -17.150  1.00  0.00     0.032 C 
HETATM   13  N1  UNL     1       1.354  50.981 -16.087  1.00  0.00    -0.271 N 
ATOM     14  H1  UNL     1       2.180  51.519 -15.824  1.00  0.00     0.194 HD
HETATM   15  C21 UNL     1      -0.592  50.414 -17.543  1.00  0.00     0.060 C 
HETATM   16  C22 UNL     1      -0.712  50.342 -19.059  1.00  0.00     0.020 C 
HETATM   17  C23 UNL     1      -0.721  51.730 -19.761  1.00  0.00    -0.016 C 
HETATM   18  C24 UNL     1      -2.088  52.406 -19.517  1.00  0.00     0.020 C 
HETATM   19  C25 UNL     1      -0.436  51.510 -21.296  1.00  0.00     0.002 C 
HETATM   20  C26 UNL     1      -1.508  50.648 -22.017  1.00  0.00     0.007 C 
HETATM   21  C27 UNL     1      -1.218  50.441 -23.515  1.00  0.00     0.014 C 
HETATM   22  C28 UNL     1      -0.998  51.776 -24.246  1.00  0.00     0.003 C 
HETATM   23  C29 UNL     1      -2.327  52.586 -24.257  1.00  0.00     0.020 C 
ENDROOT
BRANCH   3  24
HETATM   24  O1  UNL     1       0.653  50.712 -25.708  1.00  0.00    -0.377 OA
HETATM   25  H2  UNL     1       0.936  50.630 -26.636  1.00  0.00     0.211 HD
ENDBRANCH   3  24
BRANCH  13  26
HETATM   26  O2  UNL     1       0.844  49.903 -15.348  1.00  0.00    -0.271 OA
BRANCH  26  27
HETATM   27  C13 UNL     1       0.900  50.221 -13.967  1.00  0.00     0.303 C 
BRANCH  27  28
HETATM   28  C14 UNL     1       0.089  51.482 -13.672  1.00  0.00     0.244 C 
HETATM   29  O3  UNL     1       0.414  52.609 -14.032  1.00  0.00    -0.271 OA
HETATM   30  N2  UNL     1      -1.075  51.235 -12.959  1.00  0.00    -0.344 N 
HETATM   31  H16 UNL     1      -1.081  50.389 -12.401  1.00  0.00     0.163 HD
BRANCH  30  32
HETATM   32  C15 UNL     1      -1.875  52.348 -12.441  1.00  0.00     0.186 C 
BRANCH  32  33
HETATM   33  C16 UNL     1      -1.208  52.836 -11.150  1.00  0.00     0.163 C 
HETATM   34  O4  UNL     1      -1.011  52.170 -10.143  1.00  0.00    -0.648 OA
BRANCH  33  35
HETATM   35  O5  UNL     1      -0.871  54.141 -11.184  1.00  0.00    -0.775 OA
HETATM   36  H18 UNL     1      -0.442  54.302 -10.317  1.00  0.00     0.167 HD
ENDBRANCH  33  35
ENDBRANCH  32  33
BRANCH  32  37
HETATM   37  C17 UNL     1      -3.352  51.973 -12.176  1.00  0.00     0.014 C 
HETATM   38  C18 UNL     1      -4.110  53.014 -11.344  1.00  0.00     0.012 C 
BRANCH  37  39
HETATM   39  C19 UNL     1      -3.515  50.550 -11.595  1.00  0.00     0.002 C 
HETATM   40  C20 UNL     1      -4.623  50.362 -10.569  1.00  0.00     0.005 C 
ENDBRANCH  37  39
ENDBRANCH  32  37
ENDBRANCH  30  32
ENDBRANCH  27  28
ENDBRANCH  26  27
ENDBRANCH  13  26
TORSDOF 9
ENDMDL
MODEL 4
REMARK minimizedAffinity -9.16659451
REMARK  9 active torsions:
REMARK  status: ('A' for Active; 'I' for Inactive)
REMARK    1  A    between atoms: C3_3  and  O1_4 
REMARK    2  A    between atoms: N1_14  and  O2_16 
REMARK    3  A    between atoms: O2_16  and  C13_17 
REMARK    4  A    between atoms: C13_17  and  C14_18 
REMARK       I    between atoms: C14_18  and  N2_20 
REMARK    5  A    between atoms: N2_20  and  C15_21 
REMARK    6  A    between atoms: C15_21  and  C16_22 
REMARK    7  A    between atoms: C15_21  and  C17_25 
REMARK    8  A    between atoms: C16_22  and  O5_24 
REMARK    9  A    between atoms: C17_25  and  C19_27 
ROOT
HETATM    1  C1  UNL     1      -0.244  53.501 -28.286  1.00  0.00     0.015 C 
HETATM    2  C2  UNL     1      -0.937  52.844 -27.559  1.00  0.00    -0.078 C 
HETATM    3  C3  UNL     1      -1.807  52.061 -26.668  1.00  0.00     0.128 C 
HETATM    4  C4  UNL     1      -2.202  50.693 -27.275  1.00  0.00     0.052 C 
HETATM    5  C5  UNL     1      -2.323  49.710 -26.090  1.00  0.00     0.010 C 
HETATM    6  C6  UNL     1      -2.166  50.584 -24.848  1.00  0.00     0.002 C 
HETATM    7  C7  UNL     1      -1.775  49.920 -23.521  1.00  0.00    -0.004 C 
HETATM    8  C8  UNL     1      -2.776  48.827 -23.126  1.00  0.00     0.010 C 
HETATM    9  C9  UNL     1      -2.406  48.196 -21.789  1.00  0.00     0.035 C 
HETATM   10  C10 UNL     1      -2.271  49.228 -20.694  1.00  0.00    -0.069 C 
HETATM   11  C11 UNL     1      -2.923  49.050 -19.531  1.00  0.00     0.030 C 
HETATM   12  C12 UNL     1      -2.736  49.964 -18.375  1.00  0.00     0.032 C 
HETATM   13  N1  UNL     1      -3.459  49.759 -17.312  1.00  0.00    -0.271 N 
ATOM     14  H1  UNL     1      -4.174  49.036 -17.233  1.00  0.00     0.194 HD
HETATM   15  C21 UNL     1      -1.670  51.033 -18.497  1.00  0.00     0.060 C 
HETATM   16  C22 UNL     1      -1.595  51.544 -19.930  1.00  0.00     0.020 C 
HETATM   17  C23 UNL     1      -1.361  50.428 -20.988  1.00  0.00    -0.016 C 
HETATM   18  C24 UNL     1       0.108  49.956 -20.901  1.00  0.00     0.020 C 
HETATM   19  C25 UNL     1      -1.710  51.014 -22.410  1.00  0.00     0.002 C 
HETATM   20  C26 UNL     1      -0.818  52.213 -22.832  1.00  0.00     0.007 C 
HETATM   21  C27 UNL     1      -1.169  52.776 -24.222  1.00  0.00     0.014 C 
HETATM   22  C28 UNL     1      -1.170  51.679 -25.300  1.00  0.00     0.003 C 
HETATM   23  C29 UNL     1       0.278  51.145 -25.496  1.00  0.00     0.020 C 
ENDROOT
BRANCH   3  24
HETATM   24  O1  UNL     1      -3.010  52.808 -26.457  1.00  0.00    -0.377 OA
HETATM   25  H2  UNL     1      -3.321  53.094 -27.334  1.00  0.00     0.211 HD
ENDBRANCH   3  24
BRANCH  13  26
HETATM   26  O2  UNL     1      -3.128  50.660 -16.289  1.00  0.00    -0.271 OA
BRANCH  26  27
HETATM   27  C13 UNL     1      -2.827  49.931 -15.110  1.00  0.00     0.303 C 
BRANCH  27  28
HETATM   28  C14 UNL     1      -1.315  49.842 -14.906  1.00  0.00     0.244 C 
HETATM   29  O3  UNL     1      -0.693  48.787 -14.828  1.00  0.00    -0.271 OA
HETATM   30  N2  UNL     1      -0.696  51.080 -14.826  1.00  0.00    -0.344 N 
HETATM   31  H16 UNL     1      -1.284  51.851 -14.530  1.00  0.00     0.163 HD
BRANCH  30  32
HETATM   32  C15 UNL     1       0.718  51.176 -14.453  1.00  0.00     0.186 C 
BRANCH  32  33
HETATM   33  C16 UNL     1       0.786  51.739 -13.029  1.00  0.00     0.163 C 
HETATM   34  O4  UNL     1       0.699  51.093 -11.993  1.00  0.00    -0.648 OA
BRANCH  33  35
HETATM   35  O5  UNL     1       0.913  53.081 -12.990  1.00  0.00    -0.775 OA
HETATM   36  H18 UNL     1       0.966  53.290 -12.033  1.00  0.00     0.167 HD
ENDBRANCH  33  35
ENDBRANCH  32  33
BRANCH  32  37
HETATM   37  C17 UNL     1       1.551  52.052 -15.419  1.00  0.00     0.014 C 
HETATM   38  C18 UNL     1       1.077  51.979 -16.876  1.00  0.00     0.012 C 
BRANCH  37  39
HETATM   39  C19 UNL     1       3.070  51.798 -15.300  1.00  0.00     0.002 C 
HETATM   40  C20 UNL     1       3.980  52.804 -15.991  1.00  0.00     0.005 C 
ENDBRANCH  37  39
ENDBRANCH  32  37
ENDBRANCH  30  32
ENDBRANCH  27  28
ENDBRANCH  26  27
ENDBRANCH  13  26
TORSDOF 9
ENDMDL
MODEL 5
REMARK minimizedAffinity -9.110322
REMARK  9 active torsions:
REMARK  status: ('A' for Active; 'I' for Inactive)
REMARK    1  A    between atoms: C3_3  and  O1_4 
REMARK    2  A    between atoms: N1_14  and  O2_16 
REMARK    3  A    between atoms: O2_16  and  C13_17 
REMARK    4  A    between atoms: C13_17  and  C14_18 
REMARK       I    between atoms: C14_18  and  N2_20 
REMARK    5  A    between atoms: N2_20  and  C15_21 
REMARK    6  A    between atoms: C15_21  and  C16_22 
REMARK    7  A    between atoms: C15_21  and  C17_25 
REMARK    8  A    between atoms: C16_22  and  O5_24 
REMARK    9  A    between atoms: C17_25  and  C19_27 
ROOT
HETATM    1  C1  UNL     1       1.467  54.498 -22.513  1.00  0.00     0.015 C 
HETATM    2  C2  UNL     1       0.854  53.904 -23.358  1.00  0.00    -0.078 C 
HETATM    3  C3  UNL     1       0.090  53.202 -24.401  1.00  0.00     0.128 C 
HETATM    4  C4  UNL     1       1.002  52.439 -25.393  1.00  0.00     0.052 C 
HETATM    5  C5  UNL     1       0.218  51.180 -25.822  1.00  0.00     0.010 C 
HETATM    6  C6  UNL     1      -1.166  51.358 -25.203  1.00  0.00     0.002 C 
HETATM    7  C7  UNL     1      -2.061  50.124 -25.025  1.00  0.00    -0.004 C 
HETATM    8  C8  UNL     1      -2.302  49.410 -26.361  1.00  0.00     0.010 C 
HETATM    9  C9  UNL     1      -3.221  48.207 -26.186  1.00  0.00     0.035 C 
HETATM   10  C10 UNL     1      -4.529  48.586 -25.531  1.00  0.00    -0.069 C 
HETATM   11  C11 UNL     1      -5.688  48.204 -26.097  1.00  0.00     0.030 C 
HETATM   12  C12 UNL     1      -7.000  48.441 -25.442  1.00  0.00     0.032 C 
HETATM   13  N1  UNL     1      -8.077  48.103 -26.092  1.00  0.00    -0.271 N 
ATOM     14  H1  UNL     1      -8.082  47.722 -27.038  1.00  0.00     0.194 HD
HETATM   15  C21 UNL     1      -6.986  49.003 -24.035  1.00  0.00     0.060 C 
HETATM   16  C22 UNL     1      -5.831  49.981 -23.869  1.00  0.00     0.020 C 
HETATM   17  C23 UNL     1      -4.439  49.383 -24.224  1.00  0.00    -0.016 C 
HETATM   18  C24 UNL     1      -4.006  48.420 -23.096  1.00  0.00     0.020 C 
HETATM   19  C25 UNL     1      -3.422  50.574 -24.406  1.00  0.00     0.002 C 
HETATM   20  C26 UNL     1      -3.218  51.429 -23.126  1.00  0.00     0.007 C 
HETATM   21  C27 UNL     1      -2.223  52.588 -23.317  1.00  0.00     0.014 C 
HETATM   22  C28 UNL     1      -0.876  52.101 -23.877  1.00  0.00     0.003 C 
HETATM   23  C29 UNL     1      -0.169  51.205 -22.818  1.00  0.00     0.020 C 
ENDROOT
BRANCH   3  24
HETATM   24  O1  UNL     1      -0.641  54.181 -25.146  1.00  0.00    -0.377 OA
HETATM   25  H2  UNL     1      -0.012  54.887 -25.377  1.00  0.00     0.211 HD
ENDBRANCH   3  24
BRANCH  13  26
HETATM   26  O2  UNL     1      -9.228  48.329 -25.323  1.00  0.00    -0.271 OA
BRANCH  26  27
HETATM   27  C13 UNL     1     -10.181  47.318 -25.608  1.00  0.00     0.303 C 
BRANCH  27  28
HETATM   28  C14 UNL     1     -10.039  46.838 -27.052  1.00  0.00     0.244 C 
HETATM   29  O3  UNL     1      -9.852  45.668 -27.372  1.00  0.00    -0.271 OA
HETATM   30  N2  UNL     1     -10.155  47.857 -27.985  1.00  0.00    -0.344 N 
HETATM   31  H16 UNL     1      -9.937  48.789 -27.652  1.00  0.00     0.163 HD
BRANCH  30  32
HETATM   32  C15 UNL     1      -9.866  47.600 -29.399  1.00  0.00     0.186 C 
BRANCH  32  33
HETATM   33  C16 UNL     1      -8.930  48.709 -29.891  1.00  0.00     0.163 C 
HETATM   34  O4  UNL     1      -8.471  48.818 -31.020  1.00  0.00    -0.648 OA
BRANCH  33  35
HETATM   35  O5  UNL     1      -8.590  49.589 -28.927  1.00  0.00    -0.775 OA
HETATM   36  H18 UNL     1      -8.019  50.241 -29.385  1.00  0.00     0.167 HD
ENDBRANCH  33  35
ENDBRANCH  32  33
BRANCH  32  37
HETATM   37  C17 UNL     1     -11.134  47.533 -30.283  1.00  0.00     0.014 C 
HETATM   38  C18 UNL     1     -12.438  47.753 -29.505  1.00  0.00     0.012 C 
BRANCH  37  39
HETATM   39  C19 UNL     1     -11.195  46.254 -31.147  1.00  0.00     0.002 C 
HETATM   40  C20 UNL     1     -10.602  46.354 -32.546  1.00  0.00     0.005 C 
ENDBRANCH  37  39
ENDBRANCH  32  37
ENDBRANCH  30  32
ENDBRANCH  27  28
ENDBRANCH  26  27
ENDBRANCH  13  26
TORSDOF 9
ENDMDL
MODEL 6
REMARK minimizedAffinity -9.03953266
REMARK  9 active torsions:
REMARK  status: ('A' for Active; 'I' for Inactive)
REMARK    1  A    between atoms: C3_3  and  O1_4 
REMARK    2  A    between atoms: N1_14  and  O2_16 
REMARK    3  A    between atoms: O2_16  and  C13_17 
REMARK    4  A    between atoms: C13_17  and  C14_18 
REMARK       I    between atoms: C14_18  and  N2_20 
REMARK    5  A    between atoms: N2_20  and  C15_21 
REMARK    6  A    between atoms: C15_21  and  C16_22 
REMARK    7  A    between atoms: C15_21  and  C17_25 
REMARK    8  A    between atoms: C16_22  and  O5_24 
REMARK    9  A    between atoms: C17_25  and  C19_27 
ROOT
HETATM    1  C1  UNL     1      -0.873  51.737 -27.368  1.00  0.00     0.015 C 
HETATM    2  C2  UNL     1      -1.428  51.970 -26.329  1.00  0.00    -0.078 C 
HETATM    3  C3  UNL     1      -2.093  52.282 -25.055  1.00  0.00     0.128 C 
HETATM    4  C4  UNL     1      -3.637  52.234 -25.164  1.00  0.00     0.052 C 
HETATM    5  C5  UNL     1      -4.154  51.736 -23.796  1.00  0.00     0.010 C 
HETATM    6  C6  UNL     1      -2.911  51.686 -22.911  1.00  0.00     0.002 C 
HETATM    7  C7  UNL     1      -2.940  50.821 -21.644  1.00  0.00    -0.004 C 
HETATM    8  C8  UNL     1      -4.088  51.230 -20.712  1.00  0.00     0.010 C 
HETATM    9  C9  UNL     1      -4.091  50.394 -19.439  1.00  0.00     0.035 C 
HETATM   10  C10 UNL     1      -2.763  50.453 -18.720  1.00  0.00    -0.069 C 
HETATM   11  C11 UNL     1      -2.733  50.747 -17.408  1.00  0.00     0.030 C 
HETATM   12  C12 UNL     1      -1.474  50.703 -16.620  1.00  0.00     0.032 C 
HETATM   13  N1  UNL     1      -1.522  51.071 -15.372  1.00  0.00    -0.271 N 
ATOM     14  H1  UNL     1      -2.359  51.425 -14.908  1.00  0.00     0.194 HD
HETATM   15  C21 UNL     1      -0.235  50.174 -17.313  1.00  0.00     0.060 C 
HETATM   16  C22 UNL     1      -0.236  50.580 -18.780  1.00  0.00     0.020 C 
HETATM   17  C23 UNL     1      -1.514  50.148 -19.556  1.00  0.00    -0.016 C 
HETATM   18  C24 UNL     1      -1.456  48.624 -19.805  1.00  0.00     0.020 C 
HETATM   19  C25 UNL     1      -1.573  50.964 -20.904  1.00  0.00     0.002 C 
HETATM   20  C26 UNL     1      -0.373  50.700 -21.854  1.00  0.00     0.007 C 
HETATM   21  C27 UNL     1      -0.443  51.503 -23.165  1.00  0.00     0.014 C 
HETATM   22  C28 UNL     1      -1.782  51.295 -23.894  1.00  0.00     0.003 C 
HETATM   23  C29 UNL     1      -1.881  49.820 -24.382  1.00  0.00     0.020 C 
ENDROOT
BRANCH   3  24
HETATM   24  O1  UNL     1      -1.725  53.613 -24.679  1.00  0.00    -0.377 OA
HETATM   25  H2  UNL     1      -1.858  54.175 -25.463  1.00  0.00     0.211 HD
ENDBRANCH   3  24
BRANCH  13  26
HETATM   26  O2  UNL     1      -0.275  50.918 -14.747  1.00  0.00    -0.271 OA
BRANCH  26  27
HETATM   27  C13 UNL     1      -0.061  52.010 -13.868  1.00  0.00     0.303 C 
BRANCH  27  28
HETATM   28  C14 UNL     1      -0.789  51.784 -12.543  1.00  0.00     0.244 C 
HETATM   29  O3  UNL     1      -0.721  50.749 -11.888  1.00  0.00    -0.271 OA
HETATM   30  N2  UNL     1      -1.538  52.878 -12.133  1.00  0.00    -0.344 N 
HETATM   31  H16 UNL     1      -1.836  53.510 -12.868  1.00  0.00     0.163 HD
BRANCH  30  32
HETATM   32  C15 UNL     1      -2.438  52.767 -10.982  1.00  0.00     0.186 C 
BRANCH  32  33
HETATM   33  C16 UNL     1      -3.875  52.876 -11.503  1.00  0.00     0.163 C 
HETATM   34  O4  UNL     1      -4.258  53.591 -12.419  1.00  0.00    -0.648 OA
BRANCH  33  35
HETATM   35  O5  UNL     1      -4.752  52.118 -10.814  1.00  0.00    -0.775 OA
HETATM   36  H18 UNL     1      -5.609  52.268 -11.267  1.00  0.00     0.167 HD
ENDBRANCH  33  35
ENDBRANCH  32  33
BRANCH  32  37
HETATM   37  C17 UNL     1      -2.176  53.834  -9.893  1.00  0.00     0.014 C 
HETATM   38  C18 UNL     1      -1.218  54.945 -10.339  1.00  0.00     0.012 C 
BRANCH  37  39
HETATM   39  C19 UNL     1      -1.746  53.219  -8.542  1.00  0.00     0.002 C 
HETATM   40  C20 UNL     1      -1.928  51.714  -8.397  1.00  0.00     0.005 C 
ENDBRANCH  37  39
ENDBRANCH  32  37
ENDBRANCH  30  32
ENDBRANCH  27  28
ENDBRANCH  26  27
ENDBRANCH  13  26
TORSDOF 9
ENDMDL
MODEL 7
REMARK minimizedAffinity -8.91790771
REMARK  9 active torsions:
REMARK  status: ('A' for Active; 'I' for Inactive)
REMARK    1  A    between atoms: C3_3  and  O1_4 
REMARK    2  A    between atoms: N1_14  and  O2_16 
REMARK    3  A    between atoms: O2_16  and  C13_17 
REMARK    4  A    between atoms: C13_17  and  C14_18 
REMARK       I    between atoms: C14_18  and  N2_20 
REMARK    5  A    between atoms: N2_20  and  C15_21 
REMARK    6  A    between atoms: C15_21  and  C16_22 
REMARK    7  A    between atoms: C15_21  and  C17_25 
REMARK    8  A    between atoms: C16_22  and  O5_24 
REMARK    9  A    between atoms: C17_25  and  C19_27 
ROOT
HETATM    1  C1  UNL     1      -0.100  53.413 -28.595  1.00  0.00     0.015 C 
HETATM    2  C2  UNL     1      -0.810  52.826 -27.825  1.00  0.00    -0.078 C 
HETATM    3  C3  UNL     1      -1.699  52.132 -26.881  1.00  0.00     0.128 C 
HETATM    4  C4  UNL     1      -2.215  50.781 -27.435  1.00  0.00     0.052 C 
HETATM    5  C5  UNL     1      -2.361  49.840 -26.219  1.00  0.00     0.010 C 
HETATM    6  C6  UNL     1      -2.093  50.731 -25.009  1.00  0.00     0.002 C 
HETATM    7  C7  UNL     1      -1.700  50.073 -23.679  1.00  0.00    -0.004 C 
HETATM    8  C8  UNL     1      -2.762  49.067 -23.217  1.00  0.00     0.010 C 
HETATM    9  C9  UNL     1      -2.387  48.443 -21.879  1.00  0.00     0.035 C 
HETATM   10  C10 UNL     1      -2.135  49.490 -20.818  1.00  0.00    -0.069 C 
HETATM   11  C11 UNL     1      -2.753  49.389 -19.628  1.00  0.00     0.030 C 
HETATM   12  C12 UNL     1      -2.456  50.316 -18.505  1.00  0.00     0.032 C 
HETATM   13  N1  UNL     1      -3.151  50.190 -17.411  1.00  0.00    -0.271 N 
ATOM     14  H1  UNL     1      -3.913  49.524 -17.285  1.00  0.00     0.194 HD
HETATM   15  C21 UNL     1      -1.321  51.301 -18.695  1.00  0.00     0.060 C 
HETATM   16  C22 UNL     1      -1.265  51.768 -20.143  1.00  0.00     0.020 C 
HETATM   17  C23 UNL     1      -1.153  50.612 -21.178  1.00  0.00    -0.016 C 
HETATM   18  C24 UNL     1       0.280  50.036 -21.132  1.00  0.00     0.020 C 
HETATM   19  C25 UNL     1      -1.513  51.187 -22.602  1.00  0.00     0.002 C 
HETATM   20  C26 UNL     1      -0.554  52.306 -23.090  1.00  0.00     0.007 C 
HETATM   21  C27 UNL     1      -0.917  52.858 -24.480  1.00  0.00     0.014 C 
HETATM   22  C28 UNL     1      -1.039  51.739 -25.528  1.00  0.00     0.003 C 
HETATM   23  C29 UNL     1       0.358  51.095 -25.762  1.00  0.00     0.020 C 
ENDROOT
BRANCH   3  24
HETATM   24  O1  UNL     1      -2.835  52.969 -26.647  1.00  0.00    -0.377 OA
HETATM   25  H2  UNL     1      -3.159  53.256 -27.519  1.00  0.00     0.211 HD
ENDBRANCH   3  24
BRANCH  13  26
HETATM   26  O2  UNL     1      -2.716  51.090 -16.426  1.00  0.00    -0.271 OA
BRANCH  26  27
HETATM   27  C13 UNL     1      -2.886  50.496 -15.149  1.00  0.00     0.303 C 
BRANCH  27  28
HETATM   28  C14 UNL     1      -3.076  51.568 -14.078  1.00  0.00     0.244 C 
HETATM   29  O3  UNL     1      -3.846  52.518 -14.185  1.00  0.00    -0.271 OA
HETATM   30  N2  UNL     1      -2.297  51.364 -12.949  1.00  0.00    -0.344 N 
HETATM   31  H16 UNL     1      -1.458  50.811 -13.084  1.00  0.00     0.163 HD
BRANCH  30  32
HETATM   32  C15 UNL     1      -2.223  52.390 -11.906  1.00  0.00     0.186 C 
BRANCH  32  33
HETATM   33  C16 UNL     1      -1.138  51.965 -10.911  1.00  0.00     0.163 C 
HETATM   34  O4  UNL     1      -0.774  52.595  -9.927  1.00  0.00    -0.648 OA
BRANCH  33  35
HETATM   35  O5  UNL     1      -0.544  50.798 -11.234  1.00  0.00    -0.775 OA
HETATM   36  H18 UNL     1       0.098  50.645 -10.509  1.00  0.00     0.167 HD
ENDBRANCH  33  35
ENDBRANCH  32  33
BRANCH  32  37
HETATM   37  C17 UNL     1      -3.567  52.619 -11.173  1.00  0.00     0.014 C 
HETATM   38  C18 UNL     1      -3.830  54.088 -10.818  1.00  0.00     0.012 C 
BRANCH  37  39
HETATM   39  C19 UNL     1      -3.746  51.695  -9.947  1.00  0.00     0.002 C 
HETATM   40  C20 UNL     1      -3.991  50.222 -10.242  1.00  0.00     0.005 C 
ENDBRANCH  37  39
ENDBRANCH  32  37
ENDBRANCH  30  32
ENDBRANCH  27  28
ENDBRANCH  26  27
ENDBRANCH  13  26
TORSDOF 9
ENDMDL
MODEL 8
REMARK minimizedAffinity -8.90964413
REMARK  9 active torsions:
REMARK  status: ('A' for Active; 'I' for Inactive)
REMARK    1  A    between atoms: C3_3  and  O1_4 
REMARK    2  A    between atoms: N1_14  and  O2_16 
REMARK    3  A    between atoms: O2_16  and  C13_17 
REMARK    4  A    between atoms: C13_17  and  C14_18 
REMARK       I    between atoms: C14_18  and  N2_20 
REMARK    5  A    between atoms: N2_20  and  C15_21 
REMARK    6  A    between atoms: C15_21  and  C16_22 
REMARK    7  A    between atoms: C15_21  and  C17_25 
REMARK    8  A    between atoms: C16_22  and  O5_24 
REMARK    9  A    between atoms: C17_25  and  C19_27 
ROOT
HETATM    1  C1  UNL     1       1.509  54.476 -22.517  1.00  0.00     0.015 C 
HETATM    2  C2  UNL     1       0.868  53.879 -23.338  1.00  0.00    -0.078 C 
HETATM    3  C3  UNL     1       0.070  53.175 -24.353  1.00  0.00     0.128 C 
HETATM    4  C4  UNL     1       0.947  52.379 -25.351  1.00  0.00     0.052 C 
HETATM    5  C5  UNL     1       0.131  51.127 -25.743  1.00  0.00     0.010 C 
HETATM    6  C6  UNL     1      -1.236  51.341 -25.098  1.00  0.00     0.002 C 
HETATM    7  C7  UNL     1      -2.149  50.127 -24.881  1.00  0.00    -0.004 C 
HETATM    8  C8  UNL     1      -2.431  49.395 -26.199  1.00  0.00     0.010 C 
HETATM    9  C9  UNL     1      -3.368  48.213 -25.985  1.00  0.00     0.035 C 
HETATM   10  C10 UNL     1      -4.654  48.626 -25.310  1.00  0.00    -0.069 C 
HETATM   11  C11 UNL     1      -5.832  48.257 -25.845  1.00  0.00     0.030 C 
HETATM   12  C12 UNL     1      -7.126  48.528 -25.166  1.00  0.00     0.032 C 
HETATM   13  N1  UNL     1      -8.221  48.199 -25.787  1.00  0.00    -0.271 N 
ATOM     14  H1  UNL     1      -8.254  47.803 -26.727  1.00  0.00     0.194 HD
HETATM   15  C21 UNL     1      -7.071  49.113 -23.769  1.00  0.00     0.060 C 
HETATM   16  C22 UNL     1      -5.895  50.072 -23.644  1.00  0.00     0.020 C 
HETATM   17  C23 UNL     1      -4.522  49.443 -24.017  1.00  0.00    -0.016 C 
HETATM   18  C24 UNL     1      -4.083  48.490 -22.884  1.00  0.00     0.020 C 
HETATM   19  C25 UNL     1      -3.488  50.612 -24.241  1.00  0.00     0.002 C 
HETATM   20  C26 UNL     1      -3.241  51.484 -22.980  1.00  0.00     0.007 C 
HETATM   21  C27 UNL     1      -2.230  52.621 -23.211  1.00  0.00     0.014 C 
HETATM   22  C28 UNL     1      -0.904  52.100 -23.791  1.00  0.00     0.003 C 
HETATM   23  C29 UNL     1      -0.192  51.209 -22.733  1.00  0.00     0.020 C 
ENDROOT
BRANCH   3  24
HETATM   24  O1  UNL     1      -0.659  54.154 -25.100  1.00  0.00    -0.377 OA
HETATM   25  H2  UNL     1      -0.022  54.845 -25.356  1.00  0.00     0.211 HD
ENDBRANCH   3  24
BRANCH  13  26
HETATM   26  O2  UNL     1      -9.352  48.459 -24.999  1.00  0.00    -0.271 OA
BRANCH  26  27
HETATM   27  C13 UNL     1     -10.105  47.265 -24.861  1.00  0.00     0.303 C 
BRANCH  27  28
HETATM   28  C14 UNL     1     -11.194  47.191 -25.930  1.00  0.00     0.244 C 
HETATM   29  O3  UNL     1     -12.282  47.751 -25.844  1.00  0.00    -0.271 OA
HETATM   30  N2  UNL     1     -10.833  46.430 -27.032  1.00  0.00    -0.344 N 
HETATM   31  H16 UNL     1     -10.119  45.729 -26.871  1.00  0.00     0.163 HD
BRANCH  30  32
HETATM   32  C15 UNL     1     -11.822  46.108 -28.064  1.00  0.00     0.186 C 
BRANCH  32  33
HETATM   33  C16 UNL     1     -11.991  47.347 -28.949  1.00  0.00     0.163 C 
HETATM   34  O4  UNL     1     -12.575  47.393 -30.023  1.00  0.00    -0.648 OA
BRANCH  33  35
HETATM   35  O5  UNL     1     -11.379  48.443 -28.456  1.00  0.00    -0.775 OA
HETATM   36  H18 UNL     1     -11.589  49.150 -29.103  1.00  0.00     0.167 HD
ENDBRANCH  33  35
ENDBRANCH  32  33
BRANCH  32  37
HETATM   37  C17 UNL     1     -13.189  45.666 -27.489  1.00  0.00     0.014 C 
HETATM   38  C18 UNL     1     -13.187  44.237 -26.932  1.00  0.00     0.012 C 
BRANCH  37  39
HETATM   39  C19 UNL     1     -14.356  45.892 -28.477  1.00  0.00     0.002 C 
HETATM   40  C20 UNL     1     -15.462  44.845 -28.467  1.00  0.00     0.005 C 
ENDBRANCH  37  39
ENDBRANCH  32  37
ENDBRANCH  30  32
ENDBRANCH  27  28
ENDBRANCH  26  27
ENDBRANCH  13  26
TORSDOF 9
ENDMDL
MODEL 9
REMARK minimizedAffinity -8.86064529
REMARK  9 active torsions:
REMARK  status: ('A' for Active; 'I' for Inactive)
REMARK    1  A    between atoms: C3_3  and  O1_4 
REMARK    2  A    between atoms: N1_14  and  O2_16 
REMARK    3  A    between atoms: O2_16  and  C13_17 
REMARK    4  A    between atoms: C13_17  and  C14_18 
REMARK       I    between atoms: C14_18  and  N2_20 
REMARK    5  A    between atoms: N2_20  and  C15_21 
REMARK    6  A    between atoms: C15_21  and  C16_22 
REMARK    7  A    between atoms: C15_21  and  C17_25 
REMARK    8  A    between atoms: C16_22  and  O5_24 
REMARK    9  A    between atoms: C17_25  and  C19_27 
ROOT
HETATM    1  C1  UNL     1      -2.644  51.319 -27.666  1.00  0.00     0.015 C 
HETATM    2  C2  UNL     1      -1.888  51.476 -26.747  1.00  0.00    -0.078 C 
HETATM    3  C3  UNL     1      -0.946  51.646 -25.630  1.00  0.00     0.128 C 
HETATM    4  C4  UNL     1      -0.308  53.056 -25.600  1.00  0.00     0.052 C 
HETATM    5  C5  UNL     1      -0.085  53.401 -24.111  1.00  0.00     0.010 C 
HETATM    6  C6  UNL     1      -0.439  52.118 -23.363  1.00  0.00     0.002 C 
HETATM    7  C7  UNL     1      -0.778  52.203 -21.868  1.00  0.00    -0.004 C 
HETATM    8  C8  UNL     1       0.367  52.839 -21.070  1.00  0.00     0.010 C 
HETATM    9  C9  UNL     1       0.042  52.888 -19.582  1.00  0.00     0.035 C 
HETATM   10  C10 UNL     1      -0.309  51.524 -19.034  1.00  0.00    -0.069 C 
HETATM   11  C11 UNL     1       0.309  51.076 -17.926  1.00  0.00     0.030 C 
HETATM   12  C12 UNL     1      -0.075  49.798 -17.272  1.00  0.00     0.032 C 
HETATM   13  N1  UNL     1       0.622  49.405 -16.245  1.00  0.00    -0.271 N 
ATOM     14  H1  UNL     1       1.439  49.896 -15.882  1.00  0.00     0.194 HD
HETATM   15  C21 UNL     1      -1.293  49.077 -17.812  1.00  0.00     0.060 C 
HETATM   16  C22 UNL     1      -1.383  49.251 -19.322  1.00  0.00     0.020 C 
HETATM   17  C23 UNL     1      -1.385  50.734 -19.790  1.00  0.00    -0.016 C 
HETATM   18  C24 UNL     1      -2.761  51.358 -19.468  1.00  0.00     0.020 C 
HETATM   19  C25 UNL     1      -1.070  50.766 -21.335  1.00  0.00     0.002 C 
HETATM   20  C26 UNL     1      -2.123  50.029 -22.207  1.00  0.00     0.007 C 
HETATM   21  C27 UNL     1      -1.803  50.067 -23.713  1.00  0.00     0.014 C 
HETATM   22  C28 UNL     1      -1.575  51.503 -24.214  1.00  0.00     0.003 C 
HETATM   23  C29 UNL     1      -2.908  52.301 -24.121  1.00  0.00     0.020 C 
ENDROOT
BRANCH   3  24
HETATM   24  O1  UNL     1       0.110  50.694 -25.795  1.00  0.00    -0.377 OA
HETATM   25  H2  UNL     1       0.411  50.764 -26.718  1.00  0.00     0.211 HD
ENDBRANCH   3  24
BRANCH  13  26
HETATM   26  O2  UNL     1       0.103  48.221 -15.700  1.00  0.00    -0.271 OA
BRANCH  26  27
HETATM   27  C13 UNL     1       1.018  47.712 -14.744  1.00  0.00     0.303 C 
BRANCH  27  28
HETATM   28  C14 UNL     1       1.523  48.831 -13.834  1.00  0.00     0.244 C 
HETATM   29  O3  UNL     1       0.810  49.464 -13.062  1.00  0.00    -0.271 OA
HETATM   30  N2  UNL     1       2.885  49.065 -13.953  1.00  0.00    -0.344 N 
HETATM   31  H16 UNL     1       3.307  48.786 -14.831  1.00  0.00     0.163 HD
BRANCH  30  32
HETATM   32  C15 UNL     1       3.498  50.218 -13.288  1.00  0.00     0.186 C 
BRANCH  32  33
HETATM   33  C16 UNL     1       2.962  50.265 -11.853  1.00  0.00     0.163 C 
HETATM   34  O4  UNL     1       3.027  49.363 -11.029  1.00  0.00    -0.648 OA
BRANCH  33  35
HETATM   35  O5  UNL     1       2.339  51.423 -11.553  1.00  0.00    -0.775 OA
HETATM   36  H18 UNL     1       2.076  51.320 -10.614  1.00  0.00     0.167 HD
ENDBRANCH  33  35
ENDBRANCH  32  33
BRANCH  32  37
HETATM   37  C17 UNL     1       3.226  51.560 -14.010  1.00  0.00     0.014 C 
HETATM   38  C18 UNL     1       1.743  51.800 -14.321  1.00  0.00     0.012 C 
BRANCH  37  39
HETATM   39  C19 UNL     1       4.111  51.757 -15.261  1.00  0.00     0.002 C 
HETATM   40  C20 UNL     1       3.592  52.732 -16.309  1.00  0.00     0.005 C 
ENDBRANCH  37  39
ENDBRANCH  32  37
ENDBRANCH  30  32
ENDBRANCH  27  28
ENDBRANCH  26  27
ENDBRANCH  13  26
TORSDOF 9
ENDMDL
