MODEL 1
REMARK minimizedAffinity -6.77496243
REMARK CNNscore 0.663827777
REMARK CNNaffinity 6.14945078
REMARK  6 active torsions:
REMARK  status: ('A' for Active; 'I' for Inactive)
REMARK    1  A    between atoms: C2_2  and  C3_3 
REMARK    2  A    between atoms: C5_5  and  C6_6 
REMARK    3  A    between atoms: C6_6  and  C7_7 
REMARK    4  A    between atoms: C8_8  and  C9_9 
REMARK       I    between atoms: C9_9  and  N1_11 
REMARK    5  A    between atoms: N1_11  and  C10_12 
REMARK    6  A    between atoms: C10_12  and  C12_14 
ROOT
HETATM    1  C7  UNL     1     -12.896 -10.647  26.949  1.00  0.00     0.036 C 
HETATM    2  C8  UNL     1     -13.683 -10.726  25.646  1.00  0.00     0.011 C 
HETATM    3  C18 UNL     1     -14.697  -9.906  25.315  1.00  0.00    -0.013 C 
HETATM    4  C19 UNL     1     -15.170  -8.795  26.191  1.00  0.00     0.034 C 
HETATM    5  C20 UNL     1     -14.154  -8.414  27.290  1.00  0.00     0.005 C 
HETATM    6  C21 UNL     1     -14.674  -7.240  28.214  1.00  0.00    -0.043 C 
HETATM    7  C22 UNL     1     -16.204  -7.226  28.433  1.00  0.00     0.015 C 
HETATM    8  C23 UNL     1     -14.326  -5.895  27.522  1.00  0.00     0.015 C 
HETATM    9  C24 UNL     1     -13.997  -7.265  29.603  1.00  0.00     0.009 C 
HETATM   10  C25 UNL     1     -12.575  -7.788  29.532  1.00  0.00     0.002 C 
HETATM   11  C26 UNL     1     -12.521  -9.247  29.084  1.00  0.00     0.010 C 
HETATM   12  C27 UNL     1     -13.589  -9.684  28.029  1.00  0.00    -0.031 C 
HETATM   13  C28 UNL     1     -14.730 -10.440  28.757  1.00  0.00     0.016 C 
ENDROOT
BRANCH   2  14
HETATM   14  C9  UNL     1     -13.218 -11.675  24.594  1.00  0.00     0.248 C 
HETATM   15  O1  UNL     1     -13.730 -12.780  24.468  1.00  0.00    -0.268 OA
HETATM   16  N1  UNL     1     -12.221 -11.170  23.800  1.00  0.00    -0.349 N 
HETATM   17  H11 UNL     1     -11.813 -10.280  24.049  1.00  0.00     0.163 HD
BRANCH  16  18
HETATM   18  C10 UNL     1     -11.494 -12.002  22.858  1.00  0.00     0.114 C 
HETATM   19  C11 UNL     1     -12.134 -11.900  21.474  1.00  0.00     0.037 C 
BRANCH  18  20
HETATM   20  C12 UNL     1     -10.020 -11.630  22.903  1.00  0.00    -0.036 A 
HETATM   21  C13 UNL     1      -9.184 -11.951  23.982  1.00  0.00     0.009 A 
HETATM   22  C14 UNL     1      -7.829 -11.611  23.960  1.00  0.00     0.001 A 
HETATM   23  C15 UNL     1      -7.286 -10.959  22.855  1.00  0.00     0.000 A 
HETATM   24  C16 UNL     1      -8.098 -10.647  21.769  1.00  0.00     0.001 A 
HETATM   25  C17 UNL     1      -9.452 -10.984  21.790  1.00  0.00     0.009 A 
ENDBRANCH  18  20
ENDBRANCH  16  18
ENDBRANCH   2  14
BRANCH   1  26
HETATM   26  C6  UNL     1     -12.563 -12.089  27.464  1.00  0.00     0.038 C 
BRANCH  26  27
HETATM   27  C5  UNL     1     -11.134 -12.526  27.273  1.00  0.00    -0.019 C 
HETATM   28  C3  UNL     1     -10.660 -13.713  26.836  1.00  0.00    -0.067 C 
HETATM   29  C4  UNL     1     -11.527 -14.872  26.419  1.00  0.00     0.048 C 
BRANCH  28  30
HETATM   30  C2  UNL     1      -9.210 -13.886  26.751  1.00  0.00    -0.004 C 
HETATM   31  C1  UNL     1      -8.471 -14.777  27.426  1.00  0.00     0.012 C 
ENDBRANCH  28  30
ENDBRANCH  26  27
ENDBRANCH   1  26
TORSDOF 6
ENDMDL
MODEL 2
REMARK minimizedAffinity -8.37315845
REMARK CNNscore 0.509412527
REMARK CNNaffinity 6.91646242
REMARK  6 active torsions:
REMARK  status: ('A' for Active; 'I' for Inactive)
REMARK    1  A    between atoms: C2_2  and  C3_3 
REMARK    2  A    between atoms: C5_5  and  C6_6 
REMARK    3  A    between atoms: C6_6  and  C7_7 
REMARK    4  A    between atoms: C8_8  and  C9_9 
REMARK       I    between atoms: C9_9  and  N1_11 
REMARK    5  A    between atoms: N1_11  and  C10_12 
REMARK    6  A    between atoms: C10_12  and  C12_14 
ROOT
HETATM    1  C7  UNL     1      -2.991   6.488  12.996  1.00  0.00     0.036 C 
HETATM    2  C8  UNL     1      -2.698   5.117  12.398  1.00  0.00     0.011 C 
HETATM    3  C18 UNL     1      -3.555   4.081  12.404  1.00  0.00    -0.013 C 
HETATM    4  C19 UNL     1      -4.923   4.155  12.994  1.00  0.00     0.034 C 
HETATM    5  C20 UNL     1      -5.411   5.603  13.216  1.00  0.00     0.005 C 
HETATM    6  C21 UNL     1      -6.859   5.663  13.850  1.00  0.00    -0.043 C 
HETATM    7  C22 UNL     1      -7.187   4.502  14.815  1.00  0.00     0.015 C 
HETATM    8  C23 UNL     1      -7.892   5.567  12.694  1.00  0.00     0.015 C 
HETATM    9  C24 UNL     1      -7.096   6.990  14.606  1.00  0.00     0.009 C 
HETATM   10  C25 UNL     1      -6.344   8.145  13.975  1.00  0.00     0.002 C 
HETATM   11  C26 UNL     1      -4.831   7.957  14.053  1.00  0.00     0.010 C 
HETATM   12  C27 UNL     1      -4.311   6.490  13.910  1.00  0.00    -0.031 C 
HETATM   13  C28 UNL     1      -3.979   5.938  15.320  1.00  0.00     0.016 C 
ENDROOT
BRANCH   2  14
HETATM   14  C9  UNL     1      -1.437   4.940  11.621  1.00  0.00     0.248 C 
HETATM   15  O1  UNL     1      -1.346   4.086  10.749  1.00  0.00    -0.268 OA
HETATM   16  N1  UNL     1      -0.452   5.831  11.962  1.00  0.00    -0.349 N 
HETATM   17  H11 UNL     1      -0.605   6.436  12.757  1.00  0.00     0.163 HD
BRANCH  16  18
HETATM   18  C10 UNL     1       0.908   5.696  11.472  1.00  0.00     0.114 C 
HETATM   19  C11 UNL     1       1.249   4.216  11.288  1.00  0.00     0.037 C 
BRANCH  18  20
HETATM   20  C12 UNL     1       1.069   6.542  10.219  1.00  0.00    -0.036 A 
HETATM   21  C13 UNL     1       2.063   6.302   9.258  1.00  0.00     0.009 A 
HETATM   22  C14 UNL     1       2.150   7.092   8.109  1.00  0.00     0.001 A 
HETATM   23  C15 UNL     1       1.238   8.123   7.895  1.00  0.00     0.000 A 
HETATM   24  C16 UNL     1       0.236   8.365   8.830  1.00  0.00     0.001 A 
HETATM   25  C17 UNL     1       0.149   7.578   9.980  1.00  0.00     0.009 A 
ENDBRANCH  18  20
ENDBRANCH  16  18
ENDBRANCH   2  14
BRANCH   1  26
HETATM   26  C6  UNL     1      -1.707   7.059  13.688  1.00  0.00     0.038 C 
BRANCH  26  27
HETATM   27  C5  UNL     1      -1.553   8.557  13.621  1.00  0.00    -0.019 C 
HETATM   28  C3  UNL     1      -1.560   9.457  14.628  1.00  0.00    -0.067 C 
HETATM   29  C4  UNL     1      -1.712   9.101  16.084  1.00  0.00     0.048 C 
BRANCH  28  30
HETATM   30  C2  UNL     1      -1.401  10.871  14.289  1.00  0.00    -0.004 C 
HETATM   31  C1  UNL     1      -2.090  11.898  14.803  1.00  0.00     0.012 C 
ENDBRANCH  28  30
ENDBRANCH  26  27
ENDBRANCH   1  26
TORSDOF 6
ENDMDL
MODEL 3
REMARK minimizedAffinity -6.66580915
REMARK CNNscore 0.382924259
REMARK CNNaffinity 6.28304815
REMARK  6 active torsions:
REMARK  status: ('A' for Active; 'I' for Inactive)
REMARK    1  A    between atoms: C2_2  and  C3_3 
REMARK    2  A    between atoms: C5_5  and  C6_6 
REMARK    3  A    between atoms: C6_6  and  C7_7 
REMARK    4  A    between atoms: C8_8  and  C9_9 
REMARK       I    between atoms: C9_9  and  N1_11 
REMARK    5  A    between atoms: N1_11  and  C10_12 
REMARK    6  A    between atoms: C10_12  and  C12_14 
ROOT
HETATM    1  C7  UNL     1       0.266   8.671  13.658  1.00  0.00     0.036 C 
HETATM    2  C8  UNL     1       0.075   9.930  14.496  1.00  0.00     0.011 C 
HETATM    3  C18 UNL     1      -1.113  10.384  14.933  1.00  0.00    -0.013 C 
HETATM    4  C19 UNL     1      -2.406   9.691  14.656  1.00  0.00     0.034 C 
HETATM    5  C20 UNL     1      -2.224   8.228  14.197  1.00  0.00     0.005 C 
HETATM    6  C21 UNL     1      -3.603   7.512  13.901  1.00  0.00    -0.043 C 
HETATM    7  C22 UNL     1      -4.704   8.443  13.347  1.00  0.00     0.015 C 
HETATM    8  C23 UNL     1      -4.149   6.950  15.241  1.00  0.00     0.015 C 
HETATM    9  C24 UNL     1      -3.434   6.337  12.912  1.00  0.00     0.009 C 
HETATM   10  C25 UNL     1      -2.085   5.660  13.059  1.00  0.00     0.002 C 
HETATM   11  C26 UNL     1      -0.932   6.595  12.701  1.00  0.00     0.010 C 
HETATM   12  C27 UNL     1      -1.119   8.099  13.083  1.00  0.00    -0.031 C 
HETATM   13  C28 UNL     1      -1.532   8.889  11.815  1.00  0.00     0.016 C 
ENDROOT
BRANCH   2  14
HETATM   14  C9  UNL     1       1.288  10.636  14.997  1.00  0.00     0.248 C 
HETATM   15  O1  UNL     1       2.313  10.684  14.330  1.00  0.00    -0.268 OA
HETATM   16  N1  UNL     1       1.112  11.230  16.221  1.00  0.00    -0.349 N 
HETATM   17  H11 UNL     1       0.253  11.054  16.722  1.00  0.00     0.163 HD
BRANCH  16  18
HETATM   18  C10 UNL     1       2.224  11.789  16.970  1.00  0.00     0.114 C 
HETATM   19  C11 UNL     1       2.307  13.296  16.729  1.00  0.00     0.037 C 
BRANCH  18  20
HETATM   20  C12 UNL     1       2.087  11.388  18.431  1.00  0.00    -0.036 A 
HETATM   21  C13 UNL     1       0.850  11.119  19.036  1.00  0.00     0.009 A 
HETATM   22  C14 UNL     1       0.782  10.725  20.375  1.00  0.00     0.001 A 
HETATM   23  C15 UNL     1       1.948  10.581  21.124  1.00  0.00     0.000 A 
HETATM   24  C16 UNL     1       3.184  10.828  20.535  1.00  0.00     0.001 A 
HETATM   25  C17 UNL     1       3.254  11.223  19.199  1.00  0.00     0.009 A 
ENDBRANCH  18  20
ENDBRANCH  16  18
ENDBRANCH   2  14
BRANCH   1  26
HETATM   26  C6  UNL     1       1.382   8.904  12.584  1.00  0.00     0.038 C 
BRANCH  26  27
HETATM   27  C5  UNL     1       0.992   8.566  11.168  1.00  0.00    -0.019 C 
HETATM   28  C3  UNL     1       1.627   7.773  10.278  1.00  0.00    -0.067 C 
HETATM   29  C4  UNL     1       2.903   7.026  10.566  1.00  0.00     0.048 C 
BRANCH  28  30
HETATM   30  C2  UNL     1       1.037   7.619   8.949  1.00  0.00    -0.004 C 
HETATM   31  C1  UNL     1      -0.004   8.300   8.452  1.00  0.00     0.012 C 
ENDBRANCH  28  30
ENDBRANCH  26  27
ENDBRANCH   1  26
TORSDOF 6
ENDMDL
MODEL 4
REMARK minimizedAffinity -6.51742125
REMARK CNNscore 0.343581289
REMARK CNNaffinity 5.73408318
REMARK  6 active torsions:
REMARK  status: ('A' for Active; 'I' for Inactive)
REMARK    1  A    between atoms: C2_2  and  C3_3 
REMARK    2  A    between atoms: C5_5  and  C6_6 
REMARK    3  A    between atoms: C6_6  and  C7_7 
REMARK    4  A    between atoms: C8_8  and  C9_9 
REMARK       I    between atoms: C9_9  and  N1_11 
REMARK    5  A    between atoms: N1_11  and  C10_12 
REMARK    6  A    between atoms: C10_12  and  C12_14 
ROOT
HETATM    1  C7  UNL     1      14.912  -3.928   5.819  1.00  0.00     0.036 C 
HETATM    2  C8  UNL     1      16.206  -3.886   6.623  1.00  0.00     0.011 C 
HETATM    3  C18 UNL     1      17.320  -3.235   6.245  1.00  0.00    -0.013 C 
HETATM    4  C19 UNL     1      17.419  -2.449   4.980  1.00  0.00     0.034 C 
HETATM    5  C20 UNL     1      16.042  -2.112   4.365  1.00  0.00     0.005 C 
HETATM    6  C21 UNL     1      16.166  -1.287   3.021  1.00  0.00    -0.043 C 
HETATM    7  C22 UNL     1      17.412  -1.624   2.173  1.00  0.00     0.015 C 
HETATM    8  C23 UNL     1      16.290   0.216   3.391  1.00  0.00     0.015 C 
HETATM    9  C24 UNL     1      14.920  -1.468   2.125  1.00  0.00     0.009 C 
HETATM   10  C25 UNL     1      13.658  -1.669   2.941  1.00  0.00     0.002 C 
HETATM   11  C26 UNL     1      13.701  -2.961   3.755  1.00  0.00     0.010 C 
HETATM   12  C27 UNL     1      15.097  -3.371   4.325  1.00  0.00    -0.031 C 
HETATM   13  C28 UNL     1      15.702  -4.475   3.421  1.00  0.00     0.016 C 
ENDROOT
BRANCH   2  14
HETATM   14  C9  UNL     1      16.209  -4.481   7.990  1.00  0.00     0.248 C 
HETATM   15  O1  UNL     1      15.594  -3.957   8.909  1.00  0.00    -0.268 OA
HETATM   16  N1  UNL     1      16.919  -5.651   8.079  1.00  0.00    -0.349 N 
HETATM   17  H11 UNL     1      17.460  -5.946   7.278  1.00  0.00     0.163 HD
BRANCH  16  18
HETATM   18  C10 UNL     1      17.213  -6.275   9.356  1.00  0.00     0.114 C 
HETATM   19  C11 UNL     1      17.585  -7.743   9.144  1.00  0.00     0.037 C 
BRANCH  18  20
HETATM   20  C12 UNL     1      18.270  -5.452  10.077  1.00  0.00    -0.036 A 
HETATM   21  C13 UNL     1      18.103  -4.973  11.385  1.00  0.00     0.009 A 
HETATM   22  C14 UNL     1      19.118  -4.247  12.014  1.00  0.00     0.001 A 
HETATM   23  C15 UNL     1      20.319  -4.001  11.351  1.00  0.00     0.000 A 
HETATM   24  C16 UNL     1      20.508  -4.483  10.059  1.00  0.00     0.001 A 
HETATM   25  C17 UNL     1      19.494  -5.206   9.430  1.00  0.00     0.009 A 
ENDBRANCH  18  20
ENDBRANCH  16  18
ENDBRANCH   2  14
BRANCH   1  26
HETATM   26  C6  UNL     1      14.261  -5.349   5.919  1.00  0.00     0.038 C 
BRANCH  26  27
HETATM   27  C5  UNL     1      13.285  -5.531   7.052  1.00  0.00    -0.019 C 
HETATM   28  C3  UNL     1      11.939  -5.631   7.007  1.00  0.00    -0.067 C 
HETATM   29  C4  UNL     1      11.127  -5.595   5.738  1.00  0.00     0.048 C 
BRANCH  28  30
HETATM   30  C2  UNL     1      11.216  -5.794   8.268  1.00  0.00    -0.004 C 
HETATM   31  C1  UNL     1      11.756  -5.984   9.479  1.00  0.00     0.012 C 
ENDBRANCH  28  30
ENDBRANCH  26  27
ENDBRANCH   1  26
TORSDOF 6
ENDMDL
MODEL 5
REMARK minimizedAffinity -7.07127237
REMARK CNNscore 0.303014338
REMARK CNNaffinity 6.39298391
REMARK  6 active torsions:
REMARK  status: ('A' for Active; 'I' for Inactive)
REMARK    1  A    between atoms: C2_2  and  C3_3 
REMARK    2  A    between atoms: C5_5  and  C6_6 
REMARK    3  A    between atoms: C6_6  and  C7_7 
REMARK    4  A    between atoms: C8_8  and  C9_9 
REMARK       I    between atoms: C9_9  and  N1_11 
REMARK    5  A    between atoms: N1_11  and  C10_12 
REMARK    6  A    between atoms: C10_12  and  C12_14 
ROOT
HETATM    1  C7  UNL     1       1.027   7.987  12.456  1.00  0.00     0.036 C 
HETATM    2  C8  UNL     1       2.413   7.718  13.032  1.00  0.00     0.011 C 
HETATM    3  C18 UNL     1       3.481   7.342  12.307  1.00  0.00    -0.013 C 
HETATM    4  C19 UNL     1       3.441   7.153  10.828  1.00  0.00     0.034 C 
HETATM    5  C20 UNL     1       2.213   7.813  10.164  1.00  0.00     0.005 C 
HETATM    6  C21 UNL     1       2.182   7.596   8.598  1.00  0.00    -0.043 C 
HETATM    7  C22 UNL     1       2.781   6.254   8.124  1.00  0.00     0.015 C 
HETATM    8  C23 UNL     1       3.045   8.708   7.943  1.00  0.00     0.015 C 
HETATM    9  C24 UNL     1       0.746   7.700   8.037  1.00  0.00     0.009 C 
HETATM   10  C25 UNL     1      -0.103   8.679   8.824  1.00  0.00     0.002 C 
HETATM   11  C26 UNL     1      -0.317   8.224  10.266  1.00  0.00     0.010 C 
HETATM   12  C27 UNL     1       0.882   7.482  10.940  1.00  0.00    -0.031 C 
HETATM   13  C28 UNL     1       0.605   5.957  10.914  1.00  0.00     0.016 C 
ENDROOT
BRANCH   2  14
HETATM   14  C9  UNL     1       2.654   8.029  14.470  1.00  0.00     0.248 C 
HETATM   15  O1  UNL     1       2.829   7.137  15.289  1.00  0.00    -0.268 OA
HETATM   16  N1  UNL     1       2.691   9.372  14.743  1.00  0.00    -0.349 N 
HETATM   17  H11 UNL     1       2.447  10.020  14.006  1.00  0.00     0.163 HD
BRANCH  16  18
HETATM   18  C10 UNL     1       2.709   9.879  16.104  1.00  0.00     0.114 C 
HETATM   19  C11 UNL     1       3.753  10.989  16.231  1.00  0.00     0.037 C 
BRANCH  18  20
HETATM   20  C12 UNL     1       1.298  10.289  16.498  1.00  0.00    -0.036 A 
HETATM   21  C13 UNL     1       0.893  10.440  17.832  1.00  0.00     0.009 A 
HETATM   22  C14 UNL     1      -0.408  10.848  18.140  1.00  0.00     0.001 A 
HETATM   23  C15 UNL     1      -1.317  11.123  17.121  1.00  0.00     0.000 A 
HETATM   24  C16 UNL     1      -0.927  10.994  15.792  1.00  0.00     0.001 A 
HETATM   25  C17 UNL     1       0.371  10.585  15.483  1.00  0.00     0.009 A 
ENDBRANCH  18  20
ENDBRANCH  16  18
ENDBRANCH   2  14
BRANCH   1  26
HETATM   26  C6  UNL     1      -0.074   7.459  13.437  1.00  0.00     0.038 C 
BRANCH  26  27
HETATM   27  C5  UNL     1      -1.405   8.159  13.346  1.00  0.00    -0.019 C 
HETATM   28  C3  UNL     1      -2.632   7.631  13.141  1.00  0.00    -0.067 C 
HETATM   29  C4  UNL     1      -2.905   6.158  12.977  1.00  0.00     0.048 C 
BRANCH  28  30
HETATM   30  C2  UNL     1      -3.774   8.542  13.083  1.00  0.00    -0.004 C 
HETATM   31  C1  UNL     1      -5.069   8.207  13.155  1.00  0.00     0.012 C 
ENDBRANCH  28  30
ENDBRANCH  26  27
ENDBRANCH   1  26
TORSDOF 6
ENDMDL
MODEL 6
REMARK minimizedAffinity -6.73130369
REMARK CNNscore 0.283151597
REMARK CNNaffinity 6.03904486
REMARK  6 active torsions:
REMARK  status: ('A' for Active; 'I' for Inactive)
REMARK    1  A    between atoms: C2_2  and  C3_3 
REMARK    2  A    between atoms: C5_5  and  C6_6 
REMARK    3  A    between atoms: C6_6  and  C7_7 
REMARK    4  A    between atoms: C8_8  and  C9_9 
REMARK       I    between atoms: C9_9  and  N1_11 
REMARK    5  A    between atoms: N1_11  and  C10_12 
REMARK    6  A    between atoms: C10_12  and  C12_14 
ROOT
HETATM    1  C7  UNL     1       2.631   9.247  12.429  1.00  0.00     0.036 C 
HETATM    2  C8  UNL     1       2.254   9.171  13.904  1.00  0.00     0.011 C 
HETATM    3  C18 UNL     1       3.109   8.868  14.897  1.00  0.00    -0.013 C 
HETATM    4  C19 UNL     1       4.555   8.578  14.671  1.00  0.00     0.034 C 
HETATM    5  C20 UNL     1       5.061   9.053  13.291  1.00  0.00     0.005 C 
HETATM    6  C21 UNL     1       6.593   8.730  13.065  1.00  0.00    -0.043 C 
HETATM    7  C22 UNL     1       7.084   7.433  13.747  1.00  0.00     0.015 C 
HETATM    8  C23 UNL     1       7.423   9.885  13.689  1.00  0.00     0.015 C 
HETATM    9  C24 UNL     1       6.940   8.637  11.562  1.00  0.00     0.009 C 
HETATM   10  C25 UNL     1       6.086   9.567  10.723  1.00  0.00     0.002 C 
HETATM   11  C26 UNL     1       4.608   9.188  10.771  1.00  0.00     0.010 C 
HETATM   12  C27 UNL     1       4.082   8.629  12.132  1.00  0.00    -0.031 C 
HETATM   13  C28 UNL     1       3.991   7.085  12.038  1.00  0.00     0.016 C 
ENDROOT
BRANCH   2  14
HETATM   14  C9  UNL     1       0.885   9.602  14.307  1.00  0.00     0.248 C 
HETATM   15  O1  UNL     1       0.702  10.657  14.899  1.00  0.00    -0.268 OA
HETATM   16  N1  UNL     1      -0.101   8.732  13.918  1.00  0.00    -0.349 N 
HETATM   17  H11 UNL     1       0.171   7.848  13.511  1.00  0.00     0.163 HD
BRANCH  16  18
HETATM   18  C10 UNL     1      -1.469   8.864  14.387  1.00  0.00     0.114 C 
HETATM   19  C11 UNL     1      -2.140  10.056  13.704  1.00  0.00     0.037 C 
BRANCH  18  20
HETATM   20  C12 UNL     1      -2.189   7.537  14.193  1.00  0.00    -0.036 A 
HETATM   21  C13 UNL     1      -1.982   6.428  15.026  1.00  0.00     0.009 A 
HETATM   22  C14 UNL     1      -2.691   5.241  14.823  1.00  0.00     0.001 A 
HETATM   23  C15 UNL     1      -3.626   5.150  13.794  1.00  0.00     0.000 A 
HETATM   24  C16 UNL     1      -3.855   6.245  12.968  1.00  0.00     0.001 A 
HETATM   25  C17 UNL     1      -3.146   7.431  13.168  1.00  0.00     0.009 A 
ENDBRANCH  18  20
ENDBRANCH  16  18
ENDBRANCH   2  14
BRANCH   1  26
HETATM   26  C6  UNL     1       1.473   8.667  11.547  1.00  0.00     0.038 C 
BRANCH  26  27
HETATM   27  C5  UNL     1       1.901   8.087  10.224  1.00  0.00    -0.019 C 
HETATM   28  C3  UNL     1       1.221   8.037   9.058  1.00  0.00    -0.067 C 
HETATM   29  C4  UNL     1      -0.160   8.604   8.857  1.00  0.00     0.048 C 
BRANCH  28  30
HETATM   30  C2  UNL     1       1.867   7.402   7.911  1.00  0.00    -0.004 C 
HETATM   31  C1  UNL     1       2.568   6.260   7.919  1.00  0.00     0.012 C 
ENDBRANCH  28  30
ENDBRANCH  26  27
ENDBRANCH   1  26
TORSDOF 6
ENDMDL
MODEL 7
REMARK minimizedAffinity -6.83330727
REMARK CNNscore 0.241798565
REMARK CNNaffinity 6.03774595
REMARK  6 active torsions:
REMARK  status: ('A' for Active; 'I' for Inactive)
REMARK    1  A    between atoms: C2_2  and  C3_3 
REMARK    2  A    between atoms: C5_5  and  C6_6 
REMARK    3  A    between atoms: C6_6  and  C7_7 
REMARK    4  A    between atoms: C8_8  and  C9_9 
REMARK       I    between atoms: C9_9  and  N1_11 
REMARK    5  A    between atoms: N1_11  and  C10_12 
REMARK    6  A    between atoms: C10_12  and  C12_14 
ROOT
HETATM    1  C7  UNL     1      -1.806   7.888  14.183  1.00  0.00     0.036 C 
HETATM    2  C8  UNL     1      -1.191   9.209  14.630  1.00  0.00     0.011 C 
HETATM    3  C18 UNL     1       0.013   9.662  14.241  1.00  0.00    -0.013 C 
HETATM    4  C19 UNL     1       0.900   8.920  13.297  1.00  0.00     0.034 C 
HETATM    5  C20 UNL     1       0.159   7.822  12.503  1.00  0.00     0.005 C 
HETATM    6  C21 UNL     1       1.116   7.041  11.515  1.00  0.00    -0.043 C 
HETATM    7  C22 UNL     1       2.570   6.890  12.013  1.00  0.00     0.015 C 
HETATM    8  C23 UNL     1       1.196   7.847  10.190  1.00  0.00     0.015 C 
HETATM    9  C24 UNL     1       0.575   5.629  11.195  1.00  0.00     0.009 C 
HETATM   10  C25 UNL     1      -0.941   5.588  11.197  1.00  0.00     0.002 C 
HETATM   11  C26 UNL     1      -1.522   5.887  12.578  1.00  0.00     0.010 C 
HETATM   12  C27 UNL     1      -0.748   6.937  13.438  1.00  0.00    -0.031 C 
HETATM   13  C28 UNL     1       0.117   6.189  14.483  1.00  0.00     0.016 C 
ENDROOT
BRANCH   2  14
HETATM   14  C9  UNL     1      -2.029  10.141  15.439  1.00  0.00     0.248 C 
HETATM   15  O1  UNL     1      -2.961  10.752  14.935  1.00  0.00    -0.268 OA
HETATM   16  N1  UNL     1      -1.667  10.198  16.760  1.00  0.00    -0.349 N 
HETATM   17  H11 UNL     1      -0.827   9.717  17.050  1.00  0.00     0.163 HD
BRANCH  16  18
HETATM   18  C10 UNL     1      -2.220  11.190  17.665  1.00  0.00     0.114 C 
HETATM   19  C11 UNL     1      -3.439  10.613  18.386  1.00  0.00     0.037 C 
BRANCH  18  20
HETATM   20  C12 UNL     1      -1.118  11.689  18.586  1.00  0.00    -0.036 A 
HETATM   21  C13 UNL     1      -0.885  13.050  18.830  1.00  0.00     0.009 A 
HETATM   22  C14 UNL     1       0.123  13.455  19.709  1.00  0.00     0.001 A 
HETATM   23  C15 UNL     1       0.902  12.507  20.368  1.00  0.00     0.000 A 
HETATM   24  C16 UNL     1       0.674  11.152  20.151  1.00  0.00     0.001 A 
HETATM   25  C17 UNL     1      -0.330  10.746  19.271  1.00  0.00     0.009 A 
ENDBRANCH  18  20
ENDBRANCH  16  18
ENDBRANCH   2  14
BRANCH   1  26
HETATM   26  C6  UNL     1      -2.571   7.219  15.375  1.00  0.00     0.038 C 
BRANCH  26  27
HETATM   27  C5  UNL     1      -3.869   6.547  15.010  1.00  0.00    -0.019 C 
HETATM   28  C3  UNL     1      -5.118   7.062  14.996  1.00  0.00    -0.067 C 
HETATM   29  C4  UNL     1      -5.452   8.489  15.345  1.00  0.00     0.048 C 
BRANCH  28  30
HETATM   30  C2  UNL     1      -6.221   6.184  14.608  1.00  0.00    -0.004 C 
HETATM   31  C1  UNL     1      -6.902   6.216  13.455  1.00  0.00     0.012 C 
ENDBRANCH  28  30
ENDBRANCH  26  27
ENDBRANCH   1  26
TORSDOF 6
ENDMDL
MODEL 8
REMARK minimizedAffinity -7.24330664
REMARK CNNscore 0.226231113
REMARK CNNaffinity 6.16016388
REMARK  6 active torsions:
REMARK  status: ('A' for Active; 'I' for Inactive)
REMARK    1  A    between atoms: C2_2  and  C3_3 
REMARK    2  A    between atoms: C5_5  and  C6_6 
REMARK    3  A    between atoms: C6_6  and  C7_7 
REMARK    4  A    between atoms: C8_8  and  C9_9 
REMARK       I    between atoms: C9_9  and  N1_11 
REMARK    5  A    between atoms: N1_11  and  C10_12 
REMARK    6  A    between atoms: C10_12  and  C12_14 
ROOT
HETATM    1  C7  UNL     1     -10.858   9.198  14.461  1.00  0.00     0.036 C 
HETATM    2  C8  UNL     1     -10.242   7.814  14.627  1.00  0.00     0.011 C 
HETATM    3  C18 UNL     1     -10.936   6.662  14.611  1.00  0.00    -0.013 C 
HETATM    4  C19 UNL     1     -12.413   6.599  14.410  1.00  0.00     0.034 C 
HETATM    5  C20 UNL     1     -13.002   7.900  13.822  1.00  0.00     0.005 C 
HETATM    6  C21 UNL     1     -14.569   7.820  13.624  1.00  0.00    -0.043 C 
HETATM    7  C22 UNL     1     -15.305   6.955  14.671  1.00  0.00     0.015 C 
HETATM    8  C23 UNL     1     -14.844   7.156  12.248  1.00  0.00     0.015 C 
HETATM    9  C24 UNL     1     -15.217   9.223  13.627  1.00  0.00     0.009 C 
HETATM   10  C25 UNL     1     -14.292  10.276  13.049  1.00  0.00     0.002 C 
HETATM   11  C26 UNL     1     -13.035  10.464  13.895  1.00  0.00     0.010 C 
HETATM   12  C27 UNL     1     -12.459   9.177  14.569  1.00  0.00    -0.031 C 
HETATM   13  C28 UNL     1     -12.889   9.156  16.058  1.00  0.00     0.016 C 
ENDROOT
BRANCH   2  14
HETATM   14  C9  UNL     1      -8.756   7.701  14.667  1.00  0.00     0.248 C 
HETATM   15  O1  UNL     1      -8.050   8.690  14.810  1.00  0.00    -0.268 OA
HETATM   16  N1  UNL     1      -8.300   6.412  14.566  1.00  0.00    -0.349 N 
HETATM   17  H11 UNL     1      -8.967   5.680  14.363  1.00  0.00     0.163 HD
BRANCH  16  18
HETATM   18  C10 UNL     1      -6.892   6.108  14.379  1.00  0.00     0.114 C 
HETATM   19  C11 UNL     1      -6.173   6.129  15.728  1.00  0.00     0.037 C 
BRANCH  18  20
HETATM   20  C12 UNL     1      -6.766   4.799  13.614  1.00  0.00    -0.036 A 
HETATM   21  C13 UNL     1      -7.799   3.853  13.545  1.00  0.00     0.009 A 
HETATM   22  C14 UNL     1      -7.642   2.679  12.804  1.00  0.00     0.001 A 
HETATM   23  C15 UNL     1      -6.458   2.439  12.110  1.00  0.00     0.000 A 
HETATM   24  C16 UNL     1      -5.429   3.375  12.154  1.00  0.00     0.001 A 
HETATM   25  C17 UNL     1      -5.583   4.547  12.896  1.00  0.00     0.009 A 
ENDBRANCH  18  20
ENDBRANCH  16  18
ENDBRANCH   2  14
BRANCH   1  26
HETATM   26  C6  UNL     1     -10.145  10.222  15.409  1.00  0.00     0.038 C 
BRANCH  26  27
HETATM   27  C5  UNL     1      -9.921  11.592  14.824  1.00  0.00    -0.019 C 
HETATM   28  C3  UNL     1     -10.108  12.801  15.396  1.00  0.00    -0.067 C 
HETATM   29  C4  UNL     1     -10.583  13.006  16.811  1.00  0.00     0.048 C 
BRANCH  28  30
HETATM   30  C2  UNL     1      -9.823  13.993  14.598  1.00  0.00    -0.004 C 
HETATM   31  C1  UNL     1      -8.677  14.685  14.575  1.00  0.00     0.012 C 
ENDBRANCH  28  30
ENDBRANCH  26  27
ENDBRANCH   1  26
TORSDOF 6
ENDMDL
MODEL 9
REMARK minimizedAffinity -8.03086662
REMARK CNNscore 0.20815146
REMARK CNNaffinity 6.29611206
REMARK  6 active torsions:
REMARK  status: ('A' for Active; 'I' for Inactive)
REMARK    1  A    between atoms: C2_2  and  C3_3 
REMARK    2  A    between atoms: C5_5  and  C6_6 
REMARK    3  A    between atoms: C6_6  and  C7_7 
REMARK    4  A    between atoms: C8_8  and  C9_9 
REMARK       I    between atoms: C9_9  and  N1_11 
REMARK    5  A    between atoms: N1_11  and  C10_12 
REMARK    6  A    between atoms: C10_12  and  C12_14 
ROOT
HETATM    1  C7  UNL     1      -1.269   7.754  13.475  1.00  0.00     0.036 C 
HETATM    2  C8  UNL     1      -1.992   6.509  13.976  1.00  0.00     0.011 C 
HETATM    3  C18 UNL     1      -2.691   6.440  15.122  1.00  0.00    -0.013 C 
HETATM    4  C19 UNL     1      -2.859   7.597  16.049  1.00  0.00     0.034 C 
HETATM    5  C20 UNL     1      -2.522   8.954  15.393  1.00  0.00     0.005 C 
HETATM    6  C21 UNL     1      -2.697  10.168  16.392  1.00  0.00    -0.043 C 
HETATM    7  C22 UNL     1      -2.377   9.838  17.867  1.00  0.00     0.015 C 
HETATM    8  C23 UNL     1      -4.188  10.602  16.362  1.00  0.00     0.015 C 
HETATM    9  C24 UNL     1      -1.828  11.377  15.977  1.00  0.00     0.009 C 
HETATM   10  C25 UNL     1      -1.664  11.469  14.473  1.00  0.00     0.002 C 
HETATM   11  C26 UNL     1      -0.904  10.273  13.903  1.00  0.00     0.010 C 
HETATM   12  C27 UNL     1      -1.164   8.897  14.597  1.00  0.00    -0.031 C 
HETATM   13  C28 UNL     1       0.014   8.590  15.557  1.00  0.00     0.016 C 
ENDROOT
BRANCH   2  14
HETATM   14  C9  UNL     1      -2.059   5.321  13.076  1.00  0.00     0.248 C 
HETATM   15  O1  UNL     1      -1.041   4.780  12.666  1.00  0.00    -0.268 OA
HETATM   16  N1  UNL     1      -3.338   4.907  12.809  1.00  0.00    -0.349 N 
HETATM   17  H11 UNL     1      -4.106   5.480  13.129  1.00  0.00     0.163 HD
BRANCH  16  18
HETATM   18  C10 UNL     1      -3.624   3.903  11.799  1.00  0.00     0.114 C 
HETATM   19  C11 UNL     1      -2.476   2.896  11.727  1.00  0.00     0.037 C 
BRANCH  18  20
HETATM   20  C12 UNL     1      -4.987   3.290  12.083  1.00  0.00    -0.036 A 
HETATM   21  C13 UNL     1      -5.955   3.918  12.880  1.00  0.00     0.009 A 
HETATM   22  C14 UNL     1      -7.204   3.325  13.086  1.00  0.00     0.001 A 
HETATM   23  C15 UNL     1      -7.508   2.104  12.487  1.00  0.00     0.000 A 
HETATM   24  C16 UNL     1      -6.565   1.476  11.679  1.00  0.00     0.001 A 
HETATM   25  C17 UNL     1      -5.317   2.066  11.475  1.00  0.00     0.009 A 
ENDBRANCH  18  20
ENDBRANCH  16  18
ENDBRANCH   2  14
BRANCH   1  26
HETATM   26  C6  UNL     1       0.091   7.356  12.809  1.00  0.00     0.038 C 
BRANCH  26  27
HETATM   27  C5  UNL     1       0.224   7.720  11.352  1.00  0.00    -0.019 C 
HETATM   28  C3  UNL     1       0.996   7.151  10.401  1.00  0.00    -0.067 C 
HETATM   29  C4  UNL     1       1.899   5.968  10.636  1.00  0.00     0.048 C 
BRANCH  28  30
HETATM   30  C2  UNL     1       0.948   7.708   9.050  1.00  0.00    -0.004 C 
HETATM   31  C1  UNL     1      -0.061   8.402   8.507  1.00  0.00     0.012 C 
ENDBRANCH  28  30
ENDBRANCH  26  27
ENDBRANCH   1  26
TORSDOF 6
ENDMDL
