MODEL 1
REMARK minimizedAffinity -8.68872833
REMARK  7 active torsions:
REMARK  status: ('A' for Active; 'I' for Inactive)
REMARK    1  A    between atoms: N1_2  and  C2_3 
REMARK    2  A    between atoms: C2_3  and  C3_4 
REMARK    3  A    between atoms: C5_6  and  O1_7 
REMARK    4  A    between atoms: C23_26  and  N2_27 
REMARK    5  A    between atoms: C23_26  and  C24_28 
REMARK    6  A    between atoms: C24_28  and  C25_29 
REMARK    7  A    between atoms: C25_29  and  O3_30 
ROOT
HETATM    1  C3  UNL     1      -0.606  52.010 -23.156  1.00  0.00    -0.021 A 
HETATM    2  C4  UNL     1      -0.126  52.647 -21.986  1.00  0.00     0.045 A 
HETATM    3  C5  UNL     1      -0.105  51.988 -20.771  1.00  0.00     0.066 A 
HETATM    4  C6  UNL     1      -0.536  50.681 -20.681  1.00  0.00     0.045 A 
HETATM    5  C7  UNL     1      -1.013  49.987 -21.816  1.00  0.00    -0.037 A 
HETATM    6  C8  UNL     1      -1.082  50.664 -23.086  1.00  0.00    -0.042 A 
HETATM    7  C9  UNL     1      -1.604  49.966 -24.354  1.00  0.00     0.044 C 
HETATM    8  C10 UNL     1      -3.132  49.984 -24.702  1.00  0.00    -0.010 C 
HETATM    9  C11 UNL     1      -3.757  51.338 -25.062  1.00  0.00     0.005 C 
HETATM   10  C12 UNL     1      -4.461  52.005 -23.881  1.00  0.00     0.001 C 
HETATM   11  C13 UNL     1      -5.586  51.145 -23.276  1.00  0.00     0.007 C 
HETATM   12  C14 UNL     1      -5.389  49.622 -23.444  1.00  0.00     0.022 C 
HETATM   13  C15 UNL     1      -3.904  49.325 -23.576  1.00  0.00     0.012 C 
HETATM   14  C16 UNL     1      -6.070  48.738 -22.319  1.00  0.00     0.082 C 
HETATM   15  C17 UNL     1      -7.580  49.115 -22.244  1.00  0.00     0.040 C 
HETATM   16  C18 UNL     1      -8.343  48.160 -21.328  1.00  0.00     0.013 C 
HETATM   17  C19 UNL     1      -7.353  47.129 -20.754  1.00  0.00     0.059 C 
HETATM   18  C20 UNL     1      -6.689  46.406 -21.982  1.00  0.00     0.061 C 
HETATM   19  C21 UNL     1      -7.741  45.737 -22.896  1.00  0.00     0.046 C 
HETATM   20  C22 UNL     1      -5.678  45.306 -21.626  1.00  0.00     0.046 C 
HETATM   21  O2  UNL     1      -5.996  47.371 -22.801  1.00  0.00    -0.368 OA
HETATM   22  C23 UNL     1      -6.289  47.887 -19.866  1.00  0.00     0.180 C 
HETATM   23  C26 UNL     1      -5.452  48.805 -20.847  1.00  0.00     0.139 C 
HETATM   24  C27 UNL     1      -3.988  48.523 -20.784  1.00  0.00    -0.096 C 
HETATM   25  C28 UNL     1      -2.798  48.447 -20.958  1.00  0.00    -0.101 C 
HETATM   26  C29 UNL     1      -1.434  48.540 -21.531  1.00  0.00     0.133 C 
ENDROOT
BRANCH  22  27
HETATM   27  N2  UNL     1      -5.558  46.846 -19.104  1.00  0.00     0.090 N 
HETATM   28  H33 UNL     1      -5.329  47.208 -18.167  1.00  0.00     0.313 HD
HETATM   29  H34 UNL     1      -4.645  46.672 -19.519  1.00  0.00     0.313 HD
ENDBRANCH  22  27
BRANCH  22  30
HETATM   30  C24 UNL     1      -6.971  48.796 -18.775  1.00  0.00     0.069 C 
BRANCH  30  31
HETATM   31  C25 UNL     1      -7.787  48.070 -17.694  1.00  0.00     0.166 C 
BRANCH  31  32
HETATM   32  O3  UNL     1      -8.881  48.865 -17.257  1.00  0.00    -0.401 OA
HETATM   33  H39 UNL     1      -9.343  48.356 -16.567  1.00  0.00     0.209 HD
ENDBRANCH  31  32
ENDBRANCH  30  31
ENDBRANCH  22  30
BRANCH   3  34
HETATM   34  O1  UNL     1       0.349  52.592 -19.636  1.00  0.00    -0.361 OA
HETATM   35  H8  UNL     1       0.578  53.512 -19.843  1.00  0.00     0.217 HD
ENDBRANCH   3  34
BRANCH   1  36
HETATM   36  C2  UNL     1      -0.528  52.848 -24.424  1.00  0.00     0.308 C 
BRANCH  36  37
HETATM   37  N1  UNL     1       0.859  53.074 -24.841  1.00  0.00     0.083 N 
HETATM   38  C1  UNL     1       1.315  52.026 -25.742  1.00  0.00     0.307 C 
HETATM   39  H4  UNL     1       1.462  53.109 -24.022  1.00  0.00     0.315 HD
ENDBRANCH  36  37
ENDBRANCH   1  36
TORSDOF 7
ENDMDL
MODEL 2
REMARK minimizedAffinity -8.53813457
REMARK  7 active torsions:
REMARK  status: ('A' for Active; 'I' for Inactive)
REMARK    1  A    between atoms: N1_2  and  C2_3 
REMARK    2  A    between atoms: C2_3  and  C3_4 
REMARK    3  A    between atoms: C5_6  and  O1_7 
REMARK    4  A    between atoms: C23_26  and  N2_27 
REMARK    5  A    between atoms: C23_26  and  C24_28 
REMARK    6  A    between atoms: C24_28  and  C25_29 
REMARK    7  A    between atoms: C25_29  and  O3_30 
ROOT
HETATM    1  C3  UNL     1      -0.699  51.877 -22.278  1.00  0.00    -0.021 A 
HETATM    2  C4  UNL     1      -0.594  52.288 -23.629  1.00  0.00     0.045 A 
HETATM    3  C5  UNL     1      -1.721  52.549 -24.387  1.00  0.00     0.066 A 
HETATM    4  C6  UNL     1      -2.977  52.430 -23.828  1.00  0.00     0.045 A 
HETATM    5  C7  UNL     1      -3.147  52.037 -22.482  1.00  0.00    -0.037 A 
HETATM    6  C8  UNL     1      -1.990  51.722 -21.682  1.00  0.00    -0.042 A 
HETATM    7  C9  UNL     1      -2.111  51.276 -20.215  1.00  0.00     0.044 C 
HETATM    8  C10 UNL     1      -2.289  49.761 -19.854  1.00  0.00    -0.010 C 
HETATM    9  C11 UNL     1      -1.113  48.823 -20.153  1.00  0.00     0.005 C 
HETATM   10  C12 UNL     1      -1.264  48.078 -21.478  1.00  0.00     0.001 C 
HETATM   11  C13 UNL     1      -2.543  47.224 -21.558  1.00  0.00     0.007 C 
HETATM   12  C14 UNL     1      -3.715  47.745 -20.696  1.00  0.00     0.022 C 
HETATM   13  C15 UNL     1      -3.559  49.245 -20.501  1.00  0.00     0.012 C 
HETATM   14  C16 UNL     1      -5.155  47.368 -21.239  1.00  0.00     0.082 C 
HETATM   15  C17 UNL     1      -5.222  45.822 -21.422  1.00  0.00     0.040 C 
HETATM   16  C18 UNL     1      -6.643  45.364 -21.743  1.00  0.00     0.013 C 
HETATM   17  C19 UNL     1      -7.560  46.602 -21.801  1.00  0.00     0.059 C 
HETATM   18  C20 UNL     1      -7.443  47.316 -20.405  1.00  0.00     0.061 C 
HETATM   19  C21 UNL     1      -7.829  46.376 -19.240  1.00  0.00     0.046 C 
HETATM   20  C22 UNL     1      -8.311  48.573 -20.239  1.00  0.00     0.046 C 
HETATM   21  O2  UNL     1      -6.076  47.711 -20.171  1.00  0.00    -0.368 OA
HETATM   22  C23 UNL     1      -7.082  47.531 -22.985  1.00  0.00     0.180 C 
HETATM   23  C26 UNL     1      -5.644  48.064 -22.591  1.00  0.00     0.139 C 
HETATM   24  C27 UNL     1      -5.572  49.555 -22.573  1.00  0.00    -0.096 C 
HETATM   25  C28 UNL     1      -5.277  50.715 -22.434  1.00  0.00    -0.101 C 
HETATM   26  C29 UNL     1      -4.610  51.976 -22.029  1.00  0.00     0.133 C 
ENDROOT
BRANCH  22  27
HETATM   27  N2  UNL     1      -8.155  48.534 -23.192  1.00  0.00     0.090 N 
HETATM   28  H33 UNL     1      -8.234  48.745 -24.197  1.00  0.00     0.313 HD
HETATM   29  H34 UNL     1      -7.896  49.428 -22.782  1.00  0.00     0.313 HD
ENDBRANCH  22  27
BRANCH  22  30
HETATM   30  C24 UNL     1      -6.980  46.747 -24.347  1.00  0.00     0.069 C 
BRANCH  30  31
HETATM   31  C25 UNL     1      -7.320  47.540 -25.619  1.00  0.00     0.166 C 
BRANCH  31  32
HETATM   32  O3  UNL     1      -6.160  48.145 -26.172  1.00  0.00    -0.401 OA
HETATM   33  H39 UNL     1      -6.448  48.641 -26.960  1.00  0.00     0.209 HD
ENDBRANCH  31  32
ENDBRANCH  30  31
ENDBRANCH  22  30
BRANCH   3  34
HETATM   34  O1  UNL     1      -1.633  52.939 -25.690  1.00  0.00    -0.361 OA
HETATM   35  H8  UNL     1      -0.700  52.939 -25.953  1.00  0.00     0.217 HD
ENDBRANCH   3  34
BRANCH   1  36
HETATM   36  C2  UNL     1       0.628  51.669 -21.563  1.00  0.00     0.308 C 
BRANCH  36  37
HETATM   37  N1  UNL     1       0.858  52.690 -20.538  1.00  0.00     0.083 N 
HETATM   38  C1  UNL     1       1.372  53.919 -21.126  1.00  0.00     0.307 C 
HETATM   39  H4  UNL     1       1.516  52.340 -19.846  1.00  0.00     0.315 HD
ENDBRANCH  36  37
ENDBRANCH   1  36
TORSDOF 7
ENDMDL
MODEL 3
REMARK minimizedAffinity -8.08058643
REMARK  7 active torsions:
REMARK  status: ('A' for Active; 'I' for Inactive)
REMARK    1  A    between atoms: N1_2  and  C2_3 
REMARK    2  A    between atoms: C2_3  and  C3_4 
REMARK    3  A    between atoms: C5_6  and  O1_7 
REMARK    4  A    between atoms: C23_26  and  N2_27 
REMARK    5  A    between atoms: C23_26  and  C24_28 
REMARK    6  A    between atoms: C24_28  and  C25_29 
REMARK    7  A    between atoms: C25_29  and  O3_30 
ROOT
HETATM    1  C3  UNL     1      -1.378  50.863 -22.644  1.00  0.00    -0.021 A 
HETATM    2  C4  UNL     1      -0.775  51.225 -21.416  1.00  0.00     0.045 A 
HETATM    3  C5  UNL     1      -0.654  50.315 -20.381  1.00  0.00     0.066 A 
HETATM    4  C6  UNL     1      -1.107  49.021 -20.538  1.00  0.00     0.045 A 
HETATM    5  C7  UNL     1      -1.705  48.595 -21.745  1.00  0.00    -0.037 A 
HETATM    6  C8  UNL     1      -1.878  49.535 -22.824  1.00  0.00    -0.042 A 
HETATM    7  C9  UNL     1      -2.534  49.134 -24.156  1.00  0.00     0.044 C 
HETATM    8  C10 UNL     1      -4.087  49.232 -24.341  1.00  0.00    -0.010 C 
HETATM    9  C11 UNL     1      -4.711  50.633 -24.333  1.00  0.00     0.005 C 
HETATM   10  C12 UNL     1      -5.284  51.026 -22.973  1.00  0.00     0.001 C 
HETATM   11  C13 UNL     1      -6.367  50.057 -22.463  1.00  0.00     0.007 C 
HETATM   12  C14 UNL     1      -6.223  48.608 -22.978  1.00  0.00     0.022 C 
HETATM   13  C15 UNL     1      -4.764  48.343 -23.316  1.00  0.00     0.012 C 
HETATM   14  C16 UNL     1      -6.815  47.500 -22.013  1.00  0.00     0.082 C 
HETATM   15  C17 UNL     1      -8.301  47.855 -21.710  1.00  0.00     0.040 C 
HETATM   16  C18 UNL     1      -8.998  46.724 -20.955  1.00  0.00     0.013 C 
HETATM   17  C19 UNL     1      -7.982  45.589 -20.719  1.00  0.00     0.059 C 
HETATM   18  C20 UNL     1      -7.455  45.153 -22.134  1.00  0.00     0.061 C 
HETATM   19  C21 UNL     1      -8.604  44.703 -23.066  1.00  0.00     0.046 C 
HETATM   20  C22 UNL     1      -6.441  43.998 -22.127  1.00  0.00     0.046 C 
HETATM   21  O2  UNL     1      -6.819  46.272 -22.786  1.00  0.00    -0.368 OA
HETATM   22  C23 UNL     1      -6.821  46.131 -19.795  1.00  0.00     0.180 C 
HETATM   23  C26 UNL     1      -6.059  47.240 -20.629  1.00  0.00     0.139 C 
HETATM   24  C27 UNL     1      -4.603  46.948 -20.772  1.00  0.00    -0.096 C 
HETATM   25  C28 UNL     1      -3.437  46.909 -21.074  1.00  0.00    -0.101 C 
HETATM   26  C29 UNL     1      -2.131  47.122 -21.743  1.00  0.00     0.133 C 
ENDROOT
BRANCH  22  27
HETATM   27  N2  UNL     1      -6.046  44.947 -19.354  1.00  0.00     0.090 N 
HETATM   28  H33 UNL     1      -5.721  45.093 -18.388  1.00  0.00     0.313 HD
HETATM   29  H34 UNL     1      -5.181  44.866 -19.884  1.00  0.00     0.313 HD
ENDBRANCH  22  27
BRANCH  22  30
HETATM   30  C24 UNL     1      -7.375  46.780 -18.471  1.00  0.00     0.069 C 
BRANCH  30  31
HETATM   31  C25 UNL     1      -6.998  48.248 -18.220  1.00  0.00     0.166 C 
BRANCH  31  32
HETATM   32  O3  UNL     1      -7.918  48.871 -17.335  1.00  0.00    -0.401 OA
HETATM   33  H39 UNL     1      -7.632  49.797 -17.233  1.00  0.00     0.209 HD
ENDBRANCH  31  32
ENDBRANCH  30  31
ENDBRANCH  22  30
BRANCH   3  34
HETATM   34  O1  UNL     1      -0.081  50.654 -19.192  1.00  0.00    -0.361 OA
HETATM   35  H8  UNL     1       0.149  51.597 -19.214  1.00  0.00     0.217 HD
ENDBRANCH   3  34
BRANCH   1  36
HETATM   36  C2  UNL     1      -1.401  51.958 -23.699  1.00  0.00     0.308 C 
BRANCH  36  37
HETATM   37  N1  UNL     1      -0.129  52.684 -23.756  1.00  0.00     0.083 N 
HETATM   38  C1  UNL     1       0.674  52.250 -24.891  1.00  0.00     0.307 C 
HETATM   39  H4  UNL     1       0.389  52.535 -22.893  1.00  0.00     0.315 HD
ENDBRANCH  36  37
ENDBRANCH   1  36
TORSDOF 7
ENDMDL
MODEL 4
REMARK minimizedAffinity -7.85830688
REMARK  7 active torsions:
REMARK  status: ('A' for Active; 'I' for Inactive)
REMARK    1  A    between atoms: N1_2  and  C2_3 
REMARK    2  A    between atoms: C2_3  and  C3_4 
REMARK    3  A    between atoms: C5_6  and  O1_7 
REMARK    4  A    between atoms: C23_26  and  N2_27 
REMARK    5  A    between atoms: C23_26  and  C24_28 
REMARK    6  A    between atoms: C24_28  and  C25_29 
REMARK    7  A    between atoms: C25_29  and  O3_30 
ROOT
HETATM    1  C3  UNL     1      -0.304  51.493 -20.558  1.00  0.00    -0.021 A 
HETATM    2  C4  UNL     1      -0.056  51.859 -19.213  1.00  0.00     0.045 A 
HETATM    3  C5  UNL     1      -0.310  50.982 -18.175  1.00  0.00     0.066 A 
HETATM    4  C6  UNL     1      -0.796  49.718 -18.436  1.00  0.00     0.045 A 
HETATM    5  C7  UNL     1      -1.051  49.289 -19.758  1.00  0.00    -0.037 A 
HETATM    6  C8  UNL     1      -0.831  50.197 -20.855  1.00  0.00    -0.042 A 
HETATM    7  C9  UNL     1      -1.102  49.793 -22.314  1.00  0.00     0.044 C 
HETATM    8  C10 UNL     1      -2.523  49.991 -22.945  1.00  0.00    -0.010 C 
HETATM    9  C11 UNL     1      -3.012  51.432 -23.142  1.00  0.00     0.005 C 
HETATM   10  C12 UNL     1      -3.923  51.914 -22.014  1.00  0.00     0.001 C 
HETATM   11  C13 UNL     1      -5.178  51.042 -21.826  1.00  0.00     0.007 C 
HETATM   12  C14 UNL     1      -5.004  49.568 -22.255  1.00  0.00     0.022 C 
HETATM   13  C15 UNL     1      -3.534  49.191 -22.148  1.00  0.00     0.012 C 
HETATM   14  C16 UNL     1      -5.933  48.540 -21.486  1.00  0.00     0.082 C 
HETATM   15  C17 UNL     1      -7.411  49.009 -21.635  1.00  0.00     0.040 C 
HETATM   16  C18 UNL     1      -8.382  47.958 -21.099  1.00  0.00     0.013 C 
HETATM   17  C19 UNL     1      -7.568  46.765 -20.559  1.00  0.00     0.059 C 
HETATM   18  C20 UNL     1      -6.690  46.241 -21.752  1.00  0.00     0.061 C 
HETATM   19  C21 UNL     1      -7.551  45.837 -22.971  1.00  0.00     0.046 C 
HETATM   20  C22 UNL     1      -5.813  45.020 -21.432  1.00  0.00     0.046 C 
HETATM   21  O2  UNL     1      -5.808  47.288 -22.208  1.00  0.00    -0.368 OA
HETATM   22  C23 UNL     1      -6.687  47.260 -19.346  1.00  0.00     0.180 C 
HETATM   23  C26 UNL     1      -5.632  48.282 -19.938  1.00  0.00     0.139 C 
HETATM   24  C27 UNL     1      -4.224  47.884 -19.646  1.00  0.00    -0.096 C 
HETATM   25  C28 UNL     1      -3.027  47.753 -19.594  1.00  0.00    -0.101 C 
HETATM   26  C29 UNL     1      -1.571  47.850 -19.857  1.00  0.00     0.133 C 
ENDROOT
BRANCH  22  27
HETATM   27  N2  UNL     1      -6.166  46.042 -18.679  1.00  0.00     0.090 N 
HETATM   28  H33 UNL     1      -6.124  46.202 -17.663  1.00  0.00     0.313 HD
HETATM   29  H34 UNL     1      -5.193  45.882 -18.932  1.00  0.00     0.313 HD
ENDBRANCH  22  27
BRANCH  22  30
HETATM   30  C24 UNL     1      -7.548  47.995 -18.250  1.00  0.00     0.069 C 
BRANCH  30  31
HETATM   31  C25 UNL     1      -8.408  47.100 -17.345  1.00  0.00     0.166 C 
BRANCH  31  32
HETATM   32  O3  UNL     1      -9.219  47.879 -16.475  1.00  0.00    -0.401 OA
HETATM   33  H39 UNL     1      -9.723  47.254 -15.922  1.00  0.00     0.209 HD
ENDBRANCH  31  32
ENDBRANCH  30  31
ENDBRANCH  22  30
BRANCH   3  34
HETATM   34  O1  UNL     1      -0.082  51.325 -16.875  1.00  0.00    -0.361 OA
HETATM   35  H8  UNL     1       0.217  52.248 -16.845  1.00  0.00     0.217 HD
ENDBRANCH   3  34
BRANCH   1  36
HETATM   36  C2  UNL     1       0.065  52.547 -21.592  1.00  0.00     0.308 C 
BRANCH  36  37
HETATM   37  N1  UNL     1       1.460  52.975 -21.457  1.00  0.00     0.083 N 
HETATM   38  C1  UNL     1       1.582  54.420 -21.585  1.00  0.00     0.307 C 
HETATM   39  H4  UNL     1       2.028  52.519 -22.167  1.00  0.00     0.315 HD
ENDBRANCH  36  37
ENDBRANCH   1  36
TORSDOF 7
ENDMDL
MODEL 5
REMARK minimizedAffinity -7.80895996
REMARK  7 active torsions:
REMARK  status: ('A' for Active; 'I' for Inactive)
REMARK    1  A    between atoms: N1_2  and  C2_3 
REMARK    2  A    between atoms: C2_3  and  C3_4 
REMARK    3  A    between atoms: C5_6  and  O1_7 
REMARK    4  A    between atoms: C23_26  and  N2_27 
REMARK    5  A    between atoms: C23_26  and  C24_28 
REMARK    6  A    between atoms: C24_28  and  C25_29 
REMARK    7  A    between atoms: C25_29  and  O3_30 
ROOT
HETATM    1  C3  UNL     1      -7.377  46.582 -33.337  1.00  0.00    -0.021 A 
HETATM    2  C4  UNL     1      -6.381  47.579 -33.204  1.00  0.00     0.045 A 
HETATM    3  C5  UNL     1      -5.576  47.640 -32.081  1.00  0.00     0.066 A 
HETATM    4  C6  UNL     1      -5.719  46.711 -31.071  1.00  0.00     0.045 A 
HETATM    5  C7  UNL     1      -6.686  45.684 -31.152  1.00  0.00    -0.037 A 
HETATM    6  C8  UNL     1      -7.563  45.621 -32.294  1.00  0.00    -0.042 A 
HETATM    7  C9  UNL     1      -8.643  44.535 -32.433  1.00  0.00     0.044 C 
HETATM    8  C10 UNL     1     -10.075  44.754 -31.834  1.00  0.00    -0.010 C 
HETATM    9  C11 UNL     1     -10.944  45.848 -32.468  1.00  0.00     0.005 C 
HETATM   10  C12 UNL     1     -10.895  47.169 -31.702  1.00  0.00     0.001 C 
HETATM   11  C13 UNL     1     -11.344  47.042 -30.235  1.00  0.00     0.007 C 
HETATM   12  C14 UNL     1     -11.108  45.648 -29.612  1.00  0.00     0.022 C 
HETATM   13  C15 UNL     1      -9.959  44.967 -30.339  1.00  0.00     0.012 C 
HETATM   14  C16 UNL     1     -10.893  45.652 -28.042  1.00  0.00     0.082 C 
HETATM   15  C17 UNL     1     -12.105  46.377 -27.383  1.00  0.00     0.040 C 
HETATM   16  C18 UNL     1     -12.072  46.237 -25.862  1.00  0.00     0.013 C 
HETATM   17  C19 UNL     1     -10.821  45.427 -25.467  1.00  0.00     0.059 C 
HETATM   18  C20 UNL     1     -10.924  44.046 -26.211  1.00  0.00     0.061 C 
HETATM   19  C21 UNL     1     -12.226  43.293 -25.853  1.00  0.00     0.046 C 
HETATM   20  C22 UNL     1      -9.777  43.064 -25.928  1.00  0.00     0.046 C 
HETATM   21  O2  UNL     1     -10.958  44.260 -27.637  1.00  0.00    -0.368 OA
HETATM   22  C23 UNL     1      -9.536  46.238 -25.897  1.00  0.00     0.180 C 
HETATM   23  C26 UNL     1      -9.544  46.296 -27.479  1.00  0.00     0.139 C 
HETATM   24  C27 UNL     1      -8.300  45.730 -28.078  1.00  0.00    -0.096 C 
HETATM   25  C28 UNL     1      -7.438  45.285 -28.793  1.00  0.00    -0.101 C 
HETATM   26  C29 UNL     1      -6.689  44.734 -29.949  1.00  0.00     0.133 C 
ENDROOT
BRANCH  22  27
HETATM   27  N2  UNL     1      -8.382  45.579 -25.238  1.00  0.00     0.090 N 
HETATM   28  H33 UNL     1      -7.692  46.293 -24.966  1.00  0.00     0.313 HD
HETATM   29  H34 UNL     1      -7.872  44.999 -25.901  1.00  0.00     0.313 HD
ENDBRANCH  22  27
BRANCH  22  30
HETATM   30  C24 UNL     1      -9.549  47.709 -25.333  1.00  0.00     0.069 C 
BRANCH  30  31
HETATM   31  C25 UNL     1      -9.422  48.838 -26.368  1.00  0.00     0.166 C 
BRANCH  31  32
HETATM   32  O3  UNL     1      -9.656  50.107 -25.774  1.00  0.00    -0.401 OA
HETATM   33  H39 UNL     1      -9.577  50.771 -26.483  1.00  0.00     0.209 HD
ENDBRANCH  31  32
ENDBRANCH  30  31
ENDBRANCH  22  30
BRANCH   3  34
HETATM   34  O1  UNL     1      -4.618  48.599 -31.938  1.00  0.00    -0.361 OA
HETATM   35  H8  UNL     1      -4.662  49.199 -32.699  1.00  0.00     0.217 HD
ENDBRANCH   3  34
BRANCH   1  36
HETATM   36  C2  UNL     1      -8.153  46.617 -34.645  1.00  0.00     0.308 C 
BRANCH  36  37
HETATM   37  N1  UNL     1      -7.556  47.548 -35.606  1.00  0.00     0.083 N 
HETATM   38  C1  UNL     1      -8.328  47.598 -36.840  1.00  0.00     0.307 C 
HETATM   39  H4  UNL     1      -6.601  47.264 -35.811  1.00  0.00     0.315 HD
ENDBRANCH  36  37
ENDBRANCH   1  36
TORSDOF 7
ENDMDL
MODEL 6
REMARK minimizedAffinity -7.79768896
REMARK  7 active torsions:
REMARK  status: ('A' for Active; 'I' for Inactive)
REMARK    1  A    between atoms: N1_2  and  C2_3 
REMARK    2  A    between atoms: C2_3  and  C3_4 
REMARK    3  A    between atoms: C5_6  and  O1_7 
REMARK    4  A    between atoms: C23_26  and  N2_27 
REMARK    5  A    between atoms: C23_26  and  C24_28 
REMARK    6  A    between atoms: C24_28  and  C25_29 
REMARK    7  A    between atoms: C25_29  and  O3_30 
ROOT
HETATM    1  C3  UNL     1      -6.183  46.987 -31.524  1.00  0.00    -0.021 A 
HETATM    2  C4  UNL     1      -5.574  48.048 -30.813  1.00  0.00     0.045 A 
HETATM    3  C5  UNL     1      -5.551  48.062 -29.430  1.00  0.00     0.066 A 
HETATM    4  C6  UNL     1      -6.108  47.021 -28.715  1.00  0.00     0.045 A 
HETATM    5  C7  UNL     1      -6.717  45.927 -29.369  1.00  0.00    -0.037 A 
HETATM    6  C8  UNL     1      -6.789  45.908 -30.808  1.00  0.00    -0.042 A 
HETATM    7  C9  UNL     1      -7.452  44.751 -31.576  1.00  0.00     0.044 C 
HETATM    8  C10 UNL     1      -8.987  44.777 -31.887  1.00  0.00    -0.010 C 
HETATM    9  C11 UNL     1      -9.490  45.851 -32.860  1.00  0.00     0.005 C 
HETATM   10  C12 UNL     1     -10.054  47.082 -32.153  1.00  0.00     0.001 C 
HETATM   11  C13 UNL     1     -11.224  46.761 -31.206  1.00  0.00     0.007 C 
HETATM   12  C14 UNL     1     -11.194  45.335 -30.611  1.00  0.00     0.022 C 
HETATM   13  C15 UNL     1      -9.756  44.840 -30.583  1.00  0.00     0.012 C 
HETATM   14  C16 UNL     1     -11.895  45.191 -29.198  1.00  0.00     0.082 C 
HETATM   15  C17 UNL     1     -13.352  45.731 -29.315  1.00  0.00     0.040 C 
HETATM   16  C18 UNL     1     -14.155  45.434 -28.050  1.00  0.00     0.013 C 
HETATM   17  C19 UNL     1     -13.244  44.701 -27.047  1.00  0.00     0.059 C 
HETATM   18  C20 UNL     1     -12.728  43.403 -27.769  1.00  0.00     0.061 C 
HETATM   19  C21 UNL     1     -13.893  42.503 -28.241  1.00  0.00     0.046 C 
HETATM   20  C22 UNL     1     -11.816  42.502 -26.922  1.00  0.00     0.046 C 
HETATM   21  O2  UNL     1     -11.988  43.763 -28.953  1.00  0.00    -0.368 OA
HETATM   22  C23 UNL     1     -12.059  45.664 -26.641  1.00  0.00     0.180 C 
HETATM   23  C26 UNL     1     -11.190  45.888 -27.945  1.00  0.00     0.139 C 
HETATM   24  C27 UNL     1      -9.761  45.503 -27.753  1.00  0.00    -0.096 C 
HETATM   25  C28 UNL     1      -8.597  45.214 -27.869  1.00  0.00    -0.101 C 
HETATM   26  C29 UNL     1      -7.265  44.858 -28.416  1.00  0.00     0.133 C 
ENDROOT
BRANCH  22  27
HETATM   27  N2  UNL     1     -11.395  45.043 -25.469  1.00  0.00     0.090 N 
HETATM   28  H33 UNL     1     -11.077  45.783 -24.827  1.00  0.00     0.313 HD
HETATM   29  H34 UNL     1     -10.530  44.586 -25.747  1.00  0.00     0.313 HD
ENDBRANCH  22  27
BRANCH  22  30
HETATM   30  C24 UNL     1     -12.581  47.060 -26.130  1.00  0.00     0.069 C 
BRANCH  30  31
HETATM   31  C25 UNL     1     -12.249  48.276 -27.008  1.00  0.00     0.166 C 
BRANCH  31  32
HETATM   32  O3  UNL     1     -11.224  49.067 -26.423  1.00  0.00    -0.401 OA
HETATM   33  H39 UNL     1     -11.075  49.824 -27.019  1.00  0.00     0.209 HD
ENDBRANCH  31  32
ENDBRANCH  30  31
ENDBRANCH  22  30
BRANCH   3  34
HETATM   34  O1  UNL     1      -4.974  49.081 -28.733  1.00  0.00    -0.361 OA
HETATM   35  H8  UNL     1      -4.665  49.753 -29.362  1.00  0.00     0.217 HD
ENDBRANCH   3  34
BRANCH   1  36
HETATM   36  C2  UNL     1      -6.093  47.092 -33.040  1.00  0.00     0.308 C 
BRANCH  36  37
HETATM   37  N1  UNL     1      -4.828  46.553 -33.547  1.00  0.00     0.083 N 
HETATM   38  C1  UNL     1      -3.897  47.622 -33.879  1.00  0.00     0.307 C 
HETATM   39  H4  UNL     1      -5.003  45.983 -34.371  1.00  0.00     0.315 HD
ENDBRANCH  36  37
ENDBRANCH   1  36
TORSDOF 7
ENDMDL
MODEL 7
REMARK minimizedAffinity -7.67004395
REMARK  7 active torsions:
REMARK  status: ('A' for Active; 'I' for Inactive)
REMARK    1  A    between atoms: N1_2  and  C2_3 
REMARK    2  A    between atoms: C2_3  and  C3_4 
REMARK    3  A    between atoms: C5_6  and  O1_7 
REMARK    4  A    between atoms: C23_26  and  N2_27 
REMARK    5  A    between atoms: C23_26  and  C24_28 
REMARK    6  A    between atoms: C24_28  and  C25_29 
REMARK    7  A    between atoms: C25_29  and  O3_30 
ROOT
HETATM    1  C3  UNL     1      -2.110  51.401 -22.742  1.00  0.00    -0.021 A 
HETATM    2  C4  UNL     1      -1.127  52.153 -22.055  1.00  0.00     0.045 A 
HETATM    3  C5  UNL     1      -0.246  51.547 -21.178  1.00  0.00     0.066 A 
HETATM    4  C6  UNL     1      -0.299  50.184 -20.970  1.00  0.00     0.045 A 
HETATM    5  C7  UNL     1      -1.249  49.378 -21.636  1.00  0.00    -0.037 A 
HETATM    6  C8  UNL     1      -2.203  49.990 -22.526  1.00  0.00    -0.042 A 
HETATM    7  C9  UNL     1      -3.269  49.167 -23.269  1.00  0.00     0.044 C 
HETATM    8  C10 UNL     1      -4.659  48.878 -22.606  1.00  0.00    -0.010 C 
HETATM    9  C11 UNL     1      -5.591  50.074 -22.375  1.00  0.00     0.005 C 
HETATM   10  C12 UNL     1      -5.515  50.626 -20.953  1.00  0.00     0.001 C 
HETATM   11  C13 UNL     1      -5.857  49.584 -19.873  1.00  0.00     0.007 C 
HETATM   12  C14 UNL     1      -5.550  48.123 -20.273  1.00  0.00     0.022 C 
HETATM   13  C15 UNL     1      -4.441  48.116 -21.314  1.00  0.00     0.012 C 
HETATM   14  C16 UNL     1      -5.225  47.158 -19.059  1.00  0.00     0.082 C 
HETATM   15  C17 UNL     1      -6.401  47.238 -18.040  1.00  0.00     0.040 C 
HETATM   16  C18 UNL     1      -6.258  46.181 -16.946  1.00  0.00     0.013 C 
HETATM   17  C19 UNL     1      -4.967  45.379 -17.201  1.00  0.00     0.059 C 
HETATM   18  C20 UNL     1      -5.094  44.762 -18.641  1.00  0.00     0.061 C 
HETATM   19  C21 UNL     1      -6.352  43.874 -18.781  1.00  0.00     0.046 C 
HETATM   20  C22 UNL     1      -3.911  43.889 -19.087  1.00  0.00     0.046 C 
HETATM   21  O2  UNL     1      -5.233  45.817 -19.615  1.00  0.00    -0.368 OA
HETATM   22  C23 UNL     1      -3.731  46.355 -17.081  1.00  0.00     0.180 C 
HETATM   23  C26 UNL     1      -3.852  47.388 -18.275  1.00  0.00     0.139 C 
HETATM   24  C27 UNL     1      -2.642  47.397 -19.148  1.00  0.00    -0.096 C 
HETATM   25  C28 UNL     1      -1.824  47.548 -20.020  1.00  0.00    -0.101 C 
HETATM   26  C29 UNL     1      -1.148  47.886 -21.296  1.00  0.00     0.133 C 
ENDROOT
BRANCH  22  27
HETATM   27  N2  UNL     1      -2.521  45.499 -17.031  1.00  0.00     0.090 N 
HETATM   28  H33 UNL     1      -1.828  45.926 -16.401  1.00  0.00     0.313 HD
HETATM   29  H34 UNL     1      -2.048  45.493 -17.932  1.00  0.00     0.313 HD
ENDBRANCH  22  27
BRANCH  22  30
HETATM   30  C24 UNL     1      -3.734  47.147 -15.719  1.00  0.00     0.069 C 
BRANCH  30  31
HETATM   31  C25 UNL     1      -2.706  48.281 -15.587  1.00  0.00     0.166 C 
BRANCH  31  32
HETATM   32  O3  UNL     1      -3.343  49.551 -15.550  1.00  0.00    -0.401 OA
HETATM   33  H39 UNL     1      -2.639  50.220 -15.483  1.00  0.00     0.209 HD
ENDBRANCH  31  32
ENDBRANCH  30  31
ENDBRANCH  22  30
BRANCH   3  34
HETATM   34  O1  UNL     1       0.700  52.262 -20.506  1.00  0.00    -0.361 OA
HETATM   35  H8  UNL     1       0.591  53.202 -20.719  1.00  0.00     0.217 HD
ENDBRANCH   3  34
BRANCH   1  36
HETATM   36  C2  UNL     1      -2.977  52.199 -23.704  1.00  0.00     0.308 C 
BRANCH  36  37
HETATM   37  N1  UNL     1      -2.211  52.674 -24.859  1.00  0.00     0.083 N 
HETATM   38  C1  UNL     1      -2.762  52.157 -26.104  1.00  0.00     0.307 C 
HETATM   39  H4  UNL     1      -1.240  52.385 -24.769  1.00  0.00     0.315 HD
ENDBRANCH  36  37
ENDBRANCH   1  36
TORSDOF 7
ENDMDL
MODEL 8
REMARK minimizedAffinity -7.61706924
REMARK  7 active torsions:
REMARK  status: ('A' for Active; 'I' for Inactive)
REMARK    1  A    between atoms: N1_2  and  C2_3 
REMARK    2  A    between atoms: C2_3  and  C3_4 
REMARK    3  A    between atoms: C5_6  and  O1_7 
REMARK    4  A    between atoms: C23_26  and  N2_27 
REMARK    5  A    between atoms: C23_26  and  C24_28 
REMARK    6  A    between atoms: C24_28  and  C25_29 
REMARK    7  A    between atoms: C25_29  and  O3_30 
ROOT
HETATM    1  C3  UNL     1       0.075  53.114 -23.710  1.00  0.00    -0.021 A 
HETATM    2  C4  UNL     1       0.768  54.039 -22.893  1.00  0.00     0.045 A 
HETATM    3  C5  UNL     1       1.270  53.668 -21.659  1.00  0.00     0.066 A 
HETATM    4  C6  UNL     1       1.120  52.373 -21.208  1.00  0.00     0.045 A 
HETATM    5  C7  UNL     1       0.450  51.400 -21.984  1.00  0.00    -0.037 A 
HETATM    6  C8  UNL     1      -0.116  51.771 -23.256  1.00  0.00    -0.042 A 
HETATM    7  C9  UNL     1      -0.867  50.760 -24.140  1.00  0.00     0.044 C 
HETATM    8  C10 UNL     1      -2.407  50.534 -23.959  1.00  0.00    -0.010 C 
HETATM    9  C11 UNL     1      -3.337  51.700 -24.319  1.00  0.00     0.005 C 
HETATM   10  C12 UNL     1      -3.757  52.527 -23.105  1.00  0.00     0.001 C 
HETATM   11  C13 UNL     1      -4.478  51.703 -22.023  1.00  0.00     0.007 C 
HETATM   12  C14 UNL     1      -4.079  50.211 -21.983  1.00  0.00     0.022 C 
HETATM   13  C15 UNL     1      -2.675  50.057 -22.546  1.00  0.00     0.012 C 
HETATM   14  C16 UNL     1      -4.223  49.525 -20.562  1.00  0.00     0.082 C 
HETATM   15  C17 UNL     1      -5.681  49.742 -20.057  1.00  0.00     0.040 C 
HETATM   16  C18 UNL     1      -5.954  48.933 -18.790  1.00  0.00     0.013 C 
HETATM   17  C19 UNL     1      -4.672  48.167 -18.408  1.00  0.00     0.059 C 
HETATM   18  C20 UNL     1      -4.296  47.270 -19.643  1.00  0.00     0.061 C 
HETATM   19  C21 UNL     1      -5.441  46.306 -20.028  1.00  0.00     0.046 C 
HETATM   20  C22 UNL     1      -3.049  46.392 -19.458  1.00  0.00     0.046 C 
HETATM   21  O2  UNL     1      -4.061  48.102 -20.798  1.00  0.00    -0.368 OA
HETATM   22  C23 UNL     1      -3.539  49.213 -18.067  1.00  0.00     0.180 C 
HETATM   23  C26 UNL     1      -3.211  49.980 -19.412  1.00  0.00     0.139 C 
HETATM   24  C27 UNL     1      -1.770  49.881 -19.790  1.00  0.00    -0.096 C 
HETATM   25  C28 UNL     1      -0.695  49.900 -20.332  1.00  0.00    -0.101 C 
HETATM   26  C29 UNL     1       0.395  50.014 -21.332  1.00  0.00     0.133 C 
ENDROOT
BRANCH  22  27
HETATM   27  N2  UNL     1      -2.442  48.450 -17.423  1.00  0.00     0.090 N 
HETATM   28  H33 UNL     1      -2.008  49.031 -16.692  1.00  0.00     0.313 HD
HETATM   29  H34 UNL     1      -1.682  48.291 -18.081  1.00  0.00     0.313 HD
ENDBRANCH  22  27
BRANCH  22  30
HETATM   30  C24 UNL     1      -4.007  50.258 -16.985  1.00  0.00     0.069 C 
BRANCH  30  31
HETATM   31  C25 UNL     1      -2.964  50.663 -15.931  1.00  0.00     0.166 C 
BRANCH  31  32
HETATM   32  O3  UNL     1      -3.173  49.967 -14.710  1.00  0.00    -0.401 OA
HETATM   33  H39 UNL     1      -2.493  50.280 -14.086  1.00  0.00     0.209 HD
ENDBRANCH  31  32
ENDBRANCH  30  31
ENDBRANCH  22  30
BRANCH   3  34
HETATM   34  O1  UNL     1       1.933  54.552 -20.860  1.00  0.00    -0.361 OA
HETATM   35  H8  UNL     1       1.924  55.424 -21.286  1.00  0.00     0.217 HD
ENDBRANCH   3  34
BRANCH   1  36
HETATM   36  C2  UNL     1      -0.381  53.657 -25.056  1.00  0.00     0.308 C 
BRANCH  36  37
HETATM   37  N1  UNL     1       0.656  53.508 -26.081  1.00  0.00     0.083 N 
HETATM   38  C1  UNL     1       0.092  53.027 -27.334  1.00  0.00     0.307 C 
HETATM   39  H4  UNL     1       1.370  52.861 -25.756  1.00  0.00     0.315 HD
ENDBRANCH  36  37
ENDBRANCH   1  36
TORSDOF 7
ENDMDL
MODEL 9
REMARK minimizedAffinity -7.5089612
REMARK  7 active torsions:
REMARK  status: ('A' for Active; 'I' for Inactive)
REMARK    1  A    between atoms: N1_2  and  C2_3 
REMARK    2  A    between atoms: C2_3  and  C3_4 
REMARK    3  A    between atoms: C5_6  and  O1_7 
REMARK    4  A    between atoms: C23_26  and  N2_27 
REMARK    5  A    between atoms: C23_26  and  C24_28 
REMARK    6  A    between atoms: C24_28  and  C25_29 
REMARK    7  A    between atoms: C25_29  and  O3_30 
ROOT
HETATM    1  C3  UNL     1      -2.200  50.253 -25.026  1.00  0.00    -0.021 A 
HETATM    2  C4  UNL     1      -2.183  49.520 -26.237  1.00  0.00     0.045 A 
HETATM    3  C5  UNL     1      -3.291  48.807 -26.658  1.00  0.00     0.066 A 
HETATM    4  C6  UNL     1      -4.449  48.815 -25.907  1.00  0.00     0.045 A 
HETATM    5  C7  UNL     1      -4.532  49.539 -24.696  1.00  0.00    -0.037 A 
HETATM    6  C8  UNL     1      -3.379  50.258 -24.216  1.00  0.00    -0.042 A 
HETATM    7  C9  UNL     1      -3.405  51.052 -22.899  1.00  0.00     0.044 C 
HETATM    8  C10 UNL     1      -3.051  50.356 -21.541  1.00  0.00    -0.010 C 
HETATM    9  C11 UNL     1      -1.606  49.879 -21.349  1.00  0.00     0.005 C 
HETATM   10  C12 UNL     1      -1.418  48.395 -21.659  1.00  0.00     0.001 C 
HETATM   11  C13 UNL     1      -2.306  47.474 -20.802  1.00  0.00     0.007 C 
HETATM   12  C14 UNL     1      -3.627  48.119 -20.326  1.00  0.00     0.022 C 
HETATM   13  C15 UNL     1      -4.022  49.217 -21.302  1.00  0.00     0.012 C 
HETATM   14  C16 UNL     1      -4.811  47.097 -20.077  1.00  0.00     0.082 C 
HETATM   15  C17 UNL     1      -4.316  46.005 -19.082  1.00  0.00     0.040 C 
HETATM   16  C18 UNL     1      -5.465  45.104 -18.633  1.00  0.00     0.013 C 
HETATM   17  C19 UNL     1      -6.757  45.564 -19.335  1.00  0.00     0.059 C 
HETATM   18  C20 UNL     1      -6.969  47.073 -18.948  1.00  0.00     0.061 C 
HETATM   19  C21 UNL     1      -7.053  47.271 -17.417  1.00  0.00     0.046 C 
HETATM   20  C22 UNL     1      -8.234  47.726 -19.527  1.00  0.00     0.046 C 
HETATM   21  O2  UNL     1      -5.844  47.856 -19.397  1.00  0.00    -0.368 OA
HETATM   22  C23 UNL     1      -6.584  45.371 -20.893  1.00  0.00     0.180 C 
HETATM   23  C26 UNL     1      -5.449  46.376 -21.352  1.00  0.00     0.139 C 
HETATM   24  C27 UNL     1      -5.912  47.312 -22.417  1.00  0.00    -0.096 C 
HETATM   25  C28 UNL     1      -6.055  48.199 -23.220  1.00  0.00    -0.101 C 
HETATM   26  C29 UNL     1      -5.899  49.446 -24.008  1.00  0.00     0.133 C 
ENDROOT
BRANCH  22  27
HETATM   27  N2  UNL     1      -7.931  45.535 -21.490  1.00  0.00     0.090 N 
HETATM   28  H33 UNL     1      -8.031  44.890 -22.287  1.00  0.00     0.313 HD
HETATM   29  H34 UNL     1      -8.026  46.453 -21.917  1.00  0.00     0.313 HD
ENDBRANCH  22  27
BRANCH  22  30
HETATM   30  C24 UNL     1      -6.144  43.903 -21.261  1.00  0.00     0.069 C 
BRANCH  30  31
HETATM   31  C25 UNL     1      -6.935  43.215 -22.384  1.00  0.00     0.166 C 
BRANCH  31  32
HETATM   32  O3  UNL     1      -6.850  41.800 -22.277  1.00  0.00    -0.401 OA
HETATM   33  H39 UNL     1      -7.356  41.429 -23.023  1.00  0.00     0.209 HD
ENDBRANCH  31  32
ENDBRANCH  30  31
ENDBRANCH  22  30
BRANCH   3  34
HETATM   34  O1  UNL     1      -3.285  48.093 -27.818  1.00  0.00    -0.361 OA
HETATM   35  H8  UNL     1      -2.400  48.147 -28.213  1.00  0.00     0.217 HD
ENDBRANCH   3  34
BRANCH   1  36
HETATM   36  C2  UNL     1      -0.922  51.019 -24.717  1.00  0.00     0.308 C 
BRANCH  36  37
HETATM   37  N1  UNL     1       0.014  50.988 -25.844  1.00  0.00     0.083 N 
HETATM   38  C1  UNL     1       1.129  51.899 -25.626  1.00  0.00     0.307 C 
HETATM   39  H4  UNL     1      -0.472  51.241 -26.701  1.00  0.00     0.315 HD
ENDBRANCH  36  37
ENDBRANCH   1  36
TORSDOF 7
ENDMDL
