MODEL 1
REMARK minimizedAffinity -7.73220634
REMARK  12 active torsions:
REMARK  status: ('A' for Active; 'I' for Inactive)
REMARK    1  A    between atoms: C4_5  and  O2_6 
REMARK    2  A    between atoms: C8_11  and  O4_12 
REMARK    3  A    between atoms: O4_12  and  C9_13 
REMARK    4  A    between atoms: C9_13  and  C10_15 
REMARK    5  A    between atoms: C10_15  and  O6_16 
REMARK    6  A    between atoms: C10_15  and  C11_17 
REMARK    7  A    between atoms: C10_15  and  C12_19 
REMARK    8  A    between atoms: C11_17  and  O7_18 
REMARK    9  A    between atoms: C12_19  and  C13_20 
REMARK   10  A    between atoms: C13_20  and  C15_22 
REMARK   11  A    between atoms: C15_22  and  C16_23 
REMARK   12  A    between atoms: C16_23  and  C18_25 
ROOT
HETATM    1  C1  UNL     1       4.207   8.141  10.004  1.00  0.00     0.017 C 
HETATM    2  C2  UNL     1       3.200   7.329  10.350  1.00  0.00    -0.056 C 
HETATM    3  C3  UNL     1       3.185   5.848  10.239  1.00  0.00     0.205 C 
HETATM    4  O1  UNL     1       1.838   5.498   9.931  1.00  0.00    -0.348 OA
HETATM    5  C4  UNL     1       0.956   6.532  10.410  1.00  0.00     0.201 C 
HETATM    6  C6  UNL     1       0.115   5.971  11.527  1.00  0.00     0.223 A 
HETATM    7  O3  UNL     1       0.834   5.683  12.732  1.00  0.00    -0.360 OA
HETATM    8  C7  UNL     1      -0.158   6.740  12.806  1.00  0.00     0.127 A 
HETATM    9  C8  UNL     1      -1.277   6.343  13.733  1.00  0.00     0.170 C 
HETATM   10  C20 UNL     1      -0.871   6.535  15.204  1.00  0.00     0.036 C 
HETATM   11  C21 UNL     1       0.464   7.265  15.387  1.00  0.00     0.007 C 
HETATM   12  C22 UNL     1       0.593   8.510  14.489  1.00  0.00    -0.007 C 
HETATM   13  C23 UNL     1      -0.349   9.605  15.014  1.00  0.00     0.011 C 
HETATM   14  C24 UNL     1       0.438   8.143  12.958  1.00  0.00    -0.003 C 
HETATM   15  C25 UNL     1      -0.432   9.167  12.195  1.00  0.00     0.019 C 
HETATM   16  C26 UNL     1       1.853   8.138  12.303  1.00  0.00     0.027 C 
HETATM   17  C27 UNL     1       1.837   7.753  10.809  1.00  0.00     0.082 C 
ENDROOT
BRANCH   9  18
HETATM   18  O4  UNL     1      -2.455   7.134  13.482  1.00  0.00    -0.310 OA
BRANCH  18  19
HETATM   19  C9  UNL     1      -3.520   6.890  14.286  1.00  0.00     0.296 C 
HETATM   20  O5  UNL     1      -3.532   6.101  15.229  1.00  0.00    -0.262 OA
BRANCH  19  21
HETATM   21  C10 UNL     1      -4.757   7.727  13.918  1.00  0.00     0.166 C 
BRANCH  21  22
HETATM   22  O6  UNL     1      -4.347   8.771  13.008  1.00  0.00    -0.377 OA
HETATM   23  H10 UNL     1      -3.393   8.925  13.174  1.00  0.00     0.211 HD
ENDBRANCH  21  22
BRANCH  21  24
HETATM   24  C11 UNL     1      -5.252   8.455  15.187  1.00  0.00     0.212 C 
BRANCH  24  25
HETATM   25  O7  UNL     1      -4.274   8.565  16.216  1.00  0.00    -0.397 OA
HETATM   26  H13 UNL     1      -4.278   7.727  16.712  1.00  0.00     0.209 HD
ENDBRANCH  24  25
ENDBRANCH  21  24
BRANCH  21  27
HETATM   27  C12 UNL     1      -5.866   6.900  13.232  1.00  0.00     0.055 C 
BRANCH  27  28
HETATM   28  C13 UNL     1      -6.252   5.536  13.874  1.00  0.00    -0.015 C 
HETATM   29  C14 UNL     1      -7.782   5.477  13.987  1.00  0.00     0.010 C 
BRANCH  28  30
HETATM   30  C15 UNL     1      -5.690   4.318  13.110  1.00  0.00     0.008 C 
BRANCH  30  31
HETATM   31  C16 UNL     1      -6.668   3.582  12.162  1.00  0.00    -0.019 C 
HETATM   32  C17 UNL     1      -7.586   2.626  12.932  1.00  0.00     0.010 C 
BRANCH  31  33
HETATM   33  C18 UNL     1      -5.849   2.833  11.087  1.00  0.00    -0.000 C 
HETATM   34  C19 UNL     1      -5.703   1.342  11.351  1.00  0.00     0.005 C 
ENDBRANCH  31  33
ENDBRANCH  30  31
ENDBRANCH  28  30
ENDBRANCH  27  28
ENDBRANCH  21  27
ENDBRANCH  19  21
ENDBRANCH  18  19
ENDBRANCH   9  18
BRANCH   5  35
HETATM   35  O2  UNL     1       0.086   6.994   9.357  1.00  0.00    -0.357 OA
HETATM   36  C5  UNL     1       0.408   8.279   8.843  1.00  0.00     0.205 C 
ENDBRANCH   5  35
TORSDOF 12
ENDMDL
MODEL 2
REMARK minimizedAffinity -7.48376656
REMARK  12 active torsions:
REMARK  status: ('A' for Active; 'I' for Inactive)
REMARK    1  A    between atoms: C4_5  and  O2_6 
REMARK    2  A    between atoms: C8_11  and  O4_12 
REMARK    3  A    between atoms: O4_12  and  C9_13 
REMARK    4  A    between atoms: C9_13  and  C10_15 
REMARK    5  A    between atoms: C10_15  and  O6_16 
REMARK    6  A    between atoms: C10_15  and  C11_17 
REMARK    7  A    between atoms: C10_15  and  C12_19 
REMARK    8  A    between atoms: C11_17  and  O7_18 
REMARK    9  A    between atoms: C12_19  and  C13_20 
REMARK   10  A    between atoms: C13_20  and  C15_22 
REMARK   11  A    between atoms: C15_22  and  C16_23 
REMARK   12  A    between atoms: C16_23  and  C18_25 
ROOT
HETATM    1  C1  UNL     1      -9.099   7.489  16.523  1.00  0.00     0.017 C 
HETATM    2  C2  UNL     1      -8.406   7.093  15.447  1.00  0.00    -0.056 C 
HETATM    3  C3  UNL     1      -8.905   7.041  14.050  1.00  0.00     0.205 C 
HETATM    4  O1  UNL     1      -8.260   5.919  13.451  1.00  0.00    -0.348 OA
HETATM    5  C4  UNL     1      -7.024   5.655  14.145  1.00  0.00     0.201 C 
HETATM    6  C6  UNL     1      -5.876   5.936  13.210  1.00  0.00     0.223 A 
HETATM    7  O3  UNL     1      -5.689   7.319  12.889  1.00  0.00    -0.360 OA
HETATM    8  C7  UNL     1      -4.631   6.681  13.651  1.00  0.00     0.127 A 
HETATM    9  C8  UNL     1      -3.361   6.629  12.840  1.00  0.00     0.170 C 
HETATM   10  C20 UNL     1      -2.640   7.987  12.858  1.00  0.00     0.036 C 
HETATM   11  C21 UNL     1      -3.245   8.998  13.837  1.00  0.00     0.007 C 
HETATM   12  C22 UNL     1      -3.548   8.384  15.217  1.00  0.00    -0.007 C 
HETATM   13  C23 UNL     1      -2.222   8.112  15.947  1.00  0.00     0.011 C 
HETATM   14  C24 UNL     1      -4.537   7.155  15.104  1.00  0.00    -0.003 C 
HETATM   15  C25 UNL     1      -4.116   5.978  16.013  1.00  0.00     0.019 C 
HETATM   16  C26 UNL     1      -5.957   7.617  15.552  1.00  0.00     0.027 C 
HETATM   17  C27 UNL     1      -7.025   6.509  15.448  1.00  0.00     0.082 C 
ENDROOT
BRANCH   9  18
HETATM   18  O4  UNL     1      -2.462   5.633  13.362  1.00  0.00    -0.310 OA
BRANCH  18  19
HETATM   19  C9  UNL     1      -2.300   4.519  12.604  1.00  0.00     0.296 C 
HETATM   20  O5  UNL     1      -3.166   3.670  12.396  1.00  0.00    -0.262 OA
BRANCH  19  21
HETATM   21  C10 UNL     1      -0.896   4.406  11.988  1.00  0.00     0.166 C 
BRANCH  21  22
HETATM   22  O6  UNL     1      -0.971   4.818  10.605  1.00  0.00    -0.377 OA
HETATM   23  H10 UNL     1      -1.898   4.675  10.322  1.00  0.00     0.211 HD
ENDBRANCH  21  22
BRANCH  21  24
HETATM   24  C11 UNL     1      -0.493   2.916  11.953  1.00  0.00     0.212 C 
BRANCH  24  25
HETATM   25  O7  UNL     1       0.553   2.615  11.036  1.00  0.00    -0.397 OA
HETATM   26  H13 UNL     1       0.149   2.512  10.156  1.00  0.00     0.209 HD
ENDBRANCH  24  25
ENDBRANCH  21  24
BRANCH  21  27
HETATM   27  C12 UNL     1       0.151   5.292  12.699  1.00  0.00     0.055 C 
BRANCH  27  28
HETATM   28  C13 UNL     1       0.604   6.594  11.978  1.00  0.00    -0.015 C 
HETATM   29  C14 UNL     1       1.875   7.106  12.673  1.00  0.00     0.010 C 
BRANCH  28  30
HETATM   30  C15 UNL     1       0.817   6.413  10.460  1.00  0.00     0.008 C 
BRANCH  30  31
HETATM   31  C16 UNL     1       1.279   7.662   9.671  1.00  0.00    -0.019 C 
HETATM   32  C17 UNL     1       0.146   8.241   8.818  1.00  0.00     0.010 C 
BRANCH  31  33
HETATM   33  C18 UNL     1       2.498   7.278   8.802  1.00  0.00    -0.000 C 
HETATM   34  C19 UNL     1       2.157   7.016   7.343  1.00  0.00     0.005 C 
ENDBRANCH  31  33
ENDBRANCH  30  31
ENDBRANCH  28  30
ENDBRANCH  27  28
ENDBRANCH  21  27
ENDBRANCH  19  21
ENDBRANCH  18  19
ENDBRANCH   9  18
BRANCH   5  35
HETATM   35  O2  UNL     1      -6.957   4.279  14.568  1.00  0.00    -0.357 OA
HETATM   36  C5  UNL     1      -7.384   3.337  13.595  1.00  0.00     0.205 C 
ENDBRANCH   5  35
TORSDOF 12
ENDMDL
MODEL 3
REMARK minimizedAffinity -7.44799995
REMARK  12 active torsions:
REMARK  status: ('A' for Active; 'I' for Inactive)
REMARK    1  A    between atoms: C4_5  and  O2_6 
REMARK    2  A    between atoms: C8_11  and  O4_12 
REMARK    3  A    between atoms: O4_12  and  C9_13 
REMARK    4  A    between atoms: C9_13  and  C10_15 
REMARK    5  A    between atoms: C10_15  and  O6_16 
REMARK    6  A    between atoms: C10_15  and  C11_17 
REMARK    7  A    between atoms: C10_15  and  C12_19 
REMARK    8  A    between atoms: C11_17  and  O7_18 
REMARK    9  A    between atoms: C12_19  and  C13_20 
REMARK   10  A    between atoms: C13_20  and  C15_22 
REMARK   11  A    between atoms: C15_22  and  C16_23 
REMARK   12  A    between atoms: C16_23  and  C18_25 
ROOT
HETATM    1  C1  UNL     1       4.785   9.082  10.131  1.00  0.00     0.017 C 
HETATM    2  C2  UNL     1       4.098   8.040  10.618  1.00  0.00    -0.056 C 
HETATM    3  C3  UNL     1       4.673   6.778  11.148  1.00  0.00     0.205 C 
HETATM    4  O1  UNL     1       3.743   5.754  10.800  1.00  0.00    -0.348 OA
HETATM    5  C4  UNL     1       2.434   6.336  10.637  1.00  0.00     0.201 C 
HETATM    6  C6  UNL     1       1.535   5.817  11.729  1.00  0.00     0.223 A 
HETATM    7  O3  UNL     1       1.855   6.290  13.043  1.00  0.00    -0.360 OA
HETATM    8  C7  UNL     1       0.580   6.714  12.492  1.00  0.00     0.127 A 
HETATM    9  C8  UNL     1      -0.555   6.139  13.300  1.00  0.00     0.170 C 
HETATM   10  C20 UNL     1      -0.776   6.943  14.592  1.00  0.00     0.036 C 
HETATM   11  C21 UNL     1       0.045   8.235  14.665  1.00  0.00     0.007 C 
HETATM   12  C22 UNL     1      -0.000   9.047  13.357  1.00  0.00    -0.007 C 
HETATM   13  C23 UNL     1      -1.400   9.664  13.199  1.00  0.00     0.011 C 
HETATM   14  C24 UNL     1       0.522   8.200  12.128  1.00  0.00    -0.003 C 
HETATM   15  C25 UNL     1      -0.349   8.397  10.867  1.00  0.00     0.019 C 
HETATM   16  C26 UNL     1       1.970   8.668  11.783  1.00  0.00     0.027 C 
HETATM   17  C27 UNL     1       2.607   7.884  10.617  1.00  0.00     0.082 C 
ENDROOT
BRANCH   9  18
HETATM   18  O4  UNL     1      -1.781   6.155  12.543  1.00  0.00    -0.310 OA
BRANCH  18  19
HETATM   19  C9  UNL     1      -2.705   5.221  12.882  1.00  0.00     0.296 C 
HETATM   20  O5  UNL     1      -3.567   5.358  13.748  1.00  0.00    -0.262 OA
BRANCH  19  21
HETATM   21  C10 UNL     1      -2.593   3.932  12.051  1.00  0.00     0.166 C 
BRANCH  21  22
HETATM   22  O6  UNL     1      -1.324   3.308  12.346  1.00  0.00    -0.377 OA
HETATM   23  H10 UNL     1      -0.728   4.022  12.656  1.00  0.00     0.211 HD
ENDBRANCH  21  22
BRANCH  21  24
HETATM   24  C11 UNL     1      -2.527   4.316  10.556  1.00  0.00     0.212 C 
BRANCH  24  25
HETATM   25  O7  UNL     1      -2.736   3.227   9.664  1.00  0.00    -0.397 OA
HETATM   26  H13 UNL     1      -1.886   2.761   9.568  1.00  0.00     0.209 HD
ENDBRANCH  24  25
ENDBRANCH  21  24
BRANCH  21  27
HETATM   27  C12 UNL     1      -3.713   2.914  12.357  1.00  0.00     0.055 C 
BRANCH  27  28
HETATM   28  C13 UNL     1      -4.978   2.937  11.453  1.00  0.00    -0.015 C 
HETATM   29  C14 UNL     1      -5.632   1.549  11.512  1.00  0.00     0.010 C 
BRANCH  28  30
HETATM   30  C15 UNL     1      -5.976   4.054  11.822  1.00  0.00     0.008 C 
BRANCH  30  31
HETATM   31  C16 UNL     1      -6.768   3.868  13.140  1.00  0.00    -0.019 C 
HETATM   32  C17 UNL     1      -7.494   2.520  13.175  1.00  0.00     0.010 C 
BRANCH  31  33
HETATM   33  C18 UNL     1      -7.757   5.045  13.295  1.00  0.00    -0.000 C 
HETATM   34  C19 UNL     1      -7.105   6.416  13.190  1.00  0.00     0.005 C 
ENDBRANCH  31  33
ENDBRANCH  30  31
ENDBRANCH  28  30
ENDBRANCH  27  28
ENDBRANCH  21  27
ENDBRANCH  19  21
ENDBRANCH  18  19
ENDBRANCH   9  18
BRANCH   5  35
HETATM   35  O2  UNL     1       1.870   5.980   9.359  1.00  0.00    -0.357 OA
HETATM   36  C5  UNL     1       2.787   5.388   8.450  1.00  0.00     0.205 C 
ENDBRANCH   5  35
TORSDOF 12
ENDMDL
MODEL 4
REMARK minimizedAffinity -7.44691706
REMARK  12 active torsions:
REMARK  status: ('A' for Active; 'I' for Inactive)
REMARK    1  A    between atoms: C4_5  and  O2_6 
REMARK    2  A    between atoms: C8_11  and  O4_12 
REMARK    3  A    between atoms: O4_12  and  C9_13 
REMARK    4  A    between atoms: C9_13  and  C10_15 
REMARK    5  A    between atoms: C10_15  and  O6_16 
REMARK    6  A    between atoms: C10_15  and  C11_17 
REMARK    7  A    between atoms: C10_15  and  C12_19 
REMARK    8  A    between atoms: C11_17  and  O7_18 
REMARK    9  A    between atoms: C12_19  and  C13_20 
REMARK   10  A    between atoms: C13_20  and  C15_22 
REMARK   11  A    between atoms: C15_22  and  C16_23 
REMARK   12  A    between atoms: C16_23  and  C18_25 
ROOT
HETATM    1  C1  UNL     1      -8.895   6.539  15.906  1.00  0.00     0.017 C 
HETATM    2  C2  UNL     1      -7.992   6.558  14.916  1.00  0.00    -0.056 C 
HETATM    3  C3  UNL     1      -8.278   6.690  13.465  1.00  0.00     0.205 C 
HETATM    4  O1  UNL     1      -7.287   5.907  12.803  1.00  0.00    -0.348 OA
HETATM    5  C4  UNL     1      -6.124   5.799  13.647  1.00  0.00     0.201 C 
HETATM    6  C6  UNL     1      -4.983   6.535  12.994  1.00  0.00     0.223 A 
HETATM    7  O3  UNL     1      -5.132   7.960  12.959  1.00  0.00    -0.360 OA
HETATM    8  C7  UNL     1      -4.047   7.440  13.772  1.00  0.00     0.127 A 
HETATM    9  C8  UNL     1      -2.718   7.864  13.202  1.00  0.00     0.170 C 
HETATM   10  C20 UNL     1      -2.391   9.318  13.584  1.00  0.00     0.036 C 
HETATM   11  C21 UNL     1      -3.363   9.923  14.603  1.00  0.00     0.007 C 
HETATM   12  C22 UNL     1      -3.663   8.974  15.779  1.00  0.00    -0.007 C 
HETATM   13  C23 UNL     1      -2.416   8.873  16.672  1.00  0.00     0.011 C 
HETATM   14  C24 UNL     1      -4.267   7.600  15.279  1.00  0.00    -0.003 C 
HETATM   15  C25 UNL     1      -3.667   6.389  16.027  1.00  0.00     0.019 C 
HETATM   16  C26 UNL     1      -5.804   7.609  15.543  1.00  0.00     0.027 C 
HETATM   17  C27 UNL     1      -6.517   6.329  15.059  1.00  0.00     0.082 C 
ENDROOT
BRANCH   9  18
HETATM   18  O4  UNL     1      -1.659   7.019  13.692  1.00  0.00    -0.310 OA
BRANCH  18  19
HETATM   19  C9  UNL     1      -1.151   6.125  12.807  1.00  0.00     0.296 C 
HETATM   20  O5  UNL     1      -1.809   5.301  12.174  1.00  0.00    -0.262 OA
BRANCH  19  21
HETATM   21  C10 UNL     1       0.373   6.240  12.640  1.00  0.00     0.166 C 
BRANCH  21  22
HETATM   22  O6  UNL     1       1.006   5.591  13.765  1.00  0.00    -0.377 OA
HETATM   23  H10 UNL     1       0.355   5.609  14.498  1.00  0.00     0.211 HD
ENDBRANCH  21  22
BRANCH  21  24
HETATM   24  C11 UNL     1       0.767   7.729  12.747  1.00  0.00     0.212 C 
BRANCH  24  25
HETATM   25  O7  UNL     1       1.158   8.137  14.054  1.00  0.00    -0.397 OA
HETATM   26  H13 UNL     1       0.346   8.330  14.555  1.00  0.00     0.209 HD
ENDBRANCH  24  25
ENDBRANCH  21  24
BRANCH  21  27
HETATM   27  C12 UNL     1       0.893   5.576  11.346  1.00  0.00     0.055 C 
BRANCH  27  28
HETATM   28  C13 UNL     1       1.155   6.494  10.117  1.00  0.00    -0.015 C 
HETATM   29  C14 UNL     1       0.093   7.602  10.115  1.00  0.00     0.010 C 
BRANCH  28  30
HETATM   30  C15 UNL     1       2.585   7.072  10.078  1.00  0.00     0.008 C 
BRANCH  30  31
HETATM   31  C16 UNL     1       3.227   7.241   8.679  1.00  0.00    -0.019 C 
HETATM   32  C17 UNL     1       3.113   8.684   8.177  1.00  0.00     0.010 C 
BRANCH  31  33
HETATM   33  C18 UNL     1       2.556   6.249   7.702  1.00  0.00    -0.000 C 
HETATM   34  C19 UNL     1       1.904   6.915   6.499  1.00  0.00     0.005 C 
ENDBRANCH  31  33
ENDBRANCH  30  31
ENDBRANCH  28  30
ENDBRANCH  27  28
ENDBRANCH  21  27
ENDBRANCH  19  21
ENDBRANCH  18  19
ENDBRANCH   9  18
BRANCH   5  35
HETATM   35  O2  UNL     1      -5.747   4.419  13.829  1.00  0.00    -0.357 OA
HETATM   36  C5  UNL     1      -5.530   3.701  12.623  1.00  0.00     0.205 C 
ENDBRANCH   5  35
TORSDOF 12
ENDMDL
MODEL 5
REMARK minimizedAffinity -7.2152667
REMARK  12 active torsions:
REMARK  status: ('A' for Active; 'I' for Inactive)
REMARK    1  A    between atoms: C4_5  and  O2_6 
REMARK    2  A    between atoms: C8_11  and  O4_12 
REMARK    3  A    between atoms: O4_12  and  C9_13 
REMARK    4  A    between atoms: C9_13  and  C10_15 
REMARK    5  A    between atoms: C10_15  and  O6_16 
REMARK    6  A    between atoms: C10_15  and  C11_17 
REMARK    7  A    between atoms: C10_15  and  C12_19 
REMARK    8  A    between atoms: C11_17  and  O7_18 
REMARK    9  A    between atoms: C12_19  and  C13_20 
REMARK   10  A    between atoms: C13_20  and  C15_22 
REMARK   11  A    between atoms: C15_22  and  C16_23 
REMARK   12  A    between atoms: C16_23  and  C18_25 
ROOT
HETATM    1  C1  UNL     1      -6.893   5.833  16.609  1.00  0.00     0.017 C 
HETATM    2  C2  UNL     1      -6.388   6.377  15.494  1.00  0.00    -0.056 C 
HETATM    3  C3  UNL     1      -7.141   7.144  14.470  1.00  0.00     0.205 C 
HETATM    4  O1  UNL     1      -6.521   6.835  13.223  1.00  0.00    -0.348 OA
HETATM    5  C4  UNL     1      -5.155   6.440  13.457  1.00  0.00     0.201 C 
HETATM    6  C6  UNL     1      -4.242   7.481  12.863  1.00  0.00     0.223 A 
HETATM    7  O3  UNL     1      -4.252   8.743  13.540  1.00  0.00    -0.360 OA
HETATM    8  C7  UNL     1      -3.011   7.992  13.587  1.00  0.00     0.127 A 
HETATM    9  C8  UNL     1      -1.923   8.733  12.852  1.00  0.00     0.170 C 
HETATM   10  C20 UNL     1      -1.344   9.865  13.717  1.00  0.00     0.036 C 
HETATM   11  C21 UNL     1      -1.842   9.852  15.167  1.00  0.00     0.007 C 
HETATM   12  C22 UNL     1      -1.812   8.447  15.796  1.00  0.00    -0.007 C 
HETATM   13  C23 UNL     1      -0.350   8.040  16.044  1.00  0.00     0.011 C 
HETATM   14  C24 UNL     1      -2.682   7.419  14.968  1.00  0.00    -0.003 C 
HETATM   15  C25 UNL     1      -1.984   6.049  14.814  1.00  0.00     0.019 C 
HETATM   16  C26 UNL     1      -4.026   7.185  15.724  1.00  0.00     0.027 C 
HETATM   17  C27 UNL     1      -4.984   6.223  14.991  1.00  0.00     0.082 C 
ENDROOT
BRANCH   9  18
HETATM   18  O4  UNL     1      -0.849   7.842  12.495  1.00  0.00    -0.310 OA
BRANCH  18  19
HETATM   19  C9  UNL     1      -0.284   8.046  11.278  1.00  0.00     0.296 C 
HETATM   20  O5  UNL     1      -0.436   9.050  10.584  1.00  0.00    -0.262 OA
BRANCH  19  21
HETATM   21  C10 UNL     1       0.612   6.881  10.826  1.00  0.00     0.166 C 
BRANCH  21  22
HETATM   22  O6  UNL     1      -0.190   5.679  10.785  1.00  0.00    -0.377 OA
HETATM   23  H10 UNL     1      -0.934   5.820  11.407  1.00  0.00     0.211 HD
ENDBRANCH  21  22
BRANCH  21  24
HETATM   24  C11 UNL     1       1.677   6.629  11.915  1.00  0.00     0.212 C 
BRANCH  24  25
HETATM   25  O7  UNL     1       1.832   7.702  12.839  1.00  0.00    -0.397 OA
HETATM   26  H13 UNL     1       2.425   8.356  12.429  1.00  0.00     0.209 HD
ENDBRANCH  24  25
ENDBRANCH  21  24
BRANCH  21  27
HETATM   27  C12 UNL     1       1.227   7.097   9.426  1.00  0.00     0.055 C 
BRANCH  27  28
HETATM   28  C13 UNL     1       2.710   6.677   9.216  1.00  0.00    -0.015 C 
HETATM   29  C14 UNL     1       2.794   5.855   7.921  1.00  0.00     0.010 C 
BRANCH  28  30
HETATM   30  C15 UNL     1       3.689   7.870   9.199  1.00  0.00     0.008 C 
BRANCH  30  31
HETATM   31  C16 UNL     1       4.528   8.095  10.481  1.00  0.00    -0.019 C 
HETATM   32  C17 UNL     1       5.509   9.260  10.314  1.00  0.00     0.010 C 
BRANCH  31  33
HETATM   33  C18 UNL     1       5.265   6.782  10.830  1.00  0.00    -0.000 C 
HETATM   34  C19 UNL     1       6.770   6.943  10.986  1.00  0.00     0.005 C 
ENDBRANCH  31  33
ENDBRANCH  30  31
ENDBRANCH  28  30
ENDBRANCH  27  28
ENDBRANCH  21  27
ENDBRANCH  19  21
ENDBRANCH  18  19
ENDBRANCH   9  18
BRANCH   5  35
HETATM   35  O2  UNL     1      -4.876   5.167  12.840  1.00  0.00    -0.357 OA
HETATM   36  C5  UNL     1      -5.977   4.270  12.808  1.00  0.00     0.205 C 
ENDBRANCH   5  35
TORSDOF 12
ENDMDL
MODEL 6
REMARK minimizedAffinity -7.1879735
REMARK  12 active torsions:
REMARK  status: ('A' for Active; 'I' for Inactive)
REMARK    1  A    between atoms: C4_5  and  O2_6 
REMARK    2  A    between atoms: C8_11  and  O4_12 
REMARK    3  A    between atoms: O4_12  and  C9_13 
REMARK    4  A    between atoms: C9_13  and  C10_15 
REMARK    5  A    between atoms: C10_15  and  O6_16 
REMARK    6  A    between atoms: C10_15  and  C11_17 
REMARK    7  A    between atoms: C10_15  and  C12_19 
REMARK    8  A    between atoms: C11_17  and  O7_18 
REMARK    9  A    between atoms: C12_19  and  C13_20 
REMARK   10  A    between atoms: C13_20  and  C15_22 
REMARK   11  A    between atoms: C15_22  and  C16_23 
REMARK   12  A    between atoms: C16_23  and  C18_25 
ROOT
HETATM    1  C1  UNL     1       6.206   6.341  11.446  1.00  0.00     0.017 C 
HETATM    2  C2  UNL     1       5.309   7.265  11.812  1.00  0.00    -0.056 C 
HETATM    3  C3  UNL     1       5.507   8.737  11.802  1.00  0.00     0.205 C 
HETATM    4  O1  UNL     1       4.762   9.234  12.912  1.00  0.00    -0.348 OA
HETATM    5  C4  UNL     1       3.700   8.311  13.224  1.00  0.00     0.201 C 
HETATM    6  C6  UNL     1       2.379   8.975  12.928  1.00  0.00     0.223 A 
HETATM    7  O3  UNL     1       2.117   9.192  11.537  1.00  0.00    -0.360 OA
HETATM    8  C7  UNL     1       1.246   8.254  12.223  1.00  0.00     0.127 A 
HETATM    9  C8  UNL     1      -0.164   8.785  12.266  1.00  0.00     0.170 C 
HETATM   10  C20 UNL     1      -0.879   8.563  10.923  1.00  0.00     0.036 C 
HETATM   11  C21 UNL     1      -0.092   7.689   9.940  1.00  0.00     0.007 C 
HETATM   12  C22 UNL     1       0.497   6.429  10.601  1.00  0.00    -0.007 C 
HETATM   13  C23 UNL     1      -0.645   5.452  10.924  1.00  0.00     0.011 C 
HETATM   14  C24 UNL     1       1.452   6.795  11.807  1.00  0.00    -0.003 C 
HETATM   15  C25 UNL     1       1.241   5.868  13.025  1.00  0.00     0.019 C 
HETATM   16  C26 UNL     1       2.930   6.633  11.336  1.00  0.00     0.027 C 
HETATM   17  C27 UNL     1       3.964   7.002  12.421  1.00  0.00     0.082 C 
ENDROOT
BRANCH   9  18
HETATM   18  O4  UNL     1      -0.925   8.130  13.298  1.00  0.00    -0.310 OA
BRANCH  18  19
HETATM   19  C9  UNL     1      -2.264   8.351  13.284  1.00  0.00     0.296 C 
HETATM   20  O5  UNL     1      -2.877   8.940  12.395  1.00  0.00    -0.262 OA
BRANCH  19  21
HETATM   21  C10 UNL     1      -2.985   7.767  14.510  1.00  0.00     0.166 C 
BRANCH  21  22
HETATM   22  O6  UNL     1      -4.223   8.488  14.697  1.00  0.00    -0.377 OA
HETATM   23  H10 UNL     1      -4.099   9.367  14.282  1.00  0.00     0.211 HD
ENDBRANCH  21  22
BRANCH  21  24
HETATM   24  C11 UNL     1      -2.139   8.068  15.766  1.00  0.00     0.212 C 
BRANCH  24  25
HETATM   25  O7  UNL     1      -2.580   7.397  16.942  1.00  0.00    -0.397 OA
HETATM   26  H13 UNL     1      -3.307   7.923  17.322  1.00  0.00     0.209 HD
ENDBRANCH  24  25
ENDBRANCH  21  24
BRANCH  21  27
HETATM   27  C12 UNL     1      -3.319   6.267  14.360  1.00  0.00     0.055 C 
BRANCH  27  28
HETATM   28  C13 UNL     1      -4.430   5.872  13.345  1.00  0.00    -0.015 C 
HETATM   29  C14 UNL     1      -3.892   4.734  12.466  1.00  0.00     0.010 C 
BRANCH  28  30
HETATM   30  C15 UNL     1      -5.767   5.491  14.016  1.00  0.00     0.008 C 
BRANCH  30  31
HETATM   31  C16 UNL     1      -7.058   6.003  13.331  1.00  0.00    -0.019 C 
HETATM   32  C17 UNL     1      -8.035   6.603  14.346  1.00  0.00     0.010 C 
BRANCH  31  33
HETATM   33  C18 UNL     1      -7.702   4.835  12.550  1.00  0.00    -0.000 C 
HETATM   34  C19 UNL     1      -7.760   3.530  13.330  1.00  0.00     0.005 C 
ENDBRANCH  31  33
ENDBRANCH  30  31
ENDBRANCH  28  30
ENDBRANCH  27  28
ENDBRANCH  21  27
ENDBRANCH  19  21
ENDBRANCH  18  19
ENDBRANCH   9  18
BRANCH   5  35
HETATM   35  O2  UNL     1       3.735   7.939  14.616  1.00  0.00    -0.357 OA
HETATM   36  C5  UNL     1       2.944   8.756  15.468  1.00  0.00     0.205 C 
ENDBRANCH   5  35
TORSDOF 12
ENDMDL
MODEL 7
REMARK minimizedAffinity -7.11941385
REMARK  12 active torsions:
REMARK  status: ('A' for Active; 'I' for Inactive)
REMARK    1  A    between atoms: C4_5  and  O2_6 
REMARK    2  A    between atoms: C8_11  and  O4_12 
REMARK    3  A    between atoms: O4_12  and  C9_13 
REMARK    4  A    between atoms: C9_13  and  C10_15 
REMARK    5  A    between atoms: C10_15  and  O6_16 
REMARK    6  A    between atoms: C10_15  and  C11_17 
REMARK    7  A    between atoms: C10_15  and  C12_19 
REMARK    8  A    between atoms: C11_17  and  O7_18 
REMARK    9  A    between atoms: C12_19  and  C13_20 
REMARK   10  A    between atoms: C13_20  and  C15_22 
REMARK   11  A    between atoms: C15_22  and  C16_23 
REMARK   12  A    between atoms: C16_23  and  C18_25 
ROOT
HETATM    1  C1  UNL     1       3.792   4.378   9.265  1.00  0.00     0.017 C 
HETATM    2  C2  UNL     1       3.078   5.502   9.421  1.00  0.00    -0.056 C 
HETATM    3  C3  UNL     1       2.624   6.413   8.340  1.00  0.00     0.205 C 
HETATM    4  O1  UNL     1       2.658   7.724   8.901  1.00  0.00    -0.348 OA
HETATM    5  C4  UNL     1       2.526   7.632  10.333  1.00  0.00     0.201 C 
HETATM    6  C6  UNL     1       1.210   8.245  10.738  1.00  0.00     0.223 A 
HETATM    7  O3  UNL     1       0.054   7.501  10.335  1.00  0.00    -0.360 OA
HETATM    8  C7  UNL     1       0.295   7.604  11.764  1.00  0.00     0.127 A 
HETATM    9  C8  UNL     1      -0.809   8.389  12.425  1.00  0.00     0.170 C 
HETATM   10  C20 UNL     1      -2.057   7.517  12.635  1.00  0.00     0.036 C 
HETATM   11  C21 UNL     1      -1.834   6.032  12.326  1.00  0.00     0.007 C 
HETATM   12  C22 UNL     1      -0.527   5.486  12.931  1.00  0.00    -0.007 C 
HETATM   13  C23 UNL     1      -0.684   5.389  14.458  1.00  0.00     0.011 C 
HETATM   14  C24 UNL     1       0.733   6.291  12.417  1.00  0.00    -0.003 C 
HETATM   15  C25 UNL     1       1.746   6.580  13.548  1.00  0.00     0.019 C 
HETATM   16  C26 UNL     1       1.461   5.434  11.335  1.00  0.00     0.027 C 
HETATM   17  C27 UNL     1       2.694   6.134  10.726  1.00  0.00     0.082 C 
ENDROOT
BRANCH   9  18
HETATM   18  O4  UNL     1      -0.384   8.887  13.708  1.00  0.00    -0.310 OA
BRANCH  18  19
HETATM   19  C9  UNL     1      -1.237   9.740  14.330  1.00  0.00     0.296 C 
HETATM   20  O5  UNL     1      -1.795  10.698  13.798  1.00  0.00    -0.262 OA
BRANCH  19  21
HETATM   21  C10 UNL     1      -1.472   9.388  15.808  1.00  0.00     0.166 C 
BRANCH  21  22
HETATM   22  O6  UNL     1      -0.405   8.516  16.243  1.00  0.00    -0.377 OA
HETATM   23  H10 UNL     1      -0.063   8.071  15.440  1.00  0.00     0.211 HD
ENDBRANCH  21  22
BRANCH  21  24
HETATM   24  C11 UNL     1      -2.762   8.545  15.912  1.00  0.00     0.212 C 
BRANCH  24  25
HETATM   25  O7  UNL     1      -2.624   7.358  16.686  1.00  0.00    -0.397 OA
HETATM   26  H13 UNL     1      -2.240   6.676  16.107  1.00  0.00     0.209 HD
ENDBRANCH  24  25
ENDBRANCH  21  24
BRANCH  21  27
HETATM   27  C12 UNL     1      -1.490  10.625  16.731  1.00  0.00     0.055 C 
BRANCH  27  28
HETATM   28  C13 UNL     1      -1.908  10.415  18.214  1.00  0.00    -0.015 C 
HETATM   29  C14 UNL     1      -0.919  11.182  19.103  1.00  0.00     0.010 C 
BRANCH  28  30
HETATM   30  C15 UNL     1      -3.369  10.822  18.502  1.00  0.00     0.008 C 
BRANCH  30  31
HETATM   31  C16 UNL     1      -3.706  12.329  18.374  1.00  0.00    -0.019 C 
HETATM   32  C17 UNL     1      -4.534  12.824  19.565  1.00  0.00     0.010 C 
BRANCH  31  33
HETATM   33  C18 UNL     1      -4.447  12.560  17.038  1.00  0.00    -0.000 C 
HETATM   34  C19 UNL     1      -4.435  14.008  16.569  1.00  0.00     0.005 C 
ENDBRANCH  31  33
ENDBRANCH  30  31
ENDBRANCH  28  30
ENDBRANCH  27  28
ENDBRANCH  21  27
ENDBRANCH  19  21
ENDBRANCH  18  19
ENDBRANCH   9  18
BRANCH   5  35
HETATM   35  O2  UNL     1       3.594   8.340  10.994  1.00  0.00    -0.357 OA
HETATM   36  C5  UNL     1       4.457   7.521  11.770  1.00  0.00     0.205 C 
ENDBRANCH   5  35
TORSDOF 12
ENDMDL
MODEL 8
REMARK minimizedAffinity -7.08018684
REMARK  12 active torsions:
REMARK  status: ('A' for Active; 'I' for Inactive)
REMARK    1  A    between atoms: C4_5  and  O2_6 
REMARK    2  A    between atoms: C8_11  and  O4_12 
REMARK    3  A    between atoms: O4_12  and  C9_13 
REMARK    4  A    between atoms: C9_13  and  C10_15 
REMARK    5  A    between atoms: C10_15  and  O6_16 
REMARK    6  A    between atoms: C10_15  and  C11_17 
REMARK    7  A    between atoms: C10_15  and  C12_19 
REMARK    8  A    between atoms: C11_17  and  O7_18 
REMARK    9  A    between atoms: C12_19  and  C13_20 
REMARK   10  A    between atoms: C13_20  and  C15_22 
REMARK   11  A    between atoms: C15_22  and  C16_23 
REMARK   12  A    between atoms: C16_23  and  C18_25 
ROOT
HETATM    1  C1  UNL     1       3.971   4.637   9.539  1.00  0.00     0.017 C 
HETATM    2  C2  UNL     1       3.084   5.637   9.637  1.00  0.00    -0.056 C 
HETATM    3  C3  UNL     1       2.553   6.455   8.518  1.00  0.00     0.205 C 
HETATM    4  O1  UNL     1       2.353   7.761   9.055  1.00  0.00    -0.348 OA
HETATM    5  C4  UNL     1       2.161   7.665  10.481  1.00  0.00     0.201 C 
HETATM    6  C6  UNL     1       0.746   8.069  10.806  1.00  0.00     0.223 A 
HETATM    7  O3  UNL     1      -0.257   7.150  10.358  1.00  0.00    -0.360 OA
HETATM    8  C7  UNL     1      -0.112   7.304  11.795  1.00  0.00     0.127 A 
HETATM    9  C8  UNL     1      -1.358   7.914  12.384  1.00  0.00     0.170 C 
HETATM   10  C20 UNL     1      -2.466   6.860  12.546  1.00  0.00     0.036 C 
HETATM   11  C21 UNL     1      -1.999   5.425  12.276  1.00  0.00     0.007 C 
HETATM   12  C22 UNL     1      -0.657   5.096  12.957  1.00  0.00    -0.007 C 
HETATM   13  C23 UNL     1      -0.879   4.991  14.475  1.00  0.00     0.011 C 
HETATM   14  C24 UNL     1       0.489   6.082  12.494  1.00  0.00    -0.003 C 
HETATM   15  C25 UNL     1       1.382   6.537  13.670  1.00  0.00     0.019 C 
HETATM   16  C26 UNL     1       1.398   5.338  11.467  1.00  0.00     0.027 C 
HETATM   17  C27 UNL     1       2.537   6.215  10.909  1.00  0.00     0.082 C 
ENDROOT
BRANCH   9  18
HETATM   18  O4  UNL     1      -1.085   8.485  13.677  1.00  0.00    -0.310 OA
BRANCH  18  19
HETATM   19  C9  UNL     1      -1.818   9.576  14.015  1.00  0.00     0.296 C 
HETATM   20  O5  UNL     1      -1.667  10.705  13.550  1.00  0.00    -0.262 OA
BRANCH  19  21
HETATM   21  C10 UNL     1      -2.909   9.272  15.056  1.00  0.00     0.166 C 
BRANCH  21  22
HETATM   22  O6  UNL     1      -3.356  10.521  15.626  1.00  0.00    -0.377 OA
HETATM   23  H10 UNL     1      -2.618  11.157  15.517  1.00  0.00     0.211 HD
ENDBRANCH  21  22
BRANCH  21  24
HETATM   24  C11 UNL     1      -2.268   8.491  16.224  1.00  0.00     0.212 C 
BRANCH  24  25
HETATM   25  O7  UNL     1      -2.744   7.156  16.365  1.00  0.00    -0.397 OA
HETATM   26  H13 UNL     1      -3.578   7.196  16.867  1.00  0.00     0.209 HD
ENDBRANCH  24  25
ENDBRANCH  21  24
BRANCH  21  27
HETATM   27  C12 UNL     1      -4.135   8.550  14.455  1.00  0.00     0.055 C 
BRANCH  27  28
HETATM   28  C13 UNL     1      -5.276   8.132  15.427  1.00  0.00    -0.015 C 
HETATM   29  C14 UNL     1      -6.500   9.010  15.131  1.00  0.00     0.010 C 
BRANCH  28  30
HETATM   30  C15 UNL     1      -5.620   6.629  15.359  1.00  0.00     0.008 C 
BRANCH  30  31
HETATM   31  C16 UNL     1      -7.039   6.265  14.855  1.00  0.00    -0.019 C 
HETATM   32  C17 UNL     1      -7.831   5.492  15.914  1.00  0.00     0.010 C 
BRANCH  31  33
HETATM   33  C18 UNL     1      -6.909   5.456  13.545  1.00  0.00    -0.000 C 
HETATM   34  C19 UNL     1      -5.536   4.831  13.341  1.00  0.00     0.005 C 
ENDBRANCH  31  33
ENDBRANCH  30  31
ENDBRANCH  28  30
ENDBRANCH  27  28
ENDBRANCH  21  27
ENDBRANCH  19  21
ENDBRANCH  18  19
ENDBRANCH   9  18
BRANCH   5  35
HETATM   35  O2  UNL     1       3.069   8.537  11.182  1.00  0.00    -0.357 OA
HETATM   36  C5  UNL     1       4.134   7.873  11.847  1.00  0.00     0.205 C 
ENDBRANCH   5  35
TORSDOF 12
ENDMDL
MODEL 9
REMARK minimizedAffinity -7.05201912
REMARK  12 active torsions:
REMARK  status: ('A' for Active; 'I' for Inactive)
REMARK    1  A    between atoms: C4_5  and  O2_6 
REMARK    2  A    between atoms: C8_11  and  O4_12 
REMARK    3  A    between atoms: O4_12  and  C9_13 
REMARK    4  A    between atoms: C9_13  and  C10_15 
REMARK    5  A    between atoms: C10_15  and  O6_16 
REMARK    6  A    between atoms: C10_15  and  C11_17 
REMARK    7  A    between atoms: C10_15  and  C12_19 
REMARK    8  A    between atoms: C11_17  and  O7_18 
REMARK    9  A    between atoms: C12_19  and  C13_20 
REMARK   10  A    between atoms: C13_20  and  C15_22 
REMARK   11  A    between atoms: C15_22  and  C16_23 
REMARK   12  A    between atoms: C16_23  and  C18_25 
ROOT
HETATM    1  C1  UNL     1      -7.710   4.726  12.261  1.00  0.00     0.017 C 
HETATM    2  C2  UNL     1      -7.160   5.237  13.371  1.00  0.00    -0.056 C 
HETATM    3  C3  UNL     1      -7.398   4.777  14.762  1.00  0.00     0.205 C 
HETATM    4  O1  UNL     1      -7.328   5.949  15.573  1.00  0.00    -0.348 OA
HETATM    5  C4  UNL     1      -6.518   6.939  14.909  1.00  0.00     0.201 C 
HETATM    6  C6  UNL     1      -5.260   7.150  15.711  1.00  0.00     0.223 A 
HETATM    7  O3  UNL     1      -4.352   6.042  15.704  1.00  0.00    -0.360 OA
HETATM    8  C7  UNL     1      -3.892   7.262  15.065  1.00  0.00     0.127 A 
HETATM    9  C8  UNL     1      -2.718   7.835  15.816  1.00  0.00     0.170 C 
HETATM   10  C20 UNL     1      -1.420   7.088  15.466  1.00  0.00     0.036 C 
HETATM   11  C21 UNL     1      -1.571   6.096  14.308  1.00  0.00     0.007 C 
HETATM   12  C22 UNL     1      -2.347   6.684  13.114  1.00  0.00    -0.007 C 
HETATM   13  C23 UNL     1      -1.469   7.734  12.414  1.00  0.00     0.011 C 
HETATM   14  C24 UNL     1      -3.792   7.166  13.540  1.00  0.00    -0.003 C 
HETATM   15  C25 UNL     1      -4.168   8.523  12.904  1.00  0.00     0.019 C 
HETATM   16  C26 UNL     1      -4.831   6.109  13.055  1.00  0.00     0.027 C 
HETATM   17  C27 UNL     1      -6.283   6.451  13.448  1.00  0.00     0.082 C 
ENDROOT
BRANCH   9  18
HETATM   18  O4  UNL     1      -2.538   9.228  15.498  1.00  0.00    -0.310 OA
BRANCH  18  19
HETATM   19  C9  UNL     1      -2.557  10.088  16.548  1.00  0.00     0.296 C 
HETATM   20  O5  UNL     1      -2.896   9.800  17.694  1.00  0.00    -0.262 OA
BRANCH  19  21
HETATM   21  C10 UNL     1      -2.086  11.504  16.177  1.00  0.00     0.166 C 
BRANCH  21  22
HETATM   22  O6  UNL     1      -3.004  12.456  16.757  1.00  0.00    -0.377 OA
HETATM   23  H10 UNL     1      -3.855  11.986  16.876  1.00  0.00     0.211 HD
ENDBRANCH  21  22
BRANCH  21  24
HETATM   24  C11 UNL     1      -2.220  11.681  14.648  1.00  0.00     0.212 C 
BRANCH  24  25
HETATM   25  O7  UNL     1      -1.136  11.139  13.901  1.00  0.00    -0.397 OA
HETATM   26  H13 UNL     1      -0.422  11.800  13.901  1.00  0.00     0.209 HD
ENDBRANCH  24  25
ENDBRANCH  21  24
BRANCH  21  27
HETATM   27  C12 UNL     1      -0.667  11.826  16.694  1.00  0.00     0.055 C 
BRANCH  27  28
HETATM   28  C13 UNL     1      -0.524  12.287  18.173  1.00  0.00    -0.015 C 
HETATM   29  C14 UNL     1      -1.799  13.048  18.561  1.00  0.00     0.010 C 
BRANCH  28  30
HETATM   30  C15 UNL     1      -0.230  11.129  19.150  1.00  0.00     0.008 C 
BRANCH  30  31
HETATM   31  C16 UNL     1       0.751  11.432  20.309  1.00  0.00    -0.019 C 
HETATM   32  C17 UNL     1       1.230  12.887  20.276  1.00  0.00     0.010 C 
BRANCH  31  33
HETATM   33  C18 UNL     1       1.938  10.446  20.227  1.00  0.00    -0.000 C 
HETATM   34  C19 UNL     1       2.167   9.650  21.503  1.00  0.00     0.005 C 
ENDBRANCH  31  33
ENDBRANCH  30  31
ENDBRANCH  28  30
ENDBRANCH  27  28
ENDBRANCH  21  27
ENDBRANCH  19  21
ENDBRANCH  18  19
ENDBRANCH   9  18
BRANCH   5  35
HETATM   35  O2  UNL     1      -7.221   8.192  14.804  1.00  0.00    -0.357 OA
HETATM   36  C5  UNL     1      -8.458   8.238  15.500  1.00  0.00     0.205 C 
ENDBRANCH   5  35
TORSDOF 12
ENDMDL
