MODEL 1
REMARK minimizedAffinity -9.53938198
REMARK  9 active torsions:
REMARK  status: ('A' for Active; 'I' for Inactive)
REMARK    1  A    between atoms: C2_2  and  C3_3 
REMARK    2  A    between atoms: C2_2  and  C27_31 
REMARK    3  A    between atoms: C3_3  and  C4_4 
REMARK    4  A    between atoms: C4_4  and  C5_5 
REMARK    5  A    between atoms: C5_5  and  C7_7 
REMARK    6  A    between atoms: C22_24  and  O3_26 
REMARK    7  A    between atoms: C26_29  and  O4_30 
REMARK    8  A    between atoms: C27_31  and  C29_33 
REMARK    9  A    between atoms: C29_33  and  O6_35 
ROOT
HETATM    1  C7  UNL     1      -1.167  50.612 -22.319  1.00  0.00    -0.002 C 
HETATM    2  C8  UNL     1      -1.271  51.096 -20.853  1.00  0.00     0.006 C 
HETATM    3  C9  UNL     1      -2.745  51.038 -20.463  1.00  0.00     0.010 C 
HETATM    4  C10 UNL     1      -3.467  50.312 -21.605  1.00  0.00     0.027 C 
HETATM    5  C11 UNL     1      -4.604  49.431 -21.130  1.00  0.00    -0.036 C 
HETATM    6  C12 UNL     1      -4.542  48.081 -21.056  1.00  0.00     0.002 C 
HETATM    7  C13 UNL     1      -3.196  47.430 -21.292  1.00  0.00     0.157 C 
HETATM    8  O1  UNL     1      -3.032  46.223 -21.112  1.00  0.00    -0.293 OA
HETATM    9  C14 UNL     1      -1.996  48.279 -21.655  1.00  0.00     0.093 C 
HETATM   10  C15 UNL     1      -2.360  49.583 -22.391  1.00  0.00    -0.026 C 
HETATM   11  C16 UNL     1      -2.838  49.216 -23.806  1.00  0.00     0.016 C 
HETATM   12  C17 UNL     1      -5.764  47.178 -20.720  1.00  0.00    -0.006 C 
HETATM   13  C18 UNL     1      -5.907  46.113 -21.842  1.00  0.00     0.021 C 
HETATM   14  C19 UNL     1      -5.513  46.496 -19.344  1.00  0.00     0.022 C 
HETATM   15  C20 UNL     1      -6.703  45.722 -18.795  1.00  0.00     0.083 C 
HETATM   16  C21 UNL     1      -7.892  46.640 -18.707  1.00  0.00     0.161 C 
HETATM   17  O2  UNL     1      -8.449  46.865 -17.632  1.00  0.00    -0.295 OA
HETATM   18  C22 UNL     1      -8.332  47.273 -20.034  1.00  0.00     0.119 C 
HETATM   19  C23 UNL     1      -9.571  48.152 -19.817  1.00  0.00     0.055 C 
HETATM   20  C24 UNL     1      -7.118  48.024 -20.669  1.00  0.00     0.043 C 
HETATM   21  C25 UNL     1      -6.864  49.381 -19.986  1.00  0.00     0.045 C 
HETATM   22  C26 UNL     1      -5.842  50.199 -20.763  1.00  0.00     0.148 C 
ENDROOT
BRANCH   1  23
HETATM   23  C5  UNL     1      -1.190  51.771 -23.379  1.00  0.00    -0.014 C 
HETATM   24  C6  UNL     1      -2.628  52.257 -23.652  1.00  0.00     0.010 C 
BRANCH  23  25
HETATM   25  C4  UNL     1      -0.533  51.449 -24.748  1.00  0.00     0.009 C 
BRANCH  25  26
HETATM   26  C3  UNL     1       0.707  52.290 -25.085  1.00  0.00     0.034 C 
BRANCH  26  27
HETATM   27  C2  UNL     1       1.209  52.039 -26.501  1.00  0.00    -0.075 C 
HETATM   28  C1  UNL     1       2.451  51.555 -26.685  1.00  0.00     0.015 C 
BRANCH  27  29
HETATM   29  C27 UNL     1       0.229  52.354 -27.632  1.00  0.00     0.107 C 
HETATM   30  C28 UNL     1      -0.966  51.407 -27.760  1.00  0.00     0.026 C 
BRANCH  29  31
HETATM   31  C29 UNL     1      -0.310  53.777 -27.502  1.00  0.00     0.147 C 
HETATM   32  O5  UNL     1       0.177  54.713 -26.889  1.00  0.00    -0.650 OA
BRANCH  31  33
HETATM   33  O6  UNL     1      -1.477  53.944 -28.162  1.00  0.00    -0.776 OA
HETATM   34  H42 UNL     1      -1.704  54.885 -28.000  1.00  0.00     0.167 HD
ENDBRANCH  31  33
ENDBRANCH  29  31
ENDBRANCH  27  29
ENDBRANCH  26  27
ENDBRANCH  25  26
ENDBRANCH  23  25
ENDBRANCH   1  23
BRANCH  22  35
HETATM   35  O4  UNL     1      -6.426  50.662 -21.977  1.00  0.00    -0.391 OA
HETATM   36  H37 UNL     1      -7.128  51.292 -21.744  1.00  0.00     0.210 HD
ENDBRANCH  22  35
BRANCH  18  37
HETATM   37  O3  UNL     1      -8.746  46.215 -20.903  1.00  0.00    -0.382 OA
HETATM   38  H32 UNL     1      -9.242  46.604 -21.645  1.00  0.00     0.211 HD
ENDBRANCH  18  37
TORSDOF 9
ENDMDL
MODEL 2
REMARK minimizedAffinity -9.51076221
REMARK  9 active torsions:
REMARK  status: ('A' for Active; 'I' for Inactive)
REMARK    1  A    between atoms: C2_2  and  C3_3 
REMARK    2  A    between atoms: C2_2  and  C27_31 
REMARK    3  A    between atoms: C3_3  and  C4_4 
REMARK    4  A    between atoms: C4_4  and  C5_5 
REMARK    5  A    between atoms: C5_5  and  C7_7 
REMARK    6  A    between atoms: C22_24  and  O3_26 
REMARK    7  A    between atoms: C26_29  and  O4_30 
REMARK    8  A    between atoms: C27_31  and  C29_33 
REMARK    9  A    between atoms: C29_33  and  O6_35 
ROOT
HETATM    1  C7  UNL     1      -1.372  52.083 -23.206  1.00  0.00    -0.002 C 
HETATM    2  C8  UNL     1      -2.016  51.283 -24.364  1.00  0.00     0.006 C 
HETATM    3  C9  UNL     1      -2.155  49.840 -23.891  1.00  0.00     0.010 C 
HETATM    4  C10 UNL     1      -1.812  49.838 -22.396  1.00  0.00     0.027 C 
HETATM    5  C11 UNL     1      -2.640  48.856 -21.592  1.00  0.00    -0.036 C 
HETATM    6  C12 UNL     1      -3.668  49.208 -20.787  1.00  0.00     0.002 C 
HETATM    7  C13 UNL     1      -4.131  50.649 -20.833  1.00  0.00     0.157 C 
HETATM    8  O1  UNL     1      -5.141  51.013 -20.231  1.00  0.00    -0.293 OA
HETATM    9  C14 UNL     1      -3.410  51.648 -21.712  1.00  0.00     0.093 C 
HETATM   10  C15 UNL     1      -1.926  51.308 -21.948  1.00  0.00    -0.026 C 
HETATM   11  C16 UNL     1      -1.166  51.545 -20.633  1.00  0.00     0.016 C 
HETATM   12  C17 UNL     1      -4.407  48.213 -19.846  1.00  0.00    -0.006 C 
HETATM   13  C18 UNL     1      -4.388  48.796 -18.407  1.00  0.00     0.021 C 
HETATM   14  C19 UNL     1      -5.870  48.045 -20.351  1.00  0.00     0.022 C 
HETATM   15  C20 UNL     1      -6.665  46.961 -19.639  1.00  0.00     0.083 C 
HETATM   16  C21 UNL     1      -5.928  45.653 -19.748  1.00  0.00     0.161 C 
HETATM   17  O2  UNL     1      -6.438  44.674 -20.293  1.00  0.00    -0.295 OA
HETATM   18  C22 UNL     1      -4.513  45.647 -19.154  1.00  0.00     0.119 C 
HETATM   19  C23 UNL     1      -3.886  44.253 -19.293  1.00  0.00     0.055 C 
HETATM   20  C24 UNL     1      -3.678  46.792 -19.811  1.00  0.00     0.043 C 
HETATM   21  C25 UNL     1      -3.198  46.412 -21.225  1.00  0.00     0.045 C 
HETATM   22  C26 UNL     1      -2.195  47.430 -21.751  1.00  0.00     0.148 C 
ENDROOT
BRANCH   1  23
HETATM   23  C5  UNL     1       0.191  52.210 -23.307  1.00  0.00    -0.014 C 
HETATM   24  C6  UNL     1       0.735  53.265 -22.323  1.00  0.00     0.010 C 
BRANCH  23  25
HETATM   25  C4  UNL     1       0.752  52.542 -24.715  1.00  0.00     0.009 C 
BRANCH  25  26
HETATM   26  C3  UNL     1       0.829  51.350 -25.680  1.00  0.00     0.034 C 
BRANCH  26  27
HETATM   27  C2  UNL     1       1.043  51.785 -27.123  1.00  0.00    -0.075 C 
HETATM   28  C1  UNL     1       2.296  51.890 -27.603  1.00  0.00     0.015 C 
BRANCH  27  29
HETATM   29  C27 UNL     1      -0.221  52.065 -27.939  1.00  0.00     0.107 C 
HETATM   30  C28 UNL     1      -1.419  51.161 -27.641  1.00  0.00     0.026 C 
BRANCH  29  31
HETATM   31  C29 UNL     1      -0.670  53.514 -27.764  1.00  0.00     0.147 C 
HETATM   32  O5  UNL     1      -0.038  54.446 -27.294  1.00  0.00    -0.650 OA
BRANCH  31  33
HETATM   33  O6  UNL     1      -1.936  53.712 -28.192  1.00  0.00    -0.776 OA
HETATM   34  H42 UNL     1      -2.091  54.667 -28.027  1.00  0.00     0.167 HD
ENDBRANCH  31  33
ENDBRANCH  29  31
ENDBRANCH  27  29
ENDBRANCH  26  27
ENDBRANCH  25  26
ENDBRANCH  23  25
ENDBRANCH   1  23
BRANCH  22  35
HETATM   35  O4  UNL     1      -0.964  47.291 -21.049  1.00  0.00    -0.391 OA
HETATM   36  H37 UNL     1      -0.589  46.426 -21.281  1.00  0.00     0.210 HD
ENDBRANCH  22  35
BRANCH  18  37
HETATM   37  O3  UNL     1      -4.630  45.888 -17.749  1.00  0.00    -0.382 OA
HETATM   38  H32 UNL     1      -3.786  45.655 -17.326  1.00  0.00     0.211 HD
ENDBRANCH  18  37
TORSDOF 9
ENDMDL
MODEL 3
REMARK minimizedAffinity -9.47759247
REMARK  9 active torsions:
REMARK  status: ('A' for Active; 'I' for Inactive)
REMARK    1  A    between atoms: C2_2  and  C3_3 
REMARK    2  A    between atoms: C2_2  and  C27_31 
REMARK    3  A    between atoms: C3_3  and  C4_4 
REMARK    4  A    between atoms: C4_4  and  C5_5 
REMARK    5  A    between atoms: C5_5  and  C7_7 
REMARK    6  A    between atoms: C22_24  and  O3_26 
REMARK    7  A    between atoms: C26_29  and  O4_30 
REMARK    8  A    between atoms: C27_31  and  C29_33 
REMARK    9  A    between atoms: C29_33  and  O6_35 
ROOT
HETATM    1  C7  UNL     1      -1.976  51.635 -22.429  1.00  0.00    -0.002 C 
HETATM    2  C8  UNL     1      -3.076  52.564 -22.999  1.00  0.00     0.006 C 
HETATM    3  C9  UNL     1      -4.016  51.693 -23.826  1.00  0.00     0.010 C 
HETATM    4  C10 UNL     1      -3.608  50.239 -23.558  1.00  0.00     0.027 C 
HETATM    5  C11 UNL     1      -4.784  49.283 -23.528  1.00  0.00    -0.036 C 
HETATM    6  C12 UNL     1      -5.311  48.759 -22.398  1.00  0.00     0.002 C 
HETATM    7  C13 UNL     1      -4.809  49.301 -21.077  1.00  0.00     0.157 C 
HETATM    8  O1  UNL     1      -5.333  48.971 -20.012  1.00  0.00    -0.293 OA
HETATM    9  C14 UNL     1      -3.714  50.347 -21.053  1.00  0.00     0.093 C 
HETATM   10  C15 UNL     1      -2.768  50.280 -22.267  1.00  0.00    -0.026 C 
HETATM   11  C16 UNL     1      -1.903  49.017 -22.130  1.00  0.00     0.016 C 
HETATM   12  C17 UNL     1      -6.411  47.659 -22.388  1.00  0.00    -0.006 C 
HETATM   13  C18 UNL     1      -5.911  46.477 -21.513  1.00  0.00     0.021 C 
HETATM   14  C19 UNL     1      -7.715  48.267 -21.796  1.00  0.00     0.022 C 
HETATM   15  C20 UNL     1      -8.936  47.363 -21.889  1.00  0.00     0.083 C 
HETATM   16  C21 UNL     1      -9.154  46.973 -23.327  1.00  0.00     0.161 C 
HETATM   17  O2  UNL     1     -10.199  47.252 -23.914  1.00  0.00    -0.295 OA
HETATM   18  C22 UNL     1      -7.984  46.234 -23.991  1.00  0.00     0.119 C 
HETATM   19  C23 UNL     1      -8.344  45.860 -25.435  1.00  0.00     0.055 C 
HETATM   20  C24 UNL     1      -6.691  47.100 -23.858  1.00  0.00     0.043 C 
HETATM   21  C25 UNL     1      -6.671  48.258 -24.873  1.00  0.00     0.045 C 
HETATM   22  C26 UNL     1      -5.310  48.941 -24.894  1.00  0.00     0.148 C 
ENDROOT
BRANCH   1  23
HETATM   23  C5  UNL     1      -0.673  51.574 -23.304  1.00  0.00    -0.014 C 
HETATM   24  C6  UNL     1       0.539  52.160 -22.552  1.00  0.00     0.010 C 
BRANCH  23  25
HETATM   25  C4  UNL     1      -0.754  52.273 -24.687  1.00  0.00     0.009 C 
BRANCH  25  26
HETATM   26  C3  UNL     1       0.570  52.864 -25.193  1.00  0.00     0.034 C 
BRANCH  26  27
HETATM   27  C2  UNL     1       1.016  52.242 -26.509  1.00  0.00    -0.075 C 
HETATM   28  C1  UNL     1       2.210  51.626 -26.578  1.00  0.00     0.015 C 
BRANCH  27  29
HETATM   29  C27 UNL     1       0.037  52.360 -27.680  1.00  0.00     0.107 C 
HETATM   30  C28 UNL     1      -1.099  51.335 -27.702  1.00  0.00     0.026 C 
BRANCH  29  31
HETATM   31  C29 UNL     1      -0.586  53.754 -27.727  1.00  0.00     0.147 C 
HETATM   32  O5  UNL     1      -0.064  54.821 -27.447  1.00  0.00    -0.650 OA
BRANCH  31  33
HETATM   33  O6  UNL     1      -1.876  53.724 -28.126  1.00  0.00    -0.776 OA
HETATM   34  H42 UNL     1      -2.146  54.667 -28.115  1.00  0.00     0.167 HD
ENDBRANCH  31  33
ENDBRANCH  29  31
ENDBRANCH  27  29
ENDBRANCH  26  27
ENDBRANCH  25  26
ENDBRANCH  23  25
ENDBRANCH   1  23
BRANCH  22  35
HETATM   35  O4  UNL     1      -4.355  48.082 -25.510  1.00  0.00    -0.391 OA
HETATM   36  H37 UNL     1      -4.604  47.989 -26.445  1.00  0.00     0.210 HD
ENDBRANCH  22  35
BRANCH  18  37
HETATM   37  O3  UNL     1      -7.802  44.996 -23.297  1.00  0.00    -0.382 OA
HETATM   38  H32 UNL     1      -7.237  44.420 -23.840  1.00  0.00     0.211 HD
ENDBRANCH  18  37
TORSDOF 9
ENDMDL
MODEL 4
REMARK minimizedAffinity -9.26011658
REMARK  9 active torsions:
REMARK  status: ('A' for Active; 'I' for Inactive)
REMARK    1  A    between atoms: C2_2  and  C3_3 
REMARK    2  A    between atoms: C2_2  and  C27_31 
REMARK    3  A    between atoms: C3_3  and  C4_4 
REMARK    4  A    between atoms: C4_4  and  C5_5 
REMARK    5  A    between atoms: C5_5  and  C7_7 
REMARK    6  A    between atoms: C22_24  and  O3_26 
REMARK    7  A    between atoms: C26_29  and  O4_30 
REMARK    8  A    between atoms: C27_31  and  C29_33 
REMARK    9  A    between atoms: C29_33  and  O6_35 
ROOT
HETATM    1  C7  UNL     1      -3.288  48.953 -19.687  1.00  0.00    -0.002 C 
HETATM    2  C8  UNL     1      -4.016  50.319 -19.700  1.00  0.00     0.006 C 
HETATM    3  C9  UNL     1      -3.228  51.240 -20.626  1.00  0.00     0.010 C 
HETATM    4  C10 UNL     1      -2.185  50.360 -21.327  1.00  0.00     0.027 C 
HETATM    5  C11 UNL     1      -1.923  50.770 -22.762  1.00  0.00    -0.036 C 
HETATM    6  C12 UNL     1      -2.393  50.105 -23.841  1.00  0.00     0.002 C 
HETATM    7  C13 UNL     1      -3.388  48.991 -23.597  1.00  0.00     0.157 C 
HETATM    8  O1  UNL     1      -3.960  48.430 -24.532  1.00  0.00    -0.293 OA
HETATM    9  C14 UNL     1      -3.775  48.618 -22.181  1.00  0.00     0.093 C 
HETATM   10  C15 UNL     1      -2.678  48.913 -21.141  1.00  0.00    -0.026 C 
HETATM   11  C16 UNL     1      -1.534  47.908 -21.355  1.00  0.00     0.016 C 
HETATM   12  C17 UNL     1      -1.988  50.440 -25.306  1.00  0.00    -0.006 C 
HETATM   13  C18 UNL     1      -1.467  49.140 -25.978  1.00  0.00     0.021 C 
HETATM   14  C19 UNL     1      -3.240  50.982 -26.055  1.00  0.00     0.022 C 
HETATM   15  C20 UNL     1      -2.958  51.525 -27.449  1.00  0.00     0.083 C 
HETATM   16  C21 UNL     1      -1.905  52.597 -27.359  1.00  0.00     0.161 C 
HETATM   17  O2  UNL     1      -2.131  53.749 -27.730  1.00  0.00    -0.295 OA
HETATM   18  C22 UNL     1      -0.564  52.151 -26.761  1.00  0.00     0.119 C 
HETATM   19  C23 UNL     1       0.432  53.319 -26.761  1.00  0.00     0.055 C 
HETATM   20  C24 UNL     1      -0.815  51.523 -25.353  1.00  0.00     0.043 C 
HETATM   21  C25 UNL     1      -1.052  52.602 -24.280  1.00  0.00     0.045 C 
HETATM   22  C26 UNL     1      -1.055  51.991 -22.885  1.00  0.00     0.148 C 
ENDROOT
BRANCH   1  23
HETATM   23  C5  UNL     1      -2.268  48.783 -18.504  1.00  0.00    -0.014 C 
HETATM   24  C6  UNL     1      -2.909  48.050 -17.308  1.00  0.00     0.010 C 
BRANCH  23  25
HETATM   25  C4  UNL     1      -1.629  50.092 -17.969  1.00  0.00     0.009 C 
BRANCH  25  26
HETATM   26  C3  UNL     1      -0.147  49.980 -17.585  1.00  0.00     0.034 C 
BRANCH  26  27
HETATM   27  C2  UNL     1       0.530  51.340 -17.484  1.00  0.00    -0.075 C 
HETATM   28  C1  UNL     1       0.170  52.322 -18.331  1.00  0.00     0.015 C 
BRANCH  27  29
HETATM   29  C27 UNL     1       1.586  51.491 -16.387  1.00  0.00     0.107 C 
HETATM   30  C28 UNL     1       2.575  52.643 -16.570  1.00  0.00     0.026 C 
BRANCH  29  31
HETATM   31  C29 UNL     1       0.928  51.649 -15.018  1.00  0.00     0.147 C 
HETATM   32  O5  UNL     1       0.457  50.777 -14.305  1.00  0.00    -0.650 OA
BRANCH  31  33
HETATM   33  O6  UNL     1       0.885  52.938 -14.617  1.00  0.00    -0.776 OA
HETATM   34  H42 UNL     1       0.449  52.895 -13.739  1.00  0.00     0.167 HD
ENDBRANCH  31  33
ENDBRANCH  29  31
ENDBRANCH  27  29
ENDBRANCH  26  27
ENDBRANCH  25  26
ENDBRANCH  23  25
ENDBRANCH   1  23
BRANCH  22  35
HETATM   35  O4  UNL     1       0.269  51.605 -22.531  1.00  0.00    -0.391 OA
HETATM   36  H37 UNL     1       0.799  52.416 -22.449  1.00  0.00     0.210 HD
ENDBRANCH  22  35
BRANCH  18  37
HETATM   37  O3  UNL     1      -0.008  51.161 -27.633  1.00  0.00    -0.382 OA
HETATM   38  H32 UNL     1       0.930  51.043 -27.404  1.00  0.00     0.211 HD
ENDBRANCH  18  37
TORSDOF 9
ENDMDL
MODEL 5
REMARK minimizedAffinity -9.17792892
REMARK  9 active torsions:
REMARK  status: ('A' for Active; 'I' for Inactive)
REMARK    1  A    between atoms: C2_2  and  C3_3 
REMARK    2  A    between atoms: C2_2  and  C27_31 
REMARK    3  A    between atoms: C3_3  and  C4_4 
REMARK    4  A    between atoms: C4_4  and  C5_5 
REMARK    5  A    between atoms: C5_5  and  C7_7 
REMARK    6  A    between atoms: C22_24  and  O3_26 
REMARK    7  A    between atoms: C26_29  and  O4_30 
REMARK    8  A    between atoms: C27_31  and  C29_33 
REMARK    9  A    between atoms: C29_33  and  O6_35 
ROOT
HETATM    1  C7  UNL     1      -4.442  48.826 -21.271  1.00  0.00    -0.002 C 
HETATM    2  C8  UNL     1      -4.221  47.783 -22.394  1.00  0.00     0.006 C 
HETATM    3  C9  UNL     1      -3.986  48.558 -23.687  1.00  0.00     0.010 C 
HETATM    4  C10 UNL     1      -3.840  50.032 -23.289  1.00  0.00     0.027 C 
HETATM    5  C11 UNL     1      -2.832  50.784 -24.134  1.00  0.00    -0.036 C 
HETATM    6  C12 UNL     1      -1.592  51.126 -23.716  1.00  0.00     0.002 C 
HETATM    7  C13 UNL     1      -1.123  50.566 -22.391  1.00  0.00     0.157 C 
HETATM    8  O1  UNL     1       0.037  50.722 -22.008  1.00  0.00    -0.293 OA
HETATM    9  C14 UNL     1      -2.052  49.708 -21.558  1.00  0.00     0.093 C 
HETATM   10  C15 UNL     1      -3.545  50.021 -21.777  1.00  0.00    -0.026 C 
HETATM   11  C16 UNL     1      -3.844  51.390 -21.145  1.00  0.00     0.016 C 
HETATM   12  C17 UNL     1      -0.626  52.034 -24.531  1.00  0.00    -0.006 C 
HETATM   13  C18 UNL     1      -0.172  53.206 -23.619  1.00  0.00     0.021 C 
HETATM   14  C19 UNL     1       0.597  51.181 -24.979  1.00  0.00     0.022 C 
HETATM   15  C20 UNL     1       1.542  51.886 -25.942  1.00  0.00     0.083 C 
HETATM   16  C21 UNL     1       0.767  52.350 -27.145  1.00  0.00     0.161 C 
HETATM   17  O2  UNL     1       1.047  51.957 -28.278  1.00  0.00    -0.295 OA
HETATM   18  C22 UNL     1      -0.389  53.316 -26.850  1.00  0.00     0.119 C 
HETATM   19  C23 UNL     1      -1.071  53.743 -28.156  1.00  0.00     0.055 C 
HETATM   20  C24 UNL     1      -1.351  52.658 -25.810  1.00  0.00     0.043 C 
HETATM   21  C25 UNL     1      -2.264  51.602 -26.464  1.00  0.00     0.045 C 
HETATM   22  C26 UNL     1      -3.349  51.147 -25.498  1.00  0.00     0.148 C 
ENDROOT
BRANCH   1  23
HETATM   23  C5  UNL     1      -5.952  49.162 -20.998  1.00  0.00    -0.014 C 
HETATM   24  C6  UNL     1      -6.273  49.131 -19.490  1.00  0.00     0.010 C 
BRANCH  23  25
HETATM   25  C4  UNL     1      -6.987  48.259 -21.720  1.00  0.00     0.009 C 
BRANCH  25  26
HETATM   26  C3  UNL     1      -7.586  48.856 -23.002  1.00  0.00     0.034 C 
BRANCH  26  27
HETATM   27  C2  UNL     1      -7.740  47.820 -24.106  1.00  0.00    -0.075 C 
HETATM   28  C1  UNL     1      -7.663  46.511 -23.800  1.00  0.00     0.015 C 
BRANCH  27  29
HETATM   29  C27 UNL     1      -7.989  48.364 -25.515  1.00  0.00     0.107 C 
HETATM   30  C28 UNL     1      -7.631  47.420 -26.665  1.00  0.00     0.026 C 
BRANCH  29  31
HETATM   31  C29 UNL     1      -9.448  48.781 -25.685  1.00  0.00     0.147 C 
HETATM   32  O5  UNL     1     -10.447  48.094 -25.549  1.00  0.00    -0.650 OA
BRANCH  31  33
HETATM   33  O6  UNL     1      -9.571  50.078 -26.041  1.00  0.00    -0.776 OA
HETATM   34  H42 UNL     1     -10.540  50.210 -26.112  1.00  0.00     0.167 HD
ENDBRANCH  31  33
ENDBRANCH  29  31
ENDBRANCH  27  29
ENDBRANCH  26  27
ENDBRANCH  25  26
ENDBRANCH  23  25
ENDBRANCH   1  23
BRANCH  22  35
HETATM   35  O4  UNL     1      -4.301  52.193 -25.323  1.00  0.00    -0.391 OA
HETATM   36  H37 UNL     1      -4.756  52.320 -26.172  1.00  0.00     0.210 HD
ENDBRANCH  22  35
BRANCH  18  37
HETATM   37  O3  UNL     1       0.173  54.507 -26.291  1.00  0.00    -0.382 OA
HETATM   38  H32 UNL     1      -0.502  55.207 -26.319  1.00  0.00     0.211 HD
ENDBRANCH  18  37
TORSDOF 9
ENDMDL
MODEL 6
REMARK minimizedAffinity -9.01386356
REMARK  9 active torsions:
REMARK  status: ('A' for Active; 'I' for Inactive)
REMARK    1  A    between atoms: C2_2  and  C3_3 
REMARK    2  A    between atoms: C2_2  and  C27_31 
REMARK    3  A    between atoms: C3_3  and  C4_4 
REMARK    4  A    between atoms: C4_4  and  C5_5 
REMARK    5  A    between atoms: C5_5  and  C7_7 
REMARK    6  A    between atoms: C22_24  and  O3_26 
REMARK    7  A    between atoms: C26_29  and  O4_30 
REMARK    8  A    between atoms: C27_31  and  C29_33 
REMARK    9  A    between atoms: C29_33  and  O6_35 
ROOT
HETATM    1  C7  UNL     1      -4.221  48.738 -20.120  1.00  0.00    -0.002 C 
HETATM    2  C8  UNL     1      -4.884  50.137 -20.151  1.00  0.00     0.006 C 
HETATM    3  C9  UNL     1      -3.957  51.056 -20.941  1.00  0.00     0.010 C 
HETATM    4  C10 UNL     1      -2.880  50.158 -21.560  1.00  0.00     0.027 C 
HETATM    5  C11 UNL     1      -2.439  50.613 -22.936  1.00  0.00    -0.036 C 
HETATM    6  C12 UNL     1      -2.811  50.016 -24.091  1.00  0.00     0.002 C 
HETATM    7  C13 UNL     1      -3.874  48.940 -24.011  1.00  0.00     0.157 C 
HETATM    8  O1  UNL     1      -4.359  48.446 -25.029  1.00  0.00    -0.293 OA
HETATM    9  C14 UNL     1      -4.435  48.529 -22.666  1.00  0.00     0.093 C 
HETATM   10  C15 UNL     1      -3.452  48.729 -21.497  1.00  0.00    -0.026 C 
HETATM   11  C16 UNL     1      -2.335  47.680 -21.628  1.00  0.00     0.016 C 
HETATM   12  C17 UNL     1      -2.229  50.391 -25.484  1.00  0.00    -0.006 C 
HETATM   13  C18 UNL     1      -1.690  49.097 -26.153  1.00  0.00     0.021 C 
HETATM   14  C19 UNL     1      -3.363  51.022 -26.343  1.00  0.00     0.022 C 
HETATM   15  C20 UNL     1      -2.902  51.607 -27.670  1.00  0.00     0.083 C 
HETATM   16  C21 UNL     1      -1.822  52.624 -27.414  1.00  0.00     0.161 C 
HETATM   17  O2  UNL     1      -1.955  53.800 -27.754  1.00  0.00    -0.295 OA
HETATM   18  C22 UNL     1      -0.577  52.091 -26.691  1.00  0.00     0.119 C 
HETATM   19  C23 UNL     1       0.460  53.210 -26.526  1.00  0.00     0.055 C 
HETATM   20  C24 UNL     1      -1.013  51.418 -25.351  1.00  0.00     0.043 C 
HETATM   21  C25 UNL     1      -1.325  52.463 -24.262  1.00  0.00     0.045 C 
HETATM   22  C26 UNL     1      -1.513  51.796 -22.906  1.00  0.00     0.148 C 
ENDROOT
BRANCH   1  23
HETATM   23  C5  UNL     1      -3.350  48.472 -18.840  1.00  0.00    -0.014 C 
HETATM   24  C6  UNL     1      -4.215  47.976 -17.663  1.00  0.00     0.010 C 
BRANCH  23  25
HETATM   25  C4  UNL     1      -2.507  49.673 -18.334  1.00  0.00     0.009 C 
BRANCH  25  26
HETATM   26  C3  UNL     1      -0.994  49.545 -18.562  1.00  0.00     0.034 C 
BRANCH  26  27
HETATM   27  C2  UNL     1      -0.184  50.066 -17.383  1.00  0.00    -0.075 C 
HETATM   28  C1  UNL     1       0.313  49.194 -16.487  1.00  0.00     0.015 C 
BRANCH  27  29
HETATM   29  C27 UNL     1       0.015  51.582 -17.315  1.00  0.00     0.107 C 
HETATM   30  C28 UNL     1       1.134  52.064 -16.390  1.00  0.00     0.026 C 
BRANCH  29  31
HETATM   31  C29 UNL     1       0.274  52.157 -18.706  1.00  0.00     0.147 C 
HETATM   32  O5  UNL     1       0.300  51.564 -19.772  1.00  0.00    -0.650 OA
BRANCH  31  33
HETATM   33  O6  UNL     1       0.504  53.487 -18.674  1.00  0.00    -0.776 OA
HETATM   34  H42 UNL     1       0.649  53.722 -19.616  1.00  0.00     0.167 HD
ENDBRANCH  31  33
ENDBRANCH  29  31
ENDBRANCH  27  29
ENDBRANCH  26  27
ENDBRANCH  25  26
ENDBRANCH  23  25
ENDBRANCH   1  23
BRANCH  22  35
HETATM   35  O4  UNL     1      -0.254  51.334 -22.424  1.00  0.00    -0.391 OA
HETATM   36  H37 UNL     1       0.297  52.114 -22.246  1.00  0.00     0.210 HD
ENDBRANCH  22  35
BRANCH  18  37
HETATM   37  O3  UNL     1       0.031  51.113 -27.540  1.00  0.00    -0.382 OA
HETATM   38  H32 UNL     1       0.932  50.941 -27.213  1.00  0.00     0.211 HD
ENDBRANCH  18  37
TORSDOF 9
ENDMDL
MODEL 7
REMARK minimizedAffinity -8.87396812
REMARK  9 active torsions:
REMARK  status: ('A' for Active; 'I' for Inactive)
REMARK    1  A    between atoms: C2_2  and  C3_3 
REMARK    2  A    between atoms: C2_2  and  C27_31 
REMARK    3  A    between atoms: C3_3  and  C4_4 
REMARK    4  A    between atoms: C4_4  and  C5_5 
REMARK    5  A    between atoms: C5_5  and  C7_7 
REMARK    6  A    between atoms: C22_24  and  O3_26 
REMARK    7  A    between atoms: C26_29  and  O4_30 
REMARK    8  A    between atoms: C27_31  and  C29_33 
REMARK    9  A    between atoms: C29_33  and  O6_35 
ROOT
HETATM    1  C7  UNL     1      -3.583  50.793 -25.952  1.00  0.00    -0.002 C 
HETATM    2  C8  UNL     1      -3.685  49.318 -26.413  1.00  0.00     0.006 C 
HETATM    3  C9  UNL     1      -3.273  48.448 -25.230  1.00  0.00     0.010 C 
HETATM    4  C10 UNL     1      -3.154  49.386 -24.023  1.00  0.00     0.027 C 
HETATM    5  C11 UNL     1      -3.596  48.747 -22.722  1.00  0.00    -0.036 C 
HETATM    6  C12 UNL     1      -4.771  49.010 -22.105  1.00  0.00     0.002 C 
HETATM    7  C13 UNL     1      -5.778  49.857 -22.853  1.00  0.00     0.157 C 
HETATM    8  O1  UNL     1      -6.916  50.028 -22.416  1.00  0.00    -0.293 OA
HETATM    9  C14 UNL     1      -5.430  50.425 -24.213  1.00  0.00     0.093 C 
HETATM   10  C15 UNL     1      -3.921  50.662 -24.417  1.00  0.00    -0.026 C 
HETATM   11  C16 UNL     1      -3.502  51.853 -23.540  1.00  0.00     0.016 C 
HETATM   12  C17 UNL     1      -5.145  48.471 -20.694  1.00  0.00    -0.006 C 
HETATM   13  C18 UNL     1      -5.552  49.677 -19.804  1.00  0.00     0.021 C 
HETATM   14  C19 UNL     1      -6.329  47.473 -20.842  1.00  0.00     0.022 C 
HETATM   15  C20 UNL     1      -6.689  46.723 -19.567  1.00  0.00     0.083 C 
HETATM   16  C21 UNL     1      -5.469  46.005 -19.055  1.00  0.00     0.161 C 
HETATM   17  O2  UNL     1      -5.454  44.781 -18.925  1.00  0.00    -0.295 OA
HETATM   18  C22 UNL     1      -4.266  46.902 -18.734  1.00  0.00     0.119 C 
HETATM   19  C23 UNL     1      -3.106  46.059 -18.186  1.00  0.00     0.055 C 
HETATM   20  C24 UNL     1      -3.904  47.743 -20.000  1.00  0.00     0.043 C 
HETATM   21  C25 UNL     1      -3.134  46.908 -21.041  1.00  0.00     0.045 C 
HETATM   22  C26 UNL     1      -2.584  47.793 -22.151  1.00  0.00     0.148 C 
ENDROOT
BRANCH   1  23
HETATM   23  C5  UNL     1      -2.214  51.479 -26.302  1.00  0.00    -0.014 C 
HETATM   24  C6  UNL     1      -2.377  52.521 -27.428  1.00  0.00     0.010 C 
BRANCH  23  25
HETATM   25  C4  UNL     1      -1.062  50.521 -26.709  1.00  0.00     0.009 C 
BRANCH  25  26
HETATM   26  C3  UNL     1       0.217  51.217 -27.199  1.00  0.00     0.034 C 
BRANCH  26  27
HETATM   27  C2  UNL     1       1.061  51.753 -26.051  1.00  0.00    -0.075 C 
HETATM   28  C1  UNL     1       2.387  51.524 -26.043  1.00  0.00     0.015 C 
BRANCH  27  29
HETATM   29  C27 UNL     1       0.314  52.542 -24.973  1.00  0.00     0.107 C 
HETATM   30  C28 UNL     1       0.668  52.190 -23.526  1.00  0.00     0.026 C 
BRANCH  29  31
HETATM   31  C29 UNL     1       0.524  54.043 -25.157  1.00  0.00     0.147 C 
HETATM   32  O5  UNL     1       0.108  54.756 -26.056  1.00  0.00    -0.650 OA
BRANCH  31  33
HETATM   33  O6  UNL     1       1.283  54.578 -24.175  1.00  0.00    -0.776 OA
HETATM   34  H42 UNL     1       1.334  55.528 -24.412  1.00  0.00     0.167 HD
ENDBRANCH  31  33
ENDBRANCH  29  31
ENDBRANCH  27  29
ENDBRANCH  26  27
ENDBRANCH  25  26
ENDBRANCH  23  25
ENDBRANCH   1  23
BRANCH  22  35
HETATM   35  O4  UNL     1      -1.506  48.575 -21.645  1.00  0.00    -0.391 OA
HETATM   36  H37 UNL     1      -0.781  47.968 -21.425  1.00  0.00     0.210 HD
ENDBRANCH  22  35
BRANCH  18  37
HETATM   37  O3  UNL     1      -4.650  47.781 -17.672  1.00  0.00    -0.382 OA
HETATM   38  H32 UNL     1      -3.846  48.184 -17.301  1.00  0.00     0.211 HD
ENDBRANCH  18  37
TORSDOF 9
ENDMDL
MODEL 8
REMARK minimizedAffinity -8.84204483
REMARK  9 active torsions:
REMARK  status: ('A' for Active; 'I' for Inactive)
REMARK    1  A    between atoms: C2_2  and  C3_3 
REMARK    2  A    between atoms: C2_2  and  C27_31 
REMARK    3  A    between atoms: C3_3  and  C4_4 
REMARK    4  A    between atoms: C4_4  and  C5_5 
REMARK    5  A    between atoms: C5_5  and  C7_7 
REMARK    6  A    between atoms: C22_24  and  O3_26 
REMARK    7  A    between atoms: C26_29  and  O4_30 
REMARK    8  A    between atoms: C27_31  and  C29_33 
REMARK    9  A    between atoms: C29_33  and  O6_35 
ROOT
HETATM    1  C7  UNL     1      -2.410  50.405 -21.681  1.00  0.00    -0.002 C 
HETATM    2  C8  UNL     1      -1.014  49.798 -21.965  1.00  0.00     0.006 C 
HETATM    3  C9  UNL     1      -0.070  50.316 -20.885  1.00  0.00     0.010 C 
HETATM    4  C10 UNL     1      -0.947  51.032 -19.850  1.00  0.00     0.027 C 
HETATM    5  C11 UNL     1      -0.454  50.861 -18.427  1.00  0.00    -0.036 C 
HETATM    6  C12 UNL     1      -1.023  50.037 -17.518  1.00  0.00     0.002 C 
HETATM    7  C13 UNL     1      -2.105  49.098 -18.007  1.00  0.00     0.157 C 
HETATM    8  O1  UNL     1      -2.575  48.230 -17.272  1.00  0.00    -0.293 OA
HETATM    9  C14 UNL     1      -2.554  49.147 -19.452  1.00  0.00     0.093 C 
HETATM   10  C15 UNL     1      -2.380  50.529 -20.109  1.00  0.00    -0.026 C 
HETATM   11  C16 UNL     1      -3.419  51.483 -19.498  1.00  0.00     0.016 C 
HETATM   12  C17 UNL     1      -0.609  49.988 -16.019  1.00  0.00    -0.006 C 
HETATM   13  C18 UNL     1      -1.883  50.190 -15.154  1.00  0.00     0.021 C 
HETATM   14  C19 UNL     1       0.038  48.603 -15.728  1.00  0.00     0.022 C 
HETATM   15  C20 UNL     1       0.660  48.472 -14.345  1.00  0.00     0.083 C 
HETATM   16  C21 UNL     1       1.675  49.567 -14.153  1.00  0.00     0.161 C 
HETATM   17  O2  UNL     1       2.858  49.312 -13.930  1.00  0.00    -0.295 OA
HETATM   18  C22 UNL     1       1.129  50.996 -14.277  1.00  0.00     0.119 C 
HETATM   19  C23 UNL     1       2.249  52.015 -14.023  1.00  0.00     0.055 C 
HETATM   20  C24 UNL     1       0.420  51.155 -15.659  1.00  0.00     0.043 C 
HETATM   21  C25 UNL     1       1.435  51.333 -16.805  1.00  0.00     0.045 C 
HETATM   22  C26 UNL     1       0.732  51.723 -18.099  1.00  0.00     0.148 C 
ENDROOT
BRANCH   1  23
HETATM   23  C5  UNL     1      -2.705  51.729 -22.474  1.00  0.00    -0.014 C 
HETATM   24  C6  UNL     1      -4.210  52.065 -22.468  1.00  0.00     0.010 C 
BRANCH  23  25
HETATM   25  C4  UNL     1      -2.221  51.756 -23.948  1.00  0.00     0.009 C 
BRANCH  25  26
HETATM   26  C3  UNL     1      -0.792  51.239 -24.171  1.00  0.00     0.034 C 
BRANCH  26  27
HETATM   27  C2  UNL     1       0.206  52.369 -24.381  1.00  0.00    -0.075 C 
HETATM   28  C1  UNL     1       0.631  53.082 -23.321  1.00  0.00     0.015 C 
BRANCH  27  29
HETATM   29  C27 UNL     1       0.670  52.603 -25.821  1.00  0.00     0.107 C 
HETATM   30  C28 UNL     1       0.517  51.413 -26.770  1.00  0.00     0.026 C 
BRANCH  29  31
HETATM   31  C29 UNL     1      -0.058  53.795 -26.438  1.00  0.00     0.147 C 
HETATM   32  O5  UNL     1       0.249  54.975 -26.382  1.00  0.00    -0.650 OA
BRANCH  31  33
HETATM   33  O6  UNL     1      -1.174  53.424 -27.102  1.00  0.00    -0.776 OA
HETATM   34  H42 UNL     1      -1.534  54.271 -27.443  1.00  0.00     0.167 HD
ENDBRANCH  31  33
ENDBRANCH  29  31
ENDBRANCH  27  29
ENDBRANCH  26  27
ENDBRANCH  25  26
ENDBRANCH  23  25
ENDBRANCH   1  23
BRANCH  22  35
HETATM   35  O4  UNL     1       0.264  53.065 -18.000  1.00  0.00    -0.391 OA
HETATM   36  H37 UNL     1       1.042  53.645 -17.951  1.00  0.00     0.210 HD
ENDBRANCH  22  35
BRANCH  18  37
HETATM   37  O3  UNL     1       0.176  51.189 -13.227  1.00  0.00    -0.382 OA
HETATM   38  H32 UNL     1       0.000  52.143 -13.144  1.00  0.00     0.211 HD
ENDBRANCH  18  37
TORSDOF 9
ENDMDL
MODEL 9
REMARK minimizedAffinity -8.82518005
REMARK  9 active torsions:
REMARK  status: ('A' for Active; 'I' for Inactive)
REMARK    1  A    between atoms: C2_2  and  C3_3 
REMARK    2  A    between atoms: C2_2  and  C27_31 
REMARK    3  A    between atoms: C3_3  and  C4_4 
REMARK    4  A    between atoms: C4_4  and  C5_5 
REMARK    5  A    between atoms: C5_5  and  C7_7 
REMARK    6  A    between atoms: C22_24  and  O3_26 
REMARK    7  A    between atoms: C26_29  and  O4_30 
REMARK    8  A    between atoms: C27_31  and  C29_33 
REMARK    9  A    between atoms: C29_33  and  O6_35 
ROOT
HETATM    1  C7  UNL     1      -0.457  50.958 -19.277  1.00  0.00    -0.002 C 
HETATM    2  C8  UNL     1      -1.550  51.727 -18.497  1.00  0.00     0.006 C 
HETATM    3  C9  UNL     1      -2.861  51.535 -19.253  1.00  0.00     0.010 C 
HETATM    4  C10 UNL     1      -2.589  50.481 -20.332  1.00  0.00     0.027 C 
HETATM    5  C11 UNL     1      -3.768  49.564 -20.585  1.00  0.00    -0.036 C 
HETATM    6  C12 UNL     1      -3.848  48.287 -20.145  1.00  0.00     0.002 C 
HETATM    7  C13 UNL     1      -2.773  47.807 -19.194  1.00  0.00     0.157 C 
HETATM    8  O1  UNL     1      -2.849  46.706 -18.648  1.00  0.00    -0.293 OA
HETATM    9  C14 UNL     1      -1.631  48.727 -18.814  1.00  0.00     0.093 C 
HETATM   10  C15 UNL     1      -1.293  49.772 -19.895  1.00  0.00    -0.026 C 
HETATM   11  C16 UNL     1      -0.636  49.041 -21.078  1.00  0.00     0.016 C 
HETATM   12  C17 UNL     1      -4.988  47.306 -20.544  1.00  0.00    -0.006 C 
HETATM   13  C18 UNL     1      -4.343  46.015 -21.118  1.00  0.00     0.021 C 
HETATM   14  C19 UNL     1      -5.830  46.982 -19.275  1.00  0.00     0.022 C 
HETATM   15  C20 UNL     1      -7.093  46.177 -19.542  1.00  0.00     0.083 C 
HETATM   16  C21 UNL     1      -7.940  46.905 -20.552  1.00  0.00     0.161 C 
HETATM   17  O2  UNL     1      -9.084  47.272 -20.283  1.00  0.00    -0.295 OA
HETATM   18  C22 UNL     1      -7.268  47.164 -21.907  1.00  0.00     0.119 C 
HETATM   19  C23 UNL     1      -8.243  47.874 -22.856  1.00  0.00     0.055 C 
HETATM   20  C24 UNL     1      -5.927  47.932 -21.674  1.00  0.00     0.043 C 
HETATM   21  C25 UNL     1      -6.167  49.427 -21.390  1.00  0.00     0.045 C 
HETATM   22  C26 UNL     1      -4.855  50.200 -21.404  1.00  0.00     0.148 C 
ENDROOT
BRANCH   1  23
HETATM   23  C5  UNL     1       0.344  51.845 -20.298  1.00  0.00    -0.014 C 
HETATM   24  C6  UNL     1       0.797  53.172 -19.657  1.00  0.00     0.010 C 
BRANCH  23  25
HETATM   25  C4  UNL     1      -0.393  52.186 -21.620  1.00  0.00     0.009 C 
BRANCH  25  26
HETATM   26  C3  UNL     1       0.522  52.422 -22.831  1.00  0.00     0.034 C 
BRANCH  26  27
HETATM   27  C2  UNL     1      -0.106  51.945 -24.133  1.00  0.00    -0.075 C 
HETATM   28  C1  UNL     1      -1.231  51.208 -24.093  1.00  0.00     0.015 C 
BRANCH  27  29
HETATM   29  C27 UNL     1       0.606  52.364 -25.421  1.00  0.00     0.107 C 
HETATM   30  C28 UNL     1       0.657  51.308 -26.527  1.00  0.00     0.026 C 
BRANCH  29  31
HETATM   31  C29 UNL     1      -0.026  53.626 -26.003  1.00  0.00     0.147 C 
HETATM   32  O5  UNL     1       0.235  54.789 -25.740  1.00  0.00    -0.650 OA
BRANCH  31  33
HETATM   33  O6  UNL     1      -0.992  53.345 -26.905  1.00  0.00    -0.776 OA
HETATM   34  H42 UNL     1      -1.305  54.228 -27.195  1.00  0.00     0.167 HD
ENDBRANCH  31  33
ENDBRANCH  29  31
ENDBRANCH  27  29
ENDBRANCH  26  27
ENDBRANCH  25  26
ENDBRANCH  23  25
ENDBRANCH   1  23
BRANCH  22  35
HETATM   35  O4  UNL     1      -4.374  50.297 -22.741  1.00  0.00    -0.391 OA
HETATM   36  H37 UNL     1      -4.997  50.851 -23.239  1.00  0.00     0.210 HD
ENDBRANCH  22  35
BRANCH  18  37
HETATM   37  O3  UNL     1      -6.991  45.893 -22.504  1.00  0.00    -0.382 OA
HETATM   38  H32 UNL     1      -6.789  46.034 -23.445  1.00  0.00     0.211 HD
ENDBRANCH  18  37
TORSDOF 9
ENDMDL
