MODEL 1
REMARK minimizedAffinity -7.25052786
REMARK CNNscore 0.414452881
REMARK CNNaffinity 6.46033859
REMARK  12 active torsions:
REMARK  status: ('A' for Active; 'I' for Inactive)
REMARK    1  A    between atoms: C2_2  and  C3_3 
REMARK    2  A    between atoms: C3_3  and  C5_5 
REMARK    3  A    between atoms: C3_3  and  C20_20 
REMARK    4  A    between atoms: C6_6  and  C7_7 
REMARK    5  A    between atoms: C7_7  and  C9_9 
REMARK    6  A    between atoms: C9_9  and  C10_10 
REMARK    7  A    between atoms: C10_10  and  C11_11 
REMARK    8  A    between atoms: C12_12  and  C14_14 
REMARK    9  A    between atoms: C14_14  and  C15_15 
REMARK   10  A    between atoms: C15_15  and  C16_16 
REMARK   11  A    between atoms: C20_20  and  C21_21 
REMARK   12  A    between atoms: C21_21  and  C22_22 
ROOT
HETATM    1  C3  UNL     1      -2.043  53.615 -10.246  1.00  0.00    -0.010 C 
HETATM    2  C4  UNL     1      -3.501  54.055 -10.532  1.00  0.00     0.024 C 
ENDROOT
BRANCH   1   3
HETATM    3  C2  UNL     1      -2.079  53.008  -8.844  1.00  0.00    -0.024 C 
HETATM    4  C1  UNL     1      -1.939  51.729  -8.469  1.00  0.00     0.008 C 
ENDBRANCH   1   3
BRANCH   1   5
HETATM    5  C5  UNL     1      -1.676  52.573 -11.307  1.00  0.00    -0.017 C 
HETATM    6  C6  UNL     1      -2.355  52.269 -12.428  1.00  0.00    -0.025 C 
BRANCH   6   7
HETATM    7  C7  UNL     1      -1.903  51.223 -13.424  1.00  0.00     0.004 C 
HETATM    8  C8  UNL     1      -2.968  51.077 -14.514  1.00  0.00     0.014 C 
BRANCH   7   9
HETATM    9  C9  UNL     1      -0.530  51.626 -13.997  1.00  0.00     0.012 C 
BRANCH   9  10
HETATM   10  C10 UNL     1       0.076  50.627 -14.991  1.00  0.00     0.028 C 
BRANCH  10  11
HETATM   11  C11 UNL     1      -0.137  51.041 -16.424  1.00  0.00    -0.024 C 
HETATM   12  C12 UNL     1       0.635  51.830 -17.198  1.00  0.00    -0.087 C 
HETATM   13  C13 UNL     1       1.917  52.476 -16.734  1.00  0.00     0.043 C 
BRANCH  12  14
HETATM   14  C14 UNL     1       0.303  52.175 -18.648  1.00  0.00     0.037 C 
BRANCH  14  15
HETATM   15  C15 UNL     1      -0.140  51.032 -19.572  1.00  0.00     0.031 C 
BRANCH  15  16
HETATM   16  C16 UNL     1      -0.191  51.471 -21.013  1.00  0.00    -0.024 C 
HETATM   17  C17 UNL     1       0.532  52.445 -21.599  1.00  0.00    -0.091 C 
HETATM   18  C18 UNL     1       1.506  53.342 -20.885  1.00  0.00     0.042 C 
HETATM   19  C19 UNL     1       0.397  52.721 -23.075  1.00  0.00     0.042 C 
ENDBRANCH  15  16
ENDBRANCH  14  15
ENDBRANCH  12  14
ENDBRANCH  10  11
ENDBRANCH   9  10
ENDBRANCH   7   9
ENDBRANCH   6   7
ENDBRANCH   1   5
BRANCH   1  20
HETATM   20  C20 UNL     1      -1.132  54.875 -10.440  1.00  0.00     0.018 C 
BRANCH  20  21
HETATM   21  C21 UNL     1       0.342  54.588 -10.771  1.00  0.00     0.011 C 
BRANCH  21  22
HETATM   22  C22 UNL     1       1.485  55.289  -9.975  1.00  0.00     0.022 C 
HETATM   23  C23 UNL     1       2.923  55.000 -10.393  1.00  0.00    -0.084 C 
HETATM   24  C24 UNL     1       3.399  53.877 -10.955  1.00  0.00     0.014 C 
HETATM   25  C25 UNL     1       3.876  56.136 -10.073  1.00  0.00     0.034 C 
HETATM   26  C26 UNL     1       3.417  56.961  -8.866  1.00  0.00     0.009 C 
HETATM   27  C27 UNL     1       2.714  56.080  -7.820  1.00  0.00    -0.010 C 
HETATM   28  C28 UNL     1       2.513  56.874  -6.523  1.00  0.00     0.011 C 
HETATM   29  C29 UNL     1       1.397  55.388  -8.394  1.00  0.00    -0.037 C 
HETATM   30  C30 UNL     1       1.301  54.012  -7.698  1.00  0.00     0.016 C 
HETATM   31  C31 UNL     1       0.124  56.186  -8.028  1.00  0.00     0.016 C 
ENDBRANCH  21  22
ENDBRANCH  20  21
ENDBRANCH   1  20
TORSDOF 12
ENDMDL
MODEL 2
REMARK minimizedAffinity -7.90744686
REMARK CNNscore 0.259428799
REMARK CNNaffinity 6.32691908
REMARK  12 active torsions:
REMARK  status: ('A' for Active; 'I' for Inactive)
REMARK    1  A    between atoms: C2_2  and  C3_3 
REMARK    2  A    between atoms: C3_3  and  C5_5 
REMARK    3  A    between atoms: C3_3  and  C20_20 
REMARK    4  A    between atoms: C6_6  and  C7_7 
REMARK    5  A    between atoms: C7_7  and  C9_9 
REMARK    6  A    between atoms: C9_9  and  C10_10 
REMARK    7  A    between atoms: C10_10  and  C11_11 
REMARK    8  A    between atoms: C12_12  and  C14_14 
REMARK    9  A    between atoms: C14_14  and  C15_15 
REMARK   10  A    between atoms: C15_15  and  C16_16 
REMARK   11  A    between atoms: C20_20  and  C21_21 
REMARK   12  A    between atoms: C21_21  and  C22_22 
ROOT
HETATM    1  C3  UNL     1       1.870  51.699 -15.200  1.00  0.00    -0.010 C 
HETATM    2  C4  UNL     1       2.662  50.840 -14.182  1.00  0.00     0.024 C 
ENDROOT
BRANCH   1   3
HETATM    3  C2  UNL     1       2.933  52.452 -15.998  1.00  0.00    -0.024 C 
HETATM    4  C1  UNL     1       4.253  52.234 -16.071  1.00  0.00     0.008 C 
ENDBRANCH   1   3
BRANCH   1   5
HETATM    5  C5  UNL     1       1.079  50.728 -16.082  1.00  0.00    -0.017 C 
HETATM    6  C6  UNL     1       0.446  50.998 -17.238  1.00  0.00    -0.025 C 
BRANCH   6   7
HETATM    7  C7  UNL     1      -0.306  49.962 -18.045  1.00  0.00     0.004 C 
HETATM    8  C8  UNL     1      -0.977  48.973 -17.088  1.00  0.00     0.014 C 
BRANCH   7   9
HETATM    9  C9  UNL     1      -1.323  50.671 -18.962  1.00  0.00     0.012 C 
BRANCH   9  10
HETATM   10  C10 UNL     1      -0.808  51.951 -19.632  1.00  0.00     0.028 C 
BRANCH  10  11
HETATM   11  C11 UNL     1      -0.882  51.884 -21.135  1.00  0.00    -0.024 C 
HETATM   12  C12 UNL     1      -0.021  52.382 -22.046  1.00  0.00    -0.087 C 
HETATM   13  C13 UNL     1       1.235  53.142 -21.696  1.00  0.00     0.043 C 
BRANCH  12  14
HETATM   14  C14 UNL     1      -0.214  52.245 -23.554  1.00  0.00     0.037 C 
BRANCH  14  15
HETATM   15  C15 UNL     1       0.661  53.112 -24.470  1.00  0.00     0.031 C 
BRANCH  15  16
HETATM   16  C16 UNL     1       0.402  52.820 -25.926  1.00  0.00    -0.024 C 
HETATM   17  C17 UNL     1       1.135  52.046 -26.750  1.00  0.00    -0.091 C 
HETATM   18  C18 UNL     1       2.419  51.362 -26.372  1.00  0.00     0.042 C 
HETATM   19  C19 UNL     1       0.701  51.814 -28.175  1.00  0.00     0.042 C 
ENDBRANCH  15  16
ENDBRANCH  14  15
ENDBRANCH  12  14
ENDBRANCH  10  11
ENDBRANCH   9  10
ENDBRANCH   7   9
ENDBRANCH   6   7
ENDBRANCH   1   5
BRANCH   1  20
HETATM   20  C20 UNL     1       0.858  52.573 -14.382  1.00  0.00     0.018 C 
BRANCH  20  21
HETATM   21  C21 UNL     1       0.561  52.088 -12.953  1.00  0.00     0.011 C 
BRANCH  21  22
HETATM   22  C22 UNL     1      -0.239  52.986 -11.962  1.00  0.00     0.022 C 
HETATM   23  C23 UNL     1       0.530  53.651 -10.824  1.00  0.00    -0.084 C 
HETATM   24  C24 UNL     1       1.638  53.198 -10.215  1.00  0.00     0.014 C 
HETATM   25  C25 UNL     1      -0.106  54.944 -10.350  1.00  0.00     0.034 C 
HETATM   26  C26 UNL     1      -1.623  54.964 -10.570  1.00  0.00     0.009 C 
HETATM   27  C27 UNL     1      -2.233  53.565 -10.390  1.00  0.00    -0.010 C 
HETATM   28  C28 UNL     1      -3.763  53.668 -10.347  1.00  0.00     0.011 C 
HETATM   29  C29 UNL     1      -1.661  52.511 -11.439  1.00  0.00    -0.037 C 
HETATM   30  C30 UNL     1      -1.621  51.154 -10.702  1.00  0.00     0.016 C 
HETATM   31  C31 UNL     1      -2.597  52.351 -12.660  1.00  0.00     0.016 C 
ENDBRANCH  21  22
ENDBRANCH  20  21
ENDBRANCH   1  20
TORSDOF 12
ENDMDL
MODEL 3
REMARK minimizedAffinity -7.2715683
REMARK CNNscore 0.246120185
REMARK CNNaffinity 5.89227629
REMARK  12 active torsions:
REMARK  status: ('A' for Active; 'I' for Inactive)
REMARK    1  A    between atoms: C2_2  and  C3_3 
REMARK    2  A    between atoms: C3_3  and  C5_5 
REMARK    3  A    between atoms: C3_3  and  C20_20 
REMARK    4  A    between atoms: C6_6  and  C7_7 
REMARK    5  A    between atoms: C7_7  and  C9_9 
REMARK    6  A    between atoms: C9_9  and  C10_10 
REMARK    7  A    between atoms: C10_10  and  C11_11 
REMARK    8  A    between atoms: C12_12  and  C14_14 
REMARK    9  A    between atoms: C14_14  and  C15_15 
REMARK   10  A    between atoms: C15_15  and  C16_16 
REMARK   11  A    between atoms: C20_20  and  C21_21 
REMARK   12  A    between atoms: C21_21  and  C22_22 
ROOT
HETATM    1  C3  UNL     1      -7.431  48.028 -24.965  1.00  0.00    -0.010 C 
HETATM    2  C4  UNL     1      -7.496  46.708 -24.156  1.00  0.00     0.024 C 
ENDROOT
BRANCH   1   3
HETATM    3  C2  UNL     1      -7.485  49.139 -23.918  1.00  0.00    -0.024 C 
HETATM    4  C1  UNL     1      -7.731  49.057 -22.604  1.00  0.00     0.008 C 
ENDBRANCH   1   3
BRANCH   1   5
HETATM    5  C5  UNL     1      -6.098  48.022 -25.719  1.00  0.00    -0.017 C 
HETATM    6  C6  UNL     1      -4.896  48.422 -25.266  1.00  0.00    -0.025 C 
BRANCH   6   7
HETATM    7  C7  UNL     1      -3.628  48.370 -26.091  1.00  0.00     0.004 C 
HETATM    8  C8  UNL     1      -3.924  48.897 -27.497  1.00  0.00     0.014 C 
BRANCH   7   9
HETATM    9  C9  UNL     1      -2.526  49.181 -25.381  1.00  0.00     0.012 C 
BRANCH   9  10
HETATM   10  C10 UNL     1      -1.653  50.036 -26.308  1.00  0.00     0.028 C 
BRANCH  10  11
HETATM   11  C11 UNL     1      -0.895  51.104 -25.562  1.00  0.00    -0.024 C 
HETATM   12  C12 UNL     1       0.373  51.525 -25.747  1.00  0.00    -0.087 C 
HETATM   13  C13 UNL     1       1.306  50.965 -26.791  1.00  0.00     0.043 C 
BRANCH  12  14
HETATM   14  C14 UNL     1       1.027  52.625 -24.914  1.00  0.00     0.037 C 
BRANCH  14  15
HETATM   15  C15 UNL     1       0.172  53.315 -23.841  1.00  0.00     0.031 C 
BRANCH  15  16
HETATM   16  C16 UNL     1       0.072  52.480 -22.590  1.00  0.00    -0.024 C 
HETATM   17  C17 UNL     1       0.506  52.800 -21.355  1.00  0.00    -0.091 C 
HETATM   18  C18 UNL     1       1.247  54.060 -21.002  1.00  0.00     0.042 C 
HETATM   19  C19 UNL     1       0.276  51.867 -20.194  1.00  0.00     0.042 C 
ENDBRANCH  15  16
ENDBRANCH  14  15
ENDBRANCH  12  14
ENDBRANCH  10  11
ENDBRANCH   9  10
ENDBRANCH   7   9
ENDBRANCH   6   7
ENDBRANCH   1   5
BRANCH   1  20
HETATM   20  C20 UNL     1      -8.600  47.991 -26.008  1.00  0.00     0.018 C 
BRANCH  20  21
HETATM   21  C21 UNL     1      -8.653  46.744 -26.907  1.00  0.00     0.011 C 
BRANCH  21  22
HETATM   22  C22 UNL     1      -8.815  46.886 -28.451  1.00  0.00     0.022 C 
HETATM   23  C23 UNL     1     -10.215  46.732 -29.037  1.00  0.00    -0.084 C 
HETATM   24  C24 UNL     1     -11.224  45.992 -28.552  1.00  0.00     0.014 C 
HETATM   25  C25 UNL     1     -10.406  47.498 -30.332  1.00  0.00     0.034 C 
HETATM   26  C26 UNL     1      -9.096  47.666 -31.110  1.00  0.00     0.009 C 
HETATM   27  C27 UNL     1      -8.181  46.443 -30.937  1.00  0.00    -0.010 C 
HETATM   28  C28 UNL     1      -7.017  46.521 -31.932  1.00  0.00     0.011 C 
HETATM   29  C29 UNL     1      -7.753  46.213 -29.419  1.00  0.00    -0.037 C 
HETATM   30  C30 UNL     1      -7.639  44.683 -29.235  1.00  0.00     0.016 C 
HETATM   31  C31 UNL     1      -6.365  46.824 -29.117  1.00  0.00     0.016 C 
ENDBRANCH  21  22
ENDBRANCH  20  21
ENDBRANCH   1  20
TORSDOF 12
ENDMDL
MODEL 4
REMARK minimizedAffinity -7.16637659
REMARK CNNscore 0.233290881
REMARK CNNaffinity 5.97937584
REMARK  12 active torsions:
REMARK  status: ('A' for Active; 'I' for Inactive)
REMARK    1  A    between atoms: C2_2  and  C3_3 
REMARK    2  A    between atoms: C3_3  and  C5_5 
REMARK    3  A    between atoms: C3_3  and  C20_20 
REMARK    4  A    between atoms: C6_6  and  C7_7 
REMARK    5  A    between atoms: C7_7  and  C9_9 
REMARK    6  A    between atoms: C9_9  and  C10_10 
REMARK    7  A    between atoms: C10_10  and  C11_11 
REMARK    8  A    between atoms: C12_12  and  C14_14 
REMARK    9  A    between atoms: C14_14  and  C15_15 
REMARK   10  A    between atoms: C15_15  and  C16_16 
REMARK   11  A    between atoms: C20_20  and  C21_21 
REMARK   12  A    between atoms: C21_21  and  C22_22 
ROOT
HETATM    1  C3  UNL     1      -3.483  49.272 -22.819  1.00  0.00    -0.010 C 
HETATM    2  C4  UNL     1      -4.818  49.677 -22.144  1.00  0.00     0.024 C 
ENDROOT
BRANCH   1   3
HETATM    3  C2  UNL     1      -3.143  47.900 -22.240  1.00  0.00    -0.024 C 
HETATM    4  C1  UNL     1      -1.943  47.357 -21.991  1.00  0.00     0.008 C 
ENDBRANCH   1   3
BRANCH   1   5
HETATM    5  C5  UNL     1      -3.749  49.203 -24.326  1.00  0.00    -0.017 C 
HETATM    6  C6  UNL     1      -3.251  50.003 -25.286  1.00  0.00    -0.025 C 
BRANCH   6   7
HETATM    7  C7  UNL     1      -3.571  49.848 -26.757  1.00  0.00     0.004 C 
HETATM    8  C8  UNL     1      -2.492  50.554 -27.581  1.00  0.00     0.014 C 
BRANCH   7   9
HETATM    9  C9  UNL     1      -3.680  48.348 -27.098  1.00  0.00     0.012 C 
BRANCH   9  10
HETATM   10  C10 UNL     1      -5.062  47.895 -27.585  1.00  0.00     0.028 C 
BRANCH  10  11
HETATM   11  C11 UNL     1      -5.317  48.267 -29.022  1.00  0.00    -0.024 C 
HETATM   12  C12 UNL     1      -5.819  47.506 -30.016  1.00  0.00    -0.087 C 
HETATM   13  C13 UNL     1      -6.231  46.064 -29.850  1.00  0.00     0.043 C 
BRANCH  12  14
HETATM   14  C14 UNL     1      -6.028  48.009 -31.442  1.00  0.00     0.037 C 
BRANCH  14  15
HETATM   15  C15 UNL     1      -7.240  47.475 -32.219  1.00  0.00     0.031 C 
BRANCH  15  16
HETATM   16  C16 UNL     1      -8.462  47.379 -31.343  1.00  0.00    -0.024 C 
HETATM   17  C17 UNL     1      -9.170  48.394 -30.809  1.00  0.00    -0.091 C 
HETATM   18  C18 UNL     1      -8.822  49.850 -30.943  1.00  0.00     0.042 C 
HETATM   19  C19 UNL     1     -10.409  48.121 -29.994  1.00  0.00     0.042 C 
ENDBRANCH  15  16
ENDBRANCH  14  15
ENDBRANCH  12  14
ENDBRANCH  10  11
ENDBRANCH   9  10
ENDBRANCH   7   9
ENDBRANCH   6   7
ENDBRANCH   1   5
BRANCH   1  20
HETATM   20  C20 UNL     1      -2.456  50.424 -22.542  1.00  0.00     0.018 C 
BRANCH  20  21
HETATM   21  C21 UNL     1      -2.697  51.240 -21.262  1.00  0.00     0.011 C 
BRANCH  21  22
HETATM   22  C22 UNL     1      -1.499  51.701 -20.377  1.00  0.00     0.022 C 
HETATM   23  C23 UNL     1      -0.236  52.180 -21.085  1.00  0.00    -0.084 C 
HETATM   24  C24 UNL     1       0.224  51.791 -22.286  1.00  0.00     0.014 C 
HETATM   25  C25 UNL     1       0.563  53.178 -20.268  1.00  0.00     0.034 C 
HETATM   26  C26 UNL     1       0.371  52.985 -18.760  1.00  0.00     0.009 C 
HETATM   27  C27 UNL     1       0.188  51.501 -18.404  1.00  0.00    -0.010 C 
HETATM   28  C28 UNL     1       0.271  51.318 -16.884  1.00  0.00     0.011 C 
HETATM   29  C29 UNL     1      -1.104  50.865 -19.087  1.00  0.00    -0.037 C 
HETATM   30  C30 UNL     1      -0.745  49.395 -19.395  1.00  0.00     0.016 C 
HETATM   31  C31 UNL     1      -2.315  50.858 -18.125  1.00  0.00     0.016 C 
ENDBRANCH  21  22
ENDBRANCH  20  21
ENDBRANCH   1  20
TORSDOF 12
ENDMDL
MODEL 5
REMARK minimizedAffinity -7.49781179
REMARK CNNscore 0.226524636
REMARK CNNaffinity 6.2763114
REMARK  12 active torsions:
REMARK  status: ('A' for Active; 'I' for Inactive)
REMARK    1  A    between atoms: C2_2  and  C3_3 
REMARK    2  A    between atoms: C3_3  and  C5_5 
REMARK    3  A    between atoms: C3_3  and  C20_20 
REMARK    4  A    between atoms: C6_6  and  C7_7 
REMARK    5  A    between atoms: C7_7  and  C9_9 
REMARK    6  A    between atoms: C9_9  and  C10_10 
REMARK    7  A    between atoms: C10_10  and  C11_11 
REMARK    8  A    between atoms: C12_12  and  C14_14 
REMARK    9  A    between atoms: C14_14  and  C15_15 
REMARK   10  A    between atoms: C15_15  and  C16_16 
REMARK   11  A    between atoms: C20_20  and  C21_21 
REMARK   12  A    between atoms: C21_21  and  C22_22 
ROOT
HETATM    1  C3  UNL     1       1.943  51.595 -15.112  1.00  0.00    -0.010 C 
HETATM    2  C4  UNL     1       1.898  50.233 -14.374  1.00  0.00     0.024 C 
ENDROOT
BRANCH   1   3
HETATM    3  C2  UNL     1       3.418  51.992 -15.125  1.00  0.00    -0.024 C 
HETATM    4  C1  UNL     1       4.212  52.277 -16.166  1.00  0.00     0.008 C 
ENDBRANCH   1   3
BRANCH   1   5
HETATM    5  C5  UNL     1       1.407  51.353 -16.527  1.00  0.00    -0.017 C 
HETATM    6  C6  UNL     1       0.746  52.221 -17.314  1.00  0.00    -0.025 C 
BRANCH   6   7
HETATM    7  C7  UNL     1       0.261  51.887 -18.708  1.00  0.00     0.004 C 
HETATM    8  C8  UNL     1      -1.225  51.528 -18.649  1.00  0.00     0.014 C 
BRANCH   7   9
HETATM    9  C9  UNL     1       0.538  53.082 -19.642  1.00  0.00     0.012 C 
BRANCH   9  10
HETATM   10  C10 UNL     1       0.844  52.708 -21.098  1.00  0.00     0.028 C 
BRANCH  10  11
HETATM   11  C11 UNL     1      -0.405  52.477 -21.908  1.00  0.00    -0.024 C 
HETATM   12  C12 UNL     1      -0.529  52.306 -23.240  1.00  0.00    -0.087 C 
HETATM   13  C13 UNL     1       0.630  52.323 -24.205  1.00  0.00     0.043 C 
BRANCH  12  14
HETATM   14  C14 UNL     1      -1.866  52.079 -23.942  1.00  0.00     0.037 C 
BRANCH  14  15
HETATM   15  C15 UNL     1      -3.035  51.549 -23.099  1.00  0.00     0.031 C 
BRANCH  15  16
HETATM   16  C16 UNL     1      -2.693  50.241 -22.434  1.00  0.00    -0.024 C 
HETATM   17  C17 UNL     1      -2.714  49.012 -22.986  1.00  0.00    -0.091 C 
HETATM   18  C18 UNL     1      -3.157  48.705 -24.389  1.00  0.00     0.042 C 
HETATM   19  C19 UNL     1      -2.286  47.805 -22.190  1.00  0.00     0.042 C 
ENDBRANCH  15  16
ENDBRANCH  14  15
ENDBRANCH  12  14
ENDBRANCH  10  11
ENDBRANCH   9  10
ENDBRANCH   7   9
ENDBRANCH   6   7
ENDBRANCH   1   5
BRANCH   1  20
HETATM   20  C20 UNL     1       0.963  52.561 -14.361  1.00  0.00     0.018 C 
BRANCH  20  21
HETATM   21  C21 UNL     1       0.125  51.924 -13.241  1.00  0.00     0.011 C 
BRANCH  21  22
HETATM   22  C22 UNL     1      -0.569  52.814 -12.166  1.00  0.00     0.022 C 
HETATM   23  C23 UNL     1       0.288  53.344 -11.020  1.00  0.00    -0.084 C 
HETATM   24  C24 UNL     1       1.378  52.771 -10.485  1.00  0.00     0.014 C 
HETATM   25  C25 UNL     1      -0.228  54.649 -10.444  1.00  0.00     0.034 C 
HETATM   26  C26 UNL     1      -1.745  54.798 -10.603  1.00  0.00     0.009 C 
HETATM   27  C27 UNL     1      -2.456  53.440 -10.485  1.00  0.00    -0.010 C 
HETATM   28  C28 UNL     1      -3.971  53.655 -10.376  1.00  0.00     0.011 C 
HETATM   29  C29 UNL     1      -2.004  52.415 -11.619  1.00  0.00    -0.037 C 
HETATM   30  C30 UNL     1      -2.044  51.014 -10.968  1.00  0.00     0.016 C 
HETATM   31  C31 UNL     1      -2.991  52.405 -12.809  1.00  0.00     0.016 C 
ENDBRANCH  21  22
ENDBRANCH  20  21
ENDBRANCH   1  20
TORSDOF 12
ENDMDL
MODEL 6
REMARK minimizedAffinity -6.99337149
REMARK CNNscore 0.218963742
REMARK CNNaffinity 6.02485275
REMARK  12 active torsions:
REMARK  status: ('A' for Active; 'I' for Inactive)
REMARK    1  A    between atoms: C2_2  and  C3_3 
REMARK    2  A    between atoms: C3_3  and  C5_5 
REMARK    3  A    between atoms: C3_3  and  C20_20 
REMARK    4  A    between atoms: C6_6  and  C7_7 
REMARK    5  A    between atoms: C7_7  and  C9_9 
REMARK    6  A    between atoms: C9_9  and  C10_10 
REMARK    7  A    between atoms: C10_10  and  C11_11 
REMARK    8  A    between atoms: C12_12  and  C14_14 
REMARK    9  A    between atoms: C14_14  and  C15_15 
REMARK   10  A    between atoms: C15_15  and  C16_16 
REMARK   11  A    between atoms: C20_20  and  C21_21 
REMARK   12  A    between atoms: C21_21  and  C22_22 
ROOT
HETATM    1  C3  UNL     1      -7.605  47.649 -25.774  1.00  0.00    -0.010 C 
HETATM    2  C4  UNL     1      -8.066  46.200 -25.478  1.00  0.00     0.024 C 
ENDROOT
BRANCH   1   3
HETATM    3  C2  UNL     1      -8.388  48.524 -24.797  1.00  0.00    -0.024 C 
HETATM    4  C1  UNL     1      -8.413  48.487 -23.457  1.00  0.00     0.008 C 
ENDBRANCH   1   3
BRANCH   1   5
HETATM    5  C5  UNL     1      -6.098  47.702 -25.503  1.00  0.00    -0.017 C 
HETATM    6  C6  UNL     1      -5.458  48.420 -24.563  1.00  0.00    -0.025 C 
BRANCH   6   7
HETATM    7  C7  UNL     1      -3.957  48.398 -24.368  1.00  0.00     0.004 C 
HETATM    8  C8  UNL     1      -3.276  48.728 -25.698  1.00  0.00     0.014 C 
BRANCH   7   9
HETATM    9  C9  UNL     1      -3.575  49.391 -23.252  1.00  0.00     0.012 C 
BRANCH   9  10
HETATM   10  C10 UNL     1      -2.115  49.311 -22.787  1.00  0.00     0.028 C 
BRANCH  10  11
HETATM   11  C11 UNL     1      -1.333  50.552 -23.132  1.00  0.00    -0.024 C 
HETATM   12  C12 UNL     1      -0.557  51.310 -22.331  1.00  0.00    -0.087 C 
HETATM   13  C13 UNL     1      -0.328  51.034 -20.866  1.00  0.00     0.043 C 
BRANCH  12  14
HETATM   14  C14 UNL     1       0.188  52.555 -22.810  1.00  0.00     0.037 C 
BRANCH  14  15
HETATM   15  C15 UNL     1      -0.011  52.991 -24.269  1.00  0.00     0.031 C 
BRANCH  15  16
HETATM   16  C16 UNL     1       1.179  52.634 -25.122  1.00  0.00    -0.024 C 
HETATM   17  C17 UNL     1       1.240  51.705 -26.096  1.00  0.00    -0.091 C 
HETATM   18  C18 UNL     1       0.114  50.783 -26.478  1.00  0.00     0.042 C 
HETATM   19  C19 UNL     1       2.503  51.511 -26.896  1.00  0.00     0.042 C 
ENDBRANCH  15  16
ENDBRANCH  14  15
ENDBRANCH  12  14
ENDBRANCH  10  11
ENDBRANCH   9  10
ENDBRANCH   7   9
ENDBRANCH   6   7
ENDBRANCH   1   5
BRANCH   1  20
HETATM   20  C20 UNL     1      -7.852  47.911 -27.300  1.00  0.00     0.018 C 
BRANCH  20  21
HETATM   21  C21 UNL     1      -8.323  46.697 -28.118  1.00  0.00     0.011 C 
BRANCH  21  22
HETATM   22  C22 UNL     1      -9.635  46.768 -28.957  1.00  0.00     0.022 C 
HETATM   23  C23 UNL     1      -9.676  47.740 -30.132  1.00  0.00    -0.084 C 
HETATM   24  C24 UNL     1      -9.008  48.899 -30.256  1.00  0.00     0.014 C 
HETATM   25  C25 UNL     1     -10.628  47.307 -31.231  1.00  0.00     0.034 C 
HETATM   26  C26 UNL     1     -11.787  46.458 -30.699  1.00  0.00     0.009 C 
HETATM   27  C27 UNL     1     -12.214  46.911 -29.293  1.00  0.00    -0.010 C 
HETATM   28  C28 UNL     1     -13.533  46.232 -28.907  1.00  0.00     0.011 C 
HETATM   29  C29 UNL     1     -11.042  46.758 -28.223  1.00  0.00    -0.037 C 
HETATM   30  C30 UNL     1     -11.221  47.924 -27.225  1.00  0.00     0.016 C 
HETATM   31  C31 UNL     1     -11.163  45.439 -27.425  1.00  0.00     0.016 C 
ENDBRANCH  21  22
ENDBRANCH  20  21
ENDBRANCH   1  20
TORSDOF 12
ENDMDL
MODEL 7
REMARK minimizedAffinity -7.33141947
REMARK CNNscore 0.187158078
REMARK CNNaffinity 5.97893667
REMARK  12 active torsions:
REMARK  status: ('A' for Active; 'I' for Inactive)
REMARK    1  A    between atoms: C2_2  and  C3_3 
REMARK    2  A    between atoms: C3_3  and  C5_5 
REMARK    3  A    between atoms: C3_3  and  C20_20 
REMARK    4  A    between atoms: C6_6  and  C7_7 
REMARK    5  A    between atoms: C7_7  and  C9_9 
REMARK    6  A    between atoms: C9_9  and  C10_10 
REMARK    7  A    between atoms: C10_10  and  C11_11 
REMARK    8  A    between atoms: C12_12  and  C14_14 
REMARK    9  A    between atoms: C14_14  and  C15_15 
REMARK   10  A    between atoms: C15_15  and  C16_16 
REMARK   11  A    between atoms: C20_20  and  C21_21 
REMARK   12  A    between atoms: C21_21  and  C22_22 
ROOT
HETATM    1  C3  UNL     1      -3.095  49.361 -23.076  1.00  0.00    -0.010 C 
HETATM    2  C4  UNL     1      -4.370  50.088 -22.579  1.00  0.00     0.024 C 
ENDROOT
BRANCH   1   3
HETATM    3  C2  UNL     1      -3.031  48.069 -22.264  1.00  0.00    -0.024 C 
HETATM    4  C1  UNL     1      -1.960  47.395 -21.822  1.00  0.00     0.008 C 
ENDBRANCH   1   3
BRANCH   1   5
HETATM    5  C5  UNL     1      -3.292  49.085 -24.569  1.00  0.00    -0.017 C 
HETATM    6  C6  UNL     1      -4.449  49.073 -25.256  1.00  0.00    -0.025 C 
BRANCH   6   7
HETATM    7  C7  UNL     1      -4.540  48.795 -26.741  1.00  0.00     0.004 C 
HETATM    8  C8  UNL     1      -3.183  48.295 -27.241  1.00  0.00     0.014 C 
BRANCH   7   9
HETATM    9  C9  UNL     1      -5.670  47.778 -26.999  1.00  0.00     0.012 C 
BRANCH   9  10
HETATM   10  C10 UNL     1      -6.145  47.694 -28.455  1.00  0.00     0.028 C 
BRANCH  10  11
HETATM   11  C11 UNL     1      -7.637  47.862 -28.585  1.00  0.00    -0.024 C 
HETATM   12  C12 UNL     1      -8.591  46.910 -28.651  1.00  0.00    -0.087 C 
HETATM   13  C13 UNL     1      -8.311  45.428 -28.609  1.00  0.00     0.043 C 
BRANCH  12  14
HETATM   14  C14 UNL     1     -10.081  47.216 -28.783  1.00  0.00     0.037 C 
BRANCH  14  15
HETATM   15  C15 UNL     1     -10.545  47.989 -30.026  1.00  0.00     0.031 C 
BRANCH  15  16
HETATM   16  C16 UNL     1     -10.409  47.161 -31.278  1.00  0.00    -0.024 C 
HETATM   17  C17 UNL     1      -9.437  47.236 -32.208  1.00  0.00    -0.091 C 
HETATM   18  C18 UNL     1      -8.311  48.232 -32.199  1.00  0.00     0.042 C 
HETATM   19  C19 UNL     1      -9.421  46.289 -33.381  1.00  0.00     0.042 C 
ENDBRANCH  15  16
ENDBRANCH  14  15
ENDBRANCH  12  14
ENDBRANCH  10  11
ENDBRANCH   9  10
ENDBRANCH   7   9
ENDBRANCH   6   7
ENDBRANCH   1   5
BRANCH   1  20
HETATM   20  C20 UNL     1      -1.896  50.357 -22.902  1.00  0.00     0.018 C 
BRANCH  20  21
HETATM   21  C21 UNL     1      -2.168  51.578 -22.008  1.00  0.00     0.011 C 
BRANCH  21  22
HETATM   22  C22 UNL     1      -1.034  52.182 -21.125  1.00  0.00     0.022 C 
HETATM   23  C23 UNL     1       0.235  52.659 -21.826  1.00  0.00    -0.084 C 
HETATM   24  C24 UNL     1       0.765  52.184 -22.965  1.00  0.00     0.014 C 
HETATM   25  C25 UNL     1       0.948  53.769 -21.078  1.00  0.00     0.034 C 
HETATM   26  C26 UNL     1       0.699  53.708 -19.567  1.00  0.00     0.009 C 
HETATM   27  C27 UNL     1       0.573  52.257 -19.077  1.00  0.00    -0.010 C 
HETATM   28  C28 UNL     1       0.598  52.221 -17.545  1.00  0.00     0.011 C 
HETATM   29  C29 UNL     1      -0.656  51.493 -19.746  1.00  0.00    -0.037 C 
HETATM   30  C30 UNL     1      -0.212  50.021 -19.898  1.00  0.00     0.016 C 
HETATM   31  C31 UNL     1      -1.906  51.512 -18.837  1.00  0.00     0.016 C 
ENDBRANCH  21  22
ENDBRANCH  20  21
ENDBRANCH   1  20
TORSDOF 12
ENDMDL
MODEL 8
REMARK minimizedAffinity -8.00636196
REMARK CNNscore 0.181223735
REMARK CNNaffinity 6.77031755
REMARK  12 active torsions:
REMARK  status: ('A' for Active; 'I' for Inactive)
REMARK    1  A    between atoms: C2_2  and  C3_3 
REMARK    2  A    between atoms: C3_3  and  C5_5 
REMARK    3  A    between atoms: C3_3  and  C20_20 
REMARK    4  A    between atoms: C6_6  and  C7_7 
REMARK    5  A    between atoms: C7_7  and  C9_9 
REMARK    6  A    between atoms: C9_9  and  C10_10 
REMARK    7  A    between atoms: C10_10  and  C11_11 
REMARK    8  A    between atoms: C12_12  and  C14_14 
REMARK    9  A    between atoms: C14_14  and  C15_15 
REMARK   10  A    between atoms: C15_15  and  C16_16 
REMARK   11  A    between atoms: C20_20  and  C21_21 
REMARK   12  A    between atoms: C21_21  and  C22_22 
ROOT
HETATM    1  C3  UNL     1      -2.772  49.340 -25.516  1.00  0.00    -0.010 C 
HETATM    2  C4  UNL     1      -3.643  50.616 -25.389  1.00  0.00     0.024 C 
ENDROOT
BRANCH   1   3
HETATM    3  C2  UNL     1      -3.513  48.449 -26.510  1.00  0.00    -0.024 C 
HETATM    4  C1  UNL     1      -4.056  48.765 -27.694  1.00  0.00     0.008 C 
ENDBRANCH   1   3
BRANCH   1   5
HETATM    5  C5  UNL     1      -1.409  49.783 -26.056  1.00  0.00    -0.017 C 
HETATM    6  C6  UNL     1      -1.038  51.020 -26.433  1.00  0.00    -0.025 C 
BRANCH   6   7
HETATM    7  C7  UNL     1       0.343  51.360 -26.949  1.00  0.00     0.004 C 
HETATM    8  C8  UNL     1       0.214  52.349 -28.110  1.00  0.00     0.014 C 
BRANCH   7   9
HETATM    9  C9  UNL     1       1.195  51.922 -25.793  1.00  0.00     0.012 C 
BRANCH   9  10
HETATM   10  C10 UNL     1       0.448  52.858 -24.835  1.00  0.00     0.028 C 
BRANCH  10  11
HETATM   11  C11 UNL     1       0.379  52.310 -23.433  1.00  0.00    -0.024 C 
HETATM   12  C12 UNL     1       0.773  52.889 -22.280  1.00  0.00    -0.087 C 
HETATM   13  C13 UNL     1       1.390  54.263 -22.191  1.00  0.00     0.043 C 
BRANCH  12  14
HETATM   14  C14 UNL     1       0.648  52.220 -20.913  1.00  0.00     0.037 C 
BRANCH  14  15
HETATM   15  C15 UNL     1       0.065  53.050 -19.760  1.00  0.00     0.031 C 
BRANCH  15  16
HETATM   16  C16 UNL     1       0.682  52.675 -18.438  1.00  0.00    -0.024 C 
HETATM   17  C17 UNL     1       0.401  51.598 -17.678  1.00  0.00    -0.091 C 
HETATM   18  C18 UNL     1      -0.658  50.577 -17.991  1.00  0.00     0.042 C 
HETATM   19  C19 UNL     1       1.156  51.341 -16.399  1.00  0.00     0.042 C 
ENDBRANCH  15  16
ENDBRANCH  14  15
ENDBRANCH  12  14
ENDBRANCH  10  11
ENDBRANCH   9  10
ENDBRANCH   7   9
ENDBRANCH   6   7
ENDBRANCH   1   5
BRANCH   1  20
HETATM   20  C20 UNL     1      -2.579  48.766 -24.070  1.00  0.00     0.018 C 
BRANCH  20  21
HETATM   21  C21 UNL     1      -3.850  48.683 -23.209  1.00  0.00     0.011 C 
BRANCH  21  22
HETATM   22  C22 UNL     1      -3.769  48.828 -21.659  1.00  0.00     0.022 C 
HETATM   23  C23 UNL     1      -3.503  50.217 -21.087  1.00  0.00    -0.084 C 
HETATM   24  C24 UNL     1      -2.816  51.218 -21.662  1.00  0.00     0.014 C 
HETATM   25  C25 UNL     1      -4.074  50.408 -19.695  1.00  0.00     0.034 C 
HETATM   26  C26 UNL     1      -4.159  49.092 -18.913  1.00  0.00     0.009 C 
HETATM   27  C27 UNL     1      -2.993  48.155 -19.266  1.00  0.00    -0.010 C 
HETATM   28  C28 UNL     1      -2.955  46.980 -18.282  1.00  0.00     0.011 C 
HETATM   29  C29 UNL     1      -2.989  47.741 -20.806  1.00  0.00    -0.037 C 
HETATM   30  C30 UNL     1      -1.504  47.598 -21.205  1.00  0.00     0.016 C 
HETATM   31  C31 UNL     1      -3.667  46.369 -21.032  1.00  0.00     0.016 C 
ENDBRANCH  21  22
ENDBRANCH  20  21
ENDBRANCH   1  20
TORSDOF 12
ENDMDL
MODEL 9
REMARK minimizedAffinity -7.65534163
REMARK CNNscore 0.175907686
REMARK CNNaffinity 6.016747
REMARK  12 active torsions:
REMARK  status: ('A' for Active; 'I' for Inactive)
REMARK    1  A    between atoms: C2_2  and  C3_3 
REMARK    2  A    between atoms: C3_3  and  C5_5 
REMARK    3  A    between atoms: C3_3  and  C20_20 
REMARK    4  A    between atoms: C6_6  and  C7_7 
REMARK    5  A    between atoms: C7_7  and  C9_9 
REMARK    6  A    between atoms: C9_9  and  C10_10 
REMARK    7  A    between atoms: C10_10  and  C11_11 
REMARK    8  A    between atoms: C12_12  and  C14_14 
REMARK    9  A    between atoms: C14_14  and  C15_15 
REMARK   10  A    between atoms: C15_15  and  C16_16 
REMARK   11  A    between atoms: C20_20  and  C21_21 
REMARK   12  A    between atoms: C21_21  and  C22_22 
ROOT
HETATM    1  C3  UNL     1      -0.775  50.726 -19.998  1.00  0.00    -0.010 C 
HETATM    2  C4  UNL     1      -0.724  49.187 -20.168  1.00  0.00     0.024 C 
ENDROOT
BRANCH   1   3
HETATM    3  C2  UNL     1      -2.244  51.100 -20.190  1.00  0.00    -0.024 C 
HETATM    4  C1  UNL     1      -3.183  51.353 -19.269  1.00  0.00     0.008 C 
ENDBRANCH   1   3
BRANCH   1   5
HETATM    5  C5  UNL     1      -0.292  51.033 -18.577  1.00  0.00    -0.017 C 
HETATM    6  C6  UNL     1      -0.205  50.182 -17.538  1.00  0.00    -0.025 C 
BRANCH   6   7
HETATM    7  C7  UNL     1       0.295  50.582 -16.166  1.00  0.00     0.004 C 
HETATM    8  C8  UNL     1       1.139  51.853 -16.292  1.00  0.00     0.014 C 
BRANCH   7   9
HETATM    9  C9  UNL     1      -0.909  50.770 -15.221  1.00  0.00     0.012 C 
BRANCH   9  10
HETATM   10  C10 UNL     1      -0.592  51.486 -13.903  1.00  0.00     0.028 C 
BRANCH  10  11
HETATM   11  C11 UNL     1      -1.810  52.126 -13.288  1.00  0.00    -0.024 C 
HETATM   12  C12 UNL     1      -2.709  51.587 -12.439  1.00  0.00    -0.087 C 
HETATM   13  C13 UNL     1      -2.649  50.167 -11.933  1.00  0.00     0.043 C 
BRANCH  12  14
HETATM   14  C14 UNL     1      -3.910  52.350 -11.885  1.00  0.00     0.037 C 
BRANCH  14  15
HETATM   15  C15 UNL     1      -3.639  53.651 -11.116  1.00  0.00     0.031 C 
BRANCH  15  16
HETATM   16  C16 UNL     1      -2.789  53.408  -9.896  1.00  0.00    -0.024 C 
HETATM   17  C17 UNL     1      -1.655  54.046  -9.546  1.00  0.00    -0.091 C 
HETATM   18  C18 UNL     1      -0.975  55.106 -10.368  1.00  0.00     0.042 C 
HETATM   19  C19 UNL     1      -0.953  53.714  -8.254  1.00  0.00     0.042 C 
ENDBRANCH  15  16
ENDBRANCH  14  15
ENDBRANCH  12  14
ENDBRANCH  10  11
ENDBRANCH   9  10
ENDBRANCH   7   9
ENDBRANCH   6   7
ENDBRANCH   1   5
BRANCH   1  20
HETATM   20  C20 UNL     1       0.244  51.340 -21.019  1.00  0.00     0.018 C 
BRANCH  20  21
HETATM   21  C21 UNL     1      -0.360  52.262 -22.092  1.00  0.00     0.011 C 
BRANCH  21  22
HETATM   22  C22 UNL     1      -0.274  51.883 -23.601  1.00  0.00     0.022 C 
HETATM   23  C23 UNL     1       0.528  52.799 -24.520  1.00  0.00    -0.084 C 
HETATM   24  C24 UNL     1       0.727  54.120 -24.383  1.00  0.00     0.014 C 
HETATM   25  C25 UNL     1       1.105  52.078 -25.724  1.00  0.00     0.034 C 
HETATM   26  C26 UNL     1       0.262  50.868 -26.140  1.00  0.00     0.009 C 
HETATM   27  C27 UNL     1      -1.235  51.119 -25.898  1.00  0.00    -0.010 C 
HETATM   28  C28 UNL     1      -2.062  50.015 -26.568  1.00  0.00     0.011 C 
HETATM   29  C29 UNL     1      -1.570  51.368 -24.360  1.00  0.00    -0.037 C 
HETATM   30  C30 UNL     1      -2.737  52.380 -24.335  1.00  0.00     0.016 C 
HETATM   31  C31 UNL     1      -2.058  50.076 -23.663  1.00  0.00     0.016 C 
ENDBRANCH  21  22
ENDBRANCH  20  21
ENDBRANCH   1  20
TORSDOF 12
ENDMDL
