MODEL 1
REMARK minimizedAffinity -9.31765747
REMARK CNNscore 0.64860487
REMARK CNNaffinity 7.19152641
REMARK  9 active torsions:
REMARK  status: ('A' for Active; 'I' for Inactive)
REMARK    1  A    between atoms: C3_3  and  O1_4 
REMARK    2  A    between atoms: N1_14  and  O2_16 
REMARK    3  A    between atoms: O2_16  and  C13_17 
REMARK    4  A    between atoms: C13_17  and  C14_18 
REMARK       I    between atoms: C14_18  and  N2_20 
REMARK    5  A    between atoms: N2_20  and  C15_21 
REMARK    6  A    between atoms: C15_21  and  C16_22 
REMARK    7  A    between atoms: C15_21  and  C18_26 
REMARK    8  A    between atoms: C16_22  and  C17_23 
REMARK    9  A    between atoms: C17_23  and  O5_25 
ROOT
HETATM    1  C1  UNL     1      -2.922  51.843 -26.619  1.00  0.00     0.015 C 
HETATM    2  C2  UNL     1      -3.508  51.625 -25.592  1.00  0.00    -0.078 C 
HETATM    3  C3  UNL     1      -4.246  51.373 -24.346  1.00  0.00     0.128 C 
HETATM    4  C4  UNL     1      -4.157  52.568 -23.401  1.00  0.00     0.052 C 
HETATM    5  C5  UNL     1      -4.577  51.993 -22.057  1.00  0.00     0.010 C 
HETATM    6  C6  UNL     1      -4.020  50.552 -22.008  1.00  0.00     0.002 C 
HETATM    7  C7  UNL     1      -2.808  50.464 -21.047  1.00  0.00    -0.004 C 
HETATM    8  C8  UNL     1      -2.499  49.010 -20.612  1.00  0.00     0.010 C 
HETATM    9  C9  UNL     1      -1.026  48.770 -20.269  1.00  0.00     0.035 C 
HETATM   10  C10 UNL     1      -0.446  50.002 -19.629  1.00  0.00    -0.069 C 
HETATM   11  C11 UNL     1      -0.113  50.008 -18.327  1.00  0.00     0.030 C 
HETATM   12  C12 UNL     1       0.342  51.243 -17.640  1.00  0.00     0.032 C 
HETATM   13  N1  UNL     1       0.727  51.138 -16.398  1.00  0.00    -0.271 N 
ATOM     14  H1  UNL     1       0.702  50.271 -15.861  1.00  0.00     0.194 HD
HETATM   15  C25 UNL     1       0.339  52.547 -18.416  1.00  0.00     0.060 C 
HETATM   16  C26 UNL     1      -0.591  52.491 -19.626  1.00  0.00     0.020 C 
HETATM   17  C27 UNL     1      -0.387  51.236 -20.525  1.00  0.00    -0.016 C 
HETATM   18  C28 UNL     1       1.010  51.324 -21.178  1.00  0.00     0.020 C 
HETATM   19  C29 UNL     1      -1.562  51.203 -21.596  1.00  0.00     0.002 C 
HETATM   20  C30 UNL     1      -1.201  50.726 -23.020  1.00  0.00     0.007 C 
HETATM   21  C31 UNL     1      -2.223  49.813 -23.694  1.00  0.00     0.014 C 
HETATM   22  C32 UNL     1      -3.724  50.151 -23.497  1.00  0.00     0.003 C 
HETATM   23  C33 UNL     1      -4.512  48.866 -23.862  1.00  0.00     0.020 C 
ENDROOT
BRANCH   3  24
HETATM   24  O1  UNL     1      -5.624  51.216 -24.707  1.00  0.00    -0.377 OA
HETATM   25  H2  UNL     1      -6.137  51.039 -23.906  1.00  0.00     0.211 HD
ENDBRANCH   3  24
BRANCH  13  26
HETATM   26  O2  UNL     1       1.180  52.365 -15.893  1.00  0.00    -0.271 OA
BRANCH  26  27
HETATM   27  C13 UNL     1       2.605  52.377 -15.898  1.00  0.00     0.303 C 
BRANCH  27  28
HETATM   28  C14 UNL     1       3.144  51.829 -14.584  1.00  0.00     0.244 C 
HETATM   29  O3  UNL     1       4.094  51.052 -14.531  1.00  0.00    -0.271 OA
HETATM   30  N2  UNL     1       2.523  52.340 -13.464  1.00  0.00    -0.354 N 
HETATM   31  H16 UNL     1       1.738  52.973 -13.610  1.00  0.00     0.162 HD
BRANCH  30  32
HETATM   32  C15 UNL     1       2.906  52.011 -12.092  1.00  0.00     0.098 C 
BRANCH  32  33
HETATM   33  C16 UNL     1       2.235  50.692 -11.675  1.00  0.00     0.135 C 
BRANCH  33  34
HETATM   34  C17 UNL     1       3.210  49.617 -11.285  1.00  0.00     0.141 C 
HETATM   35  O4  UNL     1       3.940  49.004 -12.044  1.00  0.00    -0.650 OA
BRANCH  34  36
HETATM   36  O5  UNL     1       3.202  49.339  -9.967  1.00  0.00    -0.776 OA
HETATM   37  H20 UNL     1       3.858  48.613  -9.878  1.00  0.00     0.167 HD
ENDBRANCH  34  36
ENDBRANCH  33  34
ENDBRANCH  32  33
BRANCH  32  38
HETATM   38  C18 UNL     1       2.635  53.200 -11.131  1.00  0.00     0.014 C 
HETATM   39  C19 UNL     1       1.695  52.809  -9.972  1.00  0.00     0.033 C 
HETATM   40  C20 UNL     1       1.952  53.605  -8.696  1.00  0.00     0.169 C 
HETATM   41  O6  UNL     1       2.345  54.934  -9.013  1.00  0.00    -0.381 OA
HETATM   42  C21 UNL     1       3.629  55.023  -9.649  1.00  0.00     0.054 C 
HETATM   43  C22 UNL     1       3.588  56.301 -10.498  1.00  0.00     0.045 C 
HETATM   44  C23 UNL     1       4.708  55.183  -8.572  1.00  0.00     0.045 C 
HETATM   45  C24 UNL     1       3.927  53.794 -10.540  1.00  0.00     0.044 C 
ENDBRANCH  32  38
ENDBRANCH  30  32
ENDBRANCH  27  28
ENDBRANCH  26  27
ENDBRANCH  13  26
TORSDOF 9
ENDMDL
MODEL 2
REMARK minimizedAffinity -8.65202618
REMARK CNNscore 0.548586905
REMARK CNNaffinity 6.30574369
REMARK  9 active torsions:
REMARK  status: ('A' for Active; 'I' for Inactive)
REMARK    1  A    between atoms: C3_3  and  O1_4 
REMARK    2  A    between atoms: N1_14  and  O2_16 
REMARK    3  A    between atoms: O2_16  and  C13_17 
REMARK    4  A    between atoms: C13_17  and  C14_18 
REMARK       I    between atoms: C14_18  and  N2_20 
REMARK    5  A    between atoms: N2_20  and  C15_21 
REMARK    6  A    between atoms: C15_21  and  C16_22 
REMARK    7  A    between atoms: C15_21  and  C18_26 
REMARK    8  A    between atoms: C16_22  and  C17_23 
REMARK    9  A    between atoms: C17_23  and  O5_25 
ROOT
HETATM    1  C1  UNL     1      -0.254  49.198 -20.578  1.00  0.00     0.015 C 
HETATM    2  C2  UNL     1      -1.109  49.880 -21.077  1.00  0.00    -0.078 C 
HETATM    3  C3  UNL     1      -2.145  50.736 -21.674  1.00  0.00     0.128 C 
HETATM    4  C4  UNL     1      -3.306  50.952 -20.707  1.00  0.00     0.052 C 
HETATM    5  C5  UNL     1      -4.426  51.461 -21.600  1.00  0.00     0.010 C 
HETATM    6  C6  UNL     1      -4.284  50.712 -22.944  1.00  0.00     0.002 C 
HETATM    7  C7  UNL     1      -5.395  49.642 -23.095  1.00  0.00    -0.004 C 
HETATM    8  C8  UNL     1      -5.584  49.185 -24.563  1.00  0.00     0.010 C 
HETATM    9  C9  UNL     1      -6.110  47.754 -24.699  1.00  0.00     0.035 C 
HETATM   10  C10 UNL     1      -7.063  47.452 -23.574  1.00  0.00    -0.069 C 
HETATM   11  C11 UNL     1      -8.377  47.304 -23.809  1.00  0.00     0.030 C 
HETATM   12  C12 UNL     1      -9.356  47.131 -22.705  1.00  0.00     0.032 C 
HETATM   13  N1  UNL     1     -10.599  46.907 -23.028  1.00  0.00    -0.271 N 
ATOM     14  H1  UNL     1     -10.946  46.878 -23.987  1.00  0.00     0.194 HD
HETATM   15  C25 UNL     1      -8.857  47.220 -21.274  1.00  0.00     0.060 C 
HETATM   16  C26 UNL     1      -7.524  47.959 -21.177  1.00  0.00     0.020 C 
HETATM   17  C27 UNL     1      -6.444  47.453 -22.179  1.00  0.00    -0.016 C 
HETATM   18  C28 UNL     1      -6.057  46.008 -21.792  1.00  0.00     0.020 C 
HETATM   19  C29 UNL     1      -5.211  48.454 -22.117  1.00  0.00     0.002 C 
HETATM   20  C30 UNL     1      -3.800  47.838 -22.234  1.00  0.00     0.007 C 
HETATM   21  C31 UNL     1      -2.803  48.613 -23.093  1.00  0.00     0.014 C 
HETATM   22  C32 UNL     1      -2.815  50.161 -22.980  1.00  0.00     0.003 C 
HETATM   23  C33 UNL     1      -2.085  50.695 -24.240  1.00  0.00     0.020 C 
ENDROOT
BRANCH   3  24
HETATM   24  O1  UNL     1      -1.542  52.014 -21.907  1.00  0.00    -0.377 OA
HETATM   25  H2  UNL     1      -2.198  52.599 -22.310  1.00  0.00     0.211 HD
ENDBRANCH   3  24
BRANCH  13  26
HETATM   26  O2  UNL     1     -11.400  46.712 -21.893  1.00  0.00    -0.271 OA
BRANCH  26  27
HETATM   27  C13 UNL     1     -12.771  46.714 -22.282  1.00  0.00     0.303 C 
BRANCH  27  28
HETATM   28  C14 UNL     1     -13.636  47.296 -21.171  1.00  0.00     0.244 C 
HETATM   29  O3  UNL     1     -13.653  48.494 -20.905  1.00  0.00    -0.271 OA
HETATM   30  N2  UNL     1     -14.447  46.372 -20.548  1.00  0.00    -0.354 N 
HETATM   31  H16 UNL     1     -14.354  45.397 -20.833  1.00  0.00     0.162 HD
BRANCH  30  32
HETATM   32  C15 UNL     1     -15.406  46.700 -19.495  1.00  0.00     0.098 C 
BRANCH  32  33
HETATM   33  C16 UNL     1     -14.874  46.202 -18.142  1.00  0.00     0.135 C 
BRANCH  33  34
HETATM   34  C17 UNL     1     -14.378  47.302 -17.247  1.00  0.00     0.141 C 
HETATM   35  O4  UNL     1     -14.502  48.498 -17.446  1.00  0.00    -0.650 OA
BRANCH  34  36
HETATM   36  O5  UNL     1     -13.725  46.853 -16.158  1.00  0.00    -0.776 OA
HETATM   37  H20 UNL     1     -13.446  47.675 -15.698  1.00  0.00     0.167 HD
ENDBRANCH  34  36
ENDBRANCH  33  34
ENDBRANCH  32  33
BRANCH  32  38
HETATM   38  C18 UNL     1     -16.829  46.191 -19.852  1.00  0.00     0.014 C 
HETATM   39  C19 UNL     1     -17.934  47.051 -19.204  1.00  0.00     0.033 C 
HETATM   40  C20 UNL     1     -19.221  47.091 -20.023  1.00  0.00     0.169 C 
HETATM   41  O6  UNL     1     -19.434  45.843 -20.669  1.00  0.00    -0.381 OA
HETATM   42  C21 UNL     1     -18.473  45.549 -21.694  1.00  0.00     0.054 C 
HETATM   43  C22 UNL     1     -18.406  44.018 -21.779  1.00  0.00     0.045 C 
HETATM   44  C23 UNL     1     -18.988  46.093 -23.032  1.00  0.00     0.045 C 
HETATM   45  C24 UNL     1     -17.077  46.131 -21.371  1.00  0.00     0.044 C 
ENDBRANCH  32  38
ENDBRANCH  30  32
ENDBRANCH  27  28
ENDBRANCH  26  27
ENDBRANCH  13  26
TORSDOF 9
ENDMDL
MODEL 3
REMARK minimizedAffinity -8.10313511
REMARK CNNscore 0.518805802
REMARK CNNaffinity 6.3790288
REMARK  9 active torsions:
REMARK  status: ('A' for Active; 'I' for Inactive)
REMARK    1  A    between atoms: C3_3  and  O1_4 
REMARK    2  A    between atoms: N1_14  and  O2_16 
REMARK    3  A    between atoms: O2_16  and  C13_17 
REMARK    4  A    between atoms: C13_17  and  C14_18 
REMARK       I    between atoms: C14_18  and  N2_20 
REMARK    5  A    between atoms: N2_20  and  C15_21 
REMARK    6  A    between atoms: C15_21  and  C16_22 
REMARK    7  A    between atoms: C15_21  and  C18_26 
REMARK    8  A    between atoms: C16_22  and  C17_23 
REMARK    9  A    between atoms: C17_23  and  O5_25 
ROOT
HETATM    1  C1  UNL     1      -0.451  49.455 -21.010  1.00  0.00     0.015 C 
HETATM    2  C2  UNL     1      -1.366  49.824 -21.698  1.00  0.00    -0.078 C 
HETATM    3  C3  UNL     1      -2.472  50.299 -22.541  1.00  0.00     0.128 C 
HETATM    4  C4  UNL     1      -3.440  51.168 -21.743  1.00  0.00     0.052 C 
HETATM    5  C5  UNL     1      -4.688  51.202 -22.611  1.00  0.00     0.010 C 
HETATM    6  C6  UNL     1      -4.800  49.807 -23.266  1.00  0.00     0.002 C 
HETATM    7  C7  UNL     1      -5.943  48.986 -22.616  1.00  0.00    -0.004 C 
HETATM    8  C8  UNL     1      -6.396  47.797 -23.499  1.00  0.00     0.010 C 
HETATM    9  C9  UNL     1      -6.967  46.621 -22.703  1.00  0.00     0.035 C 
HETATM   10  C10 UNL     1      -7.714  47.135 -21.502  1.00  0.00    -0.069 C 
HETATM   11  C11 UNL     1      -9.053  47.038 -21.433  1.00  0.00     0.030 C 
HETATM   12  C12 UNL     1      -9.826  47.648 -20.321  1.00  0.00     0.032 C 
HETATM   13  N1  UNL     1     -11.112  47.430 -20.287  1.00  0.00    -0.271 N 
ATOM     14  H1  UNL     1     -11.622  46.898 -20.992  1.00  0.00     0.194 HD
HETATM   15  C25 UNL     1      -9.083  48.480 -19.293  1.00  0.00     0.060 C 
HETATM   16  C26 UNL     1      -7.738  48.976 -19.821  1.00  0.00     0.020 C 
HETATM   17  C27 UNL     1      -6.861  47.863 -20.466  1.00  0.00    -0.016 C 
HETATM   18  C28 UNL     1      -6.444  46.867 -19.362  1.00  0.00     0.020 C 
HETATM   19  C29 UNL     1      -5.615  48.562 -21.163  1.00  0.00     0.002 C 
HETATM   20  C30 UNL     1      -4.260  47.827 -21.079  1.00  0.00     0.007 C 
HETATM   21  C31 UNL     1      -3.413  47.844 -22.349  1.00  0.00     0.014 C 
HETATM   22  C32 UNL     1      -3.372  49.165 -23.163  1.00  0.00     0.003 C 
HETATM   23  C33 UNL     1      -2.862  48.788 -24.579  1.00  0.00     0.020 C 
ENDROOT
BRANCH   3  24
HETATM   24  O1  UNL     1      -1.892  51.129 -23.554  1.00  0.00    -0.377 OA
HETATM   25  H2  UNL     1      -2.596  51.452 -24.134  1.00  0.00     0.211 HD
ENDBRANCH   3  24
BRANCH  13  26
HETATM   26  O2  UNL     1     -11.705  48.018 -19.161  1.00  0.00    -0.271 OA
BRANCH  26  27
HETATM   27  C13 UNL     1     -13.094  48.213 -19.412  1.00  0.00     0.303 C 
BRANCH  27  28
HETATM   28  C14 UNL     1     -13.737  46.912 -19.875  1.00  0.00     0.244 C 
HETATM   29  O3  UNL     1     -13.616  45.858 -19.257  1.00  0.00    -0.271 OA
HETATM   30  N2  UNL     1     -14.524  47.041 -20.999  1.00  0.00    -0.354 N 
HETATM   31  H16 UNL     1     -14.555  47.957 -21.448  1.00  0.00     0.162 HD
BRANCH  30  32
HETATM   32  C15 UNL     1     -15.289  45.948 -21.595  1.00  0.00     0.098 C 
BRANCH  32  33
HETATM   33  C16 UNL     1     -14.824  45.726 -23.043  1.00  0.00     0.135 C 
BRANCH  33  34
HETATM   34  C17 UNL     1     -14.302  46.969 -23.706  1.00  0.00     0.141 C 
HETATM   35  O4  UNL     1     -13.143  47.181 -24.019  1.00  0.00    -0.650 OA
BRANCH  34  36
HETATM   36  O5  UNL     1     -15.251  47.901 -23.921  1.00  0.00    -0.776 OA
HETATM   37  H20 UNL     1     -14.757  48.647 -24.327  1.00  0.00     0.167 HD
ENDBRANCH  34  36
ENDBRANCH  33  34
ENDBRANCH  32  33
BRANCH  32  38
HETATM   38  C18 UNL     1     -16.817  46.182 -21.441  1.00  0.00     0.014 C 
HETATM   39  C19 UNL     1     -17.638  45.321 -22.424  1.00  0.00     0.033 C 
HETATM   40  C20 UNL     1     -19.018  44.950 -21.887  1.00  0.00     0.169 C 
HETATM   41  O6  UNL     1     -19.542  46.008 -21.096  1.00  0.00    -0.381 OA
HETATM   42  C21 UNL     1     -18.827  46.225 -19.871  1.00  0.00     0.054 C 
HETATM   43  C22 UNL     1     -19.034  47.706 -19.522  1.00  0.00     0.045 C 
HETATM   44  C23 UNL     1     -19.457  45.368 -18.767  1.00  0.00     0.045 C 
HETATM   45  C24 UNL     1     -17.318  45.912 -20.010  1.00  0.00     0.044 C 
ENDBRANCH  32  38
ENDBRANCH  30  32
ENDBRANCH  27  28
ENDBRANCH  26  27
ENDBRANCH  13  26
TORSDOF 9
ENDMDL
MODEL 4
REMARK minimizedAffinity -9.15134048
REMARK CNNscore 0.370898038
REMARK CNNaffinity 6.66056252
REMARK  9 active torsions:
REMARK  status: ('A' for Active; 'I' for Inactive)
REMARK    1  A    between atoms: C3_3  and  O1_4 
REMARK    2  A    between atoms: N1_14  and  O2_16 
REMARK    3  A    between atoms: O2_16  and  C13_17 
REMARK    4  A    between atoms: C13_17  and  C14_18 
REMARK       I    between atoms: C14_18  and  N2_20 
REMARK    5  A    between atoms: N2_20  and  C15_21 
REMARK    6  A    between atoms: C15_21  and  C16_22 
REMARK    7  A    between atoms: C15_21  and  C18_26 
REMARK    8  A    between atoms: C16_22  and  C17_23 
REMARK    9  A    between atoms: C17_23  and  O5_25 
ROOT
HETATM    1  C1  UNL     1      -2.757  48.471 -26.455  1.00  0.00     0.015 C 
HETATM    2  C2  UNL     1      -2.804  49.522 -25.874  1.00  0.00    -0.078 C 
HETATM    3  C3  UNL     1      -2.851  50.820 -25.184  1.00  0.00     0.128 C 
HETATM    4  C4  UNL     1      -1.479  51.206 -24.641  1.00  0.00     0.052 C 
HETATM    5  C5  UNL     1      -1.789  52.298 -23.630  1.00  0.00     0.010 C 
HETATM    6  C6  UNL     1      -3.127  51.907 -22.964  1.00  0.00     0.002 C 
HETATM    7  C7  UNL     1      -2.893  51.399 -21.519  1.00  0.00    -0.004 C 
HETATM    8  C8  UNL     1      -4.184  51.423 -20.664  1.00  0.00     0.010 C 
HETATM    9  C9  UNL     1      -4.207  50.371 -19.552  1.00  0.00     0.035 C 
HETATM   10  C10 UNL     1      -2.818  50.177 -19.007  1.00  0.00    -0.069 C 
HETATM   11  C11 UNL     1      -2.502  50.590 -17.768  1.00  0.00     0.030 C 
HETATM   12  C12 UNL     1      -1.111  50.527 -17.252  1.00  0.00     0.032 C 
HETATM   13  N1  UNL     1      -0.911  50.868 -16.009  1.00  0.00    -0.271 N 
ATOM     14  H1  UNL     1      -1.641  51.208 -15.383  1.00  0.00     0.194 HD
HETATM   15  C25 UNL     1      -0.010  50.068 -18.190  1.00  0.00     0.060 C 
HETATM   16  C26 UNL     1      -0.411  50.210 -19.657  1.00  0.00     0.020 C 
HETATM   17  C27 UNL     1      -1.805  49.603 -19.995  1.00  0.00    -0.016 C 
HETATM   18  C28 UNL     1      -1.729  48.071 -19.813  1.00  0.00     0.020 C 
HETATM   19  C29 UNL     1      -2.176  50.026 -21.482  1.00  0.00     0.002 C 
HETATM   20  C30 UNL     1      -2.912  48.979 -22.346  1.00  0.00     0.007 C 
HETATM   21  C31 UNL     1      -4.039  49.515 -23.226  1.00  0.00     0.014 C 
HETATM   22  C32 UNL     1      -3.808  50.877 -23.933  1.00  0.00     0.003 C 
HETATM   23  C33 UNL     1      -5.209  51.395 -24.349  1.00  0.00     0.020 C 
ENDROOT
BRANCH   3  24
HETATM   24  O1  UNL     1      -3.209  51.797 -26.169  1.00  0.00    -0.377 OA
HETATM   25  H2  UNL     1      -3.258  52.665 -25.743  1.00  0.00     0.211 HD
ENDBRANCH   3  24
BRANCH  13  26
HETATM   26  O2  UNL     1       0.433  50.711 -15.641  1.00  0.00    -0.271 OA
BRANCH  26  27
HETATM   27  C13 UNL     1       1.022  51.995 -15.461  1.00  0.00     0.303 C 
BRANCH  27  28
HETATM   28  C14 UNL     1       2.248  51.895 -14.562  1.00  0.00     0.244 C 
HETATM   29  O3  UNL     1       3.390  51.812 -15.007  1.00  0.00    -0.271 OA
HETATM   30  N2  UNL     1       1.967  51.981 -13.215  1.00  0.00    -0.354 N 
HETATM   31  H16 UNL     1       0.985  52.039 -12.943  1.00  0.00     0.162 HD
BRANCH  30  32
HETATM   32  C15 UNL     1       2.981  51.970 -12.163  1.00  0.00     0.098 C 
BRANCH  32  33
HETATM   33  C16 UNL     1       3.049  50.571 -11.531  1.00  0.00     0.135 C 
BRANCH  33  34
HETATM   34  C17 UNL     1       4.307  49.820 -11.863  1.00  0.00     0.141 C 
HETATM   35  O4  UNL     1       4.852  49.782 -12.953  1.00  0.00    -0.650 OA
BRANCH  34  36
HETATM   36  O5  UNL     1       4.809  49.126 -10.822  1.00  0.00    -0.776 OA
HETATM   37  H20 UNL     1       5.597  48.678 -11.199  1.00  0.00     0.167 HD
ENDBRANCH  34  36
ENDBRANCH  33  34
ENDBRANCH  32  33
BRANCH  32  38
HETATM   38  C18 UNL     1       2.751  53.122 -11.147  1.00  0.00     0.014 C 
HETATM   39  C19 UNL     1       2.192  52.609  -9.804  1.00  0.00     0.033 C 
HETATM   40  C20 UNL     1       2.608  53.469  -8.614  1.00  0.00     0.169 C 
HETATM   41  O6  UNL     1       2.687  54.836  -8.995  1.00  0.00    -0.381 OA
HETATM   42  C21 UNL     1       3.751  55.121  -9.916  1.00  0.00     0.054 C 
HETATM   43  C22 UNL     1       3.296  56.352 -10.712  1.00  0.00     0.045 C 
HETATM   44  C23 UNL     1       5.012  55.485  -9.125  1.00  0.00     0.045 C 
HETATM   45  C24 UNL     1       4.029  53.936 -10.871  1.00  0.00     0.044 C 
ENDBRANCH  32  38
ENDBRANCH  30  32
ENDBRANCH  27  28
ENDBRANCH  26  27
ENDBRANCH  13  26
TORSDOF 9
ENDMDL
MODEL 5
REMARK minimizedAffinity -8.79426575
REMARK CNNscore 0.301701427
REMARK CNNaffinity 5.72492218
REMARK  9 active torsions:
REMARK  status: ('A' for Active; 'I' for Inactive)
REMARK    1  A    between atoms: C3_3  and  O1_4 
REMARK    2  A    between atoms: N1_14  and  O2_16 
REMARK    3  A    between atoms: O2_16  and  C13_17 
REMARK    4  A    between atoms: C13_17  and  C14_18 
REMARK       I    between atoms: C14_18  and  N2_20 
REMARK    5  A    between atoms: N2_20  and  C15_21 
REMARK    6  A    between atoms: C15_21  and  C16_22 
REMARK    7  A    between atoms: C15_21  and  C18_26 
REMARK    8  A    between atoms: C16_22  and  C17_23 
REMARK    9  A    between atoms: C17_23  and  O5_25 
ROOT
HETATM    1  C1  UNL     1      -4.224  44.424 -32.356  1.00  0.00     0.015 C 
HETATM    2  C2  UNL     1      -4.676  45.520 -32.157  1.00  0.00    -0.078 C 
HETATM    3  C3  UNL     1      -5.204  46.870 -31.913  1.00  0.00     0.128 C 
HETATM    4  C4  UNL     1      -5.142  47.226 -30.430  1.00  0.00     0.052 C 
HETATM    5  C5  UNL     1      -6.086  48.412 -30.308  1.00  0.00     0.010 C 
HETATM    6  C6  UNL     1      -7.247  48.147 -31.293  1.00  0.00     0.002 C 
HETATM    7  C7  UNL     1      -8.534  47.747 -30.528  1.00  0.00    -0.004 C 
HETATM    8  C8  UNL     1      -9.811  47.908 -31.390  1.00  0.00     0.010 C 
HETATM    9  C9  UNL     1     -10.941  46.953 -31.000  1.00  0.00     0.035 C 
HETATM   10  C10 UNL     1     -10.930  46.731 -29.512  1.00  0.00    -0.069 C 
HETATM   11  C11 UNL     1     -11.909  47.227 -28.736  1.00  0.00     0.030 C 
HETATM   12  C12 UNL     1     -11.858  47.133 -27.254  1.00  0.00     0.032 C 
HETATM   13  N1  UNL     1     -12.891  47.563 -26.585  1.00  0.00    -0.271 N 
ATOM     14  H1  UNL     1     -13.713  47.990 -27.012  1.00  0.00     0.194 HD
HETATM   15  C25 UNL     1     -10.618  46.542 -26.609  1.00  0.00     0.060 C 
HETATM   16  C26 UNL     1      -9.410  46.585 -27.541  1.00  0.00     0.020 C 
HETATM   17  C27 UNL     1      -9.690  46.027 -28.968  1.00  0.00    -0.016 C 
HETATM   18  C28 UNL     1      -9.973  44.513 -28.854  1.00  0.00     0.020 C 
HETATM   19  C29 UNL     1      -8.424  46.346 -29.876  1.00  0.00     0.002 C 
HETATM   20  C30 UNL     1      -8.011  45.272 -30.906  1.00  0.00     0.007 C 
HETATM   21  C31 UNL     1      -7.583  45.794 -32.276  1.00  0.00     0.014 C 
HETATM   22  C32 UNL     1      -6.714  47.079 -32.312  1.00  0.00     0.003 C 
HETATM   23  C33 UNL     1      -6.818  47.634 -33.757  1.00  0.00     0.020 C 
ENDROOT
BRANCH   3  24
HETATM   24  O1  UNL     1      -4.342  47.782 -32.606  1.00  0.00    -0.377 OA
HETATM   25  H2  UNL     1      -4.670  48.682 -32.472  1.00  0.00     0.211 HD
ENDBRANCH   3  24
BRANCH  13  26
HETATM   26  O2  UNL     1     -12.731  47.366 -25.206  1.00  0.00    -0.271 OA
BRANCH  26  27
HETATM   27  C13 UNL     1     -13.530  46.260 -24.796  1.00  0.00     0.303 C 
BRANCH  27  28
HETATM   28  C14 UNL     1     -14.874  46.744 -24.269  1.00  0.00     0.244 C 
HETATM   29  O3  UNL     1     -15.213  47.924 -24.306  1.00  0.00    -0.271 OA
HETATM   30  N2  UNL     1     -15.700  45.735 -23.821  1.00  0.00    -0.354 N 
HETATM   31  H16 UNL     1     -15.325  44.786 -23.823  1.00  0.00     0.162 HD
BRANCH  30  32
HETATM   32  C15 UNL     1     -17.059  45.946 -23.327  1.00  0.00     0.098 C 
BRANCH  32  33
HETATM   33  C16 UNL     1     -17.861  46.753 -24.360  1.00  0.00     0.135 C 
BRANCH  33  34
HETATM   34  C17 UNL     1     -19.081  46.038 -24.869  1.00  0.00     0.141 C 
HETATM   35  O4  UNL     1     -20.121  46.562 -25.227  1.00  0.00    -0.650 OA
BRANCH  34  36
HETATM   36  O5  UNL     1     -18.951  44.697 -24.878  1.00  0.00    -0.776 OA
HETATM   37  H20 UNL     1     -19.822  44.381 -25.203  1.00  0.00     0.167 HD
ENDBRANCH  34  36
ENDBRANCH  33  34
ENDBRANCH  32  33
BRANCH  32  38
HETATM   38  C18 UNL     1     -17.050  46.559 -21.900  1.00  0.00     0.014 C 
HETATM   39  C19 UNL     1     -18.444  46.515 -21.240  1.00  0.00     0.033 C 
HETATM   40  C20 UNL     1     -18.383  46.407 -19.719  1.00  0.00     0.169 C 
HETATM   41  O6  UNL     1     -17.266  47.126 -19.215  1.00  0.00    -0.381 OA
HETATM   42  C21 UNL     1     -15.999  46.555 -19.576  1.00  0.00     0.054 C 
HETATM   43  C22 UNL     1     -15.001  47.722 -19.583  1.00  0.00     0.045 C 
HETATM   44  C23 UNL     1     -15.577  45.554 -18.494  1.00  0.00     0.045 C 
HETATM   45  C24 UNL     1     -16.038  45.873 -20.964  1.00  0.00     0.044 C 
ENDBRANCH  32  38
ENDBRANCH  30  32
ENDBRANCH  27  28
ENDBRANCH  26  27
ENDBRANCH  13  26
TORSDOF 9
ENDMDL
MODEL 6
REMARK minimizedAffinity -9.87015915
REMARK CNNscore 0.255847514
REMARK CNNaffinity 6.60268641
REMARK  9 active torsions:
REMARK  status: ('A' for Active; 'I' for Inactive)
REMARK    1  A    between atoms: C3_3  and  O1_4 
REMARK    2  A    between atoms: N1_14  and  O2_16 
REMARK    3  A    between atoms: O2_16  and  C13_17 
REMARK    4  A    between atoms: C13_17  and  C14_18 
REMARK       I    between atoms: C14_18  and  N2_20 
REMARK    5  A    between atoms: N2_20  and  C15_21 
REMARK    6  A    between atoms: C15_21  and  C16_22 
REMARK    7  A    between atoms: C15_21  and  C18_26 
REMARK    8  A    between atoms: C16_22  and  C17_23 
REMARK    9  A    between atoms: C17_23  and  O5_25 
ROOT
HETATM    1  C1  UNL     1      -0.847  51.890 -18.413  1.00  0.00     0.015 C 
HETATM    2  C2  UNL     1      -1.014  50.753 -18.767  1.00  0.00    -0.078 C 
HETATM    3  C3  UNL     1      -1.194  49.356 -19.188  1.00  0.00     0.128 C 
HETATM    4  C4  UNL     1      -0.399  49.056 -20.455  1.00  0.00     0.052 C 
HETATM    5  C5  UNL     1      -1.021  47.767 -20.970  1.00  0.00     0.010 C 
HETATM    6  C6  UNL     1      -2.531  47.856 -20.655  1.00  0.00     0.002 C 
HETATM    7  C7  UNL     1      -3.346  48.118 -21.946  1.00  0.00    -0.004 C 
HETATM    8  C8  UNL     1      -4.847  47.774 -21.781  1.00  0.00     0.010 C 
HETATM    9  C9  UNL     1      -5.770  48.593 -22.686  1.00  0.00     0.035 C 
HETATM   10  C10 UNL     1      -5.088  48.860 -24.000  1.00  0.00    -0.069 C 
HETATM   11  C11 UNL     1      -5.518  48.271 -25.129  1.00  0.00     0.030 C 
HETATM   12  C12 UNL     1      -4.789  48.416 -26.415  1.00  0.00     0.032 C 
HETATM   13  N1  UNL     1      -5.325  47.882 -27.478  1.00  0.00    -0.271 N 
ATOM     14  H1  UNL     1      -6.191  47.344 -27.474  1.00  0.00     0.194 HD
HETATM   15  C25 UNL     1      -3.475  49.175 -26.421  1.00  0.00     0.060 C 
HETATM   16  C26 UNL     1      -2.852  49.253 -25.029  1.00  0.00     0.020 C 
HETATM   17  C27 UNL     1      -3.835  49.728 -23.920  1.00  0.00    -0.016 C 
HETATM   18  C28 UNL     1      -4.217  51.199 -24.201  1.00  0.00     0.020 C 
HETATM   19  C29 UNL     1      -3.117  49.541 -22.514  1.00  0.00     0.002 C 
HETATM   20  C30 UNL     1      -3.372  50.625 -21.445  1.00  0.00     0.007 C 
HETATM   21  C31 UNL     1      -3.577  50.119 -20.019  1.00  0.00     0.014 C 
HETATM   22  C32 UNL     1      -2.676  48.950 -19.538  1.00  0.00     0.003 C 
HETATM   23  C33 UNL     1      -3.377  48.343 -18.296  1.00  0.00     0.020 C 
ENDROOT
BRANCH   3  24
HETATM   24  O1  UNL     1      -0.654  48.538 -18.143  1.00  0.00    -0.377 OA
HETATM   25  H2  UNL     1      -0.766  47.608 -18.387  1.00  0.00     0.211 HD
ENDBRANCH   3  24
BRANCH  13  26
HETATM   26  O2  UNL     1      -4.561  48.139 -28.625  1.00  0.00    -0.271 OA
BRANCH  26  27
HETATM   27  C13 UNL     1      -5.406  48.084 -29.771  1.00  0.00     0.303 C 
BRANCH  27  28
HETATM   28  C14 UNL     1      -6.823  47.698 -29.367  1.00  0.00     0.244 C 
HETATM   29  O3  UNL     1      -7.135  46.549 -29.066  1.00  0.00    -0.271 OA
HETATM   30  N2  UNL     1      -7.697  48.761 -29.298  1.00  0.00    -0.354 N 
HETATM   31  H16 UNL     1      -7.346  49.677 -29.576  1.00  0.00     0.162 HD
BRANCH  30  32
HETATM   32  C15 UNL     1      -9.092  48.649 -28.876  1.00  0.00     0.098 C 
BRANCH  32  33
HETATM   33  C16 UNL     1      -9.150  48.149 -27.424  1.00  0.00     0.135 C 
BRANCH  33  34
HETATM   34  C17 UNL     1     -10.116  48.912 -26.562  1.00  0.00     0.141 C 
HETATM   35  O4  UNL     1     -11.286  48.627 -26.373  1.00  0.00    -0.650 OA
BRANCH  34  36
HETATM   36  O5  UNL     1      -9.579  50.011 -25.999  1.00  0.00    -0.776 OA
HETATM   37  H20 UNL     1     -10.328  50.406 -25.499  1.00  0.00     0.167 HD
ENDBRANCH  34  36
ENDBRANCH  33  34
ENDBRANCH  32  33
BRANCH  32  38
HETATM   38  C18 UNL     1      -9.917  47.799 -29.880  1.00  0.00     0.014 C 
HETATM   39  C19 UNL     1      -9.401  47.944 -31.327  1.00  0.00     0.033 C 
HETATM   40  C20 UNL     1      -9.633  46.697 -32.175  1.00  0.00     0.169 C 
HETATM   41  O6  UNL     1     -10.853  46.067 -31.804  1.00  0.00    -0.381 OA
HETATM   42  C21 UNL     1     -10.834  45.497 -30.487  1.00  0.00     0.054 C 
HETATM   43  C22 UNL     1     -12.292  45.504 -30.007  1.00  0.00     0.045 C 
HETATM   44  C23 UNL     1     -10.355  44.044 -30.580  1.00  0.00     0.045 C 
HETATM   45  C24 UNL     1      -9.943  46.304 -29.513  1.00  0.00     0.044 C 
ENDBRANCH  32  38
ENDBRANCH  30  32
ENDBRANCH  27  28
ENDBRANCH  26  27
ENDBRANCH  13  26
TORSDOF 9
ENDMDL
MODEL 7
REMARK minimizedAffinity -7.76383829
REMARK CNNscore 0.238041729
REMARK CNNaffinity 5.27168417
REMARK  9 active torsions:
REMARK  status: ('A' for Active; 'I' for Inactive)
REMARK    1  A    between atoms: C3_3  and  O1_4 
REMARK    2  A    between atoms: N1_14  and  O2_16 
REMARK    3  A    between atoms: O2_16  and  C13_17 
REMARK    4  A    between atoms: C13_17  and  C14_18 
REMARK       I    between atoms: C14_18  and  N2_20 
REMARK    5  A    between atoms: N2_20  and  C15_21 
REMARK    6  A    between atoms: C15_21  and  C16_22 
REMARK    7  A    between atoms: C15_21  and  C18_26 
REMARK    8  A    between atoms: C16_22  and  C17_23 
REMARK    9  A    between atoms: C17_23  and  O5_25 
ROOT
HETATM    1  C1  UNL     1      -4.584  45.727 -32.517  1.00  0.00     0.015 C 
HETATM    2  C2  UNL     1      -5.550  46.441 -32.570  1.00  0.00    -0.078 C 
HETATM    3  C3  UNL     1      -6.717  47.332 -32.646  1.00  0.00     0.128 C 
HETATM    4  C4  UNL     1      -6.732  48.320 -31.484  1.00  0.00     0.052 C 
HETATM    5  C5  UNL     1      -8.161  48.839 -31.474  1.00  0.00     0.010 C 
HETATM    6  C6  UNL     1      -9.060  47.646 -31.871  1.00  0.00     0.002 C 
HETATM    7  C7  UNL     1      -9.831  47.106 -30.640  1.00  0.00    -0.004 C 
HETATM    8  C8  UNL     1     -11.052  46.240 -31.036  1.00  0.00     0.010 C 
HETATM    9  C9  UNL     1     -11.417  45.179 -29.995  1.00  0.00     0.035 C 
HETATM   10  C10 UNL     1     -11.152  45.709 -28.612  1.00  0.00    -0.069 C 
HETATM   11  C11 UNL     1     -12.167  45.995 -27.780  1.00  0.00     0.030 C 
HETATM   12  C12 UNL     1     -11.941  46.637 -26.459  1.00  0.00     0.032 C 
HETATM   13  N1  UNL     1     -12.974  46.799 -25.680  1.00  0.00    -0.271 N 
ATOM     14  H1  UNL     1     -13.929  46.544 -25.934  1.00  0.00     0.194 HD
HETATM   15  C25 UNL     1     -10.531  47.062 -26.093  1.00  0.00     0.060 C 
HETATM   16  C26 UNL     1      -9.640  47.216 -27.324  1.00  0.00     0.020 C 
HETATM   17  C27 UNL     1      -9.687  46.001 -28.297  1.00  0.00    -0.016 C 
HETATM   18  C28 UNL     1      -9.067  44.779 -27.584  1.00  0.00     0.020 C 
HETATM   19  C29 UNL     1      -8.901  46.402 -29.620  1.00  0.00     0.002 C 
HETATM   20  C30 UNL     1      -8.053  45.301 -30.293  1.00  0.00     0.007 C 
HETATM   21  C31 UNL     1      -8.113  45.254 -31.819  1.00  0.00     0.014 C 
HETATM   22  C32 UNL     1      -8.116  46.609 -32.576  1.00  0.00     0.003 C 
HETATM   23  C33 UNL     1      -8.639  46.308 -34.004  1.00  0.00     0.020 C 
ENDROOT
BRANCH   3  24
HETATM   24  O1  UNL     1      -6.576  48.095 -33.851  1.00  0.00    -0.377 OA
HETATM   25  H2  UNL     1      -7.336  48.687 -33.935  1.00  0.00     0.211 HD
ENDBRANCH   3  24
BRANCH  13  26
HETATM   26  O2  UNL     1     -12.609  47.365 -24.450  1.00  0.00    -0.271 OA
BRANCH  26  27
HETATM   27  C13 UNL     1     -13.457  46.851 -23.428  1.00  0.00     0.303 C 
BRANCH  27  28
HETATM   28  C14 UNL     1     -14.895  46.772 -23.922  1.00  0.00     0.244 C 
HETATM   29  O3  UNL     1     -15.463  47.720 -24.458  1.00  0.00    -0.271 OA
HETATM   30  N2  UNL     1     -15.471  45.527 -23.783  1.00  0.00    -0.354 N 
HETATM   31  H16 UNL     1     -14.921  44.805 -23.317  1.00  0.00     0.162 HD
BRANCH  30  32
HETATM   32  C15 UNL     1     -16.819  45.191 -24.238  1.00  0.00     0.098 C 
BRANCH  32  33
HETATM   33  C16 UNL     1     -17.604  46.483 -24.514  1.00  0.00     0.135 C 
BRANCH  33  34
HETATM   34  C17 UNL     1     -18.830  46.276 -25.357  1.00  0.00     0.141 C 
HETATM   35  O4  UNL     1     -19.948  46.690 -25.109  1.00  0.00    -0.650 OA
BRANCH  34  36
HETATM   36  O5  UNL     1     -18.604  45.533 -26.458  1.00  0.00    -0.776 OA
HETATM   37  H20 UNL     1     -19.488  45.466 -26.880  1.00  0.00     0.167 HD
ENDBRANCH  34  36
ENDBRANCH  33  34
ENDBRANCH  32  33
BRANCH  32  38
HETATM   38  C18 UNL     1     -17.517  44.214 -23.255  1.00  0.00     0.014 C 
HETATM   39  C19 UNL     1     -16.522  43.224 -22.613  1.00  0.00     0.033 C 
HETATM   40  C20 UNL     1     -16.938  42.777 -21.215  1.00  0.00     0.169 C 
HETATM   41  O6  UNL     1     -18.353  42.681 -21.126  1.00  0.00    -0.381 OA
HETATM   42  C21 UNL     1     -19.027  43.946 -21.215  1.00  0.00     0.054 C 
HETATM   43  C22 UNL     1     -20.420  43.639 -21.782  1.00  0.00     0.045 C 
HETATM   44  C23 UNL     1     -19.187  44.526 -19.805  1.00  0.00     0.045 C 
HETATM   45  C24 UNL     1     -18.280  44.943 -22.133  1.00  0.00     0.044 C 
ENDBRANCH  32  38
ENDBRANCH  30  32
ENDBRANCH  27  28
ENDBRANCH  26  27
ENDBRANCH  13  26
TORSDOF 9
ENDMDL
MODEL 8
REMARK minimizedAffinity -9.87423325
REMARK CNNscore 0.222640872
REMARK CNNaffinity 6.70774841
REMARK  9 active torsions:
REMARK  status: ('A' for Active; 'I' for Inactive)
REMARK    1  A    between atoms: C3_3  and  O1_4 
REMARK    2  A    between atoms: N1_14  and  O2_16 
REMARK    3  A    between atoms: O2_16  and  C13_17 
REMARK    4  A    between atoms: C13_17  and  C14_18 
REMARK       I    between atoms: C14_18  and  N2_20 
REMARK    5  A    between atoms: N2_20  and  C15_21 
REMARK    6  A    between atoms: C15_21  and  C16_22 
REMARK    7  A    between atoms: C15_21  and  C18_26 
REMARK    8  A    between atoms: C16_22  and  C17_23 
REMARK    9  A    between atoms: C17_23  and  O5_25 
ROOT
HETATM    1  C1  UNL     1      -3.064  52.120 -26.293  1.00  0.00     0.015 C 
HETATM    2  C2  UNL     1      -3.634  51.804 -25.282  1.00  0.00    -0.078 C 
HETATM    3  C3  UNL     1      -4.352  51.432 -24.054  1.00  0.00     0.128 C 
HETATM    4  C4  UNL     1      -4.318  52.564 -23.031  1.00  0.00     0.052 C 
HETATM    5  C5  UNL     1      -4.701  51.880 -21.728  1.00  0.00     0.010 C 
HETATM    6  C6  UNL     1      -4.073  50.469 -21.777  1.00  0.00     0.002 C 
HETATM    7  C7  UNL     1      -2.853  50.378 -20.826  1.00  0.00    -0.004 C 
HETATM    8  C8  UNL     1      -2.469  48.916 -20.490  1.00  0.00     0.010 C 
HETATM    9  C9  UNL     1      -0.985  48.728 -20.166  1.00  0.00     0.035 C 
HETATM   10  C10 UNL     1      -0.464  49.941 -19.446  1.00  0.00    -0.069 C 
HETATM   11  C11 UNL     1      -0.125  49.876 -18.147  1.00  0.00     0.030 C 
HETATM   12  C12 UNL     1       0.272  51.085 -17.380  1.00  0.00     0.032 C 
HETATM   13  N1  UNL     1       0.668  50.916 -16.148  1.00  0.00    -0.271 N 
ATOM     14  H1  UNL     1       0.689  50.015 -15.671  1.00  0.00     0.194 HD
HETATM   15  C25 UNL     1       0.199  52.435 -18.067  1.00  0.00     0.060 C 
HETATM   16  C26 UNL     1      -0.733  52.414 -19.276  1.00  0.00     0.020 C 
HETATM   17  C27 UNL     1      -0.471  51.234 -20.258  1.00  0.00    -0.016 C 
HETATM   18  C28 UNL     1       0.917  51.435 -20.906  1.00  0.00     0.020 C 
HETATM   19  C29 UNL     1      -1.649  51.214 -21.326  1.00  0.00     0.002 C 
HETATM   20  C30 UNL     1      -1.272  50.851 -22.779  1.00  0.00     0.007 C 
HETATM   21  C31 UNL     1      -2.250  49.936 -23.512  1.00  0.00     0.014 C 
HETATM   22  C32 UNL     1      -3.765  50.184 -23.290  1.00  0.00     0.003 C 
HETATM   23  C33 UNL     1      -4.489  48.889 -23.738  1.00  0.00     0.020 C 
ENDROOT
BRANCH   3  24
HETATM   24  O1  UNL     1      -5.722  51.231 -24.422  1.00  0.00    -0.377 OA
HETATM   25  H2  UNL     1      -6.221  50.975 -23.634  1.00  0.00     0.211 HD
ENDBRANCH   3  24
BRANCH  13  26
HETATM   26  O2  UNL     1       1.061  52.128 -15.563  1.00  0.00    -0.271 OA
BRANCH  26  27
HETATM   27  C13 UNL     1       2.229  51.911 -14.777  1.00  0.00     0.303 C 
BRANCH  27  28
HETATM   28  C14 UNL     1       1.866  51.821 -13.300  1.00  0.00     0.244 C 
HETATM   29  O3  UNL     1       2.422  51.046 -12.528  1.00  0.00    -0.271 OA
HETATM   30  N2  UNL     1       0.916  52.736 -12.898  1.00  0.00    -0.354 N 
HETATM   31  H16 UNL     1       0.506  53.333 -13.616  1.00  0.00     0.162 HD
BRANCH  30  32
HETATM   32  C15 UNL     1       0.450  52.883 -11.521  1.00  0.00     0.098 C 
BRANCH  32  33
HETATM   33  C16 UNL     1      -1.085  52.817 -11.489  1.00  0.00     0.135 C 
BRANCH  33  34
HETATM   34  C17 UNL     1      -1.685  52.136 -12.686  1.00  0.00     0.141 C 
HETATM   35  O4  UNL     1      -1.244  51.144 -13.241  1.00  0.00    -0.650 OA
BRANCH  34  36
HETATM   36  O5  UNL     1      -2.792  52.747 -13.152  1.00  0.00    -0.776 OA
HETATM   37  H20 UNL     1      -3.043  52.209 -13.934  1.00  0.00     0.167 HD
ENDBRANCH  34  36
ENDBRANCH  33  34
ENDBRANCH  32  33
BRANCH  32  38
HETATM   38  C18 UNL     1       1.052  54.151 -10.856  1.00  0.00     0.014 C 
HETATM   39  C19 UNL     1       0.396  54.459  -9.493  1.00  0.00     0.033 C 
HETATM   40  C20 UNL     1       1.339  55.160  -8.519  1.00  0.00     0.169 C 
HETATM   41  O6  UNL     1       2.213  56.035  -9.219  1.00  0.00    -0.381 OA
HETATM   42  C21 UNL     1       3.155  55.359 -10.065  1.00  0.00     0.054 C 
HETATM   43  C22 UNL     1       3.497  56.350 -11.187  1.00  0.00     0.045 C 
HETATM   44  C23 UNL     1       4.428  55.069  -9.262  1.00  0.00     0.045 C 
HETATM   45  C24 UNL     1       2.576  54.053 -10.659  1.00  0.00     0.044 C 
ENDBRANCH  32  38
ENDBRANCH  30  32
ENDBRANCH  27  28
ENDBRANCH  26  27
ENDBRANCH  13  26
TORSDOF 9
ENDMDL
MODEL 9
REMARK minimizedAffinity -8.50817871
REMARK CNNscore 0.221186563
REMARK CNNaffinity 6.31767035
REMARK  9 active torsions:
REMARK  status: ('A' for Active; 'I' for Inactive)
REMARK    1  A    between atoms: C3_3  and  O1_4 
REMARK    2  A    between atoms: N1_14  and  O2_16 
REMARK    3  A    between atoms: O2_16  and  C13_17 
REMARK    4  A    between atoms: C13_17  and  C14_18 
REMARK       I    between atoms: C14_18  and  N2_20 
REMARK    5  A    between atoms: N2_20  and  C15_21 
REMARK    6  A    between atoms: C15_21  and  C16_22 
REMARK    7  A    between atoms: C15_21  and  C18_26 
REMARK    8  A    between atoms: C16_22  and  C17_23 
REMARK    9  A    between atoms: C17_23  and  O5_25 
ROOT
HETATM    1  C1  UNL     1      -0.650  48.850 -17.014  1.00  0.00     0.015 C 
HETATM    2  C2  UNL     1      -0.928  49.682 -17.837  1.00  0.00    -0.078 C 
HETATM    3  C3  UNL     1      -1.266  50.718 -18.823  1.00  0.00     0.128 C 
HETATM    4  C4  UNL     1      -2.735  51.118 -18.721  1.00  0.00     0.052 C 
HETATM    5  C5  UNL     1      -3.002  51.834 -20.036  1.00  0.00     0.010 C 
HETATM    6  C6  UNL     1      -2.171  51.097 -21.110  1.00  0.00     0.002 C 
HETATM    7  C7  UNL     1      -3.087  50.243 -22.022  1.00  0.00    -0.004 C 
HETATM    8  C8  UNL     1      -2.401  49.855 -23.356  1.00  0.00     0.010 C 
HETATM    9  C9  UNL     1      -2.915  48.542 -23.953  1.00  0.00     0.035 C 
HETATM   10  C10 UNL     1      -4.384  48.393 -23.665  1.00  0.00    -0.069 C 
HETATM   11  C11 UNL     1      -5.290  48.484 -24.654  1.00  0.00     0.030 C 
HETATM   12  C12 UNL     1      -6.750  48.467 -24.382  1.00  0.00     0.032 C 
HETATM   13  N1  UNL     1      -7.556  48.472 -25.408  1.00  0.00    -0.271 N 
ATOM     14  H1  UNL     1      -7.248  48.523 -26.379  1.00  0.00     0.194 HD
HETATM   15  C25 UNL     1      -7.218  48.439 -22.939  1.00  0.00     0.060 C 
HETATM   16  C26 UNL     1      -6.138  48.929 -21.977  1.00  0.00     0.020 C 
HETATM   17  C27 UNL     1      -4.749  48.258 -22.189  1.00  0.00    -0.016 C 
HETATM   18  C28 UNL     1      -4.868  46.761 -21.829  1.00  0.00     0.020 C 
HETATM   19  C29 UNL     1      -3.691  49.024 -21.282  1.00  0.00     0.002 C 
HETATM   20  C30 UNL     1      -2.595  48.170 -20.609  1.00  0.00     0.007 C 
HETATM   21  C31 UNL     1      -1.192  48.773 -20.601  1.00  0.00     0.014 C 
HETATM   22  C32 UNL     1      -1.070  50.295 -20.329  1.00  0.00     0.003 C 
HETATM   23  C33 UNL     1       0.338  50.715 -20.827  1.00  0.00     0.020 C 
ENDROOT
BRANCH   3  24
HETATM   24  O1  UNL     1      -0.486  51.873 -18.492  1.00  0.00    -0.377 OA
HETATM   25  H2  UNL     1      -0.679  52.573 -19.131  1.00  0.00     0.211 HD
ENDBRANCH   3  24
BRANCH  13  26
HETATM   26  O2  UNL     1      -8.898  48.401 -25.009  1.00  0.00    -0.271 OA
BRANCH  26  27
HETATM   27  C13 UNL     1      -9.713  49.033 -25.993  1.00  0.00     0.303 C 
BRANCH  27  28
HETATM   28  C14 UNL     1     -10.317  47.994 -26.928  1.00  0.00     0.244 C 
HETATM   29  O3  UNL     1     -10.012  46.805 -26.882  1.00  0.00    -0.271 OA
HETATM   30  N2  UNL     1     -11.286  48.492 -27.772  1.00  0.00    -0.354 N 
HETATM   31  H16 UNL     1     -11.464  49.496 -27.742  1.00  0.00     0.162 HD
BRANCH  30  32
HETATM   32  C15 UNL     1     -12.049  47.678 -28.716  1.00  0.00     0.098 C 
BRANCH  32  33
HETATM   33  C16 UNL     1     -12.553  46.410 -28.009  1.00  0.00     0.135 C 
BRANCH  33  34
HETATM   34  C17 UNL     1     -13.834  46.611 -27.251  1.00  0.00     0.141 C 
HETATM   35  O4  UNL     1     -14.915  46.121 -27.529  1.00  0.00    -0.650 OA
BRANCH  34  36
HETATM   36  O5  UNL     1     -13.709  47.439 -26.196  1.00  0.00    -0.776 OA
HETATM   37  H20 UNL     1     -14.619  47.488 -25.829  1.00  0.00     0.167 HD
ENDBRANCH  34  36
ENDBRANCH  33  34
ENDBRANCH  32  33
BRANCH  32  38
HETATM   38  C18 UNL     1     -11.237  47.410 -30.012  1.00  0.00     0.014 C 
HETATM   39  C19 UNL     1     -10.039  48.371 -30.157  1.00  0.00     0.033 C 
HETATM   40  C20 UNL     1      -8.868  47.758 -30.920  1.00  0.00     0.169 C 
HETATM   41  O6  UNL     1      -9.341  46.887 -31.938  1.00  0.00    -0.381 OA
HETATM   42  C21 UNL     1      -9.983  45.705 -31.437  1.00  0.00     0.054 C 
HETATM   43  C22 UNL     1     -10.979  45.277 -32.524  1.00  0.00     0.045 C 
HETATM   44  C23 UNL     1      -8.934  44.600 -31.271  1.00  0.00     0.045 C 
HETATM   45  C24 UNL     1     -10.721  45.961 -30.102  1.00  0.00     0.044 C 
ENDBRANCH  32  38
ENDBRANCH  30  32
ENDBRANCH  27  28
ENDBRANCH  26  27
ENDBRANCH  13  26
TORSDOF 9
ENDMDL
