MODEL 1
REMARK minimizedAffinity -7.69619179
REMARK CNNscore 0.319532424
REMARK CNNaffinity 6.59396172
REMARK  6 active torsions:
REMARK  status: ('A' for Active; 'I' for Inactive)
REMARK    1  A    between atoms: C3_3  and  C4_4 
REMARK    2  A    between atoms: C4_4  and  O1_5 
REMARK    3  A    between atoms: C7_9  and  O3_10 
REMARK    4  A    between atoms: C24_28  and  C25_29 
REMARK    5  A    between atoms: C43_49  and  O7_51 
REMARK    6  A    between atoms: C45_52  and  O8_53 
ROOT
HETATM    1  C1  UNL     1     -14.261  -7.337  16.431  1.00  0.00     0.013 C 
HETATM    2  C2  UNL     1     -15.557  -7.876  17.020  1.00  0.00     0.023 C 
HETATM    3  C3  UNL     1     -16.121  -7.034  18.188  1.00  0.00     0.047 C 
HETATM    4  C5  UNL     1     -16.593  -8.093  19.203  1.00  0.00     0.160 C 
HETATM    5  O2  UNL     1     -16.651  -9.327  18.462  1.00  0.00    -0.373 OA
HETATM    6  C6  UNL     1     -15.523  -9.313  17.550  1.00  0.00     0.167 C 
HETATM    7  C7  UNL     1     -14.249  -9.843  18.278  1.00  0.00     0.226 C 
HETATM    8  C8  UNL     1     -14.646 -10.912  19.218  1.00  0.00    -0.072 C 
HETATM    9  C9  UNL     1     -15.149 -11.591  20.073  1.00  0.00    -0.103 C 
HETATM   10  C10 UNL     1     -15.863 -12.263  21.170  1.00  0.00     0.100 C 
HETATM   11  C11 UNL     1     -15.600 -11.547  22.512  1.00  0.00     0.014 C 
HETATM   12  C12 UNL     1     -15.337 -12.602  23.664  1.00  0.00     0.000 C 
HETATM   13  C13 UNL     1     -16.595 -13.395  24.036  1.00  0.00     0.006 C 
HETATM   14  C14 UNL     1     -17.892 -12.812  23.516  1.00  0.00     0.001 C 
HETATM   15  C15 UNL     1     -17.970 -11.286  23.450  1.00  0.00     0.014 C 
HETATM   16  C16 UNL     1     -16.674 -10.506  23.038  1.00  0.00     0.006 C 
HETATM   17  C17 UNL     1     -16.997  -9.214  22.142  1.00  0.00     0.034 C 
HETATM   18  C18 UNL     1     -17.131  -8.028  23.146  1.00  0.00     0.012 C 
HETATM   19  C19 UNL     1     -16.946  -8.603  24.544  1.00  0.00     0.044 C 
HETATM   20  C20 UNL     1     -15.974  -9.762  24.300  1.00  0.00     0.094 C 
HETATM   21  O4  UNL     1     -14.686  -9.227  23.886  1.00  0.00    -0.363 OA
HETATM   22  C21 UNL     1     -14.090  -8.128  24.591  1.00  0.00     0.263 C 
HETATM   23  C22 UNL     1     -13.962  -8.281  26.048  1.00  0.00    -0.080 C 
HETATM   24  C23 UNL     1     -13.865  -8.351  27.246  1.00  0.00    -0.093 C 
HETATM   25  C24 UNL     1     -13.782  -8.457  28.730  1.00  0.00     0.121 C 
HETATM   26  C31 UNL     1     -13.014  -9.728  29.163  1.00  0.00     0.190 C 
HETATM   27  O5  UNL     1     -13.819 -10.869  28.858  1.00  0.00    -0.384 OA
HETATM   28  C32 UNL     1     -13.176 -12.142  28.898  1.00  0.00     0.122 C 
HETATM   29  C33 UNL     1     -12.129 -12.293  27.802  1.00  0.00     0.033 C 
HETATM   30  C34 UNL     1     -12.741 -11.937  26.454  1.00  0.00     0.013 C 
HETATM   31  C35 UNL     1     -14.051 -12.715  26.069  1.00  0.00    -0.025 C 
HETATM   32  C36 UNL     1     -13.586 -14.110  25.574  1.00  0.00     0.016 C 
HETATM   33  C37 UNL     1     -14.713 -11.878  24.897  1.00  0.00     0.031 C 
HETATM   34  C38 UNL     1     -15.680 -10.795  25.363  1.00  0.00    -0.036 C 
HETATM   35  C39 UNL     1     -16.268 -10.788  26.563  1.00  0.00     0.057 C 
HETATM   36  C40 UNL     1     -16.068 -11.870  27.537  1.00  0.00     0.154 C 
HETATM   37  O6  UNL     1     -16.838 -11.911  28.498  1.00  0.00    -0.293 OA
HETATM   38  C41 UNL     1     -15.004 -12.939  27.296  1.00  0.00     0.071 C 
HETATM   39  C42 UNL     1     -14.258 -13.197  28.629  1.00  0.00     0.045 C 
HETATM   40  C43 UNL     1     -18.150  -9.135  21.063  1.00  0.00     0.087 C 
HETATM   41  C44 UNL     1     -19.552  -8.912  21.698  1.00  0.00     0.049 C 
HETATM   42  C45 UNL     1     -17.904  -7.949  20.006  1.00  0.00     0.181 C 
ENDROOT
BRANCH  25  43
HETATM   43  C25 UNL     1     -13.166  -7.214  29.352  1.00  0.00    -0.040 A 
HETATM   44  C26 UNL     1     -13.275  -5.950  28.746  1.00  0.00     0.008 A 
HETATM   45  C27 UNL     1     -12.681  -4.827  29.326  1.00  0.00     0.001 A 
HETATM   46  C28 UNL     1     -11.967  -4.954  30.517  1.00  0.00     0.000 A 
HETATM   47  C29 UNL     1     -11.853  -6.198  31.132  1.00  0.00     0.001 A 
HETATM   48  C30 UNL     1     -12.444  -7.323  30.550  1.00  0.00     0.008 A 
ENDBRANCH  25  43
BRANCH  40  49
HETATM   49  O7  UNL     1     -18.245 -10.380  20.370  1.00  0.00    -0.387 OA
HETATM   50  H54 UNL     1     -17.694 -10.313  19.560  1.00  0.00     0.210 HD
ENDBRANCH  40  49
BRANCH  42  51
HETATM   51  O8  UNL     1     -18.976  -7.884  19.044  1.00  0.00    -0.390 OA
HETATM   52  H56 UNL     1     -19.782  -8.267  19.434  1.00  0.00     0.210 HD
ENDBRANCH  42  51
BRANCH   7  53
HETATM   53  O3  UNL     1     -13.591  -8.815  19.030  1.00  0.00    -0.381 OA
HETATM   54  H12 UNL     1     -13.207  -9.244  19.813  1.00  0.00     0.211 HD
ENDBRANCH   7  53
BRANCH   3  55
HETATM   55  C4  UNL     1     -17.133  -5.984  17.731  1.00  0.00     0.172 C 
BRANCH  55  56
HETATM   56  O1  UNL     1     -16.793  -4.667  18.143  1.00  0.00    -0.400 OA
HETATM   57  H8  UNL     1     -15.903  -4.491  17.769  1.00  0.00     0.209 HD
ENDBRANCH  55  56
ENDBRANCH   3  55
TORSDOF 6
ENDMDL
MODEL 2
REMARK minimizedAffinity -7.82003212
REMARK CNNscore 0.238535076
REMARK CNNaffinity 6.58947134
REMARK  6 active torsions:
REMARK  status: ('A' for Active; 'I' for Inactive)
REMARK    1  A    between atoms: C3_3  and  C4_4 
REMARK    2  A    between atoms: C4_4  and  O1_5 
REMARK    3  A    between atoms: C7_9  and  O3_10 
REMARK    4  A    between atoms: C24_28  and  C25_29 
REMARK    5  A    between atoms: C43_49  and  O7_51 
REMARK    6  A    between atoms: C45_52  and  O8_53 
ROOT
HETATM    1  C1  UNL     1     -13.524   7.702  12.888  1.00  0.00     0.013 C 
HETATM    2  C2  UNL     1     -13.332   8.907  13.796  1.00  0.00     0.023 C 
HETATM    3  C3  UNL     1     -12.254   8.714  14.888  1.00  0.00     0.047 C 
HETATM    4  C5  UNL     1     -12.889   9.349  16.140  1.00  0.00     0.160 C 
HETATM    5  O2  UNL     1     -13.983  10.146  15.646  1.00  0.00    -0.373 OA
HETATM    6  C6  UNL     1     -14.571   9.403  14.548  1.00  0.00     0.167 C 
HETATM    7  C7  UNL     1     -15.607   8.376  15.100  1.00  0.00     0.226 C 
HETATM    8  C8  UNL     1     -16.292   8.969  16.268  1.00  0.00    -0.072 C 
HETATM    9  C9  UNL     1     -16.590   9.496  17.306  1.00  0.00    -0.103 C 
HETATM   10  C10 UNL     1     -16.766  10.141  18.617  1.00  0.00     0.100 C 
HETATM   11  C11 UNL     1     -16.189   9.254  19.742  1.00  0.00     0.014 C 
HETATM   12  C12 UNL     1     -17.169   9.225  20.986  1.00  0.00     0.000 C 
HETATM   13  C13 UNL     1     -17.229  10.569  21.721  1.00  0.00     0.006 C 
HETATM   14  C14 UNL     1     -16.124  11.541  21.365  1.00  0.00     0.001 C 
HETATM   15  C15 UNL     1     -14.758  10.927  21.055  1.00  0.00     0.014 C 
HETATM   16  C16 UNL     1     -14.728   9.566  20.276  1.00  0.00     0.006 C 
HETATM   17  C17 UNL     1     -13.498   9.475  19.250  1.00  0.00     0.034 C 
HETATM   18  C18 UNL     1     -12.337   8.798  20.043  1.00  0.00     0.012 C 
HETATM   19  C19 UNL     1     -12.846   8.554  21.458  1.00  0.00     0.044 C 
HETATM   20  C20 UNL     1     -14.343   8.314  21.236  1.00  0.00     0.094 C 
HETATM   21  O4  UNL     1     -14.524   7.073  20.500  1.00  0.00    -0.363 OA
HETATM   22  C21 UNL     1     -13.810   5.886  20.879  1.00  0.00     0.263 C 
HETATM   23  C22 UNL     1     -13.919   5.485  22.290  1.00  0.00    -0.080 C 
HETATM   24  C23 UNL     1     -13.956   5.136  23.442  1.00  0.00    -0.093 C 
HETATM   25  C24 UNL     1     -14.000   4.745  24.878  1.00  0.00     0.121 C 
HETATM   26  C31 UNL     1     -15.455   4.561  25.369  1.00  0.00     0.190 C 
HETATM   27  O5  UNL     1     -16.080   5.845  25.423  1.00  0.00    -0.384 OA
HETATM   28  C32 UNL     1     -17.501   5.867  25.557  1.00  0.00     0.122 C 
HETATM   29  C33 UNL     1     -18.205   5.315  24.325  1.00  0.00     0.033 C 
HETATM   30  C34 UNL     1     -17.678   6.010  23.077  1.00  0.00     0.013 C 
HETATM   31  C35 UNL     1     -17.746   7.580  23.086  1.00  0.00    -0.025 C 
HETATM   32  C36 UNL     1     -19.219   7.943  22.759  1.00  0.00     0.016 C 
HETATM   33  C37 UNL     1     -16.765   8.055  21.936  1.00  0.00     0.031 C 
HETATM   34  C38 UNL     1     -15.323   8.271  22.384  1.00  0.00    -0.036 C 
HETATM   35  C39 UNL     1     -14.961   8.471  23.655  1.00  0.00     0.057 C 
HETATM   36  C40 UNL     1     -15.945   8.552  24.744  1.00  0.00     0.154 C 
HETATM   37  O6  UNL     1     -15.550   8.989  25.827  1.00  0.00    -0.293 OA
HETATM   38  C41 UNL     1     -17.408   8.191  24.492  1.00  0.00     0.071 C 
HETATM   39  C42 UNL     1     -17.914   7.340  25.683  1.00  0.00     0.045 C 
HETATM   40  C43 UNL     1     -12.935  10.692  18.412  1.00  0.00     0.087 C 
HETATM   41  C44 UNL     1     -12.024  11.629  19.255  1.00  0.00     0.049 C 
HETATM   42  C45 UNL     1     -12.082  10.203  17.141  1.00  0.00     0.181 C 
ENDROOT
BRANCH  25  43
HETATM   43  C25 UNL     1     -13.176   3.496  25.150  1.00  0.00    -0.040 A 
HETATM   44  C26 UNL     1     -13.205   2.846  26.396  1.00  0.00     0.008 A 
HETATM   45  C27 UNL     1     -12.421   1.712  26.628  1.00  0.00     0.001 A 
HETATM   46  C28 UNL     1     -11.597   1.218  25.617  1.00  0.00     0.000 A 
HETATM   47  C29 UNL     1     -11.560   1.847  24.377  1.00  0.00     0.001 A 
HETATM   48  C30 UNL     1     -12.340   2.984  24.145  1.00  0.00     0.008 A 
ENDBRANCH  25  43
BRANCH  40  49
HETATM   49  O7  UNL     1     -14.018  11.514  17.974  1.00  0.00    -0.387 OA
HETATM   50  H54 UNL     1     -14.274  11.214  17.074  1.00  0.00     0.210 HD
ENDBRANCH  40  49
BRANCH  42  51
HETATM   51  O8  UNL     1     -11.563  11.328  16.403  1.00  0.00    -0.390 OA
HETATM   52  H56 UNL     1     -11.484  12.095  16.999  1.00  0.00     0.210 HD
ENDBRANCH  42  51
BRANCH   7  53
HETATM   53  O3  UNL     1     -14.983   7.157  15.526  1.00  0.00    -0.381 OA
HETATM   54  H12 UNL     1     -15.498   6.830  16.284  1.00  0.00     0.211 HD
ENDBRANCH   7  53
BRANCH   3  55
HETATM   55  C4  UNL     1     -10.875   9.213  14.458  1.00  0.00     0.172 C 
BRANCH  55  56
HETATM   56  O1  UNL     1     -10.931  10.397  13.674  1.00  0.00    -0.400 OA
HETATM   57  H8  UNL     1     -11.394  11.062  14.227  1.00  0.00     0.209 HD
ENDBRANCH  55  56
ENDBRANCH   3  55
TORSDOF 6
ENDMDL
MODEL 3
REMARK minimizedAffinity -7.03179073
REMARK CNNscore 0.238193765
REMARK CNNaffinity 6.67574692
REMARK  6 active torsions:
REMARK  status: ('A' for Active; 'I' for Inactive)
REMARK    1  A    between atoms: C3_3  and  C4_4 
REMARK    2  A    between atoms: C4_4  and  O1_5 
REMARK    3  A    between atoms: C7_9  and  O3_10 
REMARK    4  A    between atoms: C24_28  and  C25_29 
REMARK    5  A    between atoms: C43_49  and  O7_51 
REMARK    6  A    between atoms: C45_52  and  O8_53 
ROOT
HETATM    1  C1  UNL     1       2.379  14.093   3.421  1.00  0.00     0.013 C 
HETATM    2  C2  UNL     1       1.863  15.306   2.660  1.00  0.00     0.023 C 
HETATM    3  C3  UNL     1       1.509  16.514   3.557  1.00  0.00     0.047 C 
HETATM    4  C5  UNL     1       0.195  17.042   2.950  1.00  0.00     0.160 C 
HETATM    5  O2  UNL     1       0.111  16.438   1.646  1.00  0.00    -0.373 OA
HETATM    6  C6  UNL     1       0.626  15.089   1.783  1.00  0.00     0.167 C 
HETATM    7  C7  UNL     1      -0.512  14.136   2.266  1.00  0.00     0.226 C 
HETATM    8  C8  UNL     1      -1.786  14.565   1.654  1.00  0.00    -0.072 C 
HETATM    9  C9  UNL     1      -2.753  15.161   1.261  1.00  0.00    -0.103 C 
HETATM   10  C10 UNL     1      -3.868  16.042   0.879  1.00  0.00     0.100 C 
HETATM   11  C11 UNL     1      -4.599  16.570   2.133  1.00  0.00     0.014 C 
HETATM   12  C12 UNL     1      -6.169  16.519   1.925  1.00  0.00     0.000 C 
HETATM   13  C13 UNL     1      -6.660  17.539   0.890  1.00  0.00     0.006 C 
HETATM   14  C14 UNL     1      -5.656  18.612   0.527  1.00  0.00     0.001 C 
HETATM   15  C15 UNL     1      -4.733  19.084   1.651  1.00  0.00     0.014 C 
HETATM   16  C16 UNL     1      -4.224  18.013   2.676  1.00  0.00     0.006 C 
HETATM   17  C17 UNL     1      -2.716  18.288   3.151  1.00  0.00     0.034 C 
HETATM   18  C18 UNL     1      -2.832  19.154   4.443  1.00  0.00     0.012 C 
HETATM   19  C19 UNL     1      -4.315  19.407   4.678  1.00  0.00     0.044 C 
HETATM   20  C20 UNL     1      -4.963  18.138   4.117  1.00  0.00     0.094 C 
HETATM   21  O4  UNL     1      -4.588  17.003   4.947  1.00  0.00    -0.363 OA
HETATM   22  C21 UNL     1      -4.658  17.088   6.378  1.00  0.00     0.263 C 
HETATM   23  C22 UNL     1      -5.941  17.536   6.941  1.00  0.00    -0.080 C 
HETATM   24  C23 UNL     1      -6.963  17.926   7.444  1.00  0.00    -0.093 C 
HETATM   25  C24 UNL     1      -8.231  18.437   8.035  1.00  0.00     0.121 C 
HETATM   26  C31 UNL     1      -9.445  17.591   7.583  1.00  0.00     0.190 C 
HETATM   27  O5  UNL     1      -9.678  17.839   6.195  1.00  0.00    -0.384 OA
HETATM   28  C32 UNL     1     -10.552  16.939   5.516  1.00  0.00     0.122 C 
HETATM   29  C33 UNL     1      -9.965  15.538   5.408  1.00  0.00     0.033 C 
HETATM   30  C34 UNL     1      -8.559  15.612   4.828  1.00  0.00     0.013 C 
HETATM   31  C35 UNL     1      -8.423  16.366   3.457  1.00  0.00    -0.025 C 
HETATM   32  C36 UNL     1      -8.900  15.365   2.372  1.00  0.00     0.016 C 
HETATM   33  C37 UNL     1      -6.879  16.693   3.303  1.00  0.00     0.031 C 
HETATM   34  C38 UNL     1      -6.454  18.029   3.902  1.00  0.00    -0.036 C 
HETATM   35  C39 UNL     1      -7.297  19.035   4.152  1.00  0.00     0.057 C 
HETATM   36  C40 UNL     1      -8.726  18.958   3.819  1.00  0.00     0.154 C 
HETATM   37  O6  UNL     1      -9.368  20.010   3.846  1.00  0.00    -0.293 OA
HETATM   38  C41 UNL     1      -9.344  17.635   3.370  1.00  0.00     0.071 C 
HETATM   39  C42 UNL     1     -10.709  17.466   4.083  1.00  0.00     0.045 C 
HETATM   40  C43 UNL     1      -1.573  18.863   2.222  1.00  0.00     0.087 C 
HETATM   41  C44 UNL     1      -1.678  20.402   2.024  1.00  0.00     0.049 C 
HETATM   42  C45 UNL     1      -0.109  18.549   2.805  1.00  0.00     0.181 C 
ENDROOT
BRANCH  25  43
HETATM   43  C25 UNL     1      -8.159  18.512   9.552  1.00  0.00    -0.040 A 
HETATM   44  C26 UNL     1      -6.958  18.805  10.223  1.00  0.00     0.008 A 
HETATM   45  C27 UNL     1      -6.913  18.846  11.619  1.00  0.00     0.001 A 
HETATM   46  C28 UNL     1      -8.066  18.591  12.361  1.00  0.00     0.000 A 
HETATM   47  C29 UNL     1      -9.263  18.303  11.711  1.00  0.00     0.001 A 
HETATM   48  C30 UNL     1      -9.309  18.257  10.315  1.00  0.00     0.008 A 
ENDBRANCH  25  43
BRANCH  40  49
HETATM   49  O7  UNL     1      -1.695  18.307   0.911  1.00  0.00    -0.387 OA
HETATM   50  H54 UNL     1      -1.116  17.514   0.870  1.00  0.00     0.210 HD
ENDBRANCH  40  49
BRANCH  42  51
HETATM   51  O8  UNL     1       0.916  19.099   1.952  1.00  0.00    -0.390 OA
HETATM   52  H56 UNL     1       0.549  19.850   1.451  1.00  0.00     0.210 HD
ENDBRANCH  42  51
BRANCH   7  53
HETATM   53  O3  UNL     1      -0.672  14.167   3.691  1.00  0.00    -0.381 OA
HETATM   54  H12 UNL     1      -1.619  14.036   3.868  1.00  0.00     0.211 HD
ENDBRANCH   7  53
BRANCH   3  55
HETATM   55  C4  UNL     1       2.667  17.499   3.715  1.00  0.00     0.172 C 
BRANCH  55  56
HETATM   56  O1  UNL     1       3.862  17.057   3.086  1.00  0.00    -0.400 OA
HETATM   57  H8  UNL     1       3.634  16.924   2.141  1.00  0.00     0.209 HD
ENDBRANCH  55  56
ENDBRANCH   3  55
TORSDOF 6
ENDMDL
MODEL 4
REMARK minimizedAffinity -8.85304356
REMARK CNNscore 0.232032612
REMARK CNNaffinity 6.69616556
REMARK  6 active torsions:
REMARK  status: ('A' for Active; 'I' for Inactive)
REMARK    1  A    between atoms: C3_3  and  C4_4 
REMARK    2  A    between atoms: C4_4  and  O1_5 
REMARK    3  A    between atoms: C7_9  and  O3_10 
REMARK    4  A    between atoms: C24_28  and  C25_29 
REMARK    5  A    between atoms: C43_49  and  O7_51 
REMARK    6  A    between atoms: C45_52  and  O8_53 
ROOT
HETATM    1  C1  UNL     1      -7.040  -9.545   4.508  1.00  0.00     0.013 C 
HETATM    2  C2  UNL     1      -6.703 -10.448   3.331  1.00  0.00     0.023 C 
HETATM    3  C3  UNL     1      -5.880  -9.759   2.217  1.00  0.00     0.047 C 
HETATM    4  C5  UNL     1      -6.525 -10.278   0.917  1.00  0.00     0.160 C 
HETATM    5  O2  UNL     1      -7.307 -11.420   1.313  1.00  0.00    -0.373 OA
HETATM    6  C6  UNL     1      -7.885 -11.098   2.604  1.00  0.00     0.167 C 
HETATM    7  C7  UNL     1      -9.209 -10.297   2.404  1.00  0.00     0.226 C 
HETATM    8  C8  UNL     1      -9.898 -10.807   1.201  1.00  0.00    -0.072 C 
HETATM    9  C9  UNL     1     -10.214 -11.176   0.102  1.00  0.00    -0.103 C 
HETATM   10  C10 UNL     1     -10.425 -11.569  -1.301  1.00  0.00     0.100 C 
HETATM   11  C11 UNL     1     -10.254 -10.354  -2.239  1.00  0.00     0.014 C 
HETATM   12  C12 UNL     1     -11.388 -10.340  -3.345  1.00  0.00     0.000 C 
HETATM   13  C13 UNL     1     -11.233 -11.477  -4.363  1.00  0.00     0.006 C 
HETATM   14  C14 UNL     1      -9.885 -12.167  -4.346  1.00  0.00     0.001 C 
HETATM   15  C15 UNL     1      -8.677 -11.284  -4.032  1.00  0.00     0.014 C 
HETATM   16  C16 UNL     1      -8.859 -10.149  -2.965  1.00  0.00     0.006 C 
HETATM   17  C17 UNL     1      -7.547  -9.938  -2.066  1.00  0.00     0.034 C 
HETATM   18  C18 UNL     1      -6.717  -8.830  -2.786  1.00  0.00     0.012 C 
HETATM   19  C19 UNL     1      -7.476  -8.455  -4.052  1.00  0.00     0.044 C 
HETATM   20  C20 UNL     1      -8.936  -8.674  -3.641  1.00  0.00     0.094 C 
HETATM   21  O4  UNL     1      -9.297  -7.700  -2.623  1.00  0.00    -0.363 OA
HETATM   22  C21 UNL     1      -8.957  -6.314  -2.782  1.00  0.00     0.263 C 
HETATM   23  C22 UNL     1      -9.370  -5.684  -4.045  1.00  0.00    -0.080 C 
HETATM   24  C23 UNL     1      -9.663  -5.134  -5.076  1.00  0.00    -0.093 C 
HETATM   25  C24 UNL     1     -10.016  -4.490  -6.371  1.00  0.00     0.121 C 
HETATM   26  C31 UNL     1     -11.530  -4.610  -6.667  1.00  0.00     0.190 C 
HETATM   27  O5  UNL     1     -11.827  -5.977  -6.958  1.00  0.00    -0.384 OA
HETATM   28  C32 UNL     1     -13.205  -6.352  -6.960  1.00  0.00     0.122 C 
HETATM   29  C33 UNL     1     -13.827  -6.266  -5.573  1.00  0.00     0.033 C 
HETATM   30  C34 UNL     1     -12.966  -7.030  -4.576  1.00  0.00     0.013 C 
HETATM   31  C35 UNL     1     -12.655  -8.526  -4.942  1.00  0.00    -0.025 C 
HETATM   32  C36 UNL     1     -13.930  -9.328  -4.571  1.00  0.00     0.016 C 
HETATM   33  C37 UNL     1     -11.426  -8.939  -4.030  1.00  0.00     0.031 C 
HETATM   34  C38 UNL     1     -10.060  -8.667  -4.650  1.00  0.00    -0.036 C 
HETATM   35  C39 UNL     1      -9.856  -8.504  -5.961  1.00  0.00     0.057 C 
HETATM   36  C40 UNL     1     -10.943  -8.627  -6.942  1.00  0.00     0.154 C 
HETATM   37  O6  UNL     1     -10.622  -8.717  -8.129  1.00  0.00    -0.293 OA
HETATM   38  C41 UNL     1     -12.395  -8.730  -6.477  1.00  0.00     0.071 C 
HETATM   39  C42 UNL     1     -13.265  -7.825  -7.385  1.00  0.00     0.045 C 
HETATM   40  C43 UNL     1      -6.588 -11.101  -1.590  1.00  0.00     0.087 C 
HETATM   41  C44 UNL     1      -5.615 -11.572  -2.709  1.00  0.00     0.049 C 
HETATM   42  C45 UNL     1      -5.697 -10.666  -0.326  1.00  0.00     0.181 C 
ENDROOT
BRANCH  25  43
HETATM   43  C25 UNL     1      -9.568  -3.039  -6.422  1.00  0.00    -0.040 A 
HETATM   44  C26 UNL     1      -8.629  -2.521  -5.512  1.00  0.00     0.008 A 
HETATM   45  C27 UNL     1      -8.250  -1.177  -5.566  1.00  0.00     0.001 A 
HETATM   46  C28 UNL     1      -8.808  -0.334  -6.526  1.00  0.00     0.000 A 
HETATM   47  C29 UNL     1      -9.736  -0.832  -7.436  1.00  0.00     0.001 A 
HETATM   48  C30 UNL     1     -10.119  -2.175  -7.381  1.00  0.00     0.008 A 
ENDBRANCH  25  43
BRANCH  40  49
HETATM   49  O7  UNL     1      -7.362 -12.254  -1.255  1.00  0.00    -0.387 OA
HETATM   50  H54 UNL     1      -7.544 -12.220  -0.290  1.00  0.00     0.210 HD
ENDBRANCH  40  49
BRANCH  42  51
HETATM   51  O8  UNL     1      -4.817 -11.735   0.079  1.00  0.00    -0.390 OA
HETATM   52  H56 UNL     1      -4.646 -12.317  -0.684  1.00  0.00     0.210 HD
ENDBRANCH  42  51
BRANCH   7  53
HETATM   53  O3  UNL     1      -8.969  -8.896   2.216  1.00  0.00    -0.381 OA
HETATM   54  H12 UNL     1      -9.654  -8.575   1.607  1.00  0.00     0.211 HD
ENDBRANCH   7  53
BRANCH   3  55
HETATM   55  C4  UNL     1      -4.373  -9.945   2.388  1.00  0.00     0.172 C 
BRANCH  55  56
HETATM   56  O1  UNL     1      -3.826  -9.133   3.419  1.00  0.00    -0.400 OA
HETATM   57  H8  UNL     1      -4.310  -9.378   4.236  1.00  0.00     0.209 HD
ENDBRANCH  55  56
ENDBRANCH   3  55
TORSDOF 6
ENDMDL
MODEL 5
REMARK minimizedAffinity -7.54186869
REMARK CNNscore 0.226707533
REMARK CNNaffinity 6.17907953
REMARK  6 active torsions:
REMARK  status: ('A' for Active; 'I' for Inactive)
REMARK    1  A    between atoms: C3_3  and  C4_4 
REMARK    2  A    between atoms: C4_4  and  O1_5 
REMARK    3  A    between atoms: C7_9  and  O3_10 
REMARK    4  A    between atoms: C24_28  and  C25_29 
REMARK    5  A    between atoms: C43_49  and  O7_51 
REMARK    6  A    between atoms: C45_52  and  O8_53 
ROOT
HETATM    1  C1  UNL     1       6.523  16.664  10.230  1.00  0.00     0.013 C 
HETATM    2  C2  UNL     1       5.436  17.568  10.795  1.00  0.00     0.023 C 
HETATM    3  C3  UNL     1       5.566  17.845  12.311  1.00  0.00     0.047 C 
HETATM    4  C5  UNL     1       4.115  17.752  12.821  1.00  0.00     0.160 C 
HETATM    5  O2  UNL     1       3.293  17.836  11.641  1.00  0.00    -0.373 OA
HETATM    6  C6  UNL     1       3.989  17.104  10.601  1.00  0.00     0.167 C 
HETATM    7  C7  UNL     1       3.640  15.586  10.700  1.00  0.00     0.226 C 
HETATM    8  C8  UNL     1       2.232  15.447  11.124  1.00  0.00    -0.072 C 
HETATM    9  C9  UNL     1       1.164  15.503  11.674  1.00  0.00    -0.103 C 
HETATM   10  C10 UNL     1      -0.052  15.674  12.483  1.00  0.00     0.100 C 
HETATM   11  C11 UNL     1       0.153  15.105  13.904  1.00  0.00     0.014 C 
HETATM   12  C12 UNL     1      -1.122  14.286  14.366  1.00  0.00     0.000 C 
HETATM   13  C13 UNL     1      -2.338  15.184  14.621  1.00  0.00     0.006 C 
HETATM   14  C14 UNL     1      -2.028  16.662  14.730  1.00  0.00     0.001 C 
HETATM   15  C15 UNL     1      -0.690  17.027  15.375  1.00  0.00     0.014 C 
HETATM   16  C16 UNL     1       0.542  16.106  15.071  1.00  0.00     0.006 C 
HETATM   17  C17 UNL     1       1.911  16.935  14.950  1.00  0.00     0.034 C 
HETATM   18  C18 UNL     1       2.534  16.931  16.380  1.00  0.00     0.012 C 
HETATM   19  C19 UNL     1       1.564  16.186  17.288  1.00  0.00     0.044 C 
HETATM   20  C20 UNL     1       0.935  15.165  16.335  1.00  0.00     0.094 C 
HETATM   21  O4  UNL     1       1.950  14.208  15.922  1.00  0.00    -0.363 OA
HETATM   22  C21 UNL     1       2.832  13.614  16.887  1.00  0.00     0.263 C 
HETATM   23  C22 UNL     1       2.191  12.978  18.048  1.00  0.00    -0.080 C 
HETATM   24  C23 UNL     1       1.711  12.471  19.030  1.00  0.00    -0.093 C 
HETATM   25  C24 UNL     1       1.090  11.876  20.245  1.00  0.00     0.121 C 
HETATM   26  C31 UNL     1       0.048  10.794  19.874  1.00  0.00     0.190 C 
HETATM   27  O5  UNL     1      -1.083  11.439  19.283  1.00  0.00    -0.384 OA
HETATM   28  C32 UNL     1      -2.018  10.605  18.600  1.00  0.00     0.122 C 
HETATM   29  C33 UNL     1      -1.422   9.980  17.345  1.00  0.00     0.033 C 
HETATM   30  C34 UNL     1      -0.792  11.063  16.480  1.00  0.00     0.013 C 
HETATM   31  C35 UNL     1      -1.728  12.266  16.098  1.00  0.00    -0.025 C 
HETATM   32  C36 UNL     1      -2.624  11.756  14.940  1.00  0.00     0.016 C 
HETATM   33  C37 UNL     1      -0.758  13.422  15.613  1.00  0.00     0.031 C 
HETATM   34  C38 UNL     1      -0.278  14.351  16.723  1.00  0.00    -0.036 C 
HETATM   35  C39 UNL     1      -0.899  14.491  17.898  1.00  0.00     0.057 C 
HETATM   36  C40 UNL     1      -2.150  13.786  18.208  1.00  0.00     0.154 C 
HETATM   37  O6  UNL     1      -2.780  14.167  19.197  1.00  0.00    -0.293 OA
HETATM   38  C41 UNL     1      -2.673  12.694  17.277  1.00  0.00     0.071 C 
HETATM   39  C42 UNL     1      -3.170  11.509  18.142  1.00  0.00     0.045 C 
HETATM   40  C43 UNL     1       2.033  18.379  14.318  1.00  0.00     0.087 C 
HETATM   41  C44 UNL     1       1.564  19.501  15.288  1.00  0.00     0.049 C 
HETATM   42  C45 UNL     1       3.541  18.718  13.880  1.00  0.00     0.181 C 
ENDROOT
BRANCH  25  43
HETATM   43  C25 UNL     1       2.133  11.317  21.198  1.00  0.00    -0.040 A 
HETATM   44  C26 UNL     1       2.288   9.933  21.399  1.00  0.00     0.008 A 
HETATM   45  C27 UNL     1       3.240   9.445  22.298  1.00  0.00     0.001 A 
HETATM   46  C28 UNL     1       4.046  10.334  23.009  1.00  0.00     0.000 A 
HETATM   47  C29 UNL     1       3.908  11.706  22.819  1.00  0.00     0.001 A 
HETATM   48  C30 UNL     1       2.953  12.196  21.923  1.00  0.00     0.008 A 
ENDBRANCH  25  43
BRANCH  40  49
HETATM   49  O7  UNL     1       1.171  18.480  13.183  1.00  0.00    -0.387 OA
HETATM   50  H54 UNL     1       1.701  18.255  12.386  1.00  0.00     0.210 HD
ENDBRANCH  40  49
BRANCH  42  51
HETATM   51  O8  UNL     1       3.632  20.045  13.323  1.00  0.00    -0.390 OA
HETATM   52  H56 UNL     1       2.905  20.591  13.674  1.00  0.00     0.210 HD
ENDBRANCH  42  51
BRANCH   7  53
HETATM   53  O3  UNL     1       4.460  14.906  11.660  1.00  0.00    -0.381 OA
HETATM   54  H12 UNL     1       3.908  14.211  12.056  1.00  0.00     0.211 HD
ENDBRANCH   7  53
BRANCH   3  55
HETATM   55  C4  UNL     1       6.349  19.121  12.618  1.00  0.00     0.172 C 
BRANCH  55  56
HETATM   56  O1  UNL     1       7.201  18.992  13.748  1.00  0.00    -0.400 OA
HETATM   57  H8  UNL     1       7.804  18.244  13.544  1.00  0.00     0.209 HD
ENDBRANCH  55  56
ENDBRANCH   3  55
TORSDOF 6
ENDMDL
MODEL 6
REMARK minimizedAffinity -7.29021931
REMARK CNNscore 0.223832473
REMARK CNNaffinity 6.30914164
REMARK  6 active torsions:
REMARK  status: ('A' for Active; 'I' for Inactive)
REMARK    1  A    between atoms: C3_3  and  C4_4 
REMARK    2  A    between atoms: C4_4  and  O1_5 
REMARK    3  A    between atoms: C7_9  and  O3_10 
REMARK    4  A    between atoms: C24_28  and  C25_29 
REMARK    5  A    between atoms: C43_49  and  O7_51 
REMARK    6  A    between atoms: C45_52  and  O8_53 
ROOT
HETATM    1  C1  UNL     1       1.549   8.336  16.326  1.00  0.00     0.013 C 
HETATM    2  C2  UNL     1       1.787   9.839  16.334  1.00  0.00     0.023 C 
HETATM    3  C3  UNL     1       1.519  10.517  17.698  1.00  0.00     0.047 C 
HETATM    4  C5  UNL     1       0.788  11.819  17.317  1.00  0.00     0.160 C 
HETATM    5  O2  UNL     1       1.028  11.989  15.908  1.00  0.00    -0.373 OA
HETATM    6  C6  UNL     1       0.989  10.664  15.319  1.00  0.00     0.167 C 
HETATM    7  C7  UNL     1      -0.487  10.276  14.992  1.00  0.00     0.226 C 
HETATM    8  C8  UNL     1      -1.213  11.487  14.557  1.00  0.00    -0.072 C 
HETATM    9  C9  UNL     1      -1.705  12.577  14.439  1.00  0.00    -0.103 C 
HETATM   10  C10 UNL     1      -2.239  13.949  14.472  1.00  0.00     0.100 C 
HETATM   11  C11 UNL     1      -3.188  14.135  15.676  1.00  0.00     0.014 C 
HETATM   12  C12 UNL     1      -4.480  14.945  15.246  1.00  0.00     0.000 C 
HETATM   13  C13 UNL     1      -4.176  16.414  14.926  1.00  0.00     0.006 C 
HETATM   14  C14 UNL     1      -2.823  16.902  15.399  1.00  0.00     0.001 C 
HETATM   15  C15 UNL     1      -2.311  16.309  16.712  1.00  0.00     0.014 C 
HETATM   16  C16 UNL     1      -2.612  14.797  16.998  1.00  0.00     0.006 C 
HETATM   17  C17 UNL     1      -1.405  14.066  17.762  1.00  0.00     0.034 C 
HETATM   18  C18 UNL     1      -1.730  14.194  19.282  1.00  0.00     0.012 C 
HETATM   19  C19 UNL     1      -3.022  14.992  19.397  1.00  0.00     0.044 C 
HETATM   20  C20 UNL     1      -3.770  14.600  18.120  1.00  0.00     0.094 C 
HETATM   21  O4  UNL     1      -4.132  13.193  18.191  1.00  0.00    -0.363 OA
HETATM   22  C21 UNL     1      -4.721  12.648  19.382  1.00  0.00     0.263 C 
HETATM   23  C22 UNL     1      -5.905  13.349  19.901  1.00  0.00    -0.080 C 
HETATM   24  C23 UNL     1      -6.858  13.909  20.379  1.00  0.00    -0.093 C 
HETATM   25  C24 UNL     1      -8.020  14.638  20.959  1.00  0.00     0.121 C 
HETATM   26  C31 UNL     1      -9.164  14.788  19.929  1.00  0.00     0.190 C 
HETATM   27  O5  UNL     1      -8.747  15.709  18.920  1.00  0.00    -0.384 OA
HETATM   28  C32 UNL     1      -9.527  15.757  17.726  1.00  0.00     0.122 C 
HETATM   29  C33 UNL     1      -9.427  14.467  16.921  1.00  0.00     0.033 C 
HETATM   30  C34 UNL     1      -7.963  14.108  16.706  1.00  0.00     0.013 C 
HETATM   31  C35 UNL     1      -7.071  15.226  16.056  1.00  0.00    -0.025 C 
HETATM   32  C36 UNL     1      -7.383  15.188  14.537  1.00  0.00     0.016 C 
HETATM   33  C37 UNL     1      -5.573  14.799  16.350  1.00  0.00     0.031 C 
HETATM   34  C38 UNL     1      -5.010  15.332  17.663  1.00  0.00    -0.036 C 
HETATM   35  C39 UNL     1      -5.514  16.382  18.317  1.00  0.00     0.057 C 
HETATM   36  C40 UNL     1      -6.643  17.161  17.791  1.00  0.00     0.154 C 
HETATM   37  O6  UNL     1      -6.871  18.250  18.322  1.00  0.00    -0.293 OA
HETATM   38  C41 UNL     1      -7.427  16.663  16.578  1.00  0.00     0.071 C 
HETATM   39  C42 UNL     1      -8.938  16.872  16.852  1.00  0.00     0.045 C 
HETATM   40  C43 UNL     1       0.127  14.367  17.515  1.00  0.00     0.087 C 
HETATM   41  C44 UNL     1       0.606  15.665  18.225  1.00  0.00     0.049 C 
HETATM   42  C45 UNL     1       1.065  13.165  18.021  1.00  0.00     0.181 C 
ENDROOT
BRANCH  25  43
HETATM   43  C25 UNL     1      -8.522  13.979  22.234  1.00  0.00    -0.040 A 
HETATM   44  C26 UNL     1      -9.205  12.750  22.212  1.00  0.00     0.008 A 
HETATM   45  C27 UNL     1      -9.677  12.175  23.395  1.00  0.00     0.001 A 
HETATM   46  C28 UNL     1      -9.474  12.824  24.613  1.00  0.00     0.000 A 
HETATM   47  C29 UNL     1      -8.796  14.038  24.652  1.00  0.00     0.001 A 
HETATM   48  C30 UNL     1      -8.328  14.617  23.469  1.00  0.00     0.008 A 
ENDBRANCH  25  43
BRANCH  40  49
HETATM   49  O7  UNL     1       0.353  14.595  16.122  1.00  0.00    -0.387 OA
HETATM   50  H54 UNL     1       0.615  13.738  15.719  1.00  0.00     0.210 HD
ENDBRANCH  40  49
BRANCH  42  51
HETATM   51  O8  UNL     1       2.458  13.469  17.803  1.00  0.00    -0.390 OA
HETATM   52  H56 UNL     1       2.576  14.435  17.777  1.00  0.00     0.210 HD
ENDBRANCH  42  51
BRANCH   7  53
HETATM   53  O3  UNL     1      -1.169   9.738  16.133  1.00  0.00    -0.381 OA
HETATM   54  H12 UNL     1      -2.098  10.015  16.059  1.00  0.00     0.211 HD
ENDBRANCH   7  53
BRANCH   3  55
HETATM   55  C4  UNL     1       2.774  10.630  18.562  1.00  0.00     0.172 C 
BRANCH  55  56
HETATM   56  O1  UNL     1       2.738   9.790  19.708  1.00  0.00    -0.400 OA
HETATM   57  H8  UNL     1       2.621   8.878  19.367  1.00  0.00     0.209 HD
ENDBRANCH  55  56
ENDBRANCH   3  55
TORSDOF 6
ENDMDL
MODEL 7
REMARK minimizedAffinity -6.96119165
REMARK CNNscore 0.216788203
REMARK CNNaffinity 6.16536188
REMARK  6 active torsions:
REMARK  status: ('A' for Active; 'I' for Inactive)
REMARK    1  A    between atoms: C3_3  and  C4_4 
REMARK    2  A    between atoms: C4_4  and  O1_5 
REMARK    3  A    between atoms: C7_9  and  O3_10 
REMARK    4  A    between atoms: C24_28  and  C25_29 
REMARK    5  A    between atoms: C43_49  and  O7_51 
REMARK    6  A    between atoms: C45_52  and  O8_53 
ROOT
HETATM    1  C1  UNL     1     -14.397   9.107  12.900  1.00  0.00     0.013 C 
HETATM    2  C2  UNL     1     -13.613  10.100  13.745  1.00  0.00     0.023 C 
HETATM    3  C3  UNL     1     -12.508   9.460  14.616  1.00  0.00     0.047 C 
HETATM    4  C5  UNL     1     -12.628  10.204  15.960  1.00  0.00     0.160 C 
HETATM    5  O2  UNL     1     -13.418  11.374  15.675  1.00  0.00    -0.373 OA
HETATM    6  C6  UNL     1     -14.425  10.967  14.713  1.00  0.00     0.167 C 
HETATM    7  C7  UNL     1     -15.652  10.357  15.460  1.00  0.00     0.226 C 
HETATM    8  C8  UNL     1     -15.848  11.087  16.730  1.00  0.00    -0.072 C 
HETATM    9  C9  UNL     1     -15.740  11.620  17.801  1.00  0.00    -0.103 C 
HETATM   10  C10 UNL     1     -15.428  12.202  19.117  1.00  0.00     0.100 C 
HETATM   11  C11 UNL     1     -15.029  11.098  20.120  1.00  0.00     0.014 C 
HETATM   12  C12 UNL     1     -15.712  11.352  21.527  1.00  0.00     0.000 C 
HETATM   13  C13 UNL     1     -15.138  12.577  22.249  1.00  0.00     0.006 C 
HETATM   14  C14 UNL     1     -13.833  13.097  21.682  1.00  0.00     0.001 C 
HETATM   15  C15 UNL     1     -12.871  12.047  21.125  1.00  0.00     0.014 C 
HETATM   16  C16 UNL     1     -13.487  10.821  20.367  1.00  0.00     0.006 C 
HETATM   17  C17 UNL     1     -12.582  10.350  19.128  1.00  0.00     0.034 C 
HETATM   18  C18 UNL     1     -11.634   9.248  19.694  1.00  0.00     0.012 C 
HETATM   19  C19 UNL     1     -11.936   9.120  21.181  1.00  0.00     0.044 C 
HETATM   20  C20 UNL     1     -13.428   9.458  21.248  1.00  0.00     0.094 C 
HETATM   21  O4  UNL     1     -14.185   8.417  20.569  1.00  0.00    -0.363 OA
HETATM   22  C21 UNL     1     -13.907   7.030  20.818  1.00  0.00     0.263 C 
HETATM   23  C22 UNL     1     -13.903   6.610  22.228  1.00  0.00    -0.080 C 
HETATM   24  C23 UNL     1     -13.861   6.228  23.369  1.00  0.00    -0.093 C 
HETATM   25  C24 UNL     1     -13.790   5.791  24.791  1.00  0.00     0.121 C 
HETATM   26  C31 UNL     1     -15.097   6.122  25.549  1.00  0.00     0.190 C 
HETATM   27  O5  UNL     1     -15.181   7.540  25.708  1.00  0.00    -0.384 OA
HETATM   28  C32 UNL     1     -16.444   8.071  26.108  1.00  0.00     0.122 C 
HETATM   29  C33 UNL     1     -17.510   7.892  25.035  1.00  0.00     0.033 C 
HETATM   30  C34 UNL     1     -16.995   8.423  23.704  1.00  0.00     0.013 C 
HETATM   31  C35 UNL     1     -16.474   9.905  23.712  1.00  0.00    -0.025 C 
HETATM   32  C36 UNL     1     -17.740  10.800  23.666  1.00  0.00     0.016 C 
HETATM   33  C37 UNL     1     -15.608  10.058  22.393  1.00  0.00     0.031 C 
HETATM   34  C38 UNL     1     -14.134   9.705  22.561  1.00  0.00    -0.036 C 
HETATM   35  C39 UNL     1     -13.504   9.679  23.739  1.00  0.00     0.057 C 
HETATM   36  C40 UNL     1     -14.176  10.046  24.993  1.00  0.00     0.154 C 
HETATM   37  O6  UNL     1     -13.461  10.241  25.978  1.00  0.00    -0.293 OA
HETATM   38  C41 UNL     1     -15.688  10.262  25.024  1.00  0.00     0.071 C 
HETATM   39  C42 UNL     1     -16.253   9.582  26.296  1.00  0.00     0.045 C 
HETATM   40  C43 UNL     1     -11.767  11.326  18.189  1.00  0.00     0.087 C 
HETATM   41  C44 UNL     1     -10.439  11.812  18.836  1.00  0.00     0.049 C 
HETATM   42  C45 UNL     1     -11.398  10.640  16.784  1.00  0.00     0.181 C 
ENDROOT
BRANCH  25  43
HETATM   43  C25 UNL     1     -13.453   4.314  24.913  1.00  0.00    -0.040 A 
HETATM   44  C26 UNL     1     -12.573   3.678  24.020  1.00  0.00     0.008 A 
HETATM   45  C27 UNL     1     -12.297   2.314  24.140  1.00  0.00     0.001 A 
HETATM   46  C28 UNL     1     -12.901   1.567  25.151  1.00  0.00     0.000 A 
HETATM   47  C29 UNL     1     -13.772   2.183  26.046  1.00  0.00     0.001 A 
HETATM   48  C30 UNL     1     -14.052   3.547  25.924  1.00  0.00     0.008 A 
ENDBRANCH  25  43
BRANCH  40  49
HETATM   49  O7  UNL     1     -12.528  12.513  17.956  1.00  0.00    -0.387 OA
HETATM   50  H54 UNL     1     -13.033  12.384  17.123  1.00  0.00     0.210 HD
ENDBRANCH  40  49
BRANCH  42  51
HETATM   51  O8  UNL     1     -10.639  11.541  15.952  1.00  0.00    -0.390 OA
HETATM   52  H56 UNL     1     -10.177  12.187  16.516  1.00  0.00     0.210 HD
ENDBRANCH  42  51
BRANCH   7  53
HETATM   53  O3  UNL     1     -15.459   8.971  15.771  1.00  0.00    -0.381 OA
HETATM   54  H12 UNL     1     -15.914   8.809  16.615  1.00  0.00     0.211 HD
ENDBRANCH   7  53
BRANCH   3  55
HETATM   55  C4  UNL     1     -11.142   9.445  13.930  1.00  0.00     0.172 C 
BRANCH  55  56
HETATM   56  O1  UNL     1     -10.188   8.638  14.607  1.00  0.00    -0.400 OA
HETATM   57  H8  UNL     1     -10.577   7.738  14.644  1.00  0.00     0.209 HD
ENDBRANCH  55  56
ENDBRANCH   3  55
TORSDOF 6
ENDMDL
MODEL 8
REMARK minimizedAffinity -7.97672176
REMARK CNNscore 0.21372205
REMARK CNNaffinity 7.140728
REMARK  6 active torsions:
REMARK  status: ('A' for Active; 'I' for Inactive)
REMARK    1  A    between atoms: C3_3  and  C4_4 
REMARK    2  A    between atoms: C4_4  and  O1_5 
REMARK    3  A    between atoms: C7_9  and  O3_10 
REMARK    4  A    between atoms: C24_28  and  C25_29 
REMARK    5  A    between atoms: C43_49  and  O7_51 
REMARK    6  A    between atoms: C45_52  and  O8_53 
ROOT
HETATM    1  C1  UNL     1     -13.705  -7.218   0.167  1.00  0.00     0.013 C 
HETATM    2  C2  UNL     1     -13.288  -8.676   0.038  1.00  0.00     0.023 C 
HETATM    3  C3  UNL     1     -13.426  -9.493   1.343  1.00  0.00     0.047 C 
HETATM    4  C5  UNL     1     -12.146 -10.350   1.371  1.00  0.00     0.160 C 
HETATM    5  O2  UNL     1     -11.621 -10.289   0.032  1.00  0.00    -0.373 OA
HETATM    6  C6  UNL     1     -11.857  -8.939  -0.442  1.00  0.00     0.167 C 
HETATM    7  C7  UNL     1     -10.696  -8.005   0.025  1.00  0.00     0.226 C 
HETATM    8  C8  UNL     1      -9.432  -8.769   0.004  1.00  0.00    -0.072 C 
HETATM    9  C9  UNL     1      -8.547  -9.570   0.140  1.00  0.00    -0.103 C 
HETATM   10  C10 UNL     1      -7.584 -10.647   0.424  1.00  0.00     0.100 C 
HETATM   11  C11 UNL     1      -7.310 -10.746   1.940  1.00  0.00     0.014 C 
HETATM   12  C12 UNL     1      -5.763 -10.949   2.214  1.00  0.00     0.000 C 
HETATM   13  C13 UNL     1      -5.261 -12.328   1.769  1.00  0.00     0.006 C 
HETATM   14  C14 UNL     1      -6.350 -13.342   1.489  1.00  0.00     0.001 C 
HETATM   15  C15 UNL     1      -7.597 -13.257   2.369  1.00  0.00     0.014 C 
HETATM   16  C16 UNL     1      -8.103 -11.831   2.783  1.00  0.00     0.006 C 
HETATM   17  C17 UNL     1      -9.704 -11.742   2.840  1.00  0.00     0.034 C 
HETATM   18  C18 UNL     1     -10.092 -12.071   4.315  1.00  0.00     0.012 C 
HETATM   19  C19 UNL     1      -8.799 -12.380   5.058  1.00  0.00     0.044 C 
HETATM   20  C20 UNL     1      -7.781 -11.490   4.338  1.00  0.00     0.094 C 
HETATM   21  O4  UNL     1      -8.098 -10.094   4.597  1.00  0.00    -0.363 OA
HETATM   22  C21 UNL     1      -8.399  -9.647   5.928  1.00  0.00     0.263 C 
HETATM   23  C22 UNL     1      -7.416  -9.990   6.967  1.00  0.00    -0.080 C 
HETATM   24  C23 UNL     1      -6.654 -10.274   7.855  1.00  0.00    -0.093 C 
HETATM   25  C24 UNL     1      -5.706 -10.664   8.936  1.00  0.00     0.121 C 
HETATM   26  C31 UNL     1      -4.268 -10.186   8.624  1.00  0.00     0.190 C 
HETATM   27  O5  UNL     1      -3.762 -10.958   7.533  1.00  0.00    -0.384 OA
HETATM   28  C32 UNL     1      -2.578 -10.477   6.895  1.00  0.00     0.122 C 
HETATM   29  C33 UNL     1      -2.812  -9.162   6.164  1.00  0.00     0.033 C 
HETATM   30  C34 UNL     1      -4.016  -9.293   5.242  1.00  0.00     0.013 C 
HETATM   31  C35 UNL     1      -3.970 -10.484   4.219  1.00  0.00    -0.025 C 
HETATM   32  C36 UNL     1      -3.043 -10.019   3.066  1.00  0.00     0.016 C 
HETATM   33  C37 UNL     1      -5.463 -10.673   3.720  1.00  0.00     0.031 C 
HETATM   34  C38 UNL     1      -6.294 -11.634   4.563  1.00  0.00    -0.036 C 
HETATM   35  C39 UNL     1      -5.769 -12.560   5.371  1.00  0.00     0.057 C 
HETATM   36  C40 UNL     1      -4.320 -12.770   5.481  1.00  0.00     0.154 C 
HETATM   37  O6  UNL     1      -3.941 -13.800   6.043  1.00  0.00    -0.293 OA
HETATM   38  C41 UNL     1      -3.346 -11.786   4.835  1.00  0.00     0.071 C 
HETATM   39  C42 UNL     1      -2.192 -11.514   5.833  1.00  0.00     0.045 C 
HETATM   40  C43 UNL     1     -10.680 -12.493   1.849  1.00  0.00     0.087 C 
HETATM   41  C44 UNL     1     -10.858 -13.997   2.207  1.00  0.00     0.049 C 
HETATM   42  C45 UNL     1     -12.142 -11.826   1.825  1.00  0.00     0.181 C 
ENDROOT
BRANCH  25  43
HETATM   43  C25 UNL     1      -6.160 -10.159  10.296  1.00  0.00    -0.040 A 
HETATM   44  C26 UNL     1      -6.507 -11.040  11.336  1.00  0.00     0.008 A 
HETATM   45  C27 UNL     1      -6.943 -10.551  12.569  1.00  0.00     0.001 A 
HETATM   46  C28 UNL     1      -7.041  -9.175  12.778  1.00  0.00     0.000 A 
HETATM   47  C29 UNL     1      -6.697  -8.290  11.761  1.00  0.00     0.001 A 
HETATM   48  C30 UNL     1      -6.266  -8.778  10.524  1.00  0.00     0.008 A 
ENDBRANCH  25  43
BRANCH  40  49
HETATM   49  O7  UNL     1     -10.128 -12.483   0.532  1.00  0.00    -0.387 OA
HETATM   50  H54 UNL     1     -10.498 -11.705   0.060  1.00  0.00     0.210 HD
ENDBRANCH  40  49
BRANCH  42  51
HETATM   51  O8  UNL     1     -13.020 -12.538   0.930  1.00  0.00    -0.390 OA
HETATM   52  H56 UNL     1     -12.709 -13.457   0.837  1.00  0.00     0.210 HD
ENDBRANCH  42  51
BRANCH   7  53
HETATM   53  O3  UNL     1     -10.898  -7.520   1.359  1.00  0.00    -0.381 OA
HETATM   54  H12 UNL     1     -10.018  -7.438   1.762  1.00  0.00     0.211 HD
ENDBRANCH   7  53
BRANCH   3  55
HETATM   55  C4  UNL     1     -14.769 -10.215   1.454  1.00  0.00     0.172 C 
BRANCH  55  56
HETATM   56  O1  UNL     1     -15.696  -9.538   2.293  1.00  0.00    -0.400 OA
HETATM   57  H8  UNL     1     -15.803  -8.643   1.906  1.00  0.00     0.209 HD
ENDBRANCH  55  56
ENDBRANCH   3  55
TORSDOF 6
ENDMDL
MODEL 9
REMARK minimizedAffinity -8.01766682
REMARK CNNscore 0.213219583
REMARK CNNaffinity 6.43791533
REMARK  6 active torsions:
REMARK  status: ('A' for Active; 'I' for Inactive)
REMARK    1  A    between atoms: C3_3  and  C4_4 
REMARK    2  A    between atoms: C4_4  and  O1_5 
REMARK    3  A    between atoms: C7_9  and  O3_10 
REMARK    4  A    between atoms: C24_28  and  C25_29 
REMARK    5  A    between atoms: C43_49  and  O7_51 
REMARK    6  A    between atoms: C45_52  and  O8_53 
ROOT
HETATM    1  C1  UNL     1     -13.371  -6.886  16.578  1.00  0.00     0.013 C 
HETATM    2  C2  UNL     1     -14.014  -6.708  15.210  1.00  0.00     0.023 C 
HETATM    3  C3  UNL     1     -13.385  -5.585  14.354  1.00  0.00     0.047 C 
HETATM    4  C5  UNL     1     -14.603  -4.891  13.716  1.00  0.00     0.160 C 
HETATM    5  O2  UNL     1     -15.697  -5.811  13.889  1.00  0.00    -0.373 OA
HETATM    6  C6  UNL     1     -15.519  -6.422  15.192  1.00  0.00     0.167 C 
HETATM    7  C7  UNL     1     -16.150  -5.511  16.292  1.00  0.00     0.226 C 
HETATM    8  C8  UNL     1     -17.365  -4.873  15.744  1.00  0.00    -0.072 C 
HETATM    9  C9  UNL     1     -18.182  -4.278  15.093  1.00  0.00    -0.103 C 
HETATM   10  C10 UNL     1     -19.035  -3.500  14.182  1.00  0.00     0.100 C 
HETATM   11  C11 UNL     1     -18.550  -2.036  14.097  1.00  0.00     0.014 C 
HETATM   12  C12 UNL     1     -19.780  -1.039  14.142  1.00  0.00     0.000 C 
HETATM   13  C13 UNL     1     -20.637  -1.101  12.872  1.00  0.00     0.006 C 
HETATM   14  C14 UNL     1     -19.989  -1.809  11.701  1.00  0.00     0.001 C 
HETATM   15  C15 UNL     1     -18.475  -1.646  11.565  1.00  0.00     0.014 C 
HETATM   16  C16 UNL     1     -17.622  -1.616  12.881  1.00  0.00     0.006 C 
HETATM   17  C17 UNL     1     -16.203  -2.344  12.708  1.00  0.00     0.034 C 
HETATM   18  C18 UNL     1     -15.202  -1.222  12.291  1.00  0.00     0.012 C 
HETATM   19  C19 UNL     1     -16.000   0.070  12.181  1.00  0.00     0.044 C 
HETATM   20  C20 UNL     1     -17.092  -0.123  13.238  1.00  0.00     0.094 C 
HETATM   21  O4  UNL     1     -16.482  -0.135  14.559  1.00  0.00    -0.363 OA
HETATM   22  C21 UNL     1     -15.509   0.856  14.925  1.00  0.00     0.263 C 
HETATM   23  C22 UNL     1     -15.902   2.259  14.724  1.00  0.00    -0.080 C 
HETATM   24  C23 UNL     1     -16.170   3.420  14.549  1.00  0.00    -0.093 C 
HETATM   25  C24 UNL     1     -16.520   4.845  14.297  1.00  0.00     0.121 C 
HETATM   26  C31 UNL     1     -17.838   5.237  15.007  1.00  0.00     0.190 C 
HETATM   27  O5  UNL     1     -18.920   4.575  14.350  1.00  0.00    -0.384 OA
HETATM   28  C32 UNL     1     -20.176   4.559  15.029  1.00  0.00     0.122 C 
HETATM   29  C33 UNL     1     -20.131   3.727  16.304  1.00  0.00     0.033 C 
HETATM   30  C34 UNL     1     -19.562   2.349  15.998  1.00  0.00     0.013 C 
HETATM   31  C35 UNL     1     -20.278   1.550  14.851  1.00  0.00    -0.025 C 
HETATM   32  C36 UNL     1     -21.567   0.961  15.484  1.00  0.00     0.016 C 
HETATM   33  C37 UNL     1     -19.264   0.405  14.433  1.00  0.00     0.031 C 
HETATM   34  C38 UNL     1     -18.285   0.800  13.333  1.00  0.00    -0.036 C 
HETATM   35  C39 UNL     1     -18.484   1.816  12.488  1.00  0.00     0.057 C 
HETATM   36  C40 UNL     1     -19.711   2.624  12.513  1.00  0.00     0.154 C 
HETATM   37  O6  UNL     1     -19.920   3.360  11.547  1.00  0.00    -0.293 OA
HETATM   38  C41 UNL     1     -20.714   2.469  13.655  1.00  0.00     0.071 C 
HETATM   39  C42 UNL     1     -21.182   3.881  14.090  1.00  0.00     0.045 C 
HETATM   40  C43 UNL     1     -15.957  -3.635  11.829  1.00  0.00     0.087 C 
HETATM   41  C44 UNL     1     -15.858  -3.316  10.310  1.00  0.00     0.049 C 
HETATM   42  C45 UNL     1     -14.610  -4.402  12.251  1.00  0.00     0.181 C 
ENDROOT
BRANCH  25  43
HETATM   43  C25 UNL     1     -15.392   5.784  14.693  1.00  0.00    -0.040 A 
HETATM   44  C26 UNL     1     -14.111   5.685  14.123  1.00  0.00     0.008 A 
HETATM   45  C27 UNL     1     -13.085   6.546  14.521  1.00  0.00     0.001 A 
HETATM   46  C28 UNL     1     -13.326   7.513  15.497  1.00  0.00     0.000 A 
HETATM   47  C29 UNL     1     -14.590   7.626  16.068  1.00  0.00     0.001 A 
HETATM   48  C30 UNL     1     -15.617   6.763  15.674  1.00  0.00     0.008 A 
ENDBRANCH  25  43
BRANCH  40  49
HETATM   49  O7  UNL     1     -17.071  -4.520  11.955  1.00  0.00    -0.387 OA
HETATM   50  H54 UNL     1     -16.864  -5.159  12.673  1.00  0.00     0.210 HD
ENDBRANCH  40  49
BRANCH  42  51
HETATM   51  O8  UNL     1     -14.396  -5.564  11.425  1.00  0.00    -0.390 OA
HETATM   52  H56 UNL     1     -14.848  -5.438  10.570  1.00  0.00     0.210 HD
ENDBRANCH  42  51
BRANCH   7  53
HETATM   53  O3  UNL     1     -15.255  -4.472  16.710  1.00  0.00    -0.381 OA
HETATM   54  H12 UNL     1     -15.804  -3.701  16.926  1.00  0.00     0.211 HD
ENDBRANCH   7  53
BRANCH   3  55
HETATM   55  C4  UNL     1     -12.284  -6.091  13.423  1.00  0.00     0.172 C 
BRANCH  55  56
HETATM   56  O1  UNL     1     -11.200  -6.691  14.119  1.00  0.00    -0.400 OA
HETATM   57  H8  UNL     1     -11.590  -7.424  14.641  1.00  0.00     0.209 HD
ENDBRANCH  55  56
ENDBRANCH   3  55
TORSDOF 6
ENDMDL
