MODEL 1
REMARK minimizedAffinity -9.12414169
REMARK  6 active torsions:
REMARK  status: ('A' for Active; 'I' for Inactive)
REMARK    1  A    between atoms: C2_2  and  C30_32 
REMARK    2  A    between atoms: C3_3  and  C4_4 
REMARK    3  A    between atoms: C4_4  and  C5_5 
REMARK    4  A    between atoms: C5_5  and  C6_6 
REMARK    5  A    between atoms: C6_6  and  C8_8 
REMARK    6  A    between atoms: C30_32  and  O4_34 
ROOT
HETATM    1  C8  UNL     1       6.750   9.011  14.493  1.00  0.00    -0.002 C 
HETATM    2  C9  UNL     1       7.777   8.209  13.692  1.00  0.00     0.007 C 
HETATM    3  C10 UNL     1       6.911   7.356  12.783  1.00  0.00     0.015 C 
HETATM    4  C11 UNL     1       5.868   8.338  12.199  1.00  0.00    -0.005 C 
HETATM    5  C12 UNL     1       6.513   9.062  10.981  1.00  0.00     0.021 C 
HETATM    6  C13 UNL     1       4.608   7.609  11.682  1.00  0.00    -0.000 C 
HETATM    7  C14 UNL     1       3.340   7.939  12.031  1.00  0.00    -0.060 C 
HETATM    8  C15 UNL     1       3.113   8.994  13.094  1.00  0.00     0.036 C 
HETATM    9  C16 UNL     1       4.253   9.041  14.097  1.00  0.00     0.015 C 
HETATM   10  C17 UNL     1       5.615   9.343  13.433  1.00  0.00    -0.028 C 
HETATM   11  C18 UNL     1       5.614  10.824  12.985  1.00  0.00     0.016 C 
HETATM   12  C19 UNL     1       2.064   7.307  11.430  1.00  0.00    -0.014 C 
HETATM   13  C20 UNL     1       1.469   6.347  12.498  1.00  0.00     0.020 C 
HETATM   14  C21 UNL     1       1.007   8.411  11.122  1.00  0.00     0.021 C 
HETATM   15  C22 UNL     1       0.065   8.035   9.993  1.00  0.00     0.080 C 
HETATM   16  C23 UNL     1       0.853   7.919   8.709  1.00  0.00     0.135 C 
HETATM   17  O1  UNL     1       0.373   8.326   7.651  1.00  0.00    -0.297 OA
HETATM   18  C24 UNL     1       2.247   7.267   8.784  1.00  0.00     0.018 C 
HETATM   19  C25 UNL     1       2.355   6.307   7.577  1.00  0.00     0.023 C 
HETATM   20  C26 UNL     1       3.291   8.378   8.603  1.00  0.00     0.023 C 
HETATM   21  C27 UNL     1       2.351   6.467  10.134  1.00  0.00     0.020 C 
HETATM   22  C28 UNL     1       3.622   5.639  10.314  1.00  0.00     0.090 C 
HETATM   23  C29 UNL     1       4.811   6.464  10.724  1.00  0.00     0.157 C 
HETATM   24  O2  UNL     1       5.928   6.150  10.318  1.00  0.00    -0.293 OA
ENDROOT
BRANCH   1  25
HETATM   25  C6  UNL     1       7.369  10.164  15.333  1.00  0.00    -0.014 C 
HETATM   26  C7  UNL     1       8.604  10.776  14.648  1.00  0.00     0.010 C 
BRANCH  25  27
HETATM   27  C5  UNL     1       7.733   9.765  16.786  1.00  0.00     0.008 C 
BRANCH  27  28
HETATM   28  C4  UNL     1       8.129  10.923  17.710  1.00  0.00     0.028 C 
BRANCH  28  29
HETATM   29  C3  UNL     1       9.558  10.784  18.165  1.00  0.00    -0.013 C 
HETATM   30  C2  UNL     1      10.086  11.201  19.334  1.00  0.00     0.008 C 
HETATM   31  C1  UNL     1       9.329  11.853  20.452  1.00  0.00     0.055 C 
BRANCH  30  32
HETATM   32  C30 UNL     1      11.535  11.020  19.621  1.00  0.00     0.171 C 
HETATM   33  O3  UNL     1      12.146  11.565  20.525  1.00  0.00    -0.646 OA
BRANCH  32  34
HETATM   34  O4  UNL     1      12.162  10.181  18.781  1.00  0.00    -0.773 OA
HETATM   35  H44 UNL     1      13.085  10.180  19.108  1.00  0.00     0.167 HD
ENDBRANCH  32  34
ENDBRANCH  30  32
ENDBRANCH  28  29
ENDBRANCH  27  28
ENDBRANCH  25  27
ENDBRANCH   1  25
TORSDOF 6
ENDMDL
MODEL 2
REMARK minimizedAffinity -9.00833797
REMARK  6 active torsions:
REMARK  status: ('A' for Active; 'I' for Inactive)
REMARK    1  A    between atoms: C2_2  and  C30_32 
REMARK    2  A    between atoms: C3_3  and  C4_4 
REMARK    3  A    between atoms: C4_4  and  C5_5 
REMARK    4  A    between atoms: C5_5  and  C6_6 
REMARK    5  A    between atoms: C6_6  and  C8_8 
REMARK    6  A    between atoms: C30_32  and  O4_34 
ROOT
HETATM    1  C8  UNL     1      -0.836   5.933  13.038  1.00  0.00    -0.002 C 
HETATM    2  C9  UNL     1      -0.781   6.205  14.542  1.00  0.00     0.007 C 
HETATM    3  C10 UNL     1       0.665   6.609  14.765  1.00  0.00     0.015 C 
HETATM    4  C11 UNL     1       0.962   7.634  13.645  1.00  0.00    -0.005 C 
HETATM    5  C12 UNL     1       0.452   9.027  14.115  1.00  0.00     0.021 C 
HETATM    6  C13 UNL     1       2.476   7.770  13.369  1.00  0.00    -0.000 C 
HETATM    7  C14 UNL     1       3.038   7.671  12.139  1.00  0.00    -0.060 C 
HETATM    8  C15 UNL     1       2.178   7.268  10.959  1.00  0.00     0.036 C 
HETATM    9  C16 UNL     1       1.022   6.377  11.381  1.00  0.00     0.015 C 
HETATM   10  C17 UNL     1       0.095   7.058  12.414  1.00  0.00    -0.028 C 
HETATM   11  C18 UNL     1      -0.696   8.173  11.690  1.00  0.00     0.016 C 
HETATM   12  C19 UNL     1       4.529   7.928  11.825  1.00  0.00    -0.014 C 
HETATM   13  C20 UNL     1       5.204   6.549  11.586  1.00  0.00     0.020 C 
HETATM   14  C21 UNL     1       4.669   8.772  10.521  1.00  0.00     0.021 C 
HETATM   15  C22 UNL     1       5.938   9.605  10.484  1.00  0.00     0.080 C 
HETATM   16  C23 UNL     1       5.883  10.640  11.583  1.00  0.00     0.135 C 
HETATM   17  O1  UNL     1       6.309  11.778  11.380  1.00  0.00    -0.297 OA
HETATM   18  C24 UNL     1       5.298  10.209  12.941  1.00  0.00     0.018 C 
HETATM   19  C25 UNL     1       6.229  10.788  14.031  1.00  0.00     0.023 C 
HETATM   20  C26 UNL     1       3.922  10.875  13.087  1.00  0.00     0.023 C 
HETATM   21  C27 UNL     1       5.288   8.638  13.003  1.00  0.00     0.020 C 
HETATM   22  C28 UNL     1       4.866   8.033  14.341  1.00  0.00     0.090 C 
HETATM   23  C29 UNL     1       3.377   8.039  14.547  1.00  0.00     0.157 C 
HETATM   24  O2  UNL     1       2.929   8.202  15.680  1.00  0.00    -0.293 OA
ENDROOT
BRANCH   1  25
HETATM   25  C6  UNL     1      -2.277   5.744  12.485  1.00  0.00    -0.014 C 
HETATM   26  C7  UNL     1      -3.310   6.569  13.275  1.00  0.00     0.010 C 
BRANCH  25  27
HETATM   27  C5  UNL     1      -2.742   4.267  12.420  1.00  0.00     0.008 C 
BRANCH  27  28
HETATM   28  C4  UNL     1      -3.921   3.986  11.480  1.00  0.00     0.028 C 
BRANCH  28  29
HETATM   29  C3  UNL     1      -5.195   3.797  12.258  1.00  0.00    -0.013 C 
HETATM   30  C2  UNL     1      -6.081   2.786  12.140  1.00  0.00     0.008 C 
HETATM   31  C1  UNL     1      -5.941   1.604  11.227  1.00  0.00     0.055 C 
BRANCH  30  32
HETATM   32  C30 UNL     1      -7.321   2.761  12.963  1.00  0.00     0.171 C 
HETATM   33  O3  UNL     1      -7.545   3.485  13.918  1.00  0.00    -0.646 OA
BRANCH  32  34
HETATM   34  O4  UNL     1      -8.221   1.843  12.574  1.00  0.00    -0.773 OA
HETATM   35  H44 UNL     1      -8.955   1.962  13.210  1.00  0.00     0.167 HD
ENDBRANCH  32  34
ENDBRANCH  30  32
ENDBRANCH  28  29
ENDBRANCH  27  28
ENDBRANCH  25  27
ENDBRANCH   1  25
TORSDOF 6
ENDMDL
MODEL 3
REMARK minimizedAffinity -8.82428646
REMARK  6 active torsions:
REMARK  status: ('A' for Active; 'I' for Inactive)
REMARK    1  A    between atoms: C2_2  and  C30_32 
REMARK    2  A    between atoms: C3_3  and  C4_4 
REMARK    3  A    between atoms: C4_4  and  C5_5 
REMARK    4  A    between atoms: C5_5  and  C6_6 
REMARK    5  A    between atoms: C6_6  and  C8_8 
REMARK    6  A    between atoms: C30_32  and  O4_34 
ROOT
HETATM    1  C8  UNL     1      -6.083   5.244  13.059  1.00  0.00    -0.002 C 
HETATM    2  C9  UNL     1      -5.331   3.917  12.955  1.00  0.00     0.007 C 
HETATM    3  C10 UNL     1      -3.895   4.354  12.730  1.00  0.00     0.015 C 
HETATM    4  C11 UNL     1      -3.649   5.457  13.786  1.00  0.00    -0.005 C 
HETATM    5  C12 UNL     1      -3.277   4.767  15.130  1.00  0.00     0.021 C 
HETATM    6  C13 UNL     1      -2.470   6.378  13.402  1.00  0.00    -0.000 C 
HETATM    7  C14 UNL     1      -2.539   7.731  13.370  1.00  0.00    -0.060 C 
HETATM    8  C15 UNL     1      -3.875   8.412  13.586  1.00  0.00     0.036 C 
HETATM    9  C16 UNL     1      -5.033   7.544  13.125  1.00  0.00     0.015 C 
HETATM   10  C17 UNL     1      -5.086   6.185  13.860  1.00  0.00    -0.028 C 
HETATM   11  C18 UNL     1      -5.530   6.445  15.319  1.00  0.00     0.016 C 
HETATM   12  C19 UNL     1      -1.341   8.672  13.113  1.00  0.00    -0.014 C 
HETATM   13  C20 UNL     1      -1.483   9.229  11.669  1.00  0.00     0.020 C 
HETATM   14  C21 UNL     1      -1.374   9.874  14.105  1.00  0.00     0.021 C 
HETATM   15  C22 UNL     1       0.001  10.451  14.389  1.00  0.00     0.080 C 
HETATM   16  C23 UNL     1       0.835   9.413  15.103  1.00  0.00     0.135 C 
HETATM   17  O1  UNL     1       1.593   9.751  16.013  1.00  0.00    -0.297 OA
HETATM   18  C24 UNL     1       0.707   7.950  14.637  1.00  0.00     0.018 C 
HETATM   19  C25 UNL     1       2.140   7.377  14.572  1.00  0.00     0.023 C 
HETATM   20  C26 UNL     1      -0.065   7.183  15.721  1.00  0.00     0.023 C 
HETATM   21  C27 UNL     1       0.044   7.938  13.211  1.00  0.00     0.020 C 
HETATM   22  C28 UNL     1      -0.035   6.572  12.532  1.00  0.00     0.090 C 
HETATM   23  C29 UNL     1      -1.160   5.720  13.051  1.00  0.00     0.157 C 
HETATM   24  O2  UNL     1      -1.009   4.502  13.117  1.00  0.00    -0.293 OA
ENDROOT
BRANCH   1  25
HETATM   25  C6  UNL     1      -7.552   5.099  13.549  1.00  0.00    -0.014 C 
HETATM   26  C7  UNL     1      -8.190   3.782  13.071  1.00  0.00     0.010 C 
BRANCH  25  27
HETATM   27  C5  UNL     1      -8.470   6.285  13.159  1.00  0.00     0.008 C 
BRANCH  27  28
HETATM   28  C4  UNL     1      -9.771   6.405  13.962  1.00  0.00     0.028 C 
BRANCH  28  29
HETATM   29  C3  UNL     1     -10.800   7.199  13.202  1.00  0.00    -0.013 C 
HETATM   30  C2  UNL     1     -11.200   8.464  13.447  1.00  0.00     0.008 C 
HETATM   31  C1  UNL     1     -10.649   9.363  14.515  1.00  0.00     0.055 C 
BRANCH  30  32
HETATM   32  C30 UNL     1     -12.261   9.101  12.621  1.00  0.00     0.171 C 
HETATM   33  O3  UNL     1     -13.438   9.181  12.930  1.00  0.00    -0.646 OA
BRANCH  32  34
HETATM   34  O4  UNL     1     -11.823   9.603  11.455  1.00  0.00    -0.773 OA
HETATM   35  H44 UNL     1     -12.634   9.974  11.050  1.00  0.00     0.167 HD
ENDBRANCH  32  34
ENDBRANCH  30  32
ENDBRANCH  28  29
ENDBRANCH  27  28
ENDBRANCH  25  27
ENDBRANCH   1  25
TORSDOF 6
ENDMDL
MODEL 4
REMARK minimizedAffinity -8.78758717
REMARK  6 active torsions:
REMARK  status: ('A' for Active; 'I' for Inactive)
REMARK    1  A    between atoms: C2_2  and  C30_32 
REMARK    2  A    between atoms: C3_3  and  C4_4 
REMARK    3  A    between atoms: C4_4  and  C5_5 
REMARK    4  A    between atoms: C5_5  and  C6_6 
REMARK    5  A    between atoms: C6_6  and  C8_8 
REMARK    6  A    between atoms: C30_32  and  O4_34 
ROOT
HETATM    1  C8  UNL     1      -4.662   7.032  14.828  1.00  0.00    -0.002 C 
HETATM    2  C9  UNL     1      -4.034   7.654  16.076  1.00  0.00     0.007 C 
HETATM    3  C10 UNL     1      -2.553   7.382  15.886  1.00  0.00     0.015 C 
HETATM    4  C11 UNL     1      -2.263   7.791  14.423  1.00  0.00    -0.005 C 
HETATM    5  C12 UNL     1      -2.032   9.329  14.386  1.00  0.00     0.021 C 
HETATM    6  C13 UNL     1      -0.983   7.122  13.875  1.00  0.00    -0.000 C 
HETATM    7  C14 UNL     1      -0.922   6.434  12.709  1.00  0.00    -0.060 C 
HETATM    8  C15 UNL     1      -2.198   6.167  11.936  1.00  0.00     0.036 C 
HETATM    9  C16 UNL     1      -3.405   6.076  12.853  1.00  0.00     0.015 C 
HETATM   10  C17 UNL     1      -3.626   7.368  13.673  1.00  0.00    -0.028 C 
HETATM   11  C18 UNL     1      -4.124   8.470  12.708  1.00  0.00     0.016 C 
HETATM   12  C19 UNL     1       0.372   5.867  12.082  1.00  0.00    -0.014 C 
HETATM   13  C20 UNL     1       0.363   4.328  12.297  1.00  0.00     0.020 C 
HETATM   14  C21 UNL     1       0.398   6.147  10.549  1.00  0.00     0.021 C 
HETATM   15  C22 UNL     1       1.804   6.244   9.985  1.00  0.00     0.080 C 
HETATM   16  C23 UNL     1       2.496   7.445  10.584  1.00  0.00     0.135 C 
HETATM   17  O1  UNL     1       3.231   8.146   9.887  1.00  0.00    -0.297 OA
HETATM   18  C24 UNL     1       2.256   7.735  12.078  1.00  0.00     0.018 C 
HETATM   19  C25 UNL     1       3.630   8.092  12.689  1.00  0.00     0.023 C 
HETATM   20  C26 UNL     1       1.357   8.977  12.172  1.00  0.00     0.023 C 
HETATM   21  C27 UNL     1       1.674   6.438  12.750  1.00  0.00     0.020 C 
HETATM   22  C28 UNL     1       1.504   6.501  14.267  1.00  0.00     0.090 C 
HETATM   23  C29 UNL     1       0.276   7.258  14.692  1.00  0.00     0.157 C 
HETATM   24  O2  UNL     1       0.308   7.919  15.727  1.00  0.00    -0.293 OA
ENDROOT
BRANCH   1  25
HETATM   25  C6  UNL     1      -6.163   7.390  14.634  1.00  0.00    -0.014 C 
HETATM   26  C7  UNL     1      -6.912   7.478  15.976  1.00  0.00     0.010 C 
BRANCH  25  27
HETATM   27  C5  UNL     1      -6.925   6.432  13.682  1.00  0.00     0.008 C 
BRANCH  27  28
HETATM   28  C4  UNL     1      -6.724   4.936  13.952  1.00  0.00     0.028 C 
BRANCH  28  29
HETATM   29  C3  UNL     1      -6.098   4.255  12.765  1.00  0.00    -0.013 C 
HETATM   30  C2  UNL     1      -6.425   3.052  12.248  1.00  0.00     0.008 C 
HETATM   31  C1  UNL     1      -7.531   2.163  12.735  1.00  0.00     0.055 C 
BRANCH  30  32
HETATM   32  C30 UNL     1      -5.682   2.496  11.084  1.00  0.00     0.171 C 
HETATM   33  O3  UNL     1      -5.369   3.124  10.087  1.00  0.00    -0.646 OA
BRANCH  32  34
HETATM   34  O4  UNL     1      -5.364   1.197  11.204  1.00  0.00    -0.773 OA
HETATM   35  H44 UNL     1      -4.891   1.002  10.369  1.00  0.00     0.167 HD
ENDBRANCH  32  34
ENDBRANCH  30  32
ENDBRANCH  28  29
ENDBRANCH  27  28
ENDBRANCH  25  27
ENDBRANCH   1  25
TORSDOF 6
ENDMDL
MODEL 5
REMARK minimizedAffinity -8.68864918
REMARK  6 active torsions:
REMARK  status: ('A' for Active; 'I' for Inactive)
REMARK    1  A    between atoms: C2_2  and  C30_32 
REMARK    2  A    between atoms: C3_3  and  C4_4 
REMARK    3  A    between atoms: C4_4  and  C5_5 
REMARK    4  A    between atoms: C5_5  and  C6_6 
REMARK    5  A    between atoms: C6_6  and  C8_8 
REMARK    6  A    between atoms: C30_32  and  O4_34 
ROOT
HETATM    1  C8  UNL     1      -1.348   6.540  13.250  1.00  0.00    -0.002 C 
HETATM    2  C9  UNL     1      -1.240   6.817  14.750  1.00  0.00     0.007 C 
HETATM    3  C10 UNL     1       0.242   7.080  14.943  1.00  0.00     0.015 C 
HETATM    4  C11 UNL     1       0.618   8.062  13.809  1.00  0.00    -0.005 C 
HETATM    5  C12 UNL     1       0.255   9.502  14.274  1.00  0.00     0.021 C 
HETATM    6  C13 UNL     1       2.133   8.047  13.506  1.00  0.00    -0.000 C 
HETATM    7  C14 UNL     1       2.660   7.883  12.268  1.00  0.00    -0.060 C 
HETATM    8  C15 UNL     1       1.743   7.557  11.107  1.00  0.00     0.036 C 
HETATM    9  C16 UNL     1       0.513   6.787  11.556  1.00  0.00     0.015 C 
HETATM   10  C17 UNL     1      -0.323   7.564  12.599  1.00  0.00    -0.028 C 
HETATM   11  C18 UNL     1      -1.015   8.745  11.878  1.00  0.00     0.016 C 
HETATM   12  C19 UNL     1       4.163   7.991  11.925  1.00  0.00    -0.014 C 
HETATM   13  C20 UNL     1       4.695   6.550  11.688  1.00  0.00     0.020 C 
HETATM   14  C21 UNL     1       4.361   8.807  10.611  1.00  0.00     0.021 C 
HETATM   15  C22 UNL     1       5.704   9.511  10.544  1.00  0.00     0.080 C 
HETATM   16  C23 UNL     1       5.771  10.555  11.633  1.00  0.00     0.135 C 
HETATM   17  O1  UNL     1       6.302  11.645  11.412  1.00  0.00    -0.297 OA
HETATM   18  C24 UNL     1       5.171  10.194  13.006  1.00  0.00     0.018 C 
HETATM   19  C25 UNL     1       6.173  10.688  14.073  1.00  0.00     0.023 C 
HETATM   20  C26 UNL     1       3.869  10.993  13.169  1.00  0.00     0.023 C 
HETATM   21  C27 UNL     1       5.009   8.632  13.083  1.00  0.00     0.020 C 
HETATM   22  C28 UNL     1       4.554   8.082  14.433  1.00  0.00     0.090 C 
HETATM   23  C29 UNL     1       3.076   8.236  14.666  1.00  0.00     0.157 C 
HETATM   24  O2  UNL     1       2.667   8.450  15.804  1.00  0.00    -0.293 OA
ENDROOT
BRANCH   1  25
HETATM   25  C6  UNL     1      -2.811   6.489  12.723  1.00  0.00    -0.014 C 
HETATM   26  C7  UNL     1      -3.616   7.735  13.136  1.00  0.00     0.010 C 
BRANCH  25  27
HETATM   27  C5  UNL     1      -3.589   5.214  13.139  1.00  0.00     0.008 C 
BRANCH  27  28
HETATM   28  C4  UNL     1      -3.888   4.224  12.007  1.00  0.00     0.028 C 
BRANCH  28  29
HETATM   29  C3  UNL     1      -2.619   3.604  11.486  1.00  0.00    -0.013 C 
HETATM   30  C2  UNL     1      -2.345   2.289  11.359  1.00  0.00     0.008 C 
HETATM   31  C1  UNL     1      -3.289   1.166  11.671  1.00  0.00     0.055 C 
BRANCH  30  32
HETATM   32  C30 UNL     1      -1.020   1.833  10.857  1.00  0.00     0.171 C 
HETATM   33  O3  UNL     1       0.058   2.280  11.213  1.00  0.00    -0.646 OA
BRANCH  32  34
HETATM   34  O4  UNL     1      -1.087   0.854   9.940  1.00  0.00    -0.773 OA
HETATM   35  H44 UNL     1      -0.147   0.682   9.724  1.00  0.00     0.167 HD
ENDBRANCH  32  34
ENDBRANCH  30  32
ENDBRANCH  28  29
ENDBRANCH  27  28
ENDBRANCH  25  27
ENDBRANCH   1  25
TORSDOF 6
ENDMDL
MODEL 6
REMARK minimizedAffinity -8.58759022
REMARK  6 active torsions:
REMARK  status: ('A' for Active; 'I' for Inactive)
REMARK    1  A    between atoms: C2_2  and  C30_32 
REMARK    2  A    between atoms: C3_3  and  C4_4 
REMARK    3  A    between atoms: C4_4  and  C5_5 
REMARK    4  A    between atoms: C5_5  and  C6_6 
REMARK    5  A    between atoms: C6_6  and  C8_8 
REMARK    6  A    between atoms: C30_32  and  O4_34 
ROOT
HETATM    1  C8  UNL     1       1.879   8.311  10.517  1.00  0.00    -0.002 C 
HETATM    2  C9  UNL     1       2.837   7.872   9.409  1.00  0.00     0.007 C 
HETATM    3  C10 UNL     1       4.175   8.412   9.880  1.00  0.00     0.015 C 
HETATM    4  C11 UNL     1       4.261   8.003  11.369  1.00  0.00    -0.005 C 
HETATM    5  C12 UNL     1       4.775   6.535  11.440  1.00  0.00     0.021 C 
HETATM    6  C13 UNL     1       5.262   8.877  12.156  1.00  0.00    -0.000 C 
HETATM    7  C14 UNL     1       4.970   9.514  13.316  1.00  0.00    -0.060 C 
HETATM    8  C15 UNL     1       3.545   9.502  13.832  1.00  0.00     0.036 C 
HETATM    9  C16 UNL     1       2.535   9.402  12.702  1.00  0.00     0.015 C 
HETATM   10  C17 UNL     1       2.726   8.127  11.847  1.00  0.00    -0.028 C 
HETATM   11  C18 UNL     1       2.281   6.911  12.692  1.00  0.00     0.016 C 
HETATM   12  C19 UNL     1       5.990  10.288  14.182  1.00  0.00    -0.014 C 
HETATM   13  C20 UNL     1       5.722  11.805  13.979  1.00  0.00     0.020 C 
HETATM   14  C21 UNL     1       5.782   9.953  15.691  1.00  0.00     0.021 C 
HETATM   15  C22 UNL     1       7.050  10.100  16.513  1.00  0.00     0.080 C 
HETATM   16  C23 UNL     1       8.061   9.077  16.049  1.00  0.00     0.135 C 
HETATM   17  O1  UNL     1       8.775   8.499  16.870  1.00  0.00    -0.297 OA
HETATM   18  C24 UNL     1       8.165   8.811  14.535  1.00  0.00     0.018 C 
HETATM   19  C25 UNL     1       9.671   8.748  14.197  1.00  0.00     0.023 C 
HETATM   20  C26 UNL     1       7.557   7.427  14.264  1.00  0.00     0.023 C 
HETATM   21  C27 UNL     1       7.479  10.003  13.772  1.00  0.00     0.020 C 
HETATM   22  C28 UNL     1       7.610   9.974  12.251  1.00  0.00     0.090 C 
HETATM   23  C29 UNL     1       6.654   9.017  11.594  1.00  0.00     0.157 C 
HETATM   24  O2  UNL     1       7.005   8.419  10.580  1.00  0.00    -0.293 OA
ENDROOT
BRANCH   1  25
HETATM   25  C6  UNL     1       0.466   7.667  10.419  1.00  0.00    -0.014 C 
HETATM   26  C7  UNL     1      -0.490   8.212  11.495  1.00  0.00     0.010 C 
BRANCH  25  27
HETATM   27  C5  UNL     1       0.471   6.118  10.474  1.00  0.00     0.008 C 
BRANCH  27  28
HETATM   28  C4  UNL     1      -0.534   5.488  11.446  1.00  0.00     0.028 C 
BRANCH  28  29
HETATM   29  C3  UNL     1      -0.498   3.986  11.358  1.00  0.00    -0.013 C 
HETATM   30  C2  UNL     1      -1.495   3.167  10.961  1.00  0.00     0.008 C 
HETATM   31  C1  UNL     1      -2.843   3.607  10.472  1.00  0.00     0.055 C 
BRANCH  30  32
HETATM   32  C30 UNL     1      -1.313   1.690  10.964  1.00  0.00     0.171 C 
HETATM   33  O3  UNL     1      -2.209   0.873  11.088  1.00  0.00    -0.646 OA
BRANCH  32  34
HETATM   34  O4  UNL     1      -0.038   1.293  10.817  1.00  0.00    -0.773 OA
HETATM   35  H44 UNL     1      -0.102   0.316  10.843  1.00  0.00     0.167 HD
ENDBRANCH  32  34
ENDBRANCH  30  32
ENDBRANCH  28  29
ENDBRANCH  27  28
ENDBRANCH  25  27
ENDBRANCH   1  25
TORSDOF 6
ENDMDL
MODEL 7
REMARK minimizedAffinity -8.3837719
REMARK  6 active torsions:
REMARK  status: ('A' for Active; 'I' for Inactive)
REMARK    1  A    between atoms: C2_2  and  C30_32 
REMARK    2  A    between atoms: C3_3  and  C4_4 
REMARK    3  A    between atoms: C4_4  and  C5_5 
REMARK    4  A    between atoms: C5_5  and  C6_6 
REMARK    5  A    between atoms: C6_6  and  C8_8 
REMARK    6  A    between atoms: C30_32  and  O4_34 
ROOT
HETATM    1  C8  UNL     1      -3.087   4.625  11.998  1.00  0.00    -0.002 C 
HETATM    2  C9  UNL     1      -1.828   4.311  11.189  1.00  0.00     0.007 C 
HETATM    3  C10 UNL     1      -0.945   5.518  11.447  1.00  0.00     0.015 C 
HETATM    4  C11 UNL     1      -1.011   5.733  12.977  1.00  0.00    -0.005 C 
HETATM    5  C12 UNL     1       0.020   4.778  13.646  1.00  0.00     0.021 C 
HETATM    6  C13 UNL     1      -0.627   7.174  13.379  1.00  0.00    -0.000 C 
HETATM    7  C14 UNL     1      -1.381   7.969  14.177  1.00  0.00    -0.060 C 
HETATM    8  C15 UNL     1      -2.755   7.498  14.610  1.00  0.00     0.036 C 
HETATM    9  C16 UNL     1      -3.385   6.573  13.583  1.00  0.00     0.015 C 
HETATM   10  C17 UNL     1      -2.530   5.313  13.317  1.00  0.00    -0.028 C 
HETATM   11  C18 UNL     1      -2.615   4.401  14.564  1.00  0.00     0.016 C 
HETATM   12  C19 UNL     1      -0.957   9.363  14.693  1.00  0.00    -0.014 C 
HETATM   13  C20 UNL     1      -1.761  10.424  13.891  1.00  0.00     0.020 C 
HETATM   14  C21 UNL     1      -1.318   9.514  16.202  1.00  0.00     0.021 C 
HETATM   15  C22 UNL     1      -0.413  10.487  16.936  1.00  0.00     0.080 C 
HETATM   16  C23 UNL     1       0.994   9.937  16.953  1.00  0.00     0.135 C 
HETATM   17  O1  UNL     1       1.695  10.064  17.958  1.00  0.00    -0.297 OA
HETATM   18  C24 UNL     1       1.504   9.242  15.675  1.00  0.00     0.018 C 
HETATM   19  C25 UNL     1       2.945   9.748  15.438  1.00  0.00     0.023 C 
HETATM   20  C26 UNL     1       1.570   7.735  15.962  1.00  0.00     0.023 C 
HETATM   21  C27 UNL     1       0.571   9.654  14.478  1.00  0.00     0.020 C 
HETATM   22  C28 UNL     1       1.012   9.164  13.100  1.00  0.00     0.090 C 
HETATM   23  C29 UNL     1       0.675   7.720  12.852  1.00  0.00     0.157 C 
HETATM   24  O2  UNL     1       1.437   7.034  12.173  1.00  0.00    -0.293 OA
ENDROOT
BRANCH   1  25
HETATM   25  C6  UNL     1      -4.071   3.427  12.122  1.00  0.00    -0.014 C 
HETATM   26  C7  UNL     1      -3.394   2.088  11.777  1.00  0.00     0.010 C 
BRANCH  25  27
HETATM   27  C5  UNL     1      -5.364   3.580  11.280  1.00  0.00     0.008 C 
BRANCH  27  28
HETATM   28  C4  UNL     1      -6.672   3.266  12.016  1.00  0.00     0.028 C 
BRANCH  28  29
HETATM   29  C3  UNL     1      -6.651   3.827  13.413  1.00  0.00    -0.013 C 
HETATM   30  C2  UNL     1      -7.378   4.859  13.890  1.00  0.00     0.008 C 
HETATM   31  C1  UNL     1      -8.406   5.633  13.119  1.00  0.00     0.055 C 
BRANCH  30  32
HETATM   32  C30 UNL     1      -7.215   5.319  15.296  1.00  0.00     0.171 C 
HETATM   33  O3  UNL     1      -6.279   5.979  15.715  1.00  0.00    -0.646 OA
BRANCH  32  34
HETATM   34  O4  UNL     1      -8.209   4.942  16.117  1.00  0.00    -0.773 OA
HETATM   35  H44 UNL     1      -7.945   5.320  16.980  1.00  0.00     0.167 HD
ENDBRANCH  32  34
ENDBRANCH  30  32
ENDBRANCH  28  29
ENDBRANCH  27  28
ENDBRANCH  25  27
ENDBRANCH   1  25
TORSDOF 6
ENDMDL
MODEL 8
REMARK minimizedAffinity -8.2989502
REMARK  6 active torsions:
REMARK  status: ('A' for Active; 'I' for Inactive)
REMARK    1  A    between atoms: C2_2  and  C30_32 
REMARK    2  A    between atoms: C3_3  and  C4_4 
REMARK    3  A    between atoms: C4_4  and  C5_5 
REMARK    4  A    between atoms: C5_5  and  C6_6 
REMARK    5  A    between atoms: C6_6  and  C8_8 
REMARK    6  A    between atoms: C30_32  and  O4_34 
ROOT
HETATM    1  C8  UNL     1      -6.303   5.197  14.802  1.00  0.00    -0.002 C 
HETATM    2  C9  UNL     1      -6.117   6.181  15.958  1.00  0.00     0.007 C 
HETATM    3  C10 UNL     1      -4.632   6.490  15.908  1.00  0.00     0.015 C 
HETATM    4  C11 UNL     1      -4.340   6.777  14.416  1.00  0.00    -0.005 C 
HETATM    5  C12 UNL     1      -4.707   8.261  14.127  1.00  0.00     0.021 C 
HETATM    6  C13 UNL     1      -2.845   6.599  14.072  1.00  0.00    -0.000 C 
HETATM    7  C14 UNL     1      -2.385   5.837  13.049  1.00  0.00    -0.060 C 
HETATM    8  C15 UNL     1      -3.358   4.987  12.259  1.00  0.00     0.036 C 
HETATM    9  C16 UNL     1      -4.544   4.553  13.103  1.00  0.00     0.015 C 
HETATM   10  C17 UNL     1      -5.338   5.753  13.670  1.00  0.00    -0.028 C 
HETATM   11  C18 UNL     1      -6.093   6.427  12.500  1.00  0.00     0.016 C 
HETATM   12  C19 UNL     1      -0.905   5.746  12.610  1.00  0.00    -0.014 C 
HETATM   13  C20 UNL     1      -0.358   4.373  13.088  1.00  0.00     0.020 C 
HETATM   14  C21 UNL     1      -0.798   5.801  11.056  1.00  0.00     0.021 C 
HETATM   15  C22 UNL     1       0.524   6.366  10.570  1.00  0.00     0.080 C 
HETATM   16  C23 UNL     1       0.629   7.813  10.992  1.00  0.00     0.135 C 
HETATM   17  O1  UNL     1       1.125   8.644  10.229  1.00  0.00    -0.297 OA
HETATM   18  C24 UNL     1       0.115   8.186  12.395  1.00  0.00     0.018 C 
HETATM   19  C25 UNL     1       1.165   9.134  13.017  1.00  0.00     0.023 C 
HETATM   20  C26 UNL     1      -1.192   8.973  12.217  1.00  0.00     0.023 C 
HETATM   21  C27 UNL     1      -0.010   6.869  13.246  1.00  0.00     0.020 C 
HETATM   22  C28 UNL     1      -0.377   7.066  14.716  1.00  0.00     0.090 C 
HETATM   23  C29 UNL     1      -1.842   7.329  14.928  1.00  0.00     0.157 C 
HETATM   24  O2  UNL     1      -2.192   8.084  15.832  1.00  0.00    -0.293 OA
ENDROOT
BRANCH   1  25
HETATM   25  C6  UNL     1      -7.792   4.905  14.457  1.00  0.00    -0.014 C 
HETATM   26  C7  UNL     1      -7.929   4.023  13.203  1.00  0.00     0.010 C 
BRANCH  25  27
HETATM   27  C5  UNL     1      -8.664   6.176  14.290  1.00  0.00     0.008 C 
BRANCH  27  28
HETATM   28  C4  UNL     1      -9.698   6.122  13.159  1.00  0.00     0.028 C 
BRANCH  28  29
HETATM   29  C3  UNL     1     -10.541   7.370  13.142  1.00  0.00    -0.013 C 
HETATM   30  C2  UNL     1     -11.803   7.508  13.600  1.00  0.00     0.008 C 
HETATM   31  C1  UNL     1     -12.610   6.439  14.274  1.00  0.00     0.055 C 
BRANCH  30  32
HETATM   32  C30 UNL     1     -12.518   8.808  13.477  1.00  0.00     0.171 C 
HETATM   33  O3  UNL     1     -12.767   9.562  14.402  1.00  0.00    -0.646 OA
BRANCH  32  34
HETATM   34  O4  UNL     1     -12.894   9.113  12.225  1.00  0.00    -0.773 OA
HETATM   35  H44 UNL     1     -13.340   9.978  12.327  1.00  0.00     0.167 HD
ENDBRANCH  32  34
ENDBRANCH  30  32
ENDBRANCH  28  29
ENDBRANCH  27  28
ENDBRANCH  25  27
ENDBRANCH   1  25
TORSDOF 6
ENDMDL
MODEL 9
REMARK minimizedAffinity -8.07939434
REMARK  6 active torsions:
REMARK  status: ('A' for Active; 'I' for Inactive)
REMARK    1  A    between atoms: C2_2  and  C30_32 
REMARK    2  A    between atoms: C3_3  and  C4_4 
REMARK    3  A    between atoms: C4_4  and  C5_5 
REMARK    4  A    between atoms: C5_5  and  C6_6 
REMARK    5  A    between atoms: C6_6  and  C8_8 
REMARK    6  A    between atoms: C30_32  and  O4_34 
ROOT
HETATM    1  C8  UNL     1      -2.541   7.347  14.241  1.00  0.00    -0.002 C 
HETATM    2  C9  UNL     1      -2.029   7.491  15.675  1.00  0.00     0.007 C 
HETATM    3  C10 UNL     1      -0.527   7.331  15.520  1.00  0.00     0.015 C 
HETATM    4  C11 UNL     1      -0.157   8.245  14.327  1.00  0.00    -0.005 C 
HETATM    5  C12 UNL     1       0.005   9.697  14.861  1.00  0.00     0.021 C 
HETATM    6  C13 UNL     1       1.187   7.841  13.682  1.00  0.00    -0.000 C 
HETATM    7  C14 UNL     1       1.359   7.619  12.356  1.00  0.00    -0.060 C 
HETATM    8  C15 UNL     1       0.153   7.625  11.439  1.00  0.00     0.036 C 
HETATM    9  C16 UNL     1      -1.110   7.189  12.162  1.00  0.00     0.015 C 
HETATM   10  C17 UNL     1      -1.445   8.095  13.369  1.00  0.00    -0.028 C 
HETATM   11  C18 UNL     1      -1.925   9.462  12.825  1.00  0.00     0.016 C 
HETATM   12  C19 UNL     1       2.717   7.340  11.674  1.00  0.00    -0.014 C 
HETATM   13  C20 UNL     1       2.764   5.826  11.323  1.00  0.00     0.020 C 
HETATM   14  C21 UNL     1       2.835   8.152  10.349  1.00  0.00     0.021 C 
HETATM   15  C22 UNL     1       4.270   8.471   9.971  1.00  0.00     0.080 C 
HETATM   16  C23 UNL     1       4.864   9.389  11.014  1.00  0.00     0.135 C 
HETATM   17  O1  UNL     1       5.613  10.307  10.675  1.00  0.00    -0.297 OA
HETATM   18  C24 UNL     1       4.509   9.118  12.489  1.00  0.00     0.018 C 
HETATM   19  C25 UNL     1       5.821   9.255  13.294  1.00  0.00     0.023 C 
HETATM   20  C26 UNL     1       3.550  10.226  12.947  1.00  0.00     0.023 C 
HETATM   21  C27 UNL     1       3.943   7.655  12.604  1.00  0.00     0.020 C 
HETATM   22  C28 UNL     1       3.667   7.165  14.024  1.00  0.00     0.090 C 
HETATM   23  C29 UNL     1       2.380   7.696  14.592  1.00  0.00     0.157 C 
HETATM   24  O2  UNL     1       2.310   7.942  15.794  1.00  0.00    -0.293 OA
ENDROOT
BRANCH   1  25
HETATM   25  C6  UNL     1      -4.040   7.725  14.067  1.00  0.00    -0.014 C 
HETATM   26  C7  UNL     1      -4.775   7.795  15.418  1.00  0.00     0.010 C 
BRANCH  25  27
HETATM   27  C5  UNL     1      -4.821   6.792  13.106  1.00  0.00     0.008 C 
BRANCH  27  28
HETATM   28  C4  UNL     1      -4.526   5.294  13.255  1.00  0.00     0.028 C 
BRANCH  28  29
HETATM   29  C3  UNL     1      -5.803   4.499  13.314  1.00  0.00    -0.013 C 
HETATM   30  C2  UNL     1      -6.131   3.425  12.565  1.00  0.00     0.008 C 
HETATM   31  C1  UNL     1      -5.250   2.772  11.542  1.00  0.00     0.055 C 
BRANCH  30  32
HETATM   32  C30 UNL     1      -7.457   2.767  12.719  1.00  0.00     0.171 C 
HETATM   33  O3  UNL     1      -8.486   3.329  13.055  1.00  0.00    -0.646 OA
BRANCH  32  34
HETATM   34  O4  UNL     1      -7.450   1.450  12.457  1.00  0.00    -0.773 OA
HETATM   35  H44 UNL     1      -8.381   1.185  12.605  1.00  0.00     0.167 HD
ENDBRANCH  32  34
ENDBRANCH  30  32
ENDBRANCH  28  29
ENDBRANCH  27  28
ENDBRANCH  25  27
ENDBRANCH   1  25
TORSDOF 6
ENDMDL
