MODEL 1
REMARK minimizedAffinity -8.66912079
REMARK  4 active torsions:
REMARK  status: ('A' for Active; 'I' for Inactive)
REMARK    1  A    between atoms: C4_4  and  C5_5 
REMARK    2  A    between atoms: C5_5  and  C6_6 
REMARK    3  A    between atoms: C6_6  and  C7_7 
REMARK    4  A    between atoms: C7_7  and  C9_9 
ROOT
HETATM    1  C9  UNL     1      -2.735   8.757  14.598  1.00  0.00    -0.002 C 
HETATM    2  C10 UNL     1      -2.647   7.735  15.755  1.00  0.00     0.006 C 
HETATM    3  C11 UNL     1      -1.337   6.968  15.593  1.00  0.00     0.011 C 
HETATM    4  C12 UNL     1      -0.477   7.759  14.568  1.00  0.00    -0.032 C 
HETATM    5  C13 UNL     1       0.197   8.904  15.377  1.00  0.00     0.016 C 
HETATM    6  C14 UNL     1       0.597   6.790  13.911  1.00  0.00     0.004 C 
HETATM    7  C15 UNL     1       2.082   7.227  13.933  1.00  0.00     0.007 C 
HETATM    8  C16 UNL     1       2.477   8.182  12.819  1.00  0.00     0.007 C 
HETATM    9  C17 UNL     1       2.125   7.733  11.393  1.00  0.00     0.010 C 
HETATM   10  C18 UNL     1       3.319   7.344  10.460  1.00  0.00     0.018 C 
HETATM   11  C19 UNL     1       4.139   8.593  10.090  1.00  0.00     0.023 C 
HETATM   12  C20 UNL     1       4.265   6.298  11.067  1.00  0.00     0.023 C 
HETATM   13  C21 UNL     1       2.740   6.779   9.146  1.00  0.00     0.135 C 
HETATM   14  O1  UNL     1       3.416   6.103   8.368  1.00  0.00    -0.297 OA
HETATM   15  C22 UNL     1       1.320   7.171   8.792  1.00  0.00     0.080 C 
HETATM   16  C23 UNL     1       0.338   6.766   9.889  1.00  0.00     0.018 C 
HETATM   17  C24 UNL     1       0.992   6.715  11.267  1.00  0.00    -0.026 A 
HETATM   18  C25 UNL     1       1.127   5.321  11.852  1.00  0.00     0.021 A 
HETATM   19  C26 UNL     1       0.189   6.307  12.514  1.00  0.00    -0.027 A 
HETATM   20  C27 UNL     1      -1.268   5.960  12.416  1.00  0.00     0.011 C 
HETATM   21  C28 UNL     1      -2.174   7.155  12.661  1.00  0.00     0.011 C 
HETATM   22  C29 UNL     1      -1.619   8.275  13.592  1.00  0.00    -0.032 C 
HETATM   23  C30 UNL     1      -1.115   9.448  12.727  1.00  0.00     0.016 C 
ENDROOT
BRANCH   1  24
HETATM   24  C7  UNL     1      -4.206   8.962  14.122  1.00  0.00    -0.014 C 
HETATM   25  C8  UNL     1      -5.177   9.267  15.263  1.00  0.00     0.010 C 
BRANCH  24  26
HETATM   26  C6  UNL     1      -4.744   7.774  13.278  1.00  0.00     0.008 C 
BRANCH  26  27
HETATM   27  C5  UNL     1      -5.761   6.868  13.983  1.00  0.00     0.028 C 
BRANCH  27  28
HETATM   28  C4  UNL     1      -5.659   5.461  13.458  1.00  0.00    -0.025 C 
HETATM   29  C2  UNL     1      -6.634   4.692  12.932  1.00  0.00    -0.091 C 
HETATM   30  C1  UNL     1      -6.328   3.296  12.449  1.00  0.00     0.042 C 
HETATM   31  C3  UNL     1      -8.070   5.100  12.756  1.00  0.00     0.042 C 
ENDBRANCH  27  28
ENDBRANCH  26  27
ENDBRANCH  24  26
ENDBRANCH   1  24
TORSDOF 4
ENDMDL
MODEL 2
REMARK minimizedAffinity -8.57991505
REMARK  4 active torsions:
REMARK  status: ('A' for Active; 'I' for Inactive)
REMARK    1  A    between atoms: C4_4  and  C5_5 
REMARK    2  A    between atoms: C5_5  and  C6_6 
REMARK    3  A    between atoms: C6_6  and  C7_7 
REMARK    4  A    between atoms: C7_7  and  C9_9 
ROOT
HETATM    1  C9  UNL     1      -1.056   5.196  12.570  1.00  0.00    -0.002 C 
HETATM    2  C10 UNL     1      -0.296   5.730  11.334  1.00  0.00     0.006 C 
HETATM    3  C11 UNL     1       0.169   7.149  11.656  1.00  0.00     0.011 C 
HETATM    4  C12 UNL     1       0.010   7.335  13.191  1.00  0.00    -0.032 C 
HETATM    5  C13 UNL     1       1.273   6.687  13.828  1.00  0.00     0.016 C 
HETATM    6  C14 UNL     1      -0.094   8.883  13.533  1.00  0.00     0.004 C 
HETATM    7  C15 UNL     1       0.864   9.458  14.604  1.00  0.00     0.007 C 
HETATM    8  C16 UNL     1       0.402   9.259  16.038  1.00  0.00     0.007 C 
HETATM    9  C17 UNL     1      -1.023   9.735  16.357  1.00  0.00     0.010 C 
HETATM   10  C18 UNL     1      -1.159  10.989  17.281  1.00  0.00     0.018 C 
HETATM   11  C19 UNL     1      -0.727  10.645  18.719  1.00  0.00     0.023 C 
HETATM   12  C20 UNL     1      -0.348  12.204  16.803  1.00  0.00     0.023 C 
HETATM   13  C21 UNL     1      -2.649  11.386  17.342  1.00  0.00     0.135 C 
HETATM   14  O1  UNL     1      -3.017  12.500  17.717  1.00  0.00    -0.297 OA
HETATM   15  C22 UNL     1      -3.664  10.310  17.010  1.00  0.00     0.080 C 
HETATM   16  C23 UNL     1      -3.438   9.741  15.611  1.00  0.00     0.018 C 
HETATM   17  C24 UNL     1      -1.981   9.838  15.170  1.00  0.00    -0.026 A 
HETATM   18  C25 UNL     1      -1.725  10.821  14.043  1.00  0.00     0.021 A 
HETATM   19  C26 UNL     1      -1.535   9.343  13.783  1.00  0.00    -0.027 A 
HETATM   20  C27 UNL     1      -2.519   8.736  12.826  1.00  0.00     0.011 C 
HETATM   21  C28 UNL     1      -2.599   7.223  12.946  1.00  0.00     0.011 C 
HETATM   22  C29 UNL     1      -1.313   6.491  13.434  1.00  0.00    -0.032 C 
HETATM   23  C30 UNL     1      -1.471   6.133  14.927  1.00  0.00     0.016 C 
ENDROOT
BRANCH   1  24
HETATM   24  C7  UNL     1      -2.234   4.260  12.161  1.00  0.00    -0.014 C 
HETATM   25  C8  UNL     1      -2.137   3.754  10.722  1.00  0.00     0.010 C 
BRANCH  24  26
HETATM   26  C6  UNL     1      -3.630   4.899  12.401  1.00  0.00     0.008 C 
BRANCH  26  27
HETATM   27  C5  UNL     1      -4.715   3.945  12.917  1.00  0.00     0.028 C 
BRANCH  27  28
HETATM   28  C4  UNL     1      -6.059   4.623  12.894  1.00  0.00    -0.025 C 
HETATM   29  C2  UNL     1      -7.281   4.055  12.870  1.00  0.00    -0.091 C 
HETATM   30  C1  UNL     1      -8.522   4.912  12.858  1.00  0.00     0.042 C 
HETATM   31  C3  UNL     1      -7.558   2.577  12.865  1.00  0.00     0.042 C 
ENDBRANCH  27  28
ENDBRANCH  26  27
ENDBRANCH  24  26
ENDBRANCH   1  24
TORSDOF 4
ENDMDL
MODEL 3
REMARK minimizedAffinity -8.5770731
REMARK  4 active torsions:
REMARK  status: ('A' for Active; 'I' for Inactive)
REMARK    1  A    between atoms: C4_4  and  C5_5 
REMARK    2  A    between atoms: C5_5  and  C6_6 
REMARK    3  A    between atoms: C6_6  and  C7_7 
REMARK    4  A    between atoms: C7_7  and  C9_9 
ROOT
HETATM    1  C9  UNL     1      -3.479   4.684  13.389  1.00  0.00    -0.002 C 
HETATM    2  C10 UNL     1      -2.518   4.629  12.180  1.00  0.00     0.006 C 
HETATM    3  C11 UNL     1      -1.548   5.801  12.309  1.00  0.00     0.011 C 
HETATM    4  C12 UNL     1      -1.688   6.342  13.759  1.00  0.00    -0.032 C 
HETATM    5  C13 UNL     1      -0.810   5.411  14.644  1.00  0.00     0.016 C 
HETATM    6  C14 UNL     1      -1.191   7.850  13.817  1.00  0.00     0.004 C 
HETATM    7  C15 UNL     1      -0.132   8.227  14.881  1.00  0.00     0.007 C 
HETATM    8  C16 UNL     1      -0.698   8.514  16.262  1.00  0.00     0.007 C 
HETATM    9  C17 UNL     1      -1.834   9.545  16.322  1.00  0.00     0.010 C 
HETATM   10  C18 UNL     1      -1.507  10.919  16.996  1.00  0.00     0.018 C 
HETATM   11  C19 UNL     1      -1.308  10.738  18.513  1.00  0.00     0.023 C 
HETATM   12  C20 UNL     1      -0.265  11.613  16.418  1.00  0.00     0.023 C 
HETATM   13  C21 UNL     1      -2.723  11.850  16.809  1.00  0.00     0.135 C 
HETATM   14  O1  UNL     1      -2.640  13.073  16.942  1.00  0.00    -0.297 OA
HETATM   15  C22 UNL     1      -4.063  11.192  16.547  1.00  0.00     0.080 C 
HETATM   16  C23 UNL     1      -4.018  10.308  15.303  1.00  0.00     0.018 C 
HETATM   17  C24 UNL     1      -2.622   9.757  15.029  1.00  0.00    -0.026 A 
HETATM   18  C25 UNL     1      -1.950  10.320  13.790  1.00  0.00     0.021 A 
HETATM   19  C26 UNL     1      -2.345   8.859  13.811  1.00  0.00    -0.027 A 
HETATM   20  C27 UNL     1      -3.445   8.486  12.861  1.00  0.00     0.011 C 
HETATM   21  C28 UNL     1      -4.118   7.173  13.226  1.00  0.00     0.011 C 
HETATM   22  C29 UNL     1      -3.245   6.128  13.983  1.00  0.00    -0.032 C 
HETATM   23  C30 UNL     1      -3.596   6.167  15.485  1.00  0.00     0.016 C 
ENDROOT
BRANCH   1  24
HETATM   24  C7  UNL     1      -4.912   4.198  13.008  1.00  0.00    -0.014 C 
HETATM   25  C8  UNL     1      -4.986   3.551  11.625  1.00  0.00     0.010 C 
BRANCH  24  26
HETATM   26  C6  UNL     1      -5.984   5.317  13.123  1.00  0.00     0.008 C 
BRANCH  26  27
HETATM   27  C5  UNL     1      -7.386   4.849  13.534  1.00  0.00     0.028 C 
BRANCH  27  28
HETATM   28  C4  UNL     1      -8.176   6.002  14.095  1.00  0.00    -0.025 C 
HETATM   29  C2  UNL     1      -8.075   6.570  15.314  1.00  0.00    -0.091 C 
HETATM   30  C1  UNL     1      -8.959   7.733  15.690  1.00  0.00     0.042 C 
HETATM   31  C3  UNL     1      -7.116   6.155  16.395  1.00  0.00     0.042 C 
ENDBRANCH  27  28
ENDBRANCH  26  27
ENDBRANCH  24  26
ENDBRANCH   1  24
TORSDOF 4
ENDMDL
MODEL 4
REMARK minimizedAffinity -8.43426418
REMARK  4 active torsions:
REMARK  status: ('A' for Active; 'I' for Inactive)
REMARK    1  A    between atoms: C4_4  and  C5_5 
REMARK    2  A    between atoms: C5_5  and  C6_6 
REMARK    3  A    between atoms: C6_6  and  C7_7 
REMARK    4  A    between atoms: C7_7  and  C9_9 
ROOT
HETATM    1  C9  UNL     1      -1.190   7.118  13.196  1.00  0.00    -0.002 C 
HETATM    2  C10 UNL     1      -1.774   8.268  12.344  1.00  0.00     0.006 C 
HETATM    3  C11 UNL     1      -0.640   8.830  11.490  1.00  0.00     0.011 C 
HETATM    4  C12 UNL     1       0.524   7.802  11.557  1.00  0.00    -0.032 C 
HETATM    5  C13 UNL     1       0.175   6.701  10.515  1.00  0.00     0.016 C 
HETATM    6  C14 UNL     1       1.895   8.526  11.212  1.00  0.00     0.004 C 
HETATM    7  C15 UNL     1       2.787   7.908  10.107  1.00  0.00     0.007 C 
HETATM    8  C16 UNL     1       3.675   6.768  10.576  1.00  0.00     0.007 C 
HETATM    9  C17 UNL     1       4.554   7.060  11.802  1.00  0.00     0.010 C 
HETATM   10  C18 UNL     1       6.096   7.162  11.557  1.00  0.00     0.018 C 
HETATM   11  C19 UNL     1       6.676   5.778  11.209  1.00  0.00     0.023 C 
HETATM   12  C20 UNL     1       6.485   8.150  10.447  1.00  0.00     0.023 C 
HETATM   13  C21 UNL     1       6.764   7.612  12.873  1.00  0.00     0.135 C 
HETATM   14  O1  UNL     1       7.903   8.084  12.903  1.00  0.00    -0.297 OA
HETATM   15  C22 UNL     1       6.000   7.363  14.157  1.00  0.00     0.080 C 
HETATM   16  C23 UNL     1       4.629   8.037  14.132  1.00  0.00     0.018 C 
HETATM   17  C24 UNL     1       4.081   8.190  12.716  1.00  0.00    -0.026 A 
HETATM   18  C25 UNL     1       4.009   9.621  12.216  1.00  0.00     0.021 A 
HETATM   19  C26 UNL     1       2.722   8.863  12.458  1.00  0.00    -0.027 A 
HETATM   20  C27 UNL     1       1.887   9.379  13.593  1.00  0.00     0.011 C 
HETATM   21  C28 UNL     1       0.881   8.355  14.095  1.00  0.00     0.011 C 
HETATM   22  C29 UNL     1       0.370   7.311  13.059  1.00  0.00    -0.032 C 
HETATM   23  C30 UNL     1       1.110   5.975  13.279  1.00  0.00     0.016 C 
ENDROOT
BRANCH   1  24
HETATM   24  C7  UNL     1      -1.866   7.042  14.600  1.00  0.00    -0.014 C 
HETATM   25  C8  UNL     1      -0.909   7.345  15.753  1.00  0.00     0.010 C 
BRANCH  24  26
HETATM   26  C6  UNL     1      -2.585   5.689  14.856  1.00  0.00     0.008 C 
BRANCH  26  27
HETATM   27  C5  UNL     1      -3.986   5.558  14.244  1.00  0.00     0.028 C 
BRANCH  27  28
HETATM   28  C4  UNL     1      -3.939   4.688  13.016  1.00  0.00    -0.025 C 
HETATM   29  C2  UNL     1      -4.945   4.002  12.439  1.00  0.00    -0.091 C 
HETATM   30  C1  UNL     1      -4.699   3.185  11.195  1.00  0.00     0.042 C 
HETATM   31  C3  UNL     1      -6.370   3.969  12.920  1.00  0.00     0.042 C 
ENDBRANCH  27  28
ENDBRANCH  26  27
ENDBRANCH  24  26
ENDBRANCH   1  24
TORSDOF 4
ENDMDL
MODEL 5
REMARK minimizedAffinity -8.23774529
REMARK  4 active torsions:
REMARK  status: ('A' for Active; 'I' for Inactive)
REMARK    1  A    between atoms: C4_4  and  C5_5 
REMARK    2  A    between atoms: C5_5  and  C6_6 
REMARK    3  A    between atoms: C6_6  and  C7_7 
REMARK    4  A    between atoms: C7_7  and  C9_9 
ROOT
HETATM    1  C9  UNL     1      -2.570   8.869  15.110  1.00  0.00    -0.002 C 
HETATM    2  C10 UNL     1      -2.817   7.534  15.851  1.00  0.00     0.006 C 
HETATM    3  C11 UNL     1      -1.784   6.529  15.344  1.00  0.00     0.011 C 
HETATM    4  C12 UNL     1      -0.703   7.343  14.580  1.00  0.00    -0.032 C 
HETATM    5  C13 UNL     1       0.254   7.902  15.671  1.00  0.00     0.016 C 
HETATM    6  C14 UNL     1       0.058   6.393  13.559  1.00  0.00     0.004 C 
HETATM    7  C15 UNL     1       1.604   6.355  13.614  1.00  0.00     0.007 C 
HETATM    8  C16 UNL     1       2.292   7.477  12.855  1.00  0.00     0.007 C 
HETATM    9  C17 UNL     1       1.863   7.661  11.392  1.00  0.00     0.010 C 
HETATM   10  C18 UNL     1       2.916   7.290  10.296  1.00  0.00     0.018 C 
HETATM   11  C19 UNL     1       4.076   8.303  10.303  1.00  0.00     0.023 C 
HETATM   12  C20 UNL     1       3.498   5.876  10.447  1.00  0.00     0.023 C 
HETATM   13  C21 UNL     1       2.234   7.396   8.916  1.00  0.00     0.135 C 
HETATM   14  O1  UNL     1       2.703   6.862   7.909  1.00  0.00    -0.297 OA
HETATM   15  C22 UNL     1       1.001   8.271   8.820  1.00  0.00     0.080 C 
HETATM   16  C23 UNL     1      -0.087   7.814   9.791  1.00  0.00     0.018 C 
HETATM   17  C24 UNL     1       0.486   7.113  11.019  1.00  0.00    -0.026 A 
HETATM   18  C25 UNL     1       0.190   5.626  11.095  1.00  0.00     0.021 A 
HETATM   19  C26 UNL     1      -0.435   6.551  12.116  1.00  0.00    -0.027 A 
HETATM   20  C27 UNL     1      -1.926   6.688  12.017  1.00  0.00     0.011 C 
HETATM   21  C28 UNL     1      -2.450   7.933  12.715  1.00  0.00     0.011 C 
HETATM   22  C29 UNL     1      -1.617   8.462  13.920  1.00  0.00    -0.032 C 
HETATM   23  C30 UNL     1      -0.768   9.665  13.460  1.00  0.00     0.016 C 
ENDROOT
BRANCH   1  24
HETATM   24  C7  UNL     1      -3.903   9.633  14.842  1.00  0.00    -0.014 C 
HETATM   25  C8  UNL     1      -4.069  10.886  15.703  1.00  0.00     0.010 C 
BRANCH  24  26
HETATM   26  C6  UNL     1      -5.160   8.730  14.980  1.00  0.00     0.008 C 
BRANCH  26  27
HETATM   27  C5  UNL     1      -5.672   8.107  13.675  1.00  0.00     0.028 C 
BRANCH  27  28
HETATM   28  C4  UNL     1      -6.517   6.896  13.972  1.00  0.00    -0.025 C 
HETATM   29  C2  UNL     1      -6.181   5.595  13.859  1.00  0.00    -0.091 C 
HETATM   30  C1  UNL     1      -7.174   4.517  14.216  1.00  0.00     0.042 C 
HETATM   31  C3  UNL     1      -4.848   5.072  13.400  1.00  0.00     0.042 C 
ENDBRANCH  27  28
ENDBRANCH  26  27
ENDBRANCH  24  26
ENDBRANCH   1  24
TORSDOF 4
ENDMDL
MODEL 6
REMARK minimizedAffinity -8.10933399
REMARK  4 active torsions:
REMARK  status: ('A' for Active; 'I' for Inactive)
REMARK    1  A    between atoms: C4_4  and  C5_5 
REMARK    2  A    between atoms: C5_5  and  C6_6 
REMARK    3  A    between atoms: C6_6  and  C7_7 
REMARK    4  A    between atoms: C7_7  and  C9_9 
ROOT
HETATM    1  C9  UNL     1      -0.106   7.537  13.221  1.00  0.00    -0.002 C 
HETATM    2  C10 UNL     1       0.612   6.340  13.885  1.00  0.00     0.006 C 
HETATM    3  C11 UNL     1      -0.456   5.320  14.273  1.00  0.00     0.011 C 
HETATM    4  C12 UNL     1      -1.759   5.729  13.530  1.00  0.00    -0.032 C 
HETATM    5  C13 UNL     1      -1.620   5.160  12.089  1.00  0.00     0.016 C 
HETATM    6  C14 UNL     1      -3.017   5.122  14.285  1.00  0.00     0.004 C 
HETATM    7  C15 UNL     1      -4.034   4.297  13.459  1.00  0.00     0.007 C 
HETATM    8  C16 UNL     1      -5.065   5.127  12.713  1.00  0.00     0.007 C 
HETATM    9  C17 UNL     1      -5.842   6.150  13.557  1.00  0.00     0.010 C 
HETATM   10  C18 UNL     1      -7.359   5.856  13.801  1.00  0.00     0.018 C 
HETATM   11  C19 UNL     1      -8.154   6.018  12.491  1.00  0.00     0.023 C 
HETATM   12  C20 UNL     1      -7.637   4.459  14.374  1.00  0.00     0.023 C 
HETATM   13  C21 UNL     1      -7.901   6.910  14.789  1.00  0.00     0.135 C 
HETATM   14  O1  UNL     1      -8.953   6.747  15.410  1.00  0.00    -0.297 OA
HETATM   15  C22 UNL     1      -7.134   8.212  14.900  1.00  0.00     0.080 C 
HETATM   16  C23 UNL     1      -5.680   7.972  15.300  1.00  0.00     0.018 C 
HETATM   17  C24 UNL     1      -5.169   6.606  14.851  1.00  0.00    -0.026 A 
HETATM   18  C25 UNL     1      -4.902   5.628  15.979  1.00  0.00     0.021 A 
HETATM   19  C26 UNL     1      -3.735   6.149  15.169  1.00  0.00    -0.027 A 
HETATM   20  C27 UNL     1      -2.789   7.039  15.921  1.00  0.00     0.011 C 
HETATM   21  C28 UNL     1      -1.931   7.893  15.002  1.00  0.00     0.011 C 
HETATM   22  C29 UNL     1      -1.623   7.310  13.590  1.00  0.00    -0.032 C 
HETATM   23  C30 UNL     1      -2.547   7.982  12.553  1.00  0.00     0.016 C 
ENDROOT
BRANCH   1  24
HETATM   24  C7  UNL     1       0.604   8.887  13.548  1.00  0.00    -0.014 C 
HETATM   25  C8  UNL     1      -0.363  10.062  13.696  1.00  0.00     0.010 C 
BRANCH  24  26
HETATM   26  C6  UNL     1       1.720   9.249  12.530  1.00  0.00     0.008 C 
BRANCH  26  27
HETATM   27  C5  UNL     1       2.030   8.176  11.478  1.00  0.00     0.028 C 
BRANCH  27  28
HETATM   28  C4  UNL     1       1.001   8.210  10.380  1.00  0.00    -0.025 C 
HETATM   29  C2  UNL     1       1.200   8.191   9.047  1.00  0.00    -0.091 C 
HETATM   30  C1  UNL     1       0.028   8.223   8.098  1.00  0.00     0.042 C 
HETATM   31  C3  UNL     1       2.539   8.127   8.364  1.00  0.00     0.042 C 
ENDBRANCH  27  28
ENDBRANCH  26  27
ENDBRANCH  24  26
ENDBRANCH   1  24
TORSDOF 4
ENDMDL
MODEL 7
REMARK minimizedAffinity -8.08549118
REMARK  4 active torsions:
REMARK  status: ('A' for Active; 'I' for Inactive)
REMARK    1  A    between atoms: C4_4  and  C5_5 
REMARK    2  A    between atoms: C5_5  and  C6_6 
REMARK    3  A    between atoms: C6_6  and  C7_7 
REMARK    4  A    between atoms: C7_7  and  C9_9 
ROOT
HETATM    1  C9  UNL     1      -1.260   6.390  12.009  1.00  0.00    -0.002 C 
HETATM    2  C10 UNL     1      -1.438   5.171  12.943  1.00  0.00     0.006 C 
HETATM    3  C11 UNL     1      -2.011   5.682  14.263  1.00  0.00     0.011 C 
HETATM    4  C12 UNL     1      -2.512   7.131  14.004  1.00  0.00    -0.032 C 
HETATM    5  C13 UNL     1      -3.918   6.981  13.356  1.00  0.00     0.016 C 
HETATM    6  C14 UNL     1      -2.578   7.926  15.378  1.00  0.00     0.004 C 
HETATM    7  C15 UNL     1      -3.903   8.638  15.744  1.00  0.00     0.007 C 
HETATM    8  C16 UNL     1      -4.082  10.007  15.110  1.00  0.00     0.007 C 
HETATM    9  C17 UNL     1      -2.926  10.998  15.315  1.00  0.00     0.010 C 
HETATM   10  C18 UNL     1      -3.204  12.224  16.246  1.00  0.00     0.018 C 
HETATM   11  C19 UNL     1      -4.195  13.194  15.574  1.00  0.00     0.023 C 
HETATM   12  C20 UNL     1      -3.754  11.842  17.629  1.00  0.00     0.023 C 
HETATM   13  C21 UNL     1      -1.882  12.995  16.438  1.00  0.00     0.135 C 
HETATM   14  O1  UNL     1      -1.717  13.798  17.358  1.00  0.00    -0.297 OA
HETATM   15  C22 UNL     1      -0.809  12.799  15.385  1.00  0.00     0.080 C 
HETATM   16  C23 UNL     1      -0.421  11.328  15.249  1.00  0.00     0.018 C 
HETATM   17  C24 UNL     1      -1.561  10.387  15.628  1.00  0.00    -0.026 A 
HETATM   18  C25 UNL     1      -1.333   9.598  16.904  1.00  0.00     0.021 A 
HETATM   19  C26 UNL     1      -1.380   8.860  15.584  1.00  0.00    -0.027 A 
HETATM   20  C27 UNL     1      -0.079   8.248  15.154  1.00  0.00     0.011 C 
HETATM   21  C28 UNL     1      -0.039   7.937  13.666  1.00  0.00     0.011 C 
HETATM   22  C29 UNL     1      -1.403   7.626  12.981  1.00  0.00    -0.032 C 
HETATM   23  C30 UNL     1      -1.881   8.876  12.214  1.00  0.00     0.016 C 
ENDROOT
BRANCH   1  24
HETATM   24  C7  UNL     1      -0.008   6.235  11.092  1.00  0.00    -0.014 C 
HETATM   25  C8  UNL     1       0.891   5.062  11.484  1.00  0.00     0.010 C 
BRANCH  24  26
HETATM   26  C6  UNL     1       0.837   7.534  10.991  1.00  0.00     0.008 C 
BRANCH  26  27
HETATM   27  C5  UNL     1       0.492   8.459   9.816  1.00  0.00     0.028 C 
BRANCH  27  28
HETATM   28  C4  UNL     1       0.736   7.753   8.509  1.00  0.00    -0.025 C 
HETATM   29  C2  UNL     1       1.830   7.804   7.723  1.00  0.00    -0.091 C 
HETATM   30  C1  UNL     1       1.888   7.011   6.441  1.00  0.00     0.042 C 
HETATM   31  C3  UNL     1       3.073   8.601   8.005  1.00  0.00     0.042 C 
ENDBRANCH  27  28
ENDBRANCH  26  27
ENDBRANCH  24  26
ENDBRANCH   1  24
TORSDOF 4
ENDMDL
MODEL 8
REMARK minimizedAffinity -7.94245672
REMARK  4 active torsions:
REMARK  status: ('A' for Active; 'I' for Inactive)
REMARK    1  A    between atoms: C4_4  and  C5_5 
REMARK    2  A    between atoms: C5_5  and  C6_6 
REMARK    3  A    between atoms: C6_6  and  C7_7 
REMARK    4  A    between atoms: C7_7  and  C9_9 
ROOT
HETATM    1  C9  UNL     1      -0.206   8.065  13.235  1.00  0.00    -0.002 C 
HETATM    2  C10 UNL     1       0.612   6.939  13.908  1.00  0.00     0.006 C 
HETATM    3  C11 UNL     1      -0.365   5.836  14.309  1.00  0.00     0.011 C 
HETATM    4  C12 UNL     1      -1.699   6.127  13.566  1.00  0.00    -0.032 C 
HETATM    5  C13 UNL     1      -1.516   5.557  12.131  1.00  0.00     0.016 C 
HETATM    6  C14 UNL     1      -2.900   5.423  14.331  1.00  0.00     0.004 C 
HETATM    7  C15 UNL     1      -3.845   4.506  13.516  1.00  0.00     0.007 C 
HETATM    8  C16 UNL     1      -4.945   5.239  12.766  1.00  0.00     0.007 C 
HETATM    9  C17 UNL     1      -5.803   6.200  13.602  1.00  0.00     0.010 C 
HETATM   10  C18 UNL     1      -7.289   5.782  13.854  1.00  0.00     0.018 C 
HETATM   11  C19 UNL     1      -8.098   5.862  12.545  1.00  0.00     0.023 C 
HETATM   12  C20 UNL     1      -7.446   4.371  14.441  1.00  0.00     0.023 C 
HETATM   13  C21 UNL     1      -7.917   6.795  14.833  1.00  0.00     0.135 C 
HETATM   14  O1  UNL     1      -8.950   6.550  15.459  1.00  0.00    -0.297 OA
HETATM   15  C22 UNL     1      -7.262   8.159  14.930  1.00  0.00     0.080 C 
HETATM   16  C23 UNL     1      -5.792   8.046  15.328  1.00  0.00     0.018 C 
HETATM   17  C24 UNL     1      -5.169   6.725  14.889  1.00  0.00    -0.026 A 
HETATM   18  C25 UNL     1      -4.817   5.783  16.026  1.00  0.00     0.021 A 
HETATM   19  C26 UNL     1      -3.700   6.393  15.207  1.00  0.00    -0.027 A 
HETATM   20  C27 UNL     1      -2.832   7.368  15.948  1.00  0.00     0.011 C 
HETATM   21  C28 UNL     1      -2.051   8.283  15.018  1.00  0.00     0.011 C 
HETATM   22  C29 UNL     1      -1.698   7.714  13.611  1.00  0.00    -0.032 C 
HETATM   23  C30 UNL     1      -2.678   8.295  12.571  1.00  0.00     0.016 C 
ENDROOT
BRANCH   1  24
HETATM   24  C7  UNL     1       0.387   9.474  13.547  1.00  0.00    -0.014 C 
HETATM   25  C8  UNL     1       1.915   9.512  13.503  1.00  0.00     0.010 C 
BRANCH  24  26
HETATM   26  C6  UNL     1      -0.115  10.061  14.894  1.00  0.00     0.008 C 
BRANCH  26  27
HETATM   27  C5  UNL     1       0.939  10.169  16.003  1.00  0.00     0.028 C 
BRANCH  27  28
HETATM   28  C4  UNL     1       0.289  10.559  17.304  1.00  0.00    -0.025 C 
HETATM   29  C2  UNL     1       0.867  10.725  18.511  1.00  0.00    -0.091 C 
HETATM   30  C1  UNL     1       0.040  11.129  19.706  1.00  0.00     0.042 C 
HETATM   31  C3  UNL     1       2.331  10.552  18.810  1.00  0.00     0.042 C 
ENDBRANCH  27  28
ENDBRANCH  26  27
ENDBRANCH  24  26
ENDBRANCH   1  24
TORSDOF 4
ENDMDL
MODEL 9
REMARK minimizedAffinity -7.82928419
REMARK  4 active torsions:
REMARK  status: ('A' for Active; 'I' for Inactive)
REMARK    1  A    between atoms: C4_4  and  C5_5 
REMARK    2  A    between atoms: C5_5  and  C6_6 
REMARK    3  A    between atoms: C6_6  and  C7_7 
REMARK    4  A    between atoms: C7_7  and  C9_9 
ROOT
HETATM    1  C9  UNL     1      -5.096   8.999  14.652  1.00  0.00    -0.002 C 
HETATM    2  C10 UNL     1      -4.617   9.342  16.082  1.00  0.00     0.006 C 
HETATM    3  C11 UNL     1      -3.114   9.078  16.139  1.00  0.00     0.011 C 
HETATM    4  C12 UNL     1      -2.628   8.924  14.671  1.00  0.00    -0.032 C 
HETATM    5  C13 UNL     1      -2.437  10.372  14.137  1.00  0.00     0.016 C 
HETATM    6  C14 UNL     1      -1.271   8.100  14.641  1.00  0.00     0.004 C 
HETATM    7  C15 UNL     1      -0.064   8.711  13.887  1.00  0.00     0.007 C 
HETATM    8  C16 UNL     1      -0.071   8.474  12.386  1.00  0.00     0.007 C 
HETATM    9  C17 UNL     1      -0.235   7.015  11.937  1.00  0.00     0.010 C 
HETATM   10  C18 UNL     1       1.011   6.334  11.280  1.00  0.00     0.018 C 
HETATM   11  C19 UNL     1       1.290   6.949   9.896  1.00  0.00     0.023 C 
HETATM   12  C20 UNL     1       2.289   6.430  12.126  1.00  0.00     0.023 C 
HETATM   13  C21 UNL     1       0.683   4.844  11.052  1.00  0.00     0.135 C 
HETATM   14  O1  UNL     1       1.560   4.001  10.857  1.00  0.00    -0.297 OA
HETATM   15  C22 UNL     1      -0.782   4.462  10.981  1.00  0.00     0.080 C 
HETATM   16  C23 UNL     1      -1.528   4.866  12.251  1.00  0.00     0.018 C 
HETATM   17  C24 UNL     1      -0.894   6.070  12.941  1.00  0.00    -0.026 A 
HETATM   18  C25 UNL     1      -0.234   5.762  14.272  1.00  0.00     0.021 A 
HETATM   19  C26 UNL     1      -1.473   6.631  14.252  1.00  0.00    -0.027 A 
HETATM   20  C27 UNL     1      -2.687   6.018  14.885  1.00  0.00     0.011 C 
HETATM   21  C28 UNL     1      -3.980   6.688  14.446  1.00  0.00     0.011 C 
HETATM   22  C29 UNL     1      -3.887   8.189  14.041  1.00  0.00    -0.032 C 
HETATM   23  C30 UNL     1      -3.875   8.299  12.502  1.00  0.00     0.016 C 
ENDROOT
BRANCH   1  24
HETATM   24  C7  UNL     1      -6.538   8.403  14.656  1.00  0.00    -0.014 C 
HETATM   25  C8  UNL     1      -7.489   9.120  15.614  1.00  0.00     0.010 C 
BRANCH  24  26
HETATM   26  C6  UNL     1      -6.563   6.875  14.936  1.00  0.00     0.008 C 
BRANCH  26  27
HETATM   27  C5  UNL     1      -7.950   6.219  14.905  1.00  0.00     0.028 C 
BRANCH  27  28
HETATM   28  C4  UNL     1      -8.561   6.358  13.535  1.00  0.00    -0.025 C 
HETATM   29  C2  UNL     1      -8.374   5.575  12.454  1.00  0.00    -0.091 C 
HETATM   30  C1  UNL     1      -9.089   5.876  11.160  1.00  0.00     0.042 C 
HETATM   31  C3  UNL     1      -7.488   4.361  12.396  1.00  0.00     0.042 C 
ENDBRANCH  27  28
ENDBRANCH  26  27
ENDBRANCH  24  26
ENDBRANCH   1  24
TORSDOF 4
ENDMDL
