MODEL 1
REMARK minimizedAffinity -9.4793396
REMARK CNNscore 0.449561059
REMARK CNNaffinity 7.28676748
REMARK  5 active torsions:
REMARK  status: ('A' for Active; 'I' for Inactive)
REMARK    1  A    between atoms: C2_2  and  C4_4 
REMARK    2  A    between atoms: C10_11  and  O2_12 
REMARK    3  A    between atoms: C13_15  and  O3_16 
REMARK    4  A    between atoms: C33_39  and  O6_40 
REMARK    5  A    between atoms: C38_46  and  O8_47 
ROOT
HETATM    1  C4  UNL     1      -1.262  50.551 -18.329  1.00  0.00     0.181 C 
HETATM    2  O1  UNL     1      -0.252  51.457 -17.870  1.00  0.00    -0.370 OA
HETATM    3  C5  UNL     1       0.693  50.894 -16.930  1.00  0.00     0.163 C 
HETATM    4  C6  UNL     1       1.388  52.120 -16.330  1.00  0.00     0.036 C 
HETATM    5  C7  UNL     1       2.200  51.834 -15.071  1.00  0.00     0.016 C 
HETATM    6  C8  UNL     1       1.387  51.083 -13.968  1.00  0.00     0.008 C 
HETATM    7  C9  UNL     1       0.143  51.965 -13.615  1.00  0.00     0.020 C 
HETATM    8  C10 UNL     1       0.891  49.740 -14.607  1.00  0.00     0.103 C 
HETATM    9  C11 UNL     1       0.177  48.864 -13.563  1.00  0.00     0.047 C 
HETATM   10  C12 UNL     1       1.077  48.531 -12.374  1.00  0.00     0.073 C 
HETATM   11  C13 UNL     1       1.591  49.772 -11.618  1.00  0.00     0.180 C 
HETATM   12  O4  UNL     1       0.439  50.353 -10.988  1.00  0.00    -0.320 OA
HETATM   13  C15 UNL     1       0.691  51.518 -10.167  1.00  0.00     0.302 C 
HETATM   14  O5  UNL     1      -0.555  52.217 -10.144  1.00  0.00    -0.346 OA
HETATM   15  C16 UNL     1      -1.118  52.587  -8.882  1.00  0.00     0.064 C 
HETATM   16  C17 UNL     1      -1.207  51.424  -7.888  1.00  0.00     0.046 C 
HETATM   17  C18 UNL     1      -2.568  52.991  -9.225  1.00  0.00     0.046 C 
HETATM   18  C19 UNL     1      -0.410  53.845  -8.356  1.00  0.00     0.060 C 
HETATM   19  C20 UNL     1      -0.762  54.416  -6.963  1.00  0.00     0.023 C 
HETATM   20  C21 UNL     1       0.698  54.904  -6.805  1.00  0.00     0.054 C 
HETATM   21  C22 UNL     1       1.065  56.322  -7.137  1.00  0.00    -0.078 C 
HETATM   22  C23 UNL     1       0.229  57.335  -6.855  1.00  0.00     0.015 C 
HETATM   23  C24 UNL     1       2.447  56.536  -7.723  1.00  0.00     0.073 C 
HETATM   24  C25 UNL     1       2.737  55.663  -8.926  1.00  0.00    -0.044 A 
HETATM   25  C26 UNL     1       3.668  56.071  -9.885  1.00  0.00     0.010 A 
HETATM   26  C27 UNL     1       3.956  55.273 -10.992  1.00  0.00     0.031 A 
HETATM   27  C28 UNL     1       3.262  54.066 -11.125  1.00  0.00     0.044 A 
HETATM   28  N1  UNL     1       3.357  53.106 -12.109  1.00  0.00    -0.357 N 
HETATM   29  C29 UNL     1       2.479  52.093 -11.855  1.00  0.00     0.036 A 
HETATM   30  C30 UNL     1       1.776  52.402 -10.708  1.00  0.00     0.033 A 
HETATM   31  C31 UNL     1       2.314  53.626 -10.195  1.00  0.00     0.013 A 
HETATM   32  C32 UNL     1       2.087  54.412  -9.038  1.00  0.00    -0.003 A 
HETATM   33  C33 UNL     1       1.103  53.854  -7.932  1.00  0.00     0.100 C 
HETATM   34  C34 UNL     1       2.298  50.804 -12.652  1.00  0.00     0.066 C 
HETATM   35  C35 UNL     1       3.721  50.258 -12.980  1.00  0.00     0.029 C 
HETATM   36  C36 UNL     1       0.057  49.994 -15.873  1.00  0.00     0.147 A 
HETATM   37  O7  UNL     1      -0.389  48.718 -16.431  1.00  0.00    -0.360 OA
HETATM   38  C37 UNL     1      -1.406  49.625 -16.015  1.00  0.00     0.194 A 
HETATM   39  C38 UNL     1      -2.197  50.234 -17.126  1.00  0.00     0.183 C 
HETATM   40  H40 UNL     1       3.999  53.149 -12.888  1.00  0.00     0.166 HD
ENDROOT
BRANCH   1  41
HETATM   41  C2  UNL     1      -2.004  51.171 -19.513  1.00  0.00    -0.062 C 
HETATM   42  C1  UNL     1      -3.343  51.163 -19.651  1.00  0.00     0.016 C 
HETATM   43  C3  UNL     1      -1.140  51.853 -20.541  1.00  0.00     0.045 C 
ENDBRANCH   1  41
BRANCH  39  44
HETATM   44  O8  UNL     1      -2.816  51.409 -16.593  1.00  0.00    -0.390 OA
HETATM   45  H47 UNL     1      -2.758  52.099 -17.283  1.00  0.00     0.210 HD
ENDBRANCH  39  44
BRANCH   8  46
HETATM   46  O2  UNL     1       2.024  48.978 -15.054  1.00  0.00    -0.386 OA
HETATM   47  H15 UNL     1       1.663  48.205 -15.530  1.00  0.00     0.210 HD
ENDBRANCH   8  46
BRANCH  11  48
HETATM   48  O3  UNL     1       2.555  49.363 -10.621  1.00  0.00    -0.359 OA
HETATM   49  C14 UNL     1       2.357  48.081 -10.048  1.00  0.00     0.205 C 
ENDBRANCH  11  48
BRANCH  33  50
HETATM   50  O6  UNL     1       1.610  52.626  -7.342  1.00  0.00    -0.384 OA
HETATM   51  H41 UNL     1       2.563  52.791  -7.228  1.00  0.00     0.211 HD
ENDBRANCH  33  50
TORSDOF 5
ENDMDL
MODEL 2
REMARK minimizedAffinity -6.96300459
REMARK CNNscore 0.385799766
REMARK CNNaffinity 6.04846954
REMARK  5 active torsions:
REMARK  status: ('A' for Active; 'I' for Inactive)
REMARK    1  A    between atoms: C2_2  and  C4_4 
REMARK    2  A    between atoms: C10_11  and  O2_12 
REMARK    3  A    between atoms: C13_15  and  O3_16 
REMARK    4  A    between atoms: C33_39  and  O6_40 
REMARK    5  A    between atoms: C38_46  and  O8_47 
ROOT
HETATM    1  C4  UNL     1     -11.159  42.930 -30.388  1.00  0.00     0.181 C 
HETATM    2  O1  UNL     1     -10.598  42.263 -29.251  1.00  0.00    -0.370 OA
HETATM    3  C5  UNL     1     -11.176  42.636 -27.978  1.00  0.00     0.163 C 
HETATM    4  C6  UNL     1     -10.176  42.096 -26.951  1.00  0.00     0.036 C 
HETATM    5  C7  UNL     1     -10.368  42.635 -25.537  1.00  0.00     0.016 C 
HETATM    6  C8  UNL     1     -10.417  44.196 -25.472  1.00  0.00     0.008 C 
HETATM    7  C9  UNL     1      -9.078  44.737 -26.075  1.00  0.00     0.020 C 
HETATM    8  C10 UNL     1     -11.605  44.650 -26.390  1.00  0.00     0.103 C 
HETATM    9  C11 UNL     1     -11.818  46.171 -26.302  1.00  0.00     0.047 C 
HETATM   10  C12 UNL     1     -12.104  46.634 -24.875  1.00  0.00     0.073 C 
HETATM   11  C13 UNL     1     -10.980  46.298 -23.876  1.00  0.00     0.180 C 
HETATM   12  O4  UNL     1      -9.861  47.114 -24.254  1.00  0.00    -0.320 OA
HETATM   13  C15 UNL     1      -8.689  47.005 -23.413  1.00  0.00     0.302 C 
HETATM   14  O5  UNL     1      -7.605  47.403 -24.254  1.00  0.00    -0.346 OA
HETATM   15  C16 UNL     1      -6.710  48.419 -23.794  1.00  0.00     0.064 C 
HETATM   16  C17 UNL     1      -7.420  49.686 -23.305  1.00  0.00     0.046 C 
HETATM   17  C18 UNL     1      -5.916  48.816 -25.058  1.00  0.00     0.046 C 
HETATM   18  C19 UNL     1      -5.707  47.808 -22.804  1.00  0.00     0.060 C 
HETATM   19  C20 UNL     1      -4.674  48.703 -22.082  1.00  0.00     0.023 C 
HETATM   20  C21 UNL     1      -4.735  47.766 -20.853  1.00  0.00     0.054 C 
HETATM   21  C22 UNL     1      -3.711  46.683 -20.671  1.00  0.00    -0.078 C 
HETATM   22  C23 UNL     1      -2.426  46.884 -21.007  1.00  0.00     0.015 C 
HETATM   23  C24 UNL     1      -4.198  45.403 -20.020  1.00  0.00     0.073 C 
HETATM   24  C25 UNL     1      -5.421  44.811 -20.688  1.00  0.00    -0.044 A 
HETATM   25  C26 UNL     1      -5.678  43.440 -20.601  1.00  0.00     0.010 A 
HETATM   26  C27 UNL     1      -6.807  42.881 -21.201  1.00  0.00     0.031 A 
HETATM   27  C28 UNL     1      -7.656  43.733 -21.914  1.00  0.00     0.044 A 
HETATM   28  N1  UNL     1      -8.822  43.441 -22.589  1.00  0.00    -0.357 N 
HETATM   29  C29 UNL     1      -9.322  44.573 -23.162  1.00  0.00     0.036 A 
HETATM   30  C30 UNL     1      -8.462  45.617 -22.889  1.00  0.00     0.033 A 
HETATM   31  C31 UNL     1      -7.431  45.107 -22.036  1.00  0.00     0.013 A 
HETATM   32  C32 UNL     1      -6.320  45.673 -21.359  1.00  0.00    -0.003 A 
HETATM   33  C33 UNL     1      -6.135  47.242 -21.401  1.00  0.00     0.100 C 
HETATM   34  C34 UNL     1     -10.623  44.716 -23.947  1.00  0.00     0.066 C 
HETATM   35  C35 UNL     1     -11.725  43.939 -23.164  1.00  0.00     0.029 C 
HETATM   36  C36 UNL     1     -11.435  44.132 -27.827  1.00  0.00     0.147 A 
HETATM   37  O7  UNL     1     -12.559  44.583 -28.647  1.00  0.00    -0.360 OA
HETATM   38  C37 UNL     1     -11.263  45.027 -29.038  1.00  0.00     0.194 A 
HETATM   39  C38 UNL     1     -10.751  44.430 -30.307  1.00  0.00     0.183 C 
HETATM   40  H40 UNL     1      -9.243  42.523 -22.629  1.00  0.00     0.166 HD
ENDROOT
BRANCH   1  41
HETATM   41  C2  UNL     1     -10.676  42.250 -31.669  1.00  0.00    -0.062 C 
HETATM   42  C1  UNL     1     -10.097  41.036 -31.707  1.00  0.00     0.016 C 
HETATM   43  C3  UNL     1     -10.924  43.011 -32.945  1.00  0.00     0.045 C 
ENDBRANCH   1  41
BRANCH  39  44
HETATM   44  O8  UNL     1      -9.330  44.608 -30.300  1.00  0.00    -0.390 OA
HETATM   45  H47 UNL     1      -8.940  43.785 -30.654  1.00  0.00     0.210 HD
ENDBRANCH  39  44
BRANCH   8  46
HETATM   46  O2  UNL     1     -12.825  44.053 -25.920  1.00  0.00    -0.386 OA
HETATM   47  H15 UNL     1     -13.511  44.282 -26.576  1.00  0.00     0.210 HD
ENDBRANCH   8  46
BRANCH  11  48
HETATM   48  O3  UNL     1     -11.412  46.628 -22.536  1.00  0.00    -0.359 OA
HETATM   49  C14 UNL     1     -12.781  46.968 -22.386  1.00  0.00     0.205 C 
ENDBRANCH  11  48
BRANCH  33  50
HETATM   50  O6  UNL     1      -7.239  47.925 -20.747  1.00  0.00    -0.384 OA
HETATM   51  H41 UNL     1      -7.412  47.391 -19.950  1.00  0.00     0.211 HD
ENDBRANCH  33  50
TORSDOF 5
ENDMDL
MODEL 3
REMARK minimizedAffinity -7.66093731
REMARK CNNscore 0.369939327
REMARK CNNaffinity 6.1989789
REMARK  5 active torsions:
REMARK  status: ('A' for Active; 'I' for Inactive)
REMARK    1  A    between atoms: C2_2  and  C4_4 
REMARK    2  A    between atoms: C10_11  and  O2_12 
REMARK    3  A    between atoms: C13_15  and  O3_16 
REMARK    4  A    between atoms: C33_39  and  O6_40 
REMARK    5  A    between atoms: C38_46  and  O8_47 
ROOT
HETATM    1  C4  UNL     1      13.198  67.272 -17.124  1.00  0.00     0.181 C 
HETATM    2  O1  UNL     1      12.874  67.385 -15.733  1.00  0.00    -0.370 OA
HETATM    3  C5  UNL     1      11.976  66.369 -15.230  1.00  0.00     0.163 C 
HETATM    4  C6  UNL     1      11.508  66.928 -13.883  1.00  0.00     0.036 C 
HETATM    5  C7  UNL     1      10.300  66.213 -13.286  1.00  0.00     0.016 C 
HETATM    6  C8  UNL     1       9.093  66.109 -14.274  1.00  0.00     0.008 C 
HETATM    7  C9  UNL     1       8.701  67.564 -14.697  1.00  0.00     0.020 C 
HETATM    8  C10 UNL     1       9.608  65.337 -15.538  1.00  0.00     0.103 C 
HETATM    9  C11 UNL     1       8.461  65.073 -16.527  1.00  0.00     0.047 C 
HETATM   10  C12 UNL     1       7.326  64.267 -15.897  1.00  0.00     0.073 C 
HETATM   11  C13 UNL     1       6.689  64.949 -14.669  1.00  0.00     0.180 C 
HETATM   12  O4  UNL     1       6.010  66.109 -15.172  1.00  0.00    -0.320 OA
HETATM   13  C15 UNL     1       5.285  66.887 -14.192  1.00  0.00     0.302 C 
HETATM   14  O5  UNL     1       5.210  68.198 -14.758  1.00  0.00    -0.346 OA
HETATM   15  C16 UNL     1       3.933  68.836 -14.859  1.00  0.00     0.064 C 
HETATM   16  C17 UNL     1       2.865  67.966 -15.531  1.00  0.00     0.046 C 
HETATM   17  C18 UNL     1       4.189  70.033 -15.800  1.00  0.00     0.046 C 
HETATM   18  C19 UNL     1       3.541  69.413 -13.490  1.00  0.00     0.060 C 
HETATM   19  C20 UNL     1       2.163  70.085 -13.288  1.00  0.00     0.023 C 
HETATM   20  C21 UNL     1       2.148  69.593 -11.822  1.00  0.00     0.054 C 
HETATM   21  C22 UNL     1       2.593  70.500 -10.711  1.00  0.00    -0.078 C 
HETATM   22  C23 UNL     1       2.312  71.813 -10.738  1.00  0.00     0.015 C 
HETATM   23  C24 UNL     1       3.296  69.834  -9.544  1.00  0.00     0.073 C 
HETATM   24  C25 UNL     1       4.461  68.960  -9.956  1.00  0.00    -0.044 A 
HETATM   25  C26 UNL     1       5.512  68.720  -9.066  1.00  0.00     0.010 A 
HETATM   26  C27 UNL     1       6.587  67.906  -9.427  1.00  0.00     0.031 A 
HETATM   27  C28 UNL     1       6.591  67.363 -10.715  1.00  0.00     0.044 A 
HETATM   28  N1  UNL     1       7.518  66.538 -11.314  1.00  0.00    -0.357 N 
HETATM   29  C29 UNL     1       7.136  66.261 -12.594  1.00  0.00     0.036 A 
HETATM   30  C30 UNL     1       5.960  66.935 -12.853  1.00  0.00     0.033 A 
HETATM   31  C31 UNL     1       5.567  67.587 -11.641  1.00  0.00     0.013 A 
HETATM   32  C32 UNL     1       4.446  68.355 -11.235  1.00  0.00    -0.003 A 
HETATM   33  C33 UNL     1       3.236  68.508 -12.242  1.00  0.00     0.100 C 
HETATM   34  C34 UNL     1       7.836  65.341 -13.590  1.00  0.00     0.066 C 
HETATM   35  C35 UNL     1       8.237  64.045 -12.822  1.00  0.00     0.029 C 
HETATM   36  C36 UNL     1      10.820  66.039 -16.171  1.00  0.00     0.147 A 
HETATM   37  O7  UNL     1      11.263  65.290 -17.346  1.00  0.00    -0.360 OA
HETATM   38  C37 UNL     1      10.827  66.628 -17.567  1.00  0.00     0.194 A 
HETATM   39  C38 UNL     1      11.910  67.587 -17.938  1.00  0.00     0.183 C 
HETATM   40  H40 UNL     1       8.345  66.182 -10.854  1.00  0.00     0.166 HD
ENDROOT
BRANCH   1  41
HETATM   41  C2  UNL     1      14.358  68.210 -17.457  1.00  0.00    -0.062 C 
HETATM   42  C1  UNL     1      14.923  69.053 -16.573  1.00  0.00     0.016 C 
HETATM   43  C3  UNL     1      14.888  68.118 -18.863  1.00  0.00     0.045 C 
ENDBRANCH   1  41
BRANCH  39  44
HETATM   44  O8  UNL     1      11.404  68.900 -17.670  1.00  0.00    -0.390 OA
HETATM   45  H47 UNL     1      12.138  69.412 -17.278  1.00  0.00     0.210 HD
ENDBRANCH  39  44
BRANCH   8  46
HETATM   46  O2  UNL     1      10.093  64.043 -15.141  1.00  0.00    -0.386 OA
HETATM   47  H15 UNL     1      10.491  63.644 -15.938  1.00  0.00     0.210 HD
ENDBRANCH   8  46
BRANCH  11  48
HETATM   48  O3  UNL     1       5.746  64.043 -14.052  1.00  0.00    -0.359 OA
HETATM   49  C14 UNL     1       5.571  62.789 -14.692  1.00  0.00     0.205 C 
ENDBRANCH  11  48
BRANCH  33  50
HETATM   50  O6  UNL     1       2.611  67.225 -12.520  1.00  0.00    -0.384 OA
HETATM   51  H41 UNL     1       2.581  66.781 -11.653  1.00  0.00     0.211 HD
ENDBRANCH  33  50
TORSDOF 5
ENDMDL
MODEL 4
REMARK minimizedAffinity -10.2208586
REMARK CNNscore 0.353900492
REMARK CNNaffinity 7.09797144
REMARK  5 active torsions:
REMARK  status: ('A' for Active; 'I' for Inactive)
REMARK    1  A    between atoms: C2_2  and  C4_4 
REMARK    2  A    between atoms: C10_11  and  O2_12 
REMARK    3  A    between atoms: C13_15  and  O3_16 
REMARK    4  A    between atoms: C33_39  and  O6_40 
REMARK    5  A    between atoms: C38_46  and  O8_47 
ROOT
HETATM    1  C4  UNL     1       2.869  45.326 -12.032  1.00  0.00     0.181 C 
HETATM    2  O1  UNL     1       3.332  46.469 -12.758  1.00  0.00    -0.370 OA
HETATM    3  C5  UNL     1       2.509  47.652 -12.626  1.00  0.00     0.163 C 
HETATM    4  C6  UNL     1       2.991  48.562 -13.760  1.00  0.00     0.036 C 
HETATM    5  C7  UNL     1       2.071  49.741 -14.060  1.00  0.00     0.016 C 
HETATM    6  C8  UNL     1       0.585  49.319 -14.303  1.00  0.00     0.008 C 
HETATM    7  C9  UNL     1       0.570  48.309 -15.498  1.00  0.00     0.020 C 
HETATM    8  C10 UNL     1       0.108  48.577 -13.006  1.00  0.00     0.103 C 
HETATM    9  C11 UNL     1      -1.386  48.224 -13.093  1.00  0.00     0.047 C 
HETATM   10  C12 UNL     1      -2.263  49.458 -13.295  1.00  0.00     0.073 C 
HETATM   11  C13 UNL     1      -1.932  50.252 -14.575  1.00  0.00     0.180 C 
HETATM   12  O4  UNL     1      -2.318  49.409 -15.670  1.00  0.00    -0.320 OA
HETATM   13  C15 UNL     1      -2.146  49.975 -16.990  1.00  0.00     0.302 C 
HETATM   14  O5  UNL     1      -2.029  48.842 -17.854  1.00  0.00    -0.346 OA
HETATM   15  C16 UNL     1      -2.877  48.759 -19.004  1.00  0.00     0.064 C 
HETATM   16  C17 UNL     1      -4.362  48.962 -18.686  1.00  0.00     0.046 C 
HETATM   17  C18 UNL     1      -2.720  47.297 -19.477  1.00  0.00     0.046 C 
HETATM   18  C19 UNL     1      -2.318  49.657 -20.118  1.00  0.00     0.060 C 
HETATM   19  C20 UNL     1      -3.086  49.825 -21.449  1.00  0.00     0.023 C 
HETATM   20  C21 UNL     1      -2.549  51.271 -21.566  1.00  0.00     0.054 C 
HETATM   21  C22 UNL     1      -1.332  51.565 -22.396  1.00  0.00    -0.078 C 
HETATM   22  C23 UNL     1      -1.114  50.919 -23.553  1.00  0.00     0.015 C 
HETATM   23  C24 UNL     1      -0.429  52.674 -21.891  1.00  0.00     0.073 C 
HETATM   24  C25 UNL     1      -0.004  52.499 -20.448  1.00  0.00    -0.044 A 
HETATM   25  C26 UNL     1       1.189  53.066 -19.991  1.00  0.00     0.010 A 
HETATM   26  C27 UNL     1       1.588  52.926 -18.661  1.00  0.00     0.031 A 
HETATM   27  C28 UNL     1       0.770  52.176 -17.810  1.00  0.00     0.044 A 
HETATM   28  N1  UNL     1       0.930  51.889 -16.472  1.00  0.00    -0.357 N 
HETATM   29  C29 UNL     1      -0.100  51.107 -16.038  1.00  0.00     0.036 A 
HETATM   30  C30 UNL     1      -0.933  50.849 -17.108  1.00  0.00     0.033 A 
HETATM   31  C31 UNL     1      -0.425  51.582 -18.229  1.00  0.00     0.013 A 
HETATM   32  C32 UNL     1      -0.855  51.796 -19.563  1.00  0.00    -0.003 A 
HETATM   33  C33 UNL     1      -2.263  51.223 -20.000  1.00  0.00     0.100 C 
HETATM   34  C34 UNL     1      -0.349  50.610 -14.617  1.00  0.00     0.066 C 
HETATM   35  C35 UNL     1      -0.102  51.811 -13.655  1.00  0.00     0.029 C 
HETATM   36  C36 UNL     1       1.009  47.374 -12.683  1.00  0.00     0.147 A 
HETATM   37  O7  UNL     1       0.525  46.710 -11.473  1.00  0.00    -0.360 OA
HETATM   38  C37 UNL     1       0.533  45.936 -12.669  1.00  0.00     0.194 A 
HETATM   39  C38 UNL     1       1.549  44.842 -12.701  1.00  0.00     0.183 C 
HETATM   40  H40 UNL     1       1.693  52.230 -15.903  1.00  0.00     0.166 HD
ENDROOT
BRANCH   1  41
HETATM   41  C2  UNL     1       3.958  44.253 -12.019  1.00  0.00    -0.062 C 
HETATM   42  C1  UNL     1       4.516  43.758 -10.899  1.00  0.00     0.016 C 
HETATM   43  C3  UNL     1       4.367  43.722 -13.368  1.00  0.00     0.045 C 
ENDBRANCH   1  41
BRANCH  39  44
HETATM   44  O8  UNL     1       1.732  44.493 -14.077  1.00  0.00    -0.390 OA
HETATM   45  H47 UNL     1       2.690  44.342 -14.206  1.00  0.00     0.210 HD
ENDBRANCH  39  44
BRANCH   8  46
HETATM   46  O2  UNL     1       0.241  49.457 -11.878  1.00  0.00    -0.386 OA
HETATM   47  H15 UNL     1       0.029  48.922 -11.088  1.00  0.00     0.210 HD
ENDBRANCH   8  46
BRANCH  11  48
HETATM   48  O3  UNL     1      -2.697  51.479 -14.591  1.00  0.00    -0.359 OA
HETATM   49  C14 UNL     1      -3.312  51.849 -13.367  1.00  0.00     0.205 C 
ENDBRANCH  11  48
BRANCH  33  50
HETATM   50  O6  UNL     1      -3.343  51.846 -19.254  1.00  0.00    -0.384 OA
HETATM   51  H41 UNL     1      -3.096  52.788 -19.216  1.00  0.00     0.211 HD
ENDBRANCH  33  50
TORSDOF 5
ENDMDL
MODEL 5
REMARK minimizedAffinity -7.46886778
REMARK CNNscore 0.328835189
REMARK CNNaffinity 6.54792643
REMARK  5 active torsions:
REMARK  status: ('A' for Active; 'I' for Inactive)
REMARK    1  A    between atoms: C2_2  and  C4_4 
REMARK    2  A    between atoms: C10_11  and  O2_12 
REMARK    3  A    between atoms: C13_15  and  O3_16 
REMARK    4  A    between atoms: C33_39  and  O6_40 
REMARK    5  A    between atoms: C38_46  and  O8_47 
ROOT
HETATM    1  C4  UNL     1      -5.253  39.302 -16.590  1.00  0.00     0.181 C 
HETATM    2  O1  UNL     1      -4.194  40.193 -16.960  1.00  0.00    -0.370 OA
HETATM    3  C5  UNL     1      -4.388  41.571 -16.563  1.00  0.00     0.163 C 
HETATM    4  C6  UNL     1      -3.348  42.337 -17.386  1.00  0.00     0.036 C 
HETATM    5  C7  UNL     1      -3.551  43.849 -17.411  1.00  0.00     0.016 C 
HETATM    6  C8  UNL     1      -4.993  44.272 -17.840  1.00  0.00     0.008 C 
HETATM    7  C9  UNL     1      -5.261  43.670 -19.259  1.00  0.00     0.020 C 
HETATM    8  C10 UNL     1      -5.981  43.611 -16.816  1.00  0.00     0.103 C 
HETATM    9  C11 UNL     1      -7.427  44.064 -17.076  1.00  0.00     0.047 C 
HETATM   10  C12 UNL     1      -7.584  45.581 -16.990  1.00  0.00     0.073 C 
HETATM   11  C13 UNL     1      -6.703  46.354 -17.992  1.00  0.00     0.180 C 
HETATM   12  O4  UNL     1      -7.233  46.056 -19.292  1.00  0.00    -0.320 OA
HETATM   13  C15 UNL     1      -6.589  46.722 -20.402  1.00  0.00     0.302 C 
HETATM   14  O5  UNL     1      -6.856  45.884 -21.528  1.00  0.00    -0.346 OA
HETATM   15  C16 UNL     1      -7.427  46.466 -22.704  1.00  0.00     0.064 C 
HETATM   16  C17 UNL     1      -8.681  47.302 -22.426  1.00  0.00     0.046 C 
HETATM   17  C18 UNL     1      -7.881  45.249 -23.539  1.00  0.00     0.046 C 
HETATM   18  C19 UNL     1      -6.329  47.181 -23.506  1.00  0.00     0.060 C 
HETATM   19  C20 UNL     1      -6.683  47.974 -24.784  1.00  0.00     0.023 C 
HETATM   20  C21 UNL     1      -5.529  48.958 -24.482  1.00  0.00     0.054 C 
HETATM   21  C22 UNL     1      -4.188  48.781 -25.136  1.00  0.00    -0.078 C 
HETATM   22  C23 UNL     1      -4.091  48.365 -26.410  1.00  0.00     0.015 C 
HETATM   23  C24 UNL     1      -2.981  49.171 -24.305  1.00  0.00     0.073 C 
HETATM   24  C25 UNL     1      -2.948  48.518 -22.939  1.00  0.00    -0.044 A 
HETATM   25  C26 UNL     1      -1.731  48.318 -22.283  1.00  0.00     0.010 A 
HETATM   26  C27 UNL     1      -1.685  47.729 -21.018  1.00  0.00     0.031 A 
HETATM   27  C28 UNL     1      -2.893  47.321 -20.444  1.00  0.00     0.044 A 
HETATM   28  N1  UNL     1      -3.123  46.724 -19.224  1.00  0.00    -0.357 N 
HETATM   29  C29 UNL     1      -4.457  46.479 -19.071  1.00  0.00     0.036 A 
HETATM   30  C30 UNL     1      -5.109  46.890 -20.216  1.00  0.00     0.033 A 
HETATM   31  C31 UNL     1      -4.131  47.492 -21.071  1.00  0.00     0.013 A 
HETATM   32  C32 UNL     1      -4.169  48.158 -22.322  1.00  0.00    -0.003 A 
HETATM   33  C33 UNL     1      -5.580  48.455 -22.972  1.00  0.00     0.100 C 
HETATM   34  C34 UNL     1      -5.155  45.888 -17.850  1.00  0.00     0.066 C 
HETATM   35  C35 UNL     1      -4.556  46.585 -16.591  1.00  0.00     0.029 C 
HETATM   36  C36 UNL     1      -5.809  42.084 -16.775  1.00  0.00     0.147 A 
HETATM   37  O7  UNL     1      -6.751  41.510 -15.814  1.00  0.00    -0.360 OA
HETATM   38  C37 UNL     1      -6.889  41.097 -17.170  1.00  0.00     0.194 A 
HETATM   39  C38 UNL     1      -6.505  39.679 -17.436  1.00  0.00     0.183 C 
HETATM   40  H40 UNL     1      -2.404  46.521 -18.544  1.00  0.00     0.166 HD
ENDROOT
BRANCH   1  41
HETATM   41  C2  UNL     1      -4.804  37.857 -16.803  1.00  0.00    -0.062 C 
HETATM   42  C1  UNL     1      -5.581  36.783 -16.570  1.00  0.00     0.016 C 
HETATM   43  C3  UNL     1      -3.411  37.680 -17.346  1.00  0.00     0.045 C 
ENDBRANCH   1  41
BRANCH  39  44
HETATM   44  O8  UNL     1      -6.263  39.577 -18.843  1.00  0.00    -0.390 OA
HETATM   45  H47 UNL     1      -5.477  39.006 -18.955  1.00  0.00     0.210 HD
ENDBRANCH  39  44
BRANCH   8  46
HETATM   46  O2  UNL     1      -5.660  44.058 -15.488  1.00  0.00    -0.386 OA
HETATM   47  H15 UNL     1      -6.231  43.547 -14.882  1.00  0.00     0.210 HD
ENDBRANCH   8  46
BRANCH  11  48
HETATM   48  O3  UNL     1      -6.800  47.771 -17.723  1.00  0.00    -0.359 OA
HETATM   49  C14 UNL     1      -8.108  48.319 -17.710  1.00  0.00     0.205 C 
ENDBRANCH  11  48
BRANCH  33  50
HETATM   50  O6  UNL     1      -6.364  49.360 -22.148  1.00  0.00    -0.384 OA
HETATM   51  H41 UNL     1      -5.722  50.028 -21.848  1.00  0.00     0.211 HD
ENDBRANCH  33  50
TORSDOF 5
ENDMDL
MODEL 6
REMARK minimizedAffinity -8.39742756
REMARK CNNscore 0.31747815
REMARK CNNaffinity 6.01003981
REMARK  5 active torsions:
REMARK  status: ('A' for Active; 'I' for Inactive)
REMARK    1  A    between atoms: C2_2  and  C4_4 
REMARK    2  A    between atoms: C10_11  and  O2_12 
REMARK    3  A    between atoms: C13_15  and  O3_16 
REMARK    4  A    between atoms: C33_39  and  O6_40 
REMARK    5  A    between atoms: C38_46  and  O8_47 
ROOT
HETATM    1  C4  UNL     1      -7.357  40.637 -33.676  1.00  0.00     0.181 C 
HETATM    2  O1  UNL     1      -8.722  40.974 -33.403  1.00  0.00    -0.370 OA
HETATM    3  C5  UNL     1      -9.009  42.392 -33.377  1.00  0.00     0.163 C 
HETATM    4  C6  UNL     1     -10.384  42.476 -32.708  1.00  0.00     0.036 C 
HETATM    5  C7  UNL     1     -10.783  43.876 -32.255  1.00  0.00     0.016 C 
HETATM    6  C8  UNL     1      -9.705  44.566 -31.357  1.00  0.00     0.008 C 
HETATM    7  C9  UNL     1      -9.466  43.647 -30.113  1.00  0.00     0.020 C 
HETATM    8  C10 UNL     1      -8.384  44.627 -32.202  1.00  0.00     0.103 C 
HETATM    9  C11 UNL     1      -7.286  45.400 -31.452  1.00  0.00     0.047 C 
HETATM   10  C12 UNL     1      -7.711  46.827 -31.113  1.00  0.00     0.073 C 
HETATM   11  C13 UNL     1      -8.973  46.907 -30.232  1.00  0.00     0.180 C 
HETATM   12  O4  UNL     1      -8.593  46.380 -28.952  1.00  0.00    -0.320 OA
HETATM   13  C15 UNL     1      -9.618  46.404 -27.932  1.00  0.00     0.302 C 
HETATM   14  O5  UNL     1      -9.241  45.371 -27.020  1.00  0.00    -0.346 OA
HETATM   15  C16 UNL     1      -9.140  45.681 -25.627  1.00  0.00     0.064 C 
HETATM   16  C17 UNL     1      -8.275  46.912 -25.335  1.00  0.00     0.046 C 
HETATM   17  C18 UNL     1      -8.400  44.465 -25.027  1.00  0.00     0.046 C 
HETATM   18  C19 UNL     1     -10.544  45.707 -25.005  1.00  0.00     0.060 C 
HETATM   19  C20 UNL     1     -10.739  46.103 -23.524  1.00  0.00     0.023 C 
HETATM   20  C21 UNL     1     -12.115  46.714 -23.877  1.00  0.00     0.054 C 
HETATM   21  C22 UNL     1     -13.373  45.919 -23.681  1.00  0.00    -0.078 C 
HETATM   22  C23 UNL     1     -13.514  45.098 -22.626  1.00  0.00     0.015 C 
HETATM   23  C24 UNL     1     -14.482  46.160 -24.687  1.00  0.00     0.073 C 
HETATM   24  C25 UNL     1     -14.035  46.019 -26.127  1.00  0.00    -0.044 A 
HETATM   25  C26 UNL     1     -14.956  45.674 -27.120  1.00  0.00     0.010 A 
HETATM   26  C27 UNL     1     -14.563  45.552 -28.453  1.00  0.00     0.031 A 
HETATM   27  C28 UNL     1     -13.214  45.759 -28.757  1.00  0.00     0.044 A 
HETATM   28  N1  UNL     1     -12.573  45.703 -29.976  1.00  0.00    -0.357 N 
HETATM   29  C29 UNL     1     -11.242  45.955 -29.813  1.00  0.00     0.036 A 
HETATM   30  C30 UNL     1     -10.996  46.149 -28.469  1.00  0.00     0.033 A 
HETATM   31  C31 UNL     1     -12.257  46.094 -27.793  1.00  0.00     0.013 A 
HETATM   32  C32 UNL     1     -12.685  46.287 -26.455  1.00  0.00    -0.003 A 
HETATM   33  C33 UNL     1     -11.625  46.781 -25.391  1.00  0.00     0.100 C 
HETATM   34  C34 UNL     1     -10.179  46.051 -30.903  1.00  0.00     0.066 C 
HETATM   35  C35 UNL     1     -10.781  46.899 -32.065  1.00  0.00     0.029 C 
HETATM   36  C36 UNL     1      -7.948  43.227 -32.665  1.00  0.00     0.147 A 
HETATM   37  O7  UNL     1      -6.713  43.330 -33.442  1.00  0.00    -0.360 OA
HETATM   38  C37 UNL     1      -6.654  42.559 -32.245  1.00  0.00     0.194 A 
HETATM   39  C38 UNL     1      -6.504  41.088 -32.455  1.00  0.00     0.183 C 
HETATM   40  H40 UNL     1     -13.036  45.519 -30.855  1.00  0.00     0.166 HD
ENDROOT
BRANCH   1  41
HETATM   41  C2  UNL     1      -7.247  39.139 -33.959  1.00  0.00    -0.062 C 
HETATM   42  C1  UNL     1      -8.293  38.293 -33.960  1.00  0.00     0.016 C 
HETATM   43  C3  UNL     1      -5.866  38.638 -34.291  1.00  0.00     0.045 C 
ENDBRANCH   1  41
BRANCH  39  44
HETATM   44  O8  UNL     1      -6.919  40.456 -31.238  1.00  0.00    -0.390 OA
HETATM   45  H47 UNL     1      -7.433  39.664 -31.491  1.00  0.00     0.210 HD
ENDBRANCH  39  44
BRANCH   8  46
HETATM   46  O2  UNL     1      -8.627  45.361 -33.413  1.00  0.00    -0.386 OA
HETATM   47  H15 UNL     1      -7.812  45.286 -33.946  1.00  0.00     0.210 HD
ENDBRANCH   8  46
BRANCH  11  48
HETATM   48  O3  UNL     1      -9.384  48.288 -30.105  1.00  0.00    -0.359 OA
HETATM   49  C14 UNL     1      -8.537  49.251 -30.709  1.00  0.00     0.205 C 
ENDBRANCH  11  48
BRANCH  33  50
HETATM   50  O6  UNL     1     -11.122  48.105 -25.718  1.00  0.00    -0.384 OA
HETATM   51  H41 UNL     1     -11.913  48.596 -26.008  1.00  0.00     0.211 HD
ENDBRANCH  33  50
TORSDOF 5
ENDMDL
MODEL 7
REMARK minimizedAffinity -8.02410698
REMARK CNNscore 0.303683221
REMARK CNNaffinity 6.3568573
REMARK  5 active torsions:
REMARK  status: ('A' for Active; 'I' for Inactive)
REMARK    1  A    between atoms: C2_2  and  C4_4 
REMARK    2  A    between atoms: C10_11  and  O2_12 
REMARK    3  A    between atoms: C13_15  and  O3_16 
REMARK    4  A    between atoms: C33_39  and  O6_40 
REMARK    5  A    between atoms: C38_46  and  O8_47 
ROOT
HETATM    1  C4  UNL     1      -4.365  49.011 -11.449  1.00  0.00     0.181 C 
HETATM    2  O1  UNL     1      -3.866  50.352 -11.520  1.00  0.00    -0.370 OA
HETATM    3  C5  UNL     1      -2.669  50.518 -12.316  1.00  0.00     0.163 C 
HETATM    4  C6  UNL     1      -2.156  51.905 -11.920  1.00  0.00     0.036 C 
HETATM    5  C7  UNL     1      -0.726  52.200 -12.362  1.00  0.00     0.016 C 
HETATM    6  C8  UNL     1       0.296  51.102 -11.923  1.00  0.00     0.008 C 
HETATM    7  C9  UNL     1       0.230  50.990 -10.364  1.00  0.00     0.020 C 
HETATM    8  C10 UNL     1      -0.195  49.751 -12.549  1.00  0.00     0.103 C 
HETATM    9  C11 UNL     1       0.812  48.620 -12.277  1.00  0.00     0.047 C 
HETATM   10  C12 UNL     1       2.200  48.934 -12.832  1.00  0.00     0.073 C 
HETATM   11  C13 UNL     1       2.825  50.218 -12.250  1.00  0.00     0.180 C 
HETATM   12  O4  UNL     1       3.095  49.932 -10.869  1.00  0.00    -0.320 OA
HETATM   13  C15 UNL     1       3.740  50.989 -10.123  1.00  0.00     0.302 C 
HETATM   14  O5  UNL     1       3.386  50.736  -8.761  1.00  0.00    -0.346 OA
HETATM   15  C16 UNL     1       4.423  50.661  -7.779  1.00  0.00     0.064 C 
HETATM   16  C17 UNL     1       5.560  49.706  -8.159  1.00  0.00     0.046 C 
HETATM   17  C18 UNL     1       3.724  50.051  -6.545  1.00  0.00     0.046 C 
HETATM   18  C19 UNL     1       4.864  52.081  -7.392  1.00  0.00     0.060 C 
HETATM   19  C20 UNL     1       6.036  52.297  -6.408  1.00  0.00     0.023 C 
HETATM   20  C21 UNL     1       6.408  53.602  -7.150  1.00  0.00     0.054 C 
HETATM   21  C22 UNL     1       5.925  54.930  -6.642  1.00  0.00    -0.078 C 
HETATM   22  C23 UNL     1       5.851  55.179  -5.324  1.00  0.00     0.015 C 
HETATM   23  C24 UNL     1       5.610  55.975  -7.695  1.00  0.00     0.073 C 
HETATM   24  C25 UNL     1       4.659  55.488  -8.767  1.00  0.00    -0.044 A 
HETATM   25  C26 UNL     1       3.858  56.397  -9.466  1.00  0.00     0.010 A 
HETATM   26  C27 UNL     1       2.986  55.965 -10.466  1.00  0.00     0.031 A 
HETATM   27  C28 UNL     1       2.919  54.593 -10.726  1.00  0.00     0.044 A 
HETATM   28  N1  UNL     1       2.153  53.914 -11.648  1.00  0.00    -0.357 N 
HETATM   29  C29 UNL     1       2.388  52.573 -11.550  1.00  0.00     0.036 A 
HETATM   30  C30 UNL     1       3.295  52.363 -10.531  1.00  0.00     0.033 A 
HETATM   31  C31 UNL     1       3.693  53.649 -10.043  1.00  0.00     0.013 A 
HETATM   32  C32 UNL     1       4.628  54.109  -9.082  1.00  0.00    -0.003 A 
HETATM   33  C33 UNL     1       5.584  53.051  -8.397  1.00  0.00     0.100 C 
HETATM   34  C34 UNL     1       1.800  51.465 -12.419  1.00  0.00     0.066 C 
HETATM   35  C35 UNL     1       1.872  51.949 -13.899  1.00  0.00     0.029 C 
HETATM   36  C36 UNL     1      -1.631  49.418 -12.112  1.00  0.00     0.147 A 
HETATM   37  O7  UNL     1      -2.045  48.150 -12.713  1.00  0.00    -0.360 OA
HETATM   38  C37 UNL     1      -2.008  48.202 -11.290  1.00  0.00     0.194 A 
HETATM   39  C38 UNL     1      -3.345  48.170 -10.627  1.00  0.00     0.183 C 
HETATM   40  H40 UNL     1       1.528  54.357 -12.307  1.00  0.00     0.166 HD
ENDROOT
BRANCH   1  41
HETATM   41  C2  UNL     1      -5.764  49.018 -10.834  1.00  0.00    -0.062 C 
HETATM   42  C1  UNL     1      -6.224  49.984 -10.017  1.00  0.00     0.016 C 
HETATM   43  C3  UNL     1      -6.657  47.872 -11.230  1.00  0.00     0.045 C 
ENDBRANCH   1  41
BRANCH  39  44
HETATM   44  O8  UNL     1      -3.159  48.682  -9.303  1.00  0.00    -0.390 OA
HETATM   45  H47 UNL     1      -3.929  49.252  -9.108  1.00  0.00     0.210 HD
ENDBRANCH  39  44
BRANCH   8  46
HETATM   46  O2  UNL     1      -0.262  49.885 -13.978  1.00  0.00    -0.386 OA
HETATM   47  H15 UNL     1      -0.664  49.059 -14.312  1.00  0.00     0.210 HD
ENDBRANCH   8  46
BRANCH  11  48
HETATM   48  O3  UNL     1       4.054  50.514 -12.951  1.00  0.00    -0.359 OA
HETATM   49  C14 UNL     1       4.436  49.595 -13.961  1.00  0.00     0.205 C 
ENDBRANCH  11  48
BRANCH  33  50
HETATM   50  O6  UNL     1       6.465  52.426  -9.369  1.00  0.00    -0.384 OA
HETATM   51  H41 UNL     1       6.745  53.160  -9.946  1.00  0.00     0.211 HD
ENDBRANCH  33  50
TORSDOF 5
ENDMDL
MODEL 8
REMARK minimizedAffinity -7.12487078
REMARK CNNscore 0.282559991
REMARK CNNaffinity 6.15478659
REMARK  5 active torsions:
REMARK  status: ('A' for Active; 'I' for Inactive)
REMARK    1  A    between atoms: C2_2  and  C4_4 
REMARK    2  A    between atoms: C10_11  and  O2_12 
REMARK    3  A    between atoms: C13_15  and  O3_16 
REMARK    4  A    between atoms: C33_39  and  O6_40 
REMARK    5  A    between atoms: C38_46  and  O8_47 
ROOT
HETATM    1  C4  UNL     1      -1.400  42.332 -10.111  1.00  0.00     0.181 C 
HETATM    2  O1  UNL     1      -2.360  43.392 -10.027  1.00  0.00    -0.370 OA
HETATM    3  C5  UNL     1      -2.518  44.170 -11.237  1.00  0.00     0.163 C 
HETATM    4  C6  UNL     1      -3.276  45.417 -10.772  1.00  0.00     0.036 C 
HETATM    5  C7  UNL     1      -3.288  46.562 -11.781  1.00  0.00     0.016 C 
HETATM    6  C8  UNL     1      -1.862  46.956 -12.286  1.00  0.00     0.008 C 
HETATM    7  C9  UNL     1      -1.009  47.351 -11.035  1.00  0.00     0.020 C 
HETATM    8  C10 UNL     1      -1.242  45.670 -12.936  1.00  0.00     0.103 C 
HETATM    9  C11 UNL     1       0.122  45.980 -13.576  1.00  0.00     0.047 C 
HETATM   10  C12 UNL     1       0.025  47.065 -14.647  1.00  0.00     0.073 C 
HETATM   11  C13 UNL     1      -0.521  48.408 -14.123  1.00  0.00     0.180 C 
HETATM   12  O4  UNL     1       0.487  48.925 -13.242  1.00  0.00    -0.320 OA
HETATM   13  C15 UNL     1       0.213  50.222 -12.664  1.00  0.00     0.302 C 
HETATM   14  O5  UNL     1       0.990  50.252 -11.464  1.00  0.00    -0.346 OA
HETATM   15  C16 UNL     1       1.869  51.358 -11.237  1.00  0.00     0.064 C 
HETATM   16  C17 UNL     1       2.803  51.649 -12.416  1.00  0.00     0.046 C 
HETATM   17  C18 UNL     1       2.762  50.889 -10.068  1.00  0.00     0.046 C 
HETATM   18  C19 UNL     1       1.057  52.561 -10.733  1.00  0.00     0.060 C 
HETATM   19  C20 UNL     1       1.745  53.923 -10.488  1.00  0.00     0.023 C 
HETATM   20  C21 UNL     1       0.437  54.645 -10.887  1.00  0.00     0.054 C 
HETATM   21  C22 UNL     1      -0.529  55.106  -9.834  1.00  0.00    -0.078 C 
HETATM   22  C23 UNL     1      -0.091  55.603  -8.665  1.00  0.00     0.015 C 
HETATM   23  C24 UNL     1      -1.999  55.049 -10.203  1.00  0.00     0.073 C 
HETATM   24  C25 UNL     1      -2.443  53.694 -10.714  1.00  0.00    -0.044 A 
HETATM   25  C26 UNL     1      -3.777  53.296 -10.588  1.00  0.00     0.010 A 
HETATM   26  C27 UNL     1      -4.205  52.057 -11.065  1.00  0.00     0.031 A 
HETATM   27  C28 UNL     1      -3.251  51.217 -11.647  1.00  0.00     0.044 A 
HETATM   28  N1  UNL     1      -3.407  49.961 -12.192  1.00  0.00    -0.357 N 
HETATM   29  C29 UNL     1      -2.204  49.493 -12.634  1.00  0.00     0.036 A 
HETATM   30  C30 UNL     1      -1.239  50.437 -12.351  1.00  0.00     0.033 A 
HETATM   31  C31 UNL     1      -1.905  51.571 -11.783  1.00  0.00     0.013 A 
HETATM   32  C32 UNL     1      -1.500  52.862 -11.361  1.00  0.00    -0.003 A 
HETATM   33  C33 UNL     1      -0.004  53.303 -11.623  1.00  0.00     0.100 C 
HETATM   34  C34 UNL     1      -1.932  48.176 -13.355  1.00  0.00     0.066 C 
HETATM   35  C35 UNL     1      -3.044  48.000 -14.434  1.00  0.00     0.029 C 
HETATM   36  C36 UNL     1      -1.204  44.499 -11.940  1.00  0.00     0.147 A 
HETATM   37  O7  UNL     1      -0.614  43.326 -12.584  1.00  0.00    -0.360 OA
HETATM   38  C37 UNL     1       0.071  43.844 -11.447  1.00  0.00     0.194 A 
HETATM   39  C38 UNL     1       0.011  42.979 -10.231  1.00  0.00     0.183 C 
HETATM   40  H40 UNL     1      -4.291  49.476 -12.264  1.00  0.00     0.166 HD
ENDROOT
BRANCH   1  41
HETATM   41  C2  UNL     1      -1.535  41.422  -8.890  1.00  0.00    -0.062 C 
HETATM   42  C1  UNL     1      -0.958  41.667  -7.699  1.00  0.00     0.016 C 
HETATM   43  C3  UNL     1      -2.411  40.211  -9.073  1.00  0.00     0.045 C 
ENDBRANCH   1  41
BRANCH  39  44
HETATM   44  O8  UNL     1       0.322  43.820  -9.115  1.00  0.00    -0.390 OA
HETATM   45  H47 UNL     1      -0.281  43.562  -8.389  1.00  0.00     0.210 HD
ENDBRANCH  39  44
BRANCH   8  46
HETATM   46  O2  UNL     1      -2.088  45.221 -14.006  1.00  0.00    -0.386 OA
HETATM   47  H15 UNL     1      -1.717  44.370 -14.310  1.00  0.00     0.210 HD
ENDBRANCH   8  46
BRANCH  11  48
HETATM   48  O3  UNL     1      -0.727  49.310 -15.234  1.00  0.00    -0.359 OA
HETATM   49  C14 UNL     1       0.211  49.221 -16.295  1.00  0.00     0.205 C 
ENDBRANCH  11  48
BRANCH  33  50
HETATM   50  O6  UNL     1       0.288  53.369 -13.045  1.00  0.00    -0.384 OA
HETATM   51  H41 UNL     1      -0.506  53.780 -13.434  1.00  0.00     0.211 HD
ENDBRANCH  33  50
TORSDOF 5
ENDMDL
MODEL 9
REMARK minimizedAffinity -7.09826136
REMARK CNNscore 0.278343797
REMARK CNNaffinity 5.92883444
REMARK  5 active torsions:
REMARK  status: ('A' for Active; 'I' for Inactive)
REMARK    1  A    between atoms: C2_2  and  C4_4 
REMARK    2  A    between atoms: C10_11  and  O2_12 
REMARK    3  A    between atoms: C13_15  and  O3_16 
REMARK    4  A    between atoms: C33_39  and  O6_40 
REMARK    5  A    between atoms: C38_46  and  O8_47 
ROOT
HETATM    1  C4  UNL     1      13.766  67.247 -17.841  1.00  0.00     0.181 C 
HETATM    2  O1  UNL     1      13.830  67.344 -16.414  1.00  0.00    -0.370 OA
HETATM    3  C5  UNL     1      13.089  66.328 -15.698  1.00  0.00     0.163 C 
HETATM    4  C6  UNL     1      13.007  66.872 -14.269  1.00  0.00     0.036 C 
HETATM    5  C7  UNL     1      11.997  66.159 -13.377  1.00  0.00     0.016 C 
HETATM    6  C8  UNL     1      10.567  66.078 -14.005  1.00  0.00     0.008 C 
HETATM    7  C9  UNL     1      10.092  67.541 -14.290  1.00  0.00     0.020 C 
HETATM    8  C10 UNL     1      10.715  65.318 -15.369  1.00  0.00     0.103 C 
HETATM    9  C11 UNL     1       9.340  65.077 -16.016  1.00  0.00     0.047 C 
HETATM   10  C12 UNL     1       8.408  64.272 -15.112  1.00  0.00     0.073 C 
HETATM   11  C13 UNL     1       8.133  64.941 -13.751  1.00  0.00     0.180 C 
HETATM   12  O4  UNL     1       7.357  66.113 -14.039  1.00  0.00    -0.320 OA
HETATM   13  C15 UNL     1       6.930  66.884 -12.892  1.00  0.00     0.302 C 
HETATM   14  O5  UNL     1       6.720  68.202 -13.402  1.00  0.00    -0.346 OA
HETATM   15  C16 UNL     1       5.471  68.851 -13.148  1.00  0.00     0.064 C 
HETATM   16  C17 UNL     1       4.252  67.999 -13.517  1.00  0.00     0.046 C 
HETATM   17  C18 UNL     1       5.477  70.059 -14.110  1.00  0.00     0.046 C 
HETATM   18  C19 UNL     1       5.468  69.412 -11.718  1.00  0.00     0.060 C 
HETATM   19  C20 UNL     1       4.203  70.092 -11.145  1.00  0.00     0.023 C 
HETATM   20  C21 UNL     1       4.578  69.580  -9.735  1.00  0.00     0.054 C 
HETATM   21  C22 UNL     1       5.315  70.469  -8.775  1.00  0.00    -0.078 C 
HETATM   22  C23 UNL     1       5.052  71.784  -8.710  1.00  0.00     0.015 C 
HETATM   23  C24 UNL     1       6.299  69.782  -7.847  1.00  0.00     0.073 C 
HETATM   24  C25 UNL     1       7.300  68.904  -8.568  1.00  0.00    -0.044 A 
HETATM   25  C26 UNL     1       8.549  68.644  -7.996  1.00  0.00     0.010 A 
HETATM   26  C27 UNL     1       9.478  67.827  -8.642  1.00  0.00     0.031 A 
HETATM   27  C28 UNL     1       9.129  67.302  -9.890  1.00  0.00     0.044 A 
HETATM   28  N1  UNL     1       9.852  66.478 -10.725  1.00  0.00    -0.357 N 
HETATM   29  C29 UNL     1       9.136  66.221 -11.858  1.00  0.00     0.036 A 
HETATM   30  C30 UNL     1       7.942  66.908 -11.783  1.00  0.00     0.033 A 
HETATM   31  C31 UNL     1       7.896  67.546 -10.503  1.00  0.00     0.013 A 
HETATM   32  C32 UNL     1       6.934  68.317  -9.802  1.00  0.00    -0.003 A 
HETATM   33  C33 UNL     1       5.500  68.493 -10.444  1.00  0.00     0.100 C 
HETATM   34  C34 UNL     1       9.533  65.310 -13.016  1.00  0.00     0.066 C 
HETATM   35  C35 UNL     1      10.111  64.000 -12.398  1.00  0.00     0.029 C 
HETATM   36  C36 UNL     1      11.719  66.020 -16.297  1.00  0.00     0.147 A 
HETATM   37  O7  UNL     1      11.821  65.283 -17.557  1.00  0.00    -0.360 OA
HETATM   38  C37 UNL     1      11.356  66.628 -17.637  1.00  0.00     0.194 A 
HETATM   39  C38 UNL     1      12.310  67.583 -18.275  1.00  0.00     0.183 C 
HETATM   40  H40 UNL     1      10.768  66.109 -10.509  1.00  0.00     0.166 HD
ENDROOT
BRANCH   1  41
HETATM   41  C2  UNL     1      14.804  68.181 -18.464  1.00  0.00    -0.062 C 
HETATM   42  C1  UNL     1      15.767  68.810 -17.766  1.00  0.00     0.016 C 
HETATM   43  C3  UNL     1      14.723  68.342 -19.959  1.00  0.00     0.045 C 
ENDBRANCH   1  41
BRANCH  39  44
HETATM   44  O8  UNL     1      11.909  68.896 -17.867  1.00  0.00    -0.390 OA
HETATM   45  H47 UNL     1      12.728  69.397 -17.681  1.00  0.00     0.210 HD
ENDBRANCH  39  44
BRANCH   8  46
HETATM   46  O2  UNL     1      11.274  64.016 -15.131  1.00  0.00    -0.386 OA
HETATM   47  H15 UNL     1      11.438  63.625 -16.011  1.00  0.00     0.210 HD
ENDBRANCH   8  46
BRANCH  11  48
HETATM   48  O3  UNL     1       7.381  64.034 -12.913  1.00  0.00    -0.359 OA
HETATM   49  C14 UNL     1       6.326  63.327 -13.544  1.00  0.00     0.205 C 
ENDBRANCH  11  48
BRANCH  33  50
HETATM   50  O6  UNL     1       4.810  67.219 -10.558  1.00  0.00    -0.384 OA
HETATM   51  H41 UNL     1       5.009  66.763  -9.719  1.00  0.00     0.211 HD
ENDBRANCH  33  50
TORSDOF 5
ENDMDL
