MODEL 1
REMARK minimizedAffinity -6.24208689
REMARK CNNscore 0.670364857
REMARK CNNaffinity 6.98108721
REMARK  8 active torsions:
REMARK  status: ('A' for Active; 'I' for Inactive)
REMARK    1  A    between atoms: C4_4  and  C5_5 
REMARK    2  A    between atoms: C5_5  and  C6_6 
REMARK    3  A    between atoms: C6_6  and  C7_7 
REMARK    4  A    between atoms: C7_7  and  C9_9 
REMARK    5  A    between atoms: C21_21  and  C22_22 
REMARK    6  A    between atoms: C22_22  and  C23_23 
REMARK    7  A    between atoms: C23_23  and  C24_24 
REMARK    8  A    between atoms: C24_24  and  O1_25 
ROOT
HETATM    1  C9  UNL     1      -1.672  52.346 -10.541  1.00  0.00    -0.002 C 
HETATM    2  C10 UNL     1      -1.018  52.513 -11.944  1.00  0.00     0.006 C 
HETATM    3  C11 UNL     1       0.184  53.480 -11.763  1.00  0.00     0.011 C 
HETATM    4  C12 UNL     1       0.002  54.068 -10.346  1.00  0.00    -0.032 C 
HETATM    5  C13 UNL     1      -1.045  55.218 -10.517  1.00  0.00     0.016 C 
HETATM    6  C14 UNL     1       1.293  54.562  -9.637  1.00  0.00     0.003 C 
HETATM    7  C15 UNL     1       2.082  55.661 -10.384  1.00  0.00     0.010 C 
HETATM    8  C16 UNL     1       3.237  56.228  -9.550  1.00  0.00     0.035 C 
HETATM    9  C17 UNL     1       3.707  55.232  -8.514  1.00  0.00    -0.073 C 
HETATM   10  C18 UNL     1       4.938  54.652  -8.531  1.00  0.00    -0.085 C 
HETATM   11  C19 UNL     1       5.437  53.683  -7.481  1.00  0.00     0.043 C 
HETATM   12  C20 UNL     1       5.981  54.891  -9.599  1.00  0.00     0.043 C 
HETATM   13  C21 UNL     1       2.612  54.882  -7.472  1.00  0.00     0.023 C 
HETATM   14  C25 UNL     1       1.126  54.894  -8.094  1.00  0.00    -0.032 C 
HETATM   15  C26 UNL     1       0.430  56.261  -7.860  1.00  0.00     0.016 C 
HETATM   16  C27 UNL     1       0.240  53.811  -7.366  1.00  0.00     0.011 C 
HETATM   17  C28 UNL     1      -0.948  53.221  -8.161  1.00  0.00     0.011 C 
HETATM   18  C29 UNL     1      -0.534  52.798  -9.578  1.00  0.00    -0.032 C 
HETATM   19  C30 UNL     1       0.504  51.641  -9.427  1.00  0.00     0.016 C 
ENDROOT
BRANCH   1  20
HETATM   20  C7  UNL     1      -2.405  50.996 -10.263  1.00  0.00    -0.014 C 
HETATM   21  C8  UNL     1      -1.915  49.812 -11.104  1.00  0.00     0.010 C 
BRANCH  20  22
HETATM   22  C6  UNL     1      -3.936  51.203 -10.461  1.00  0.00     0.008 C 
BRANCH  22  23
HETATM   23  C5  UNL     1      -4.850  50.189  -9.757  1.00  0.00     0.028 C 
BRANCH  23  24
HETATM   24  C4  UNL     1      -5.869  49.521 -10.637  1.00  0.00    -0.025 C 
HETATM   25  C2  UNL     1      -7.172  49.309 -10.360  1.00  0.00    -0.091 C 
HETATM   26  C1  UNL     1      -8.064  48.607 -11.348  1.00  0.00     0.042 C 
HETATM   27  C3  UNL     1      -7.861  49.740  -9.096  1.00  0.00     0.042 C 
ENDBRANCH  23  24
ENDBRANCH  22  23
ENDBRANCH  20  22
ENDBRANCH   1  20
BRANCH  13  28
HETATM   28  C22 UNL     1       2.859  55.726  -6.194  1.00  0.00     0.012 C 
BRANCH  28  29
HETATM   29  C23 UNL     1       3.725  56.971  -6.417  1.00  0.00     0.027 C 
BRANCH  29  30
HETATM   30  C24 UNL     1       2.948  58.261  -6.177  1.00  0.00     0.164 C 
BRANCH  30  31
HETATM   31  O1  UNL     1       2.061  58.095  -5.081  1.00  0.00    -0.401 OA
HETATM   32  H42 UNL     1       1.592  58.938  -4.962  1.00  0.00     0.209 HD
ENDBRANCH  30  31
ENDBRANCH  29  30
ENDBRANCH  28  29
ENDBRANCH  13  28
TORSDOF 8
ENDMDL
MODEL 2
REMARK minimizedAffinity -6.63092136
REMARK CNNscore 0.518904984
REMARK CNNaffinity 6.4782567
REMARK  8 active torsions:
REMARK  status: ('A' for Active; 'I' for Inactive)
REMARK    1  A    between atoms: C4_4  and  C5_5 
REMARK    2  A    between atoms: C5_5  and  C6_6 
REMARK    3  A    between atoms: C6_6  and  C7_7 
REMARK    4  A    between atoms: C7_7  and  C9_9 
REMARK    5  A    between atoms: C21_21  and  C22_22 
REMARK    6  A    between atoms: C22_22  and  C23_23 
REMARK    7  A    between atoms: C23_23  and  C24_24 
REMARK    8  A    between atoms: C24_24  and  O1_25 
ROOT
HETATM    1  C9  UNL     1       0.972  54.538 -10.639  1.00  0.00    -0.002 C 
HETATM    2  C10 UNL     1       1.972  53.545 -11.302  1.00  0.00     0.006 C 
HETATM    3  C11 UNL     1       3.354  53.793 -10.637  1.00  0.00     0.011 C 
HETATM    4  C12 UNL     1       3.174  55.107  -9.843  1.00  0.00    -0.032 C 
HETATM    5  C13 UNL     1       3.351  56.245 -10.902  1.00  0.00     0.016 C 
HETATM    6  C14 UNL     1       4.112  55.303  -8.621  1.00  0.00     0.003 C 
HETATM    7  C15 UNL     1       5.625  55.276  -8.932  1.00  0.00     0.010 C 
HETATM    8  C16 UNL     1       6.484  55.654  -7.720  1.00  0.00     0.035 C 
HETATM    9  C17 UNL     1       5.758  55.378  -6.424  1.00  0.00    -0.073 C 
HETATM   10  C18 UNL     1       6.155  54.440  -5.523  1.00  0.00    -0.085 C 
HETATM   11  C19 UNL     1       5.460  54.179  -4.204  1.00  0.00     0.043 C 
HETATM   12  C20 UNL     1       7.344  53.525  -5.709  1.00  0.00     0.043 C 
HETATM   13  C21 UNL     1       4.467  56.225  -6.263  1.00  0.00     0.023 C 
HETATM   14  C25 UNL     1       3.724  56.509  -7.665  1.00  0.00    -0.032 C 
HETATM   15  C26 UNL     1       4.142  57.883  -8.253  1.00  0.00     0.016 C 
HETATM   16  C27 UNL     1       2.166  56.579  -7.431  1.00  0.00     0.011 C 
HETATM   17  C28 UNL     1       1.257  56.222  -8.630  1.00  0.00     0.011 C 
HETATM   18  C29 UNL     1       1.699  54.921  -9.316  1.00  0.00    -0.032 C 
HETATM   19  C30 UNL     1       1.518  53.770  -8.276  1.00  0.00     0.016 C 
ENDROOT
BRANCH   1  20
HETATM   20  C7  UNL     1      -0.523  54.094 -10.579  1.00  0.00    -0.014 C 
HETATM   21  C8  UNL     1      -1.493  55.163 -10.063  1.00  0.00     0.010 C 
BRANCH  20  22
HETATM   22  C6  UNL     1      -0.631  52.803  -9.716  1.00  0.00     0.008 C 
BRANCH  22  23
HETATM   23  C5  UNL     1      -1.918  52.647  -8.892  1.00  0.00     0.028 C 
BRANCH  23  24
HETATM   24  C4  UNL     1      -2.855  51.568  -9.356  1.00  0.00    -0.025 C 
HETATM   25  C2  UNL     1      -3.832  51.678 -10.278  1.00  0.00    -0.091 C 
HETATM   26  C1  UNL     1      -4.700  50.497 -10.623  1.00  0.00     0.042 C 
HETATM   27  C3  UNL     1      -4.152  52.930 -11.045  1.00  0.00     0.042 C 
ENDBRANCH  23  24
ENDBRANCH  22  23
ENDBRANCH  20  22
ENDBRANCH   1  20
BRANCH  13  28
HETATM   28  C22 UNL     1       4.786  57.446  -5.362  1.00  0.00     0.012 C 
BRANCH  28  29
HETATM   29  C23 UNL     1       6.234  57.941  -5.458  1.00  0.00     0.027 C 
BRANCH  29  30
HETATM   30  C24 UNL     1       6.808  58.305  -4.093  1.00  0.00     0.164 C 
BRANCH  30  31
HETATM   31  O1  UNL     1       7.685  59.414  -4.217  1.00  0.00    -0.401 OA
HETATM   32  H42 UNL     1       8.022  59.613  -3.327  1.00  0.00     0.209 HD
ENDBRANCH  30  31
ENDBRANCH  29  30
ENDBRANCH  28  29
ENDBRANCH  13  28
TORSDOF 8
ENDMDL
MODEL 3
REMARK minimizedAffinity -6.63758516
REMARK CNNscore 0.498857826
REMARK CNNaffinity 6.74316597
REMARK  8 active torsions:
REMARK  status: ('A' for Active; 'I' for Inactive)
REMARK    1  A    between atoms: C4_4  and  C5_5 
REMARK    2  A    between atoms: C5_5  and  C6_6 
REMARK    3  A    between atoms: C6_6  and  C7_7 
REMARK    4  A    between atoms: C7_7  and  C9_9 
REMARK    5  A    between atoms: C21_21  and  C22_22 
REMARK    6  A    between atoms: C22_22  and  C23_23 
REMARK    7  A    between atoms: C23_23  and  C24_24 
REMARK    8  A    between atoms: C24_24  and  O1_25 
ROOT
HETATM    1  C9  UNL     1       0.026  54.382  -9.389  1.00  0.00    -0.002 C 
HETATM    2  C10 UNL     1      -0.738  54.075  -8.069  1.00  0.00     0.006 C 
HETATM    3  C11 UNL     1      -1.845  53.045  -8.424  1.00  0.00     0.011 C 
HETATM    4  C12 UNL     1      -1.877  53.023  -9.968  1.00  0.00    -0.032 C 
HETATM    5  C13 UNL     1      -2.742  54.263 -10.372  1.00  0.00     0.016 C 
HETATM    6  C14 UNL     1      -2.399  51.716 -10.626  1.00  0.00     0.003 C 
HETATM    7  C15 UNL     1      -3.834  51.300 -10.232  1.00  0.00     0.010 C 
HETATM    8  C16 UNL     1      -4.349  50.110 -11.050  1.00  0.00     0.035 C 
HETATM    9  C17 UNL     1      -3.208  49.270 -11.577  1.00  0.00    -0.073 C 
HETATM   10  C18 UNL     1      -2.970  47.991 -11.183  1.00  0.00    -0.085 C 
HETATM   11  C19 UNL     1      -1.856  47.125 -11.730  1.00  0.00     0.043 C 
HETATM   12  C20 UNL     1      -3.782  47.251 -10.144  1.00  0.00     0.043 C 
HETATM   13  C21 UNL     1      -2.291  50.047 -12.559  1.00  0.00     0.023 C 
HETATM   14  C25 UNL     1      -2.158  51.610 -12.191  1.00  0.00    -0.032 C 
HETATM   15  C26 UNL     1      -3.170  52.464 -13.000  1.00  0.00     0.016 C 
HETATM   16  C27 UNL     1      -0.722  52.126 -12.588  1.00  0.00     0.011 C 
HETATM   17  C28 UNL     1      -0.164  53.335 -11.802  1.00  0.00     0.011 C 
HETATM   18  C29 UNL     1      -0.338  53.162 -10.286  1.00  0.00    -0.032 C 
HETATM   19  C30 UNL     1       0.528  51.933  -9.863  1.00  0.00     0.016 C 
ENDROOT
BRANCH   1  20
HETATM   20  C7  UNL     1       1.524  54.799  -9.252  1.00  0.00    -0.014 C 
HETATM   21  C8  UNL     1       1.829  55.732  -8.075  1.00  0.00     0.010 C 
BRANCH  20  22
HETATM   22  C6  UNL     1       1.993  55.445 -10.589  1.00  0.00     0.008 C 
BRANCH  22  23
HETATM   23  C5  UNL     1       3.364  56.136 -10.562  1.00  0.00     0.028 C 
BRANCH  23  24
HETATM   24  C4  UNL     1       4.545  55.217 -10.418  1.00  0.00    -0.025 C 
HETATM   25  C2  UNL     1       5.415  55.163  -9.389  1.00  0.00    -0.091 C 
HETATM   26  C1  UNL     1       6.563  54.189  -9.403  1.00  0.00     0.042 C 
HETATM   27  C3  UNL     1       5.340  56.020  -8.156  1.00  0.00     0.042 C 
ENDBRANCH  23  24
ENDBRANCH  22  23
ENDBRANCH  20  22
ENDBRANCH   1  20
BRANCH  13  28
HETATM   28  C22 UNL     1      -2.702  49.685 -14.010  1.00  0.00     0.012 C 
BRANCH  28  29
HETATM   29  C23 UNL     1      -2.223  50.685 -15.069  1.00  0.00     0.027 C 
BRANCH  29  30
HETATM   30  C24 UNL     1      -3.114  50.680 -16.307  1.00  0.00     0.164 C 
BRANCH  30  31
HETATM   31  O1  UNL     1      -2.438  51.296 -17.393  1.00  0.00    -0.401 OA
HETATM   32  H42 UNL     1      -3.038  51.267 -18.157  1.00  0.00     0.209 HD
ENDBRANCH  30  31
ENDBRANCH  29  30
ENDBRANCH  28  29
ENDBRANCH  13  28
TORSDOF 8
ENDMDL
MODEL 4
REMARK minimizedAffinity -6.41869259
REMARK CNNscore 0.451340705
REMARK CNNaffinity 5.49728012
REMARK  8 active torsions:
REMARK  status: ('A' for Active; 'I' for Inactive)
REMARK    1  A    between atoms: C4_4  and  C5_5 
REMARK    2  A    between atoms: C5_5  and  C6_6 
REMARK    3  A    between atoms: C6_6  and  C7_7 
REMARK    4  A    between atoms: C7_7  and  C9_9 
REMARK    5  A    between atoms: C21_21  and  C22_22 
REMARK    6  A    between atoms: C22_22  and  C23_23 
REMARK    7  A    between atoms: C23_23  and  C24_24 
REMARK    8  A    between atoms: C24_24  and  O1_25 
ROOT
HETATM    1  C9  UNL     1      -7.615  47.915 -25.893  1.00  0.00    -0.002 C 
HETATM    2  C10 UNL     1      -8.713  48.906 -25.405  1.00  0.00     0.006 C 
HETATM    3  C11 UNL     1      -9.947  48.691 -26.324  1.00  0.00     0.011 C 
HETATM    4  C12 UNL     1      -9.422  47.814 -27.483  1.00  0.00    -0.032 C 
HETATM    5  C13 UNL     1      -8.724  48.814 -28.462  1.00  0.00     0.016 C 
HETATM    6  C14 UNL     1     -10.476  46.935 -28.210  1.00  0.00     0.003 C 
HETATM    7  C15 UNL     1     -11.657  47.702 -28.846  1.00  0.00     0.010 C 
HETATM    8  C16 UNL     1     -12.558  46.799 -29.697  1.00  0.00     0.035 C 
HETATM    9  C17 UNL     1     -12.468  45.357 -29.252  1.00  0.00    -0.073 C 
HETATM   10  C18 UNL     1     -13.504  44.674 -28.697  1.00  0.00    -0.085 C 
HETATM   11  C19 UNL     1     -13.441  43.220 -28.282  1.00  0.00     0.043 C 
HETATM   12  C20 UNL     1     -14.865  45.268 -28.414  1.00  0.00     0.043 C 
HETATM   13  C21 UNL     1     -11.046  44.760 -29.426  1.00  0.00     0.023 C 
HETATM   14  C25 UNL     1      -9.876  45.844 -29.195  1.00  0.00    -0.032 C 
HETATM   15  C26 UNL     1      -9.410  46.461 -30.540  1.00  0.00     0.016 C 
HETATM   16  C27 UNL     1      -8.616  45.135 -28.567  1.00  0.00     0.011 C 
HETATM   17  C28 UNL     1      -7.667  46.009 -27.714  1.00  0.00     0.011 C 
HETATM   18  C29 UNL     1      -8.437  46.865 -26.697  1.00  0.00    -0.032 C 
HETATM   19  C30 UNL     1      -9.133  45.881 -25.704  1.00  0.00     0.016 C 
ENDROOT
BRANCH   1  20
HETATM   20  C7  UNL     1      -6.594  47.417 -24.822  1.00  0.00    -0.014 C 
HETATM   21  C8  UNL     1      -7.157  47.296 -23.401  1.00  0.00     0.010 C 
BRANCH  20  22
HETATM   22  C6  UNL     1      -5.352  48.355 -24.834  1.00  0.00     0.008 C 
BRANCH  22  23
HETATM   23  C5  UNL     1      -4.467  48.290 -26.088  1.00  0.00     0.028 C 
BRANCH  23  24
HETATM   24  C4  UNL     1      -3.089  48.870 -25.935  1.00  0.00    -0.025 C 
HETATM   25  C2  UNL     1      -2.522  49.832 -26.690  1.00  0.00    -0.091 C 
HETATM   26  C1  UNL     1      -1.116  50.296 -26.415  1.00  0.00     0.042 C 
HETATM   27  C3  UNL     1      -3.196  50.534 -27.835  1.00  0.00     0.042 C 
ENDBRANCH  23  24
ENDBRANCH  22  23
ENDBRANCH  20  22
ENDBRANCH   1  20
BRANCH  13  28
HETATM   28  C22 UNL     1     -11.012  43.940 -30.742  1.00  0.00     0.012 C 
BRANCH  28  29
HETATM   29  C23 UNL     1     -10.488  42.508 -30.581  1.00  0.00     0.027 C 
BRANCH  29  30
HETATM   30  C24 UNL     1     -10.802  41.642 -31.796  1.00  0.00     0.164 C 
BRANCH  30  31
HETATM   31  O1  UNL     1     -11.075  42.465 -32.920  1.00  0.00    -0.401 OA
HETATM   32  H42 UNL     1     -11.264  41.875 -33.668  1.00  0.00     0.209 HD
ENDBRANCH  30  31
ENDBRANCH  29  30
ENDBRANCH  28  29
ENDBRANCH  13  28
TORSDOF 8
ENDMDL
MODEL 5
REMARK minimizedAffinity -6.29187536
REMARK CNNscore 0.357943624
REMARK CNNaffinity 5.44580078
REMARK  8 active torsions:
REMARK  status: ('A' for Active; 'I' for Inactive)
REMARK    1  A    between atoms: C4_4  and  C5_5 
REMARK    2  A    between atoms: C5_5  and  C6_6 
REMARK    3  A    between atoms: C6_6  and  C7_7 
REMARK    4  A    between atoms: C7_7  and  C9_9 
REMARK    5  A    between atoms: C21_21  and  C22_22 
REMARK    6  A    between atoms: C22_22  and  C23_23 
REMARK    7  A    between atoms: C23_23  and  C24_24 
REMARK    8  A    between atoms: C24_24  and  O1_25 
ROOT
HETATM    1  C9  UNL     1       1.686  68.976 -38.439  1.00  0.00    -0.002 C 
HETATM    2  C10 UNL     1       1.130  67.624 -38.976  1.00  0.00     0.006 C 
HETATM    3  C11 UNL     1       2.063  66.510 -38.427  1.00  0.00     0.011 C 
HETATM    4  C12 UNL     1       3.281  67.268 -37.853  1.00  0.00    -0.032 C 
HETATM    5  C13 UNL     1       4.186  67.574 -39.092  1.00  0.00     0.016 C 
HETATM    6  C14 UNL     1       4.070  66.547 -36.726  1.00  0.00     0.003 C 
HETATM    7  C15 UNL     1       4.650  65.165 -37.100  1.00  0.00     0.010 C 
HETATM    8  C16 UNL     1       5.564  64.593 -36.009  1.00  0.00     0.035 C 
HETATM    9  C17 UNL     1       5.222  65.165 -34.652  1.00  0.00    -0.073 C 
HETATM   10  C18 UNL     1       4.718  64.425 -33.628  1.00  0.00    -0.085 C 
HETATM   11  C19 UNL     1       4.407  64.974 -32.253  1.00  0.00     0.043 C 
HETATM   12  C20 UNL     1       4.394  62.951 -33.718  1.00  0.00     0.043 C 
HETATM   13  C21 UNL     1       5.437  66.700 -34.572  1.00  0.00     0.023 C 
HETATM   14  C25 UNL     1       5.129  67.450 -35.964  1.00  0.00    -0.032 C 
HETATM   15  C26 UNL     1       6.427  67.656 -36.790  1.00  0.00     0.016 C 
HETATM   16  C27 UNL     1       4.553  68.889 -35.672  1.00  0.00     0.011 C 
HETATM   17  C28 UNL     1       3.639  69.515 -36.751  1.00  0.00     0.011 C 
HETATM   18  C29 UNL     1       2.564  68.529 -37.233  1.00  0.00    -0.032 C 
HETATM   19  C30 UNL     1       1.644  68.220 -36.010  1.00  0.00     0.016 C 
ENDROOT
BRANCH   1  20
HETATM   20  C7  UNL     1       0.653  70.128 -38.236  1.00  0.00    -0.014 C 
HETATM   21  C8  UNL     1       1.205  71.371 -37.527  1.00  0.00     0.010 C 
BRANCH  20  22
HETATM   22  C6  UNL     1      -0.581  69.571 -37.467  1.00  0.00     0.008 C 
BRANCH  22  23
HETATM   23  C5  UNL     1      -1.868  70.403 -37.561  1.00  0.00     0.028 C 
BRANCH  23  24
HETATM   24  C4  UNL     1      -2.264  71.122 -36.302  1.00  0.00    -0.025 C 
HETATM   25  C2  UNL     1      -3.420  71.774 -36.065  1.00  0.00    -0.091 C 
HETATM   26  C1  UNL     1      -3.660  72.460 -34.747  1.00  0.00     0.042 C 
HETATM   27  C3  UNL     1      -4.561  71.879 -37.038  1.00  0.00     0.042 C 
ENDBRANCH  23  24
ENDBRANCH  22  23
ENDBRANCH  20  22
ENDBRANCH   1  20
BRANCH  13  28
HETATM   28  C22 UNL     1       6.808  66.972 -33.900  1.00  0.00     0.012 C 
BRANCH  28  29
HETATM   29  C23 UNL     1       6.981  68.403 -33.377  1.00  0.00     0.027 C 
BRANCH  29  30
HETATM   30  C24 UNL     1       7.256  68.435 -31.877  1.00  0.00     0.164 C 
BRANCH  30  31
HETATM   31  O1  UNL     1       6.237  67.733 -31.182  1.00  0.00    -0.401 OA
HETATM   32  H42 UNL     1       6.454  67.776 -30.236  1.00  0.00     0.209 HD
ENDBRANCH  30  31
ENDBRANCH  29  30
ENDBRANCH  28  29
ENDBRANCH  13  28
TORSDOF 8
ENDMDL
MODEL 6
REMARK minimizedAffinity -6.21461582
REMARK CNNscore 0.357024282
REMARK CNNaffinity 5.51428413
REMARK  8 active torsions:
REMARK  status: ('A' for Active; 'I' for Inactive)
REMARK    1  A    between atoms: C4_4  and  C5_5 
REMARK    2  A    between atoms: C5_5  and  C6_6 
REMARK    3  A    between atoms: C6_6  and  C7_7 
REMARK    4  A    between atoms: C7_7  and  C9_9 
REMARK    5  A    between atoms: C21_21  and  C22_22 
REMARK    6  A    between atoms: C22_22  and  C23_23 
REMARK    7  A    between atoms: C23_23  and  C24_24 
REMARK    8  A    between atoms: C24_24  and  O1_25 
ROOT
HETATM    1  C9  UNL     1      -5.868  44.539 -32.629  1.00  0.00    -0.002 C 
HETATM    2  C10 UNL     1      -4.712  45.410 -32.056  1.00  0.00     0.006 C 
HETATM    3  C11 UNL     1      -5.369  46.471 -31.131  1.00  0.00     0.011 C 
HETATM    4  C12 UNL     1      -6.881  46.370 -31.434  1.00  0.00    -0.032 C 
HETATM    5  C13 UNL     1      -7.088  47.212 -32.737  1.00  0.00     0.016 C 
HETATM    6  C14 UNL     1      -7.840  46.819 -30.297  1.00  0.00     0.003 C 
HETATM    7  C15 UNL     1      -7.666  48.277 -29.817  1.00  0.00     0.010 C 
HETATM    8  C16 UNL     1      -8.757  48.707 -28.829  1.00  0.00     0.035 C 
HETATM    9  C17 UNL     1      -9.348  47.515 -28.111  1.00  0.00    -0.073 C 
HETATM   10  C18 UNL     1      -9.212  47.297 -26.776  1.00  0.00    -0.085 C 
HETATM   11  C19 UNL     1      -9.831  46.130 -26.037  1.00  0.00     0.043 C 
HETATM   12  C20 UNL     1      -8.425  48.186 -25.840  1.00  0.00     0.043 C 
HETATM   13  C21 UNL     1     -10.063  46.527 -29.070  1.00  0.00     0.023 C 
HETATM   14  C25 UNL     1      -9.366  46.445 -30.521  1.00  0.00    -0.032 C 
HETATM   15  C26 UNL     1     -10.062  47.394 -31.532  1.00  0.00     0.016 C 
HETATM   16  C27 UNL     1      -9.521  44.986 -31.099  1.00  0.00     0.011 C 
HETATM   17  C28 UNL     1      -8.454  44.511 -32.113  1.00  0.00     0.011 C 
HETATM   18  C29 UNL     1      -7.029  44.811 -31.627  1.00  0.00    -0.032 C 
HETATM   19  C30 UNL     1      -6.800  43.970 -30.331  1.00  0.00     0.016 C 
ENDROOT
BRANCH   1  20
HETATM   20  C7  UNL     1      -5.519  43.064 -32.998  1.00  0.00    -0.014 C 
HETATM   21  C8  UNL     1      -6.419  42.006 -32.349  1.00  0.00     0.010 C 
BRANCH  20  22
HETATM   22  C6  UNL     1      -4.027  42.794 -32.645  1.00  0.00     0.008 C 
BRANCH  22  23
HETATM   23  C5  UNL     1      -3.453  41.450 -33.116  1.00  0.00     0.028 C 
BRANCH  23  24
HETATM   24  C4  UNL     1      -3.663  41.134 -34.570  1.00  0.00    -0.025 C 
HETATM   25  C2  UNL     1      -3.554  39.929 -35.166  1.00  0.00    -0.091 C 
HETATM   26  C1  UNL     1      -3.784  39.781 -36.647  1.00  0.00     0.042 C 
HETATM   27  C3  UNL     1      -3.219  38.648 -34.457  1.00  0.00     0.042 C 
ENDBRANCH  23  24
ENDBRANCH  22  23
ENDBRANCH  20  22
ENDBRANCH   1  20
BRANCH  13  28
HETATM   28  C22 UNL     1     -11.587  46.809 -29.024  1.00  0.00     0.012 C 
BRANCH  28  29
HETATM   29  C23 UNL     1     -12.289  46.283 -27.766  1.00  0.00     0.027 C 
BRANCH  29  30
HETATM   30  C24 UNL     1     -13.264  47.301 -27.185  1.00  0.00     0.164 C 
BRANCH  30  31
HETATM   31  O1  UNL     1     -12.912  47.596 -25.841  1.00  0.00    -0.401 OA
HETATM   32  H42 UNL     1     -13.554  48.249 -25.514  1.00  0.00     0.209 HD
ENDBRANCH  30  31
ENDBRANCH  29  30
ENDBRANCH  28  29
ENDBRANCH  13  28
TORSDOF 8
ENDMDL
MODEL 7
REMARK minimizedAffinity -6.27883101
REMARK CNNscore 0.339488328
REMARK CNNaffinity 6.294312
REMARK  8 active torsions:
REMARK  status: ('A' for Active; 'I' for Inactive)
REMARK    1  A    between atoms: C4_4  and  C5_5 
REMARK    2  A    between atoms: C5_5  and  C6_6 
REMARK    3  A    between atoms: C6_6  and  C7_7 
REMARK    4  A    between atoms: C7_7  and  C9_9 
REMARK    5  A    between atoms: C21_21  and  C22_22 
REMARK    6  A    between atoms: C22_22  and  C23_23 
REMARK    7  A    between atoms: C23_23  and  C24_24 
REMARK    8  A    between atoms: C24_24  and  O1_25 
ROOT
HETATM    1  C9  UNL     1       2.117  54.499  -9.077  1.00  0.00    -0.002 C 
HETATM    2  C10 UNL     1       3.134  53.493  -9.691  1.00  0.00     0.006 C 
HETATM    3  C11 UNL     1       2.312  52.264 -10.167  1.00  0.00     0.011 C 
HETATM    4  C12 UNL     1       0.912  52.466  -9.548  1.00  0.00    -0.032 C 
HETATM    5  C13 UNL     1       1.043  51.952  -8.076  1.00  0.00     0.016 C 
HETATM    6  C14 UNL     1      -0.273  51.791 -10.292  1.00  0.00     0.003 C 
HETATM    7  C15 UNL     1      -0.169  50.258 -10.453  1.00  0.00     0.010 C 
HETATM    8  C16 UNL     1      -1.447  49.638 -11.031  1.00  0.00     0.035 C 
HETATM    9  C17 UNL     1      -2.228  50.646 -11.842  1.00  0.00    -0.073 C 
HETATM   10  C18 UNL     1      -2.417  50.548 -13.185  1.00  0.00    -0.085 C 
HETATM   11  C19 UNL     1      -3.229  51.528 -14.005  1.00  0.00     0.043 C 
HETATM   12  C20 UNL     1      -1.844  49.450 -14.052  1.00  0.00     0.043 C 
HETATM   13  C21 UNL     1      -2.730  51.845 -10.994  1.00  0.00     0.023 C 
HETATM   14  C25 UNL     1      -1.715  52.242  -9.807  1.00  0.00    -0.032 C 
HETATM   15  C26 UNL     1      -2.123  51.567  -8.471  1.00  0.00     0.016 C 
HETATM   16  C27 UNL     1      -1.777  53.798  -9.558  1.00  0.00     0.011 C 
HETATM   17  C28 UNL     1      -0.517  54.468  -8.960  1.00  0.00     0.011 C 
HETATM   18  C29 UNL     1       0.763  54.031  -9.688  1.00  0.00    -0.032 C 
HETATM   19  C30 UNL     1       0.654  54.546 -11.158  1.00  0.00     0.016 C 
ENDROOT
BRANCH   1  20
HETATM   20  C7  UNL     1       2.495  56.011  -9.148  1.00  0.00    -0.014 C 
HETATM   21  C8  UNL     1       3.442  56.386 -10.295  1.00  0.00     0.010 C 
BRANCH  20  22
HETATM   22  C6  UNL     1       3.103  56.445  -7.782  1.00  0.00     0.008 C 
BRANCH  22  23
HETATM   23  C5  UNL     1       4.364  57.320  -7.850  1.00  0.00     0.028 C 
BRANCH  23  24
HETATM   24  C4  UNL     1       5.534  56.829  -7.045  1.00  0.00    -0.025 C 
HETATM   25  C2  UNL     1       6.454  55.916  -7.417  1.00  0.00    -0.091 C 
HETATM   26  C1  UNL     1       7.565  55.519  -6.482  1.00  0.00     0.042 C 
HETATM   27  C3  UNL     1       6.487  55.226  -8.752  1.00  0.00     0.042 C 
ENDBRANCH  23  24
ENDBRANCH  22  23
ENDBRANCH  20  22
ENDBRANCH   1  20
BRANCH  13  28
HETATM   28  C22 UNL     1      -4.212  51.596 -10.614  1.00  0.00     0.012 C 
BRANCH  28  29
HETATM   29  C23 UNL     1      -4.660  50.134 -10.741  1.00  0.00     0.027 C 
BRANCH  29  30
HETATM   30  C24 UNL     1      -6.103  49.935 -10.290  1.00  0.00     0.164 C 
BRANCH  30  31
HETATM   31  O1  UNL     1      -6.620  48.732 -10.838  1.00  0.00    -0.401 OA
HETATM   32  H42 UNL     1      -7.535  48.643 -10.522  1.00  0.00     0.209 HD
ENDBRANCH  30  31
ENDBRANCH  29  30
ENDBRANCH  28  29
ENDBRANCH  13  28
TORSDOF 8
ENDMDL
MODEL 8
REMARK minimizedAffinity -6.67486238
REMARK CNNscore 0.307806104
REMARK CNNaffinity 6.14381266
REMARK  8 active torsions:
REMARK  status: ('A' for Active; 'I' for Inactive)
REMARK    1  A    between atoms: C4_4  and  C5_5 
REMARK    2  A    between atoms: C5_5  and  C6_6 
REMARK    3  A    between atoms: C6_6  and  C7_7 
REMARK    4  A    between atoms: C7_7  and  C9_9 
REMARK    5  A    between atoms: C21_21  and  C22_22 
REMARK    6  A    between atoms: C22_22  and  C23_23 
REMARK    7  A    between atoms: C23_23  and  C24_24 
REMARK    8  A    between atoms: C24_24  and  O1_25 
ROOT
HETATM    1  C9  UNL     1       2.585  55.864  -9.019  1.00  0.00    -0.002 C 
HETATM    2  C10 UNL     1       2.688  55.489  -7.511  1.00  0.00     0.006 C 
HETATM    3  C11 UNL     1       1.553  54.468  -7.228  1.00  0.00     0.011 C 
HETATM    4  C12 UNL     1       0.659  54.519  -8.487  1.00  0.00    -0.032 C 
HETATM    5  C13 UNL     1      -0.259  55.769  -8.280  1.00  0.00     0.016 C 
HETATM    6  C14 UNL     1      -0.168  53.240  -8.794  1.00  0.00     0.003 C 
HETATM    7  C15 UNL     1      -1.142  52.794  -7.680  1.00  0.00     0.010 C 
HETATM    8  C16 UNL     1      -2.051  51.640  -8.118  1.00  0.00     0.035 C 
HETATM    9  C17 UNL     1      -1.420  50.835  -9.231  1.00  0.00    -0.073 C 
HETATM   10  C18 UNL     1      -1.027  49.540  -9.095  1.00  0.00    -0.085 C 
HETATM   11  C19 UNL     1      -0.430  48.710 -10.211  1.00  0.00     0.043 C 
HETATM   12  C20 UNL     1      -1.131  48.746  -7.813  1.00  0.00     0.043 C 
HETATM   13  C21 UNL     1      -1.197  51.665 -10.524  1.00  0.00     0.023 C 
HETATM   14  C25 UNL     1      -0.850  53.210 -10.227  1.00  0.00    -0.032 C 
HETATM   15  C26 UNL     1      -2.125  54.093 -10.289  1.00  0.00     0.016 C 
HETATM   16  C27 UNL     1       0.126  53.755 -11.339  1.00  0.00     0.011 C 
HETATM   17  C28 UNL     1       1.052  54.931 -10.950  1.00  0.00     0.011 C 
HETATM   18  C29 UNL     1       1.756  54.685  -9.608  1.00  0.00    -0.032 C 
HETATM   19  C30 UNL     1       2.686  53.444  -9.799  1.00  0.00     0.016 C 
ENDROOT
BRANCH   1  20
HETATM   20  C7  UNL     1       3.909  56.286  -9.729  1.00  0.00    -0.014 C 
HETATM   21  C8  UNL     1       4.079  55.742 -11.152  1.00  0.00     0.010 C 
BRANCH  20  22
HETATM   22  C6  UNL     1       5.116  55.862  -8.841  1.00  0.00     0.008 C 
BRANCH  22  23
HETATM   23  C5  UNL     1       6.070  54.823  -9.448  1.00  0.00     0.028 C 
BRANCH  23  24
HETATM   24  C4  UNL     1       6.626  53.816  -8.481  1.00  0.00    -0.025 C 
HETATM   25  C2  UNL     1       6.574  52.473  -8.583  1.00  0.00    -0.091 C 
HETATM   26  C1  UNL     1       7.171  51.597  -7.514  1.00  0.00     0.042 C 
HETATM   27  C3  UNL     1       5.954  51.722  -9.729  1.00  0.00     0.042 C 
ENDBRANCH  23  24
ENDBRANCH  22  23
ENDBRANCH  20  22
ENDBRANCH   1  20
BRANCH  13  28
HETATM   28  C22 UNL     1      -2.359  51.369 -11.507  1.00  0.00     0.012 C 
BRANCH  28  29
HETATM   29  C23 UNL     1      -3.187  52.600 -11.895  1.00  0.00     0.027 C 
BRANCH  29  30
HETATM   30  C24 UNL     1      -3.530  52.616 -13.381  1.00  0.00     0.164 C 
BRANCH  30  31
HETATM   31  O1  UNL     1      -4.324  53.753 -13.683  1.00  0.00    -0.401 OA
HETATM   32  H42 UNL     1      -4.514  53.725 -14.635  1.00  0.00     0.209 HD
ENDBRANCH  30  31
ENDBRANCH  29  30
ENDBRANCH  28  29
ENDBRANCH  13  28
TORSDOF 8
ENDMDL
MODEL 9
REMARK minimizedAffinity -6.23555517
REMARK CNNscore 0.299742728
REMARK CNNaffinity 5.66968155
REMARK  8 active torsions:
REMARK  status: ('A' for Active; 'I' for Inactive)
REMARK    1  A    between atoms: C4_4  and  C5_5 
REMARK    2  A    between atoms: C5_5  and  C6_6 
REMARK    3  A    between atoms: C6_6  and  C7_7 
REMARK    4  A    between atoms: C7_7  and  C9_9 
REMARK    5  A    between atoms: C21_21  and  C22_22 
REMARK    6  A    between atoms: C22_22  and  C23_23 
REMARK    7  A    between atoms: C23_23  and  C24_24 
REMARK    8  A    between atoms: C24_24  and  O1_25 
ROOT
HETATM    1  C9  UNL     1      -8.180  47.970 -26.439  1.00  0.00    -0.002 C 
HETATM    2  C10 UNL     1      -9.733  47.909 -26.349  1.00  0.00     0.006 C 
HETATM    3  C11 UNL     1     -10.237  47.362 -27.713  1.00  0.00     0.011 C 
HETATM    4  C12 UNL     1      -8.998  47.412 -28.635  1.00  0.00    -0.032 C 
HETATM    5  C13 UNL     1      -8.922  48.895 -29.128  1.00  0.00     0.016 C 
HETATM    6  C14 UNL     1      -8.983  46.408 -29.820  1.00  0.00     0.003 C 
HETATM    7  C15 UNL     1     -10.169  46.523 -30.804  1.00  0.00     0.010 C 
HETATM    8  C16 UNL     1      -9.999  45.631 -32.040  1.00  0.00     0.035 C 
HETATM    9  C17 UNL     1      -9.092  44.457 -31.749  1.00  0.00    -0.073 C 
HETATM   10  C18 UNL     1      -9.512  43.164 -31.746  1.00  0.00    -0.085 C 
HETATM   11  C19 UNL     1      -8.609  41.975 -31.495  1.00  0.00     0.043 C 
HETATM   12  C20 UNL     1     -10.939  42.728 -31.992  1.00  0.00     0.043 C 
HETATM   13  C21 UNL     1      -7.647  44.887 -31.380  1.00  0.00     0.023 C 
HETATM   14  C25 UNL     1      -7.593  46.282 -30.576  1.00  0.00    -0.032 C 
HETATM   15  C26 UNL     1      -7.337  47.474 -31.535  1.00  0.00     0.016 C 
HETATM   16  C27 UNL     1      -6.387  46.259 -29.560  1.00  0.00     0.011 C 
HETATM   17  C28 UNL     1      -6.505  47.156 -28.305  1.00  0.00     0.011 C 
HETATM   18  C29 UNL     1      -7.868  46.999 -27.615  1.00  0.00    -0.032 C 
HETATM   19  C30 UNL     1      -7.957  45.525 -27.106  1.00  0.00     0.016 C 
ENDROOT
BRANCH   1  20
HETATM   20  C7  UNL     1      -7.393  47.813 -25.100  1.00  0.00    -0.014 C 
HETATM   21  C8  UNL     1      -7.939  48.640 -23.930  1.00  0.00     0.010 C 
BRANCH  20  22
HETATM   22  C6  UNL     1      -5.895  48.155 -25.352  1.00  0.00     0.008 C 
BRANCH  22  23
HETATM   23  C5  UNL     1      -5.013  48.286 -24.101  1.00  0.00     0.028 C 
BRANCH  23  24
HETATM   24  C4  UNL     1      -3.640  48.850 -24.338  1.00  0.00    -0.025 C 
HETATM   25  C2  UNL     1      -3.307  50.148 -24.490  1.00  0.00    -0.091 C 
HETATM   26  C1  UNL     1      -1.877  50.551 -24.736  1.00  0.00     0.042 C 
HETATM   27  C3  UNL     1      -4.275  51.296 -24.423  1.00  0.00     0.042 C 
ENDBRANCH  23  24
ENDBRANCH  22  23
ENDBRANCH  20  22
ENDBRANCH   1  20
BRANCH  13  28
HETATM   28  C22 UNL     1      -6.755  44.754 -32.641  1.00  0.00     0.012 C 
BRANCH  28  29
HETATM   29  C23 UNL     1      -5.370  44.153 -32.374  1.00  0.00     0.027 C 
BRANCH  29  30
HETATM   30  C24 UNL     1      -4.266  45.204 -32.437  1.00  0.00     0.164 C 
BRANCH  30  31
HETATM   31  O1  UNL     1      -4.602  46.202 -33.388  1.00  0.00    -0.401 OA
HETATM   32  H42 UNL     1      -3.877  46.850 -33.392  1.00  0.00     0.209 HD
ENDBRANCH  30  31
ENDBRANCH  29  30
ENDBRANCH  28  29
ENDBRANCH  13  28
TORSDOF 8
ENDMDL
