MODEL 1
REMARK minimizedAffinity -9.5121727
REMARK CNNscore 0.56178534
REMARK CNNaffinity 7.45293856
REMARK  10 active torsions:
REMARK  status: ('A' for Active; 'I' for Inactive)
REMARK    1  A    between atoms: O1_2  and  C2_3 
REMARK    2  A    between atoms: C2_3  and  C3_5 
REMARK    3  A    between atoms: C3_5  and  C4_6 
REMARK    4  A    between atoms: C3_5  and  N1_13 
REMARK    5  A    between atoms: C4_6  and  C5_7 
REMARK       I    between atoms: N1_13  and  C11_14 
REMARK    6  A    between atoms: C11_14  and  C12_16 
REMARK    7  A    between atoms: C12_16  and  O4_17 
REMARK    8  A    between atoms: O4_17  and  N2_18 
REMARK    9  A    between atoms: C27_34  and  O5_35 
REMARK   10  A    between atoms: C27_34  and  C28_36 
ROOT
HETATM    1  N2  UNL     1      -2.943   4.641  12.851  1.00  0.00    -0.271 N 
ATOM      2  H2  UNL     1      -2.677   3.950  12.148  1.00  0.00     0.194 HD
HETATM    3  C13 UNL     1      -4.159   4.813  13.275  1.00  0.00     0.032 C 
HETATM    4  C14 UNL     1      -4.587   5.758  14.347  1.00  0.00     0.030 C 
HETATM    5  C15 UNL     1      -5.883   5.952  14.648  1.00  0.00    -0.069 C 
HETATM    6  C16 UNL     1      -6.229   7.064  15.618  1.00  0.00     0.035 C 
HETATM    7  C17 UNL     1      -7.640   7.004  16.196  1.00  0.00     0.010 C 
HETATM    8  C18 UNL     1      -8.746   6.760  15.150  1.00  0.00    -0.004 C 
HETATM    9  C19 UNL     1      -8.176   6.316  13.767  1.00  0.00     0.002 C 
HETATM   10  C20 UNL     1      -9.327   5.956  12.802  1.00  0.00     0.007 C 
HETATM   11  C21 UNL     1     -10.324   7.126  12.639  1.00  0.00     0.013 C 
HETATM   12  C22 UNL     1     -10.879   7.620  13.992  1.00  0.00    -0.002 C 
HETATM   13  C23 UNL     1     -11.810   6.525  14.583  1.00  0.00     0.019 C 
HETATM   14  C24 UNL     1      -9.666   7.963  14.906  1.00  0.00     0.002 C 
HETATM   15  C25 UNL     1     -10.309   8.662  16.097  1.00  0.00     0.009 C 
HETATM   16  C26 UNL     1     -11.475   9.462  15.485  1.00  0.00     0.047 C 
HETATM   17  C27 UNL     1     -11.609   8.999  14.003  1.00  0.00     0.125 C 
HETATM   18  C30 UNL     1      -7.040   5.250  13.923  1.00  0.00    -0.016 C 
HETATM   19  C31 UNL     1      -7.509   4.017  14.731  1.00  0.00     0.020 C 
HETATM   20  C32 UNL     1      -6.547   4.763  12.535  1.00  0.00     0.020 C 
HETATM   21  C33 UNL     1      -5.238   3.981  12.614  1.00  0.00     0.060 C 
ENDROOT
BRANCH   1  22
HETATM   22  O4  UNL     1      -2.036   5.515  13.472  1.00  0.00    -0.271 OA
BRANCH  22  23
HETATM   23  C12 UNL     1      -0.709   5.059  13.244  1.00  0.00     0.303 C 
BRANCH  23  24
HETATM   24  C11 UNL     1      -0.297   5.182  11.779  1.00  0.00     0.244 C 
HETATM   25  N1  UNL     1       0.903   5.820  11.572  1.00  0.00    -0.345 N 
HETATM   26  H12 UNL     1       1.432   6.115  12.396  1.00  0.00     0.163 HD
HETATM   27  O3  UNL     1      -0.964   4.706  10.863  1.00  0.00    -0.271 OA
BRANCH  25  28
HETATM   28  C3  UNL     1       1.463   6.029  10.237  1.00  0.00     0.188 C 
BRANCH  28  29
HETATM   29  C2  UNL     1       1.231   7.493   9.861  1.00  0.00     0.281 C 
HETATM   30  O2  UNL     1       2.133   8.312   9.704  1.00  0.00    -0.263 OA
BRANCH  29  31
HETATM   31  O1  UNL     1      -0.098   7.759   9.722  1.00  0.00    -0.325 OA
HETATM   32  C1  UNL     1      -0.582   8.779  10.596  1.00  0.00     0.213 C 
ENDBRANCH  29  31
ENDBRANCH  28  29
BRANCH  28  33
HETATM   33  C4  UNL     1       2.963   5.706  10.204  1.00  0.00     0.074 C 
BRANCH  33  34
HETATM   34  C5  UNL     1       3.373   4.931   8.973  1.00  0.00    -0.056 A 
HETATM   35  C6  UNL     1       2.950   5.330   7.699  1.00  0.00     0.007 A 
HETATM   36  C7  UNL     1       3.335   4.604   6.571  1.00  0.00     0.001 A 
HETATM   37  C8  UNL     1       4.144   3.476   6.706  1.00  0.00     0.000 A 
HETATM   38  C9  UNL     1       4.571   3.072   7.969  1.00  0.00     0.001 A 
HETATM   39  C10 UNL     1       4.187   3.795   9.098  1.00  0.00     0.007 A 
ENDBRANCH  33  34
ENDBRANCH  28  33
ENDBRANCH  25  28
ENDBRANCH  23  24
ENDBRANCH  22  23
ENDBRANCH   1  22
BRANCH  17  40
HETATM   40  O5  UNL     1     -10.891   9.936  13.191  1.00  0.00    -0.381 OA
HETATM   41  H34 UNL     1     -11.237  10.826  13.387  1.00  0.00     0.211 HD
ENDBRANCH  17  40
BRANCH  17  42
HETATM   42  C28 UNL     1     -13.082   8.957  13.529  1.00  0.00     0.158 C 
HETATM   43  C29 UNL     1     -14.163   9.025  14.581  1.00  0.00     0.094 C 
HETATM   44  O6  UNL     1     -13.390   8.904  12.336  1.00  0.00    -0.295 OA
ENDBRANCH  17  42
TORSDOF 10
ENDMDL
MODEL 2
REMARK minimizedAffinity -8.60885715
REMARK CNNscore 0.434791327
REMARK CNNaffinity 7.64113188
REMARK  10 active torsions:
REMARK  status: ('A' for Active; 'I' for Inactive)
REMARK    1  A    between atoms: O1_2  and  C2_3 
REMARK    2  A    between atoms: C2_3  and  C3_5 
REMARK    3  A    between atoms: C3_5  and  C4_6 
REMARK    4  A    between atoms: C3_5  and  N1_13 
REMARK    5  A    between atoms: C4_6  and  C5_7 
REMARK       I    between atoms: N1_13  and  C11_14 
REMARK    6  A    between atoms: C11_14  and  C12_16 
REMARK    7  A    between atoms: C12_16  and  O4_17 
REMARK    8  A    between atoms: O4_17  and  N2_18 
REMARK    9  A    between atoms: C27_34  and  O5_35 
REMARK   10  A    between atoms: C27_34  and  C28_36 
ROOT
HETATM    1  N2  UNL     1      -3.327   4.006  12.374  1.00  0.00    -0.271 N 
ATOM      2  H2  UNL     1      -3.141   3.336  11.628  1.00  0.00     0.194 HD
HETATM    3  C13 UNL     1      -4.513   4.263  12.840  1.00  0.00     0.032 C 
HETATM    4  C14 UNL     1      -4.829   5.179  13.973  1.00  0.00     0.030 C 
HETATM    5  C15 UNL     1      -6.095   5.471  14.320  1.00  0.00    -0.069 C 
HETATM    6  C16 UNL     1      -6.315   6.554  15.359  1.00  0.00     0.035 C 
HETATM    7  C17 UNL     1      -7.713   6.588  15.970  1.00  0.00     0.010 C 
HETATM    8  C18 UNL     1      -8.860   6.504  14.944  1.00  0.00    -0.004 C 
HETATM    9  C19 UNL     1      -8.363   6.090  13.523  1.00  0.00     0.002 C 
HETATM   10  C20 UNL     1      -9.564   5.891  12.572  1.00  0.00     0.007 C 
HETATM   11  C21 UNL     1     -10.454   7.153  12.501  1.00  0.00     0.013 C 
HETATM   12  C22 UNL     1     -10.930   7.616  13.894  1.00  0.00    -0.002 C 
HETATM   13  C23 UNL     1     -11.945   6.578  14.449  1.00  0.00     0.019 C 
HETATM   14  C24 UNL     1      -9.672   7.797  14.792  1.00  0.00     0.002 C 
HETATM   15  C25 UNL     1     -10.221   8.481  16.036  1.00  0.00     0.009 C 
HETATM   16  C26 UNL     1     -11.323   9.416  15.501  1.00  0.00     0.047 C 
HETATM   17  C27 UNL     1     -11.532   9.053  14.000  1.00  0.00     0.125 C 
HETATM   18  C30 UNL     1      -7.326   4.919  13.590  1.00  0.00    -0.016 C 
HETATM   19  C31 UNL     1      -7.888   3.689  14.341  1.00  0.00     0.020 C 
HETATM   20  C32 UNL     1      -6.911   4.470  12.164  1.00  0.00     0.020 C 
HETATM   21  C33 UNL     1      -5.677   3.570  12.164  1.00  0.00     0.060 C 
ENDROOT
BRANCH   1  22
HETATM   22  O4  UNL     1      -2.331   4.759  13.017  1.00  0.00    -0.271 OA
BRANCH  22  23
HETATM   23  C12 UNL     1      -1.112   4.644  12.293  1.00  0.00     0.303 C 
BRANCH  23  24
HETATM   24  C11 UNL     1      -0.532   6.003  11.914  1.00  0.00     0.244 C 
HETATM   25  N1  UNL     1      -0.153   6.784  12.980  1.00  0.00    -0.345 N 
HETATM   26  H12 UNL     1      -0.247   6.384  13.917  1.00  0.00     0.163 HD
HETATM   27  O3  UNL     1      -0.373   6.351  10.746  1.00  0.00    -0.271 OA
BRANCH  25  28
HETATM   28  C3  UNL     1       0.427   8.117  12.813  1.00  0.00     0.188 C 
BRANCH  28  29
HETATM   29  C2  UNL     1       1.646   7.980  11.900  1.00  0.00     0.281 C 
HETATM   30  O2  UNL     1       1.778   8.582  10.838  1.00  0.00    -0.263 OA
BRANCH  29  31
HETATM   31  O1  UNL     1       2.555   7.110  12.423  1.00  0.00    -0.325 OA
HETATM   32  C1  UNL     1       3.680   6.865  11.578  1.00  0.00     0.213 C 
ENDBRANCH  29  31
ENDBRANCH  28  29
BRANCH  28  33
HETATM   33  C4  UNL     1      -0.586   9.093  12.200  1.00  0.00     0.074 C 
BRANCH  33  34
HETATM   34  C5  UNL     1      -1.846   9.230  13.024  1.00  0.00    -0.056 A 
HETATM   35  C6  UNL     1      -3.035   8.605  12.629  1.00  0.00     0.007 A 
HETATM   36  C7  UNL     1      -4.190   8.740  13.400  1.00  0.00     0.001 A 
HETATM   37  C8  UNL     1      -4.168   9.501  14.569  1.00  0.00     0.000 A 
HETATM   38  C9  UNL     1      -2.990  10.126  14.971  1.00  0.00     0.001 A 
HETATM   39  C10 UNL     1      -1.833   9.992  14.202  1.00  0.00     0.007 A 
ENDBRANCH  33  34
ENDBRANCH  28  33
ENDBRANCH  25  28
ENDBRANCH  23  24
ENDBRANCH  22  23
ENDBRANCH   1  22
BRANCH  17  40
HETATM   40  O5  UNL     1     -10.749   9.967  13.222  1.00  0.00    -0.381 OA
HETATM   41  H34 UNL     1     -11.008  10.871  13.476  1.00  0.00     0.211 HD
ENDBRANCH  17  40
BRANCH  17  42
HETATM   42  C28 UNL     1     -13.012   9.171  13.565  1.00  0.00     0.158 C 
HETATM   43  C29 UNL     1     -14.035   9.498  14.627  1.00  0.00     0.094 C 
HETATM   44  O6  UNL     1     -13.368   9.039  12.392  1.00  0.00    -0.295 OA
ENDBRANCH  17  42
TORSDOF 10
ENDMDL
MODEL 3
REMARK minimizedAffinity -9.78861523
REMARK CNNscore 0.413363993
REMARK CNNaffinity 7.3830657
REMARK  10 active torsions:
REMARK  status: ('A' for Active; 'I' for Inactive)
REMARK    1  A    between atoms: O1_2  and  C2_3 
REMARK    2  A    between atoms: C2_3  and  C3_5 
REMARK    3  A    between atoms: C3_5  and  C4_6 
REMARK    4  A    between atoms: C3_5  and  N1_13 
REMARK    5  A    between atoms: C4_6  and  C5_7 
REMARK       I    between atoms: N1_13  and  C11_14 
REMARK    6  A    between atoms: C11_14  and  C12_16 
REMARK    7  A    between atoms: C12_16  and  O4_17 
REMARK    8  A    between atoms: O4_17  and  N2_18 
REMARK    9  A    between atoms: C27_34  and  O5_35 
REMARK   10  A    between atoms: C27_34  and  C28_36 
ROOT
HETATM    1  N2  UNL     1      -3.023   5.368  13.185  1.00  0.00    -0.271 N 
ATOM      2  H2  UNL     1      -2.655   4.576  12.659  1.00  0.00     0.194 HD
HETATM    3  C13 UNL     1      -4.265   5.486  13.547  1.00  0.00     0.032 C 
HETATM    4  C14 UNL     1      -4.837   6.587  14.375  1.00  0.00     0.030 C 
HETATM    5  C15 UNL     1      -6.157   6.689  14.611  1.00  0.00    -0.069 C 
HETATM    6  C16 UNL     1      -6.661   7.940  15.303  1.00  0.00     0.035 C 
HETATM    7  C17 UNL     1      -8.077   7.843  15.863  1.00  0.00     0.010 C 
HETATM    8  C18 UNL     1      -9.109   7.245  14.888  1.00  0.00    -0.004 C 
HETATM    9  C19 UNL     1      -8.441   6.575  13.646  1.00  0.00     0.002 C 
HETATM   10  C20 UNL     1      -9.509   5.877  12.774  1.00  0.00     0.007 C 
HETATM   11  C21 UNL     1     -10.625   6.855  12.342  1.00  0.00     0.013 C 
HETATM   12  C22 UNL     1     -11.280   7.568  13.544  1.00  0.00    -0.002 C 
HETATM   13  C23 UNL     1     -12.104   6.529  14.355  1.00  0.00     0.019 C 
HETATM   14  C24 UNL     1     -10.149   8.246  14.370  1.00  0.00     0.002 C 
HETATM   15  C25 UNL     1     -10.910   9.110  15.367  1.00  0.00     0.009 C 
HETATM   16  C26 UNL     1     -12.136   9.611  14.578  1.00  0.00     0.047 C 
HETATM   17  C27 UNL     1     -12.162   8.819  13.236  1.00  0.00     0.125 C 
HETATM   18  C30 UNL     1      -7.199   5.712  14.049  1.00  0.00    -0.016 C 
HETATM   19  C31 UNL     1      -7.556   4.642  15.109  1.00  0.00     0.020 C 
HETATM   20  C32 UNL     1      -6.603   4.991  12.811  1.00  0.00     0.020 C 
HETATM   21  C33 UNL     1      -5.218   4.406  13.078  1.00  0.00     0.060 C 
ENDROOT
BRANCH   1  22
HETATM   22  O4  UNL     1      -2.244   6.460  13.604  1.00  0.00    -0.271 OA
BRANCH  22  23
HETATM   23  C12 UNL     1      -1.011   5.984  14.130  1.00  0.00     0.303 C 
BRANCH  23  24
HETATM   24  C11 UNL     1       0.156   6.224  13.177  1.00  0.00     0.244 C 
HETATM   25  N1  UNL     1       0.403   7.546  12.891  1.00  0.00    -0.345 N 
HETATM   26  H12 UNL     1      -0.172   8.248  13.363  1.00  0.00     0.163 HD
HETATM   27  O3  UNL     1       0.849   5.309  12.737  1.00  0.00    -0.271 OA
BRANCH  25  28
HETATM   28  C3  UNL     1       1.483   7.971  12.001  1.00  0.00     0.188 C 
BRANCH  28  29
HETATM   29  C2  UNL     1       2.556   8.643  12.861  1.00  0.00     0.281 C 
HETATM   30  O2  UNL     1       2.640   9.856  13.028  1.00  0.00    -0.263 OA
BRANCH  29  31
HETATM   31  O1  UNL     1       3.391   7.718  13.412  1.00  0.00    -0.325 OA
HETATM   32  C1  UNL     1       4.352   8.267  14.315  1.00  0.00     0.213 C 
ENDBRANCH  29  31
ENDBRANCH  28  29
BRANCH  28  33
HETATM   33  C4  UNL     1       2.084   6.779  11.244  1.00  0.00     0.074 C 
BRANCH  33  34
HETATM   34  C5  UNL     1       1.981   6.923   9.742  1.00  0.00    -0.056 A 
HETATM   35  C6  UNL     1       2.678   6.059   8.889  1.00  0.00     0.007 A 
HETATM   36  C7  UNL     1       2.575   6.204   7.504  1.00  0.00     0.001 A 
HETATM   37  C8  UNL     1       1.778   7.212   6.963  1.00  0.00     0.000 A 
HETATM   38  C9  UNL     1       1.080   8.076   7.804  1.00  0.00     0.001 A 
HETATM   39  C10 UNL     1       1.182   7.933   9.188  1.00  0.00     0.007 A 
ENDBRANCH  33  34
ENDBRANCH  28  33
ENDBRANCH  25  28
ENDBRANCH  23  24
ENDBRANCH  22  23
ENDBRANCH   1  22
BRANCH  17  40
HETATM   40  O5  UNL     1     -11.525   9.631  12.243  1.00  0.00    -0.381 OA
HETATM   41  H34 UNL     1     -11.976  10.495  12.230  1.00  0.00     0.211 HD
ENDBRANCH  17  40
BRANCH  17  42
HETATM   42  C28 UNL     1     -13.602   8.499  12.769  1.00  0.00     0.158 C 
HETATM   43  C29 UNL     1     -14.167   7.140  13.106  1.00  0.00     0.094 C 
HETATM   44  O6  UNL     1     -14.299   9.322  12.168  1.00  0.00    -0.295 OA
ENDBRANCH  17  42
TORSDOF 10
ENDMDL
MODEL 4
REMARK minimizedAffinity -10.1160545
REMARK CNNscore 0.371199161
REMARK CNNaffinity 7.38462591
REMARK  10 active torsions:
REMARK  status: ('A' for Active; 'I' for Inactive)
REMARK    1  A    between atoms: O1_2  and  C2_3 
REMARK    2  A    between atoms: C2_3  and  C3_5 
REMARK    3  A    between atoms: C3_5  and  C4_6 
REMARK    4  A    between atoms: C3_5  and  N1_13 
REMARK    5  A    between atoms: C4_6  and  C5_7 
REMARK       I    between atoms: N1_13  and  C11_14 
REMARK    6  A    between atoms: C11_14  and  C12_16 
REMARK    7  A    between atoms: C12_16  and  O4_17 
REMARK    8  A    between atoms: O4_17  and  N2_18 
REMARK    9  A    between atoms: C27_34  and  O5_35 
REMARK   10  A    between atoms: C27_34  and  C28_36 
ROOT
HETATM    1  N2  UNL     1      -5.916   5.146  13.476  1.00  0.00    -0.271 N 
ATOM      2  H2  UNL     1      -6.586   5.789  13.898  1.00  0.00     0.194 HD
HETATM    3  C13 UNL     1      -4.648   5.398  13.352  1.00  0.00     0.032 C 
HETATM    4  C14 UNL     1      -3.618   4.466  12.808  1.00  0.00     0.030 C 
HETATM    5  C15 UNL     1      -2.344   4.849  12.612  1.00  0.00    -0.069 C 
HETATM    6  C16 UNL     1      -1.419   3.894  11.884  1.00  0.00     0.035 C 
HETATM    7  C17 UNL     1       0.069   4.211  12.011  1.00  0.00     0.010 C 
HETATM    8  C18 UNL     1       0.428   5.690  11.769  1.00  0.00    -0.004 C 
HETATM    9  C19 UNL     1      -0.828   6.617  11.751  1.00  0.00     0.002 C 
HETATM   10  C20 UNL     1      -0.401   8.097  11.641  1.00  0.00     0.007 C 
HETATM   11  C21 UNL     1       0.488   8.346  10.402  1.00  0.00     0.013 C 
HETATM   12  C22 UNL     1       1.720   7.418  10.365  1.00  0.00    -0.002 C 
HETATM   13  C23 UNL     1       2.692   7.828  11.506  1.00  0.00     0.019 C 
HETATM   14  C24 UNL     1       1.213   5.950  10.478  1.00  0.00     0.002 C 
HETATM   15  C25 UNL     1       2.459   5.124  10.185  1.00  0.00     0.009 C 
HETATM   16  C26 UNL     1       3.213   5.938   9.116  1.00  0.00     0.047 C 
HETATM   17  C27 UNL     1       2.498   7.319   9.015  1.00  0.00     0.125 C 
HETATM   18  C30 UNL     1      -1.826   6.263  12.904  1.00  0.00    -0.016 C 
HETATM   19  C31 UNL     1      -1.146   6.309  14.294  1.00  0.00     0.020 C 
HETATM   20  C32 UNL     1      -3.024   7.250  12.917  1.00  0.00     0.020 C 
HETATM   21  C33 UNL     1      -4.177   6.767  13.795  1.00  0.00     0.060 C 
ENDROOT
BRANCH   1  22
HETATM   22  O4  UNL     1      -6.258   3.883  12.964  1.00  0.00    -0.271 OA
BRANCH  22  23
HETATM   23  C12 UNL     1      -7.672   3.734  12.982  1.00  0.00     0.303 C 
BRANCH  23  24
HETATM   24  C11 UNL     1      -8.398   5.074  12.905  1.00  0.00     0.244 C 
HETATM   25  N1  UNL     1      -9.052   5.440  14.059  1.00  0.00    -0.345 N 
HETATM   26  H12 UNL     1      -8.965   4.822  14.869  1.00  0.00     0.163 HD
HETATM   27  O3  UNL     1      -8.361   5.790  11.907  1.00  0.00    -0.271 OA
BRANCH  25  28
HETATM   28  C3  UNL     1      -9.799   6.692  14.176  1.00  0.00     0.188 C 
BRANCH  28  29
HETATM   29  C2  UNL     1      -8.862   7.734  14.789  1.00  0.00     0.281 C 
HETATM   30  O2  UNL     1      -9.170   8.909  14.972  1.00  0.00    -0.263 OA
BRANCH  29  31
HETATM   31  O1  UNL     1      -7.656   7.185  15.103  1.00  0.00    -0.325 OA
HETATM   32  C1  UNL     1      -7.454   6.983  16.502  1.00  0.00     0.213 C 
ENDBRANCH  29  31
ENDBRANCH  28  29
BRANCH  28  33
HETATM   33  C4  UNL     1     -10.301   7.172  12.808  1.00  0.00     0.074 C 
BRANCH  33  34
HETATM   34  C5  UNL     1     -11.696   7.754  12.863  1.00  0.00    -0.056 A 
HETATM   35  C6  UNL     1     -11.934   9.084  12.495  1.00  0.00     0.007 A 
HETATM   36  C7  UNL     1     -13.227   9.608  12.551  1.00  0.00     0.001 A 
HETATM   37  C8  UNL     1     -14.289   8.810  12.977  1.00  0.00     0.000 A 
HETATM   38  C9  UNL     1     -14.061   7.485  13.344  1.00  0.00     0.001 A 
HETATM   39  C10 UNL     1     -12.770   6.959  13.289  1.00  0.00     0.007 A 
ENDBRANCH  33  34
ENDBRANCH  28  33
ENDBRANCH  25  28
ENDBRANCH  23  24
ENDBRANCH  22  23
ENDBRANCH   1  22
BRANCH  17  40
HETATM   40  O5  UNL     1       1.573   7.248   7.924  1.00  0.00    -0.381 OA
HETATM   41  H34 UNL     1       2.068   6.971   7.131  1.00  0.00     0.211 HD
ENDBRANCH  17  40
BRANCH  17  42
HETATM   42  C28 UNL     1       3.489   8.478   8.751  1.00  0.00     0.158 C 
HETATM   43  C29 UNL     1       4.608   8.688   9.743  1.00  0.00     0.094 C 
HETATM   44  O6  UNL     1       3.410   9.200   7.754  1.00  0.00    -0.295 OA
ENDBRANCH  17  42
TORSDOF 10
ENDMDL
MODEL 5
REMARK minimizedAffinity -7.88039303
REMARK CNNscore 0.365972817
REMARK CNNaffinity 6.31202459
REMARK  10 active torsions:
REMARK  status: ('A' for Active; 'I' for Inactive)
REMARK    1  A    between atoms: O1_2  and  C2_3 
REMARK    2  A    between atoms: C2_3  and  C3_5 
REMARK    3  A    between atoms: C3_5  and  C4_6 
REMARK    4  A    between atoms: C3_5  and  N1_13 
REMARK    5  A    between atoms: C4_6  and  C5_7 
REMARK       I    between atoms: N1_13  and  C11_14 
REMARK    6  A    between atoms: C11_14  and  C12_16 
REMARK    7  A    between atoms: C12_16  and  O4_17 
REMARK    8  A    between atoms: O4_17  and  N2_18 
REMARK    9  A    between atoms: C27_34  and  O5_35 
REMARK   10  A    between atoms: C27_34  and  C28_36 
ROOT
HETATM    1  N2  UNL     1       0.800   8.121  13.679  1.00  0.00    -0.271 N 
ATOM      2  H2  UNL     1       1.010   8.093  12.681  1.00  0.00     0.194 HD
HETATM    3  C13 UNL     1      -0.240   8.711  14.185  1.00  0.00     0.032 C 
HETATM    4  C14 UNL     1      -0.628   8.721  15.626  1.00  0.00     0.030 C 
HETATM    5  C15 UNL     1      -1.663   9.450  16.080  1.00  0.00    -0.069 C 
HETATM    6  C16 UNL     1      -1.863   9.543  17.580  1.00  0.00     0.035 C 
HETATM    7  C17 UNL     1      -3.229  10.063  18.019  1.00  0.00     0.010 C 
HETATM    8  C18 UNL     1      -3.699  11.328  17.275  1.00  0.00    -0.004 C 
HETATM    9  C19 UNL     1      -2.831  11.639  16.015  1.00  0.00     0.002 C 
HETATM   10  C20 UNL     1      -3.426  12.833  15.236  1.00  0.00     0.007 C 
HETATM   11  C21 UNL     1      -3.573  14.085  16.130  1.00  0.00     0.013 C 
HETATM   12  C22 UNL     1      -4.391  13.804  17.408  1.00  0.00    -0.002 C 
HETATM   13  C23 UNL     1      -5.874  13.557  17.009  1.00  0.00     0.019 C 
HETATM   14  C24 UNL     1      -3.734  12.596  18.137  1.00  0.00     0.002 C 
HETATM   15  C25 UNL     1      -4.452  12.562  19.480  1.00  0.00     0.009 C 
HETATM   16  C26 UNL     1      -4.689  14.046  19.822  1.00  0.00     0.047 C 
HETATM   17  C27 UNL     1      -4.320  14.866  18.550  1.00  0.00     0.125 C 
HETATM   18  C30 UNL     1      -2.528  10.348  15.185  1.00  0.00    -0.016 C 
HETATM   19  C31 UNL     1      -3.822   9.606  14.774  1.00  0.00     0.020 C 
HETATM   20  C32 UNL     1      -1.736  10.694  13.896  1.00  0.00     0.020 C 
HETATM   21  C33 UNL     1      -1.137   9.462  13.223  1.00  0.00     0.060 C 
ENDROOT
BRANCH   1  22
HETATM   22  O4  UNL     1       1.603   7.524  14.665  1.00  0.00    -0.271 OA
BRANCH  22  23
HETATM   23  C12 UNL     1       2.917   8.065  14.594  1.00  0.00     0.303 C 
BRANCH  23  24
HETATM   24  C11 UNL     1       3.402   8.221  13.156  1.00  0.00     0.244 C 
HETATM   25  N1  UNL     1       4.191   7.190  12.700  1.00  0.00    -0.345 N 
HETATM   26  H12 UNL     1       4.348   6.400  13.331  1.00  0.00     0.163 HD
HETATM   27  O3  UNL     1       3.076   9.171  12.447  1.00  0.00    -0.271 OA
BRANCH  25  28
HETATM   28  C3  UNL     1       4.746   7.162  11.347  1.00  0.00     0.188 C 
BRANCH  28  29
HETATM   29  C2  UNL     1       6.247   6.893  11.468  1.00  0.00     0.281 C 
HETATM   30  O2  UNL     1       7.003   6.785  10.507  1.00  0.00    -0.263 OA
BRANCH  29  31
HETATM   31  O1  UNL     1       6.623   6.794  12.774  1.00  0.00    -0.325 OA
HETATM   32  C1  UNL     1       7.753   7.597  13.117  1.00  0.00     0.213 C 
ENDBRANCH  29  31
ENDBRANCH  28  29
BRANCH  28  33
HETATM   33  C4  UNL     1       4.081   6.073  10.494  1.00  0.00     0.074 C 
BRANCH  33  34
HETATM   34  C5  UNL     1       3.403   6.623   9.260  1.00  0.00    -0.056 A 
HETATM   35  C6  UNL     1       3.265   8.004   9.072  1.00  0.00     0.007 A 
HETATM   36  C7  UNL     1       2.636   8.498   7.928  1.00  0.00     0.001 A 
HETATM   37  C8  UNL     1       2.140   7.619   6.965  1.00  0.00     0.000 A 
HETATM   38  C9  UNL     1       2.274   6.244   7.144  1.00  0.00     0.001 A 
HETATM   39  C10 UNL     1       2.901   5.747   8.287  1.00  0.00     0.007 A 
ENDBRANCH  33  34
ENDBRANCH  28  33
ENDBRANCH  25  28
ENDBRANCH  23  24
ENDBRANCH  22  23
ENDBRANCH   1  22
BRANCH  17  40
HETATM   40  O5  UNL     1      -2.970  15.321  18.706  1.00  0.00    -0.381 OA
HETATM   41  H34 UNL     1      -2.916  15.806  19.550  1.00  0.00     0.211 HD
ENDBRANCH  17  40
BRANCH  17  42
HETATM   42  C28 UNL     1      -5.240  16.094  18.352  1.00  0.00     0.158 C 
HETATM   43  C29 UNL     1      -5.425  17.031  19.521  1.00  0.00     0.094 C 
HETATM   44  O6  UNL     1      -5.788  16.342  17.275  1.00  0.00    -0.295 OA
ENDBRANCH  17  42
TORSDOF 10
ENDMDL
MODEL 6
REMARK minimizedAffinity -8.23688316
REMARK CNNscore 0.325741529
REMARK CNNaffinity 6.20529938
REMARK  10 active torsions:
REMARK  status: ('A' for Active; 'I' for Inactive)
REMARK    1  A    between atoms: O1_2  and  C2_3 
REMARK    2  A    between atoms: C2_3  and  C3_5 
REMARK    3  A    between atoms: C3_5  and  C4_6 
REMARK    4  A    between atoms: C3_5  and  N1_13 
REMARK    5  A    between atoms: C4_6  and  C5_7 
REMARK       I    between atoms: N1_13  and  C11_14 
REMARK    6  A    between atoms: C11_14  and  C12_16 
REMARK    7  A    between atoms: C12_16  and  O4_17 
REMARK    8  A    between atoms: O4_17  and  N2_18 
REMARK    9  A    between atoms: C27_34  and  O5_35 
REMARK   10  A    between atoms: C27_34  and  C28_36 
ROOT
HETATM    1  N2  UNL     1      -9.914  -8.218  -2.945  1.00  0.00    -0.271 N 
ATOM      2  H2  UNL     1     -10.922  -8.100  -2.846  1.00  0.00     0.194 HD
HETATM    3  C13 UNL     1      -9.186  -8.936  -2.143  1.00  0.00     0.032 C 
HETATM    4  C14 UNL     1      -7.724  -9.196  -2.285  1.00  0.00     0.030 C 
HETATM    5  C15 UNL     1      -7.026  -9.862  -1.348  1.00  0.00    -0.069 C 
HETATM    6  C16 UNL     1      -5.517  -9.914  -1.488  1.00  0.00     0.035 C 
HETATM    7  C17 UNL     1      -4.823 -10.965  -0.626  1.00  0.00     0.010 C 
HETATM    8  C18 UNL     1      -5.287 -10.991   0.843  1.00  0.00    -0.004 C 
HETATM    9  C19 UNL     1      -6.584 -10.156   1.078  1.00  0.00     0.002 C 
HETATM   10  C20 UNL     1      -7.077 -10.327   2.532  1.00  0.00     0.007 C 
HETATM   11  C21 UNL     1      -5.982  -9.948   3.555  1.00  0.00     0.013 C 
HETATM   12  C22 UNL     1      -4.669 -10.726   3.328  1.00  0.00    -0.002 C 
HETATM   13  C23 UNL     1      -4.901 -12.219   3.691  1.00  0.00     0.019 C 
HETATM   14  C24 UNL     1      -4.236 -10.506   1.849  1.00  0.00     0.002 C 
HETATM   15  C25 UNL     1      -2.832 -11.095   1.802  1.00  0.00     0.009 C 
HETATM   16  C26 UNL     1      -2.229 -10.753   3.178  1.00  0.00     0.047 C 
HETATM   17  C27 UNL     1      -3.392 -10.196   4.054  1.00  0.00     0.125 C 
HETATM   18  C30 UNL     1      -7.642 -10.400  -0.049  1.00  0.00    -0.016 C 
HETATM   19  C31 UNL     1      -7.991 -11.899  -0.203  1.00  0.00     0.020 C 
HETATM   20  C32 UNL     1      -8.953  -9.624   0.249  1.00  0.00     0.020 C 
HETATM   21  C33 UNL     1      -9.889  -9.560  -0.956  1.00  0.00     0.060 C 
ENDROOT
BRANCH   1  22
HETATM   22  O4  UNL     1      -9.151  -7.622  -3.963  1.00  0.00    -0.271 OA
BRANCH  22  23
HETATM   23  C12 UNL     1      -8.852  -6.279  -3.604  1.00  0.00     0.303 C 
BRANCH  23  24
HETATM   24  C11 UNL     1      -9.352  -5.276  -4.640  1.00  0.00     0.244 C 
HETATM   25  N1  UNL     1      -8.870  -3.998  -4.481  1.00  0.00    -0.345 N 
HETATM   26  H12 UNL     1      -8.198  -3.835  -3.727  1.00  0.00     0.163 HD
HETATM   27  O3  UNL     1     -10.089  -5.598  -5.569  1.00  0.00    -0.271 OA
BRANCH  25  28
HETATM   28  C3  UNL     1      -9.235  -2.902  -5.378  1.00  0.00     0.188 C 
BRANCH  28  29
HETATM   29  C2  UNL     1     -10.740  -2.668  -5.236  1.00  0.00     0.281 C 
HETATM   30  O2  UNL     1     -11.304  -2.472  -4.163  1.00  0.00    -0.263 OA
BRANCH  29  31
HETATM   31  O1  UNL     1     -11.358  -2.703  -6.449  1.00  0.00    -0.325 OA
HETATM   32  C1  UNL     1     -10.483  -2.990  -7.541  1.00  0.00     0.213 C 
ENDBRANCH  29  31
ENDBRANCH  28  29
BRANCH  28  33
HETATM   33  C4  UNL     1      -8.466  -1.619  -5.034  1.00  0.00     0.074 C 
BRANCH  33  34
HETATM   34  C5  UNL     1      -8.154  -0.775  -6.249  1.00  0.00    -0.056 A 
HETATM   35  C6  UNL     1      -7.109  -1.120  -7.114  1.00  0.00     0.007 A 
HETATM   36  C7  UNL     1      -6.832  -0.331  -8.232  1.00  0.00     0.001 A 
HETATM   37  C8  UNL     1      -7.595   0.807  -8.493  1.00  0.00     0.000 A 
HETATM   38  C9  UNL     1      -8.638   1.158  -7.638  1.00  0.00     0.001 A 
HETATM   39  C10 UNL     1      -8.916   0.371  -6.520  1.00  0.00     0.007 A 
ENDBRANCH  33  34
ENDBRANCH  28  33
ENDBRANCH  25  28
ENDBRANCH  23  24
ENDBRANCH  22  23
ENDBRANCH   1  22
BRANCH  17  40
HETATM   40  O5  UNL     1      -3.345  -8.767   3.975  1.00  0.00    -0.381 OA
HETATM   41  H34 UNL     1      -2.450  -8.483   4.236  1.00  0.00     0.211 HD
ENDBRANCH  17  40
BRANCH  17  42
HETATM   42  C28 UNL     1      -3.267 -10.618   5.538  1.00  0.00     0.158 C 
HETATM   43  C29 UNL     1      -4.040  -9.824   6.563  1.00  0.00     0.094 C 
HETATM   44  O6  UNL     1      -2.591 -11.586   5.894  1.00  0.00    -0.295 OA
ENDBRANCH  17  42
TORSDOF 10
ENDMDL
MODEL 7
REMARK minimizedAffinity -8.97664547
REMARK CNNscore 0.32389763
REMARK CNNaffinity 7.11473465
REMARK  10 active torsions:
REMARK  status: ('A' for Active; 'I' for Inactive)
REMARK    1  A    between atoms: O1_2  and  C2_3 
REMARK    2  A    between atoms: C2_3  and  C3_5 
REMARK    3  A    between atoms: C3_5  and  C4_6 
REMARK    4  A    between atoms: C3_5  and  N1_13 
REMARK    5  A    between atoms: C4_6  and  C5_7 
REMARK       I    between atoms: N1_13  and  C11_14 
REMARK    6  A    between atoms: C11_14  and  C12_16 
REMARK    7  A    between atoms: C12_16  and  O4_17 
REMARK    8  A    between atoms: O4_17  and  N2_18 
REMARK    9  A    between atoms: C27_34  and  O5_35 
REMARK   10  A    between atoms: C27_34  and  C28_36 
ROOT
HETATM    1  N2  UNL     1     -11.446   7.794  14.142  1.00  0.00    -0.271 N 
ATOM      2  H2  UNL     1     -11.925   8.355  14.846  1.00  0.00     0.194 HD
HETATM    3  C13 UNL     1     -10.269   7.268  14.311  1.00  0.00     0.032 C 
HETATM    4  C14 UNL     1      -9.557   6.385  13.342  1.00  0.00     0.030 C 
HETATM    5  C15 UNL     1      -8.295   5.973  13.550  1.00  0.00    -0.069 C 
HETATM    6  C16 UNL     1      -7.593   5.236  12.426  1.00  0.00     0.035 C 
HETATM    7  C17 UNL     1      -6.328   4.486  12.835  1.00  0.00     0.010 C 
HETATM    8  C18 UNL     1      -5.357   5.303  13.710  1.00  0.00    -0.004 C 
HETATM    9  C19 UNL     1      -6.003   6.615  14.257  1.00  0.00     0.002 C 
HETATM   10  C20 UNL     1      -5.036   7.323  15.232  1.00  0.00     0.007 C 
HETATM   11  C21 UNL     1      -3.668   7.612  14.572  1.00  0.00     0.013 C 
HETATM   12  C22 UNL     1      -3.018   6.342  13.983  1.00  0.00    -0.002 C 
HETATM   13  C23 UNL     1      -2.586   5.412  15.151  1.00  0.00     0.019 C 
HETATM   14  C24 UNL     1      -4.046   5.688  13.014  1.00  0.00     0.002 C 
HETATM   15  C25 UNL     1      -3.231   4.608  12.313  1.00  0.00     0.009 C 
HETATM   16  C26 UNL     1      -1.829   5.229  12.160  1.00  0.00     0.047 C 
HETATM   17  C27 UNL     1      -1.825   6.544  12.997  1.00  0.00     0.125 C 
HETATM   18  C30 UNL     1      -7.460   6.373  14.774  1.00  0.00    -0.016 C 
HETATM   19  C31 UNL     1      -7.516   5.260  15.848  1.00  0.00     0.020 C 
HETATM   20  C32 UNL     1      -8.049   7.670  15.388  1.00  0.00     0.020 C 
HETATM   21  C33 UNL     1      -9.558   7.587  15.609  1.00  0.00     0.060 C 
ENDROOT
BRANCH   1  22
HETATM   22  O4  UNL     1     -11.980   7.501  12.876  1.00  0.00    -0.271 OA
BRANCH  22  23
HETATM   23  C12 UNL     1     -13.400   7.549  12.942  1.00  0.00     0.303 C 
BRANCH  23  24
HETATM   24  C11 UNL     1     -13.975   6.469  13.855  1.00  0.00     0.244 C 
HETATM   25  N1  UNL     1     -15.334   6.548  14.053  1.00  0.00    -0.345 N 
HETATM   26  H12 UNL     1     -15.845   7.278  13.550  1.00  0.00     0.163 HD
HETATM   27  O3  UNL     1     -13.284   5.574  14.337  1.00  0.00    -0.271 OA
BRANCH  25  28
HETATM   28  C3  UNL     1     -16.064   5.598  14.893  1.00  0.00     0.188 C 
BRANCH  28  29
HETATM   29  C2  UNL     1     -16.916   6.407  15.872  1.00  0.00     0.281 C 
HETATM   30  O2  UNL     1     -17.788   7.200  15.529  1.00  0.00    -0.263 OA
BRANCH  29  31
HETATM   31  O1  UNL     1     -16.580   6.126  17.162  1.00  0.00    -0.325 OA
HETATM   32  C1  UNL     1     -17.316   5.043  17.733  1.00  0.00     0.213 C 
ENDBRANCH  29  31
ENDBRANCH  28  29
BRANCH  28  33
HETATM   33  C4  UNL     1     -16.957   4.679  14.049  1.00  0.00     0.074 C 
BRANCH  33  34
HETATM   34  C5  UNL     1     -16.481   3.244  14.037  1.00  0.00    -0.056 A 
HETATM   35  C6  UNL     1     -17.089   2.292  13.210  1.00  0.00     0.007 A 
HETATM   36  C7  UNL     1     -16.639   0.971  13.209  1.00  0.00     0.001 A 
HETATM   37  C8  UNL     1     -15.582   0.590  14.035  1.00  0.00     0.000 A 
HETATM   38  C9  UNL     1     -14.970   1.530  14.861  1.00  0.00     0.001 A 
HETATM   39  C10 UNL     1     -15.418   2.852  14.864  1.00  0.00     0.007 A 
ENDBRANCH  33  34
ENDBRANCH  28  33
ENDBRANCH  25  28
ENDBRANCH  23  24
ENDBRANCH  22  23
ENDBRANCH   1  22
BRANCH  17  40
HETATM   40  O5  UNL     1      -2.110   7.626  12.103  1.00  0.00    -0.381 OA
HETATM   41  H34 UNL     1      -1.463   7.589  11.375  1.00  0.00     0.211 HD
ENDBRANCH  17  40
BRANCH  17  42
HETATM   42  C28 UNL     1      -0.459   6.806  13.676  1.00  0.00     0.158 C 
HETATM   43  C29 UNL     1       0.635   5.785  13.475  1.00  0.00     0.094 C 
HETATM   44  O6  UNL     1      -0.235   7.823  14.337  1.00  0.00    -0.295 OA
ENDBRANCH  17  42
TORSDOF 10
ENDMDL
MODEL 8
REMARK minimizedAffinity -8.58894634
REMARK CNNscore 0.294780314
REMARK CNNaffinity 7.1434021
REMARK  10 active torsions:
REMARK  status: ('A' for Active; 'I' for Inactive)
REMARK    1  A    between atoms: O1_2  and  C2_3 
REMARK    2  A    between atoms: C2_3  and  C3_5 
REMARK    3  A    between atoms: C3_5  and  C4_6 
REMARK    4  A    between atoms: C3_5  and  N1_13 
REMARK    5  A    between atoms: C4_6  and  C5_7 
REMARK       I    between atoms: N1_13  and  C11_14 
REMARK    6  A    between atoms: C11_14  and  C12_16 
REMARK    7  A    between atoms: C12_16  and  O4_17 
REMARK    8  A    between atoms: O4_17  and  N2_18 
REMARK    9  A    between atoms: C27_34  and  O5_35 
REMARK   10  A    between atoms: C27_34  and  C28_36 
ROOT
HETATM    1  N2  UNL     1     -11.191   8.201  14.684  1.00  0.00    -0.271 N 
ATOM      2  H2  UNL     1     -11.599   8.788  15.411  1.00  0.00     0.194 HD
HETATM    3  C13 UNL     1     -10.024   7.636  14.778  1.00  0.00     0.032 C 
HETATM    4  C14 UNL     1      -9.413   6.715  13.777  1.00  0.00     0.030 C 
HETATM    5  C15 UNL     1      -8.153   6.261  13.902  1.00  0.00    -0.069 C 
HETATM    6  C16 UNL     1      -7.559   5.484  12.745  1.00  0.00     0.035 C 
HETATM    7  C17 UNL     1      -6.294   4.697  13.076  1.00  0.00     0.010 C 
HETATM    8  C18 UNL     1      -5.236   5.492  13.866  1.00  0.00    -0.004 C 
HETATM    9  C19 UNL     1      -5.796   6.834  14.434  1.00  0.00     0.002 C 
HETATM   10  C20 UNL     1      -4.739   7.522  15.325  1.00  0.00     0.007 C 
HETATM   11  C21 UNL     1      -3.413   7.753  14.566  1.00  0.00     0.013 C 
HETATM   12  C22 UNL     1      -2.850   6.453  13.954  1.00  0.00    -0.002 C 
HETATM   13  C23 UNL     1      -2.367   5.525  15.105  1.00  0.00     0.019 C 
HETATM   14  C24 UNL     1      -3.965   5.820  13.072  1.00  0.00     0.002 C 
HETATM   15  C25 UNL     1      -3.240   4.703  12.334  1.00  0.00     0.009 C 
HETATM   16  C26 UNL     1      -1.832   5.272  12.071  1.00  0.00     0.047 C 
HETATM   17  C27 UNL     1      -1.723   6.598  12.883  1.00  0.00     0.125 C 
HETATM   18  C30 UNL     1      -7.220   6.650  15.057  1.00  0.00    -0.016 C 
HETATM   19  C31 UNL     1      -7.238   5.556  16.151  1.00  0.00     0.020 C 
HETATM   20  C32 UNL     1      -7.720   7.977  15.689  1.00  0.00     0.020 C 
HETATM   21  C33 UNL     1      -9.211   7.950  16.017  1.00  0.00     0.060 C 
ENDROOT
BRANCH   1  22
HETATM   22  O4  UNL     1     -11.824   7.907  13.465  1.00  0.00    -0.271 OA
BRANCH  22  23
HETATM   23  C12 UNL     1     -11.716   9.028  12.596  1.00  0.00     0.303 C 
BRANCH  23  24
HETATM   24  C11 UNL     1     -13.071   9.663  12.298  1.00  0.00     0.244 C 
HETATM   25  N1  UNL     1     -14.152   8.963  12.779  1.00  0.00    -0.345 N 
HETATM   26  H12 UNL     1     -13.965   8.116  13.322  1.00  0.00     0.163 HD
HETATM   27  O3  UNL     1     -13.183  10.740  11.714  1.00  0.00    -0.271 OA
BRANCH  25  28
HETATM   28  C3  UNL     1     -15.530   9.417  12.594  1.00  0.00     0.188 C 
BRANCH  28  29
HETATM   29  C2  UNL     1     -16.095   8.695  11.369  1.00  0.00     0.281 C 
HETATM   30  O2  UNL     1     -15.854   7.523  11.093  1.00  0.00    -0.263 OA
BRANCH  29  31
HETATM   31  O1  UNL     1     -16.896   9.520  10.640  1.00  0.00    -0.325 OA
HETATM   32  C1  UNL     1     -18.281   9.173  10.679  1.00  0.00     0.213 C 
ENDBRANCH  29  31
ENDBRANCH  28  29
BRANCH  28  33
HETATM   33  C4  UNL     1     -16.388   9.113  13.829  1.00  0.00     0.074 C 
BRANCH  33  34
HETATM   34  C5  UNL     1     -16.344   7.656  14.233  1.00  0.00    -0.056 A 
HETATM   35  C6  UNL     1     -17.474   6.839  14.099  1.00  0.00     0.007 A 
HETATM   36  C7  UNL     1     -17.419   5.496  14.476  1.00  0.00     0.001 A 
HETATM   37  C8  UNL     1     -16.238   4.960  14.990  1.00  0.00     0.000 A 
HETATM   38  C9  UNL     1     -15.109   5.765  15.126  1.00  0.00     0.001 A 
HETATM   39  C10 UNL     1     -15.162   7.108  14.751  1.00  0.00     0.007 A 
ENDBRANCH  33  34
ENDBRANCH  28  33
ENDBRANCH  25  28
ENDBRANCH  23  24
ENDBRANCH  22  23
ENDBRANCH   1  22
BRANCH  17  40
HETATM   40  O5  UNL     1      -2.035   7.676  11.993  1.00  0.00    -0.381 OA
HETATM   41  H34 UNL     1      -1.444   7.606  11.221  1.00  0.00     0.211 HD
ENDBRANCH  17  40
BRANCH  17  42
HETATM   42  C28 UNL     1      -0.305   6.822  13.459  1.00  0.00     0.158 C 
HETATM   43  C29 UNL     1      -0.078   8.044  14.316  1.00  0.00     0.094 C 
HETATM   44  O6  UNL     1       0.618   6.027  13.267  1.00  0.00    -0.295 OA
ENDBRANCH  17  42
TORSDOF 10
ENDMDL
MODEL 9
REMARK minimizedAffinity -9.39433193
REMARK CNNscore 0.250071198
REMARK CNNaffinity 7.00922823
REMARK  10 active torsions:
REMARK  status: ('A' for Active; 'I' for Inactive)
REMARK    1  A    between atoms: O1_2  and  C2_3 
REMARK    2  A    between atoms: C2_3  and  C3_5 
REMARK    3  A    between atoms: C3_5  and  C4_6 
REMARK    4  A    between atoms: C3_5  and  N1_13 
REMARK    5  A    between atoms: C4_6  and  C5_7 
REMARK       I    between atoms: N1_13  and  C11_14 
REMARK    6  A    between atoms: C11_14  and  C12_16 
REMARK    7  A    between atoms: C12_16  and  O4_17 
REMARK    8  A    between atoms: O4_17  and  N2_18 
REMARK    9  A    between atoms: C27_34  and  O5_35 
REMARK   10  A    between atoms: C27_34  and  C28_36 
ROOT
HETATM    1  N2  UNL     1       3.458   8.859  15.545  1.00  0.00    -0.271 N 
ATOM      2  H2  UNL     1       3.863   9.756  15.812  1.00  0.00     0.194 HD
HETATM    3  C13 UNL     1       2.280   8.723  15.016  1.00  0.00     0.032 C 
HETATM    4  C14 UNL     1       1.673   7.444  14.545  1.00  0.00     0.030 C 
HETATM    5  C15 UNL     1       0.402   7.377  14.109  1.00  0.00    -0.069 C 
HETATM    6  C16 UNL     1      -0.182   6.006  13.830  1.00  0.00     0.035 C 
HETATM    7  C17 UNL     1      -1.468   6.007  13.008  1.00  0.00     0.010 C 
HETATM    8  C18 UNL     1      -2.527   7.022  13.482  1.00  0.00    -0.004 C 
HETATM    9  C19 UNL     1      -1.954   8.053  14.504  1.00  0.00     0.002 C 
HETATM   10  C20 UNL     1      -3.017   9.122  14.840  1.00  0.00     0.007 C 
HETATM   11  C21 UNL     1      -4.322   8.486  15.368  1.00  0.00     0.013 C 
HETATM   12  C22 UNL     1      -4.896   7.430  14.401  1.00  0.00    -0.002 C 
HETATM   13  C23 UNL     1      -5.420   8.149  13.126  1.00  0.00     0.019 C 
HETATM   14  C24 UNL     1      -3.775   6.390  14.112  1.00  0.00     0.002 C 
HETATM   15  C25 UNL     1      -4.506   5.282  13.365  1.00  0.00     0.009 C 
HETATM   16  C26 UNL     1      -5.897   5.231  14.026  1.00  0.00     0.047 C 
HETATM   17  C27 UNL     1      -5.997   6.474  14.960  1.00  0.00     0.125 C 
HETATM   18  C30 UNL     1      -0.547   8.582  14.067  1.00  0.00    -0.016 C 
HETATM   19  C31 UNL     1      -0.573   9.194  12.646  1.00  0.00     0.020 C 
HETATM   20  C32 UNL     1      -0.036   9.666  15.053  1.00  0.00     0.020 C 
HETATM   21  C33 UNL     1       1.447   9.979  14.869  1.00  0.00     0.060 C 
ENDROOT
BRANCH   1  22
HETATM   22  O4  UNL     1       4.111   7.625  15.708  1.00  0.00    -0.271 OA
BRANCH  22  23
HETATM   23  C12 UNL     1       5.436   7.723  15.198  1.00  0.00     0.303 C 
BRANCH  23  24
HETATM   24  C11 UNL     1       5.466   8.190  13.746  1.00  0.00     0.244 C 
HETATM   25  N1  UNL     1       5.262   7.194  12.818  1.00  0.00    -0.345 N 
HETATM   26  H12 UNL     1       5.067   6.253  13.169  1.00  0.00     0.163 HD
HETATM   27  O3  UNL     1       5.614   9.369  13.433  1.00  0.00    -0.271 OA
BRANCH  25  28
HETATM   28  C3  UNL     1       5.252   7.451  11.378  1.00  0.00     0.188 C 
BRANCH  28  29
HETATM   29  C2  UNL     1       6.706   7.562  10.918  1.00  0.00     0.281 C 
HETATM   30  O2  UNL     1       7.154   8.514  10.286  1.00  0.00    -0.263 OA
BRANCH  29  31
HETATM   31  O1  UNL     1       7.427   6.473  11.305  1.00  0.00    -0.325 OA
HETATM   32  C1  UNL     1       6.994   5.247  10.714  1.00  0.00     0.213 C 
ENDBRANCH  29  31
ENDBRANCH  28  29
BRANCH  28  33
HETATM   33  C4  UNL     1       4.541   6.324  10.616  1.00  0.00     0.074 C 
BRANCH  33  34
HETATM   34  C5  UNL     1       3.735   6.825   9.440  1.00  0.00    -0.056 A 
HETATM   35  C6  UNL     1       2.981   5.943   8.657  1.00  0.00     0.007 A 
HETATM   36  C7  UNL     1       2.241   6.420   7.574  1.00  0.00     0.001 A 
HETATM   37  C8  UNL     1       2.251   7.780   7.263  1.00  0.00     0.000 A 
HETATM   38  C9  UNL     1       2.998   8.665   8.036  1.00  0.00     0.001 A 
HETATM   39  C10 UNL     1       3.738   8.191   9.120  1.00  0.00     0.007 A 
ENDBRANCH  33  34
ENDBRANCH  28  33
ENDBRANCH  25  28
ENDBRANCH  23  24
ENDBRANCH  22  23
ENDBRANCH   1  22
BRANCH  17  40
HETATM   40  O5  UNL     1      -5.647   6.050  16.283  1.00  0.00    -0.381 OA
HETATM   41  H34 UNL     1      -6.223   5.300  16.517  1.00  0.00     0.211 HD
ENDBRANCH  17  40
BRANCH  17  42
HETATM   42  C28 UNL     1      -7.423   7.075  14.991  1.00  0.00     0.158 C 
HETATM   43  C29 UNL     1      -8.483   6.416  14.142  1.00  0.00     0.094 C 
HETATM   44  O6  UNL     1      -7.718   8.038  15.703  1.00  0.00    -0.295 OA
ENDBRANCH  17  42
TORSDOF 10
ENDMDL
