MODEL 1
REMARK minimizedAffinity -8.15970135
REMARK CNNscore 0.587107182
REMARK CNNaffinity 7.40999556
REMARK  10 active torsions:
REMARK  status: ('A' for Active; 'I' for Inactive)
REMARK    1  A    between atoms: O1_2  and  C2_3 
REMARK    2  A    between atoms: C4_5  and  O2_6 
REMARK    3  A    between atoms: O2_6  and  C5_7 
REMARK    4  A    between atoms: C8_10  and  C9_11 
REMARK    5  A    between atoms: N1_12  and  C10_14 
REMARK    6  A    between atoms: C10_14  and  C11_15 
REMARK    7  A    between atoms: C21_27  and  C22_28 
REMARK    8  A    between atoms: C28_36  and  O5_37 
REMARK    9  A    between atoms: C32_41  and  O6_42 
REMARK   10  A    between atoms: C36_47  and  O8_48 
ROOT
HETATM    1  C5  UNL     1      -0.439  50.252 -14.445  1.00  0.00     0.127 C 
HETATM    2  C6  UNL     1      -1.330  51.354 -13.875  1.00  0.00     0.033 C 
HETATM    3  C7  UNL     1      -0.565  52.377 -13.028  1.00  0.00     0.021 C 
HETATM    4  C8  UNL     1       0.326  51.762 -11.900  1.00  0.00     0.026 C 
HETATM    5  C16 UNL     1       1.165  52.956 -11.263  1.00  0.00     0.009 C 
HETATM    6  C17 UNL     1       0.528  53.536  -9.980  1.00  0.00     0.007 C 
HETATM    7  C18 UNL     1       1.312  54.709  -9.402  1.00  0.00     0.013 C 
HETATM    8  C19 UNL     1       2.792  54.360  -9.109  1.00  0.00    -0.005 C 
HETATM    9  C20 UNL     1       2.876  53.403  -7.901  1.00  0.00     0.019 C 
HETATM   10  C21 UNL     1       3.651  55.640  -8.876  1.00  0.00     0.028 C 
HETATM   11  C26 UNL     1       3.856  56.200 -10.298  1.00  0.00     0.013 C 
HETATM   12  C27 UNL     1       3.722  55.011 -11.262  1.00  0.00     0.040 C 
HETATM   13  C28 UNL     1       3.469  53.769 -10.380  1.00  0.00     0.070 C 
HETATM   14  C29 UNL     1       2.658  52.619 -11.042  1.00  0.00     0.026 C 
HETATM   15  C30 UNL     1       3.317  52.122 -12.350  1.00  0.00     0.011 C 
HETATM   16  C31 UNL     1       2.410  51.276 -13.255  1.00  0.00     0.039 C 
HETATM   17  C32 UNL     1       1.233  50.639 -12.497  1.00  0.00     0.073 C 
HETATM   18  C33 UNL     1       0.430  49.633 -13.352  1.00  0.00     0.071 C 
ENDROOT
BRANCH   1  19
HETATM   19  O2  UNL     1       0.383  50.803 -15.477  1.00  0.00    -0.356 OA
BRANCH  19  20
HETATM   20  C4  UNL     1      -0.353  51.159 -16.655  1.00  0.00     0.263 C 
HETATM   21  C3  UNL     1       0.604  51.916 -17.560  1.00  0.00     0.095 C 
HETATM   22  C2  UNL     1      -0.120  52.440 -18.800  1.00  0.00     0.156 C 
HETATM   23  C36 UNL     1      -1.258  51.494 -19.236  1.00  0.00     0.175 C 
HETATM   24  C34 UNL     1      -0.995  50.070 -18.717  1.00  0.00     0.151 C 
HETATM   25  O7  UNL     1      -0.886  50.000 -17.287  1.00  0.00    -0.354 OA
HETATM   26  C35 UNL     1      -2.097  49.091 -19.122  1.00  0.00     0.042 C 
BRANCH  22  27
HETATM   27  O1  UNL     1       0.795  52.566 -19.898  1.00  0.00    -0.388 OA
HETATM   28  C1  UNL     1       1.023  53.915 -20.290  1.00  0.00     0.202 C 
ENDBRANCH  22  27
BRANCH  23  29
HETATM   29  O8  UNL     1      -2.506  51.979 -18.718  1.00  0.00    -0.390 OA
HETATM   30  H50 UNL     1      -2.750  52.760 -19.246  1.00  0.00     0.210 HD
ENDBRANCH  23  29
ENDBRANCH  19  20
ENDBRANCH   1  19
BRANCH  17  31
HETATM   31  O6  UNL     1       1.810  49.851 -11.437  1.00  0.00    -0.389 OA
HETATM   32  H42 UNL     1       2.382  49.177 -11.848  1.00  0.00     0.210 HD
ENDBRANCH  17  31
BRANCH   4  33
HETATM   33  C9  UNL     1      -0.543  51.111 -10.812  1.00  0.00     0.069 C 
HETATM   34  N1  UNL     1      -1.775  51.455 -10.625  1.00  0.00    -0.397 N 
ATOM     35  H1  UNL     1      -2.255  52.146 -11.202  1.00  0.00     0.159 HD
BRANCH  34  36
HETATM   36  C10 UNL     1      -2.415  50.761  -9.507  1.00  0.00     0.158 C 
BRANCH  36  37
HETATM   37  C11 UNL     1      -1.906  51.291  -8.198  1.00  0.00    -0.025 A 
HETATM   38  C12 UNL     1      -1.850  52.662  -7.937  1.00  0.00     0.011 A 
HETATM   39  C13 UNL     1      -1.389  53.107  -6.701  1.00  0.00     0.018 A 
HETATM   40  C14 UNL     1      -1.007  52.162  -5.764  1.00  0.00     0.087 A 
HETATM   41  N2  UNL     1      -1.057  50.830  -5.974  1.00  0.00    -0.375 N 
HETATM   42  C15 UNL     1      -1.516  50.424  -7.180  1.00  0.00     0.096 A 
ATOM     43  H2  UNL     1      -0.764  50.163  -5.260  1.00  0.00     0.164 HD
ENDBRANCH  36  37
ENDBRANCH  34  36
ENDBRANCH   4  33
BRANCH  13  44
HETATM   44  O5  UNL     1       4.754  53.246 -10.004  1.00  0.00    -0.389 OA
HETATM   45  H36 UNL     1       5.252  53.046 -10.816  1.00  0.00     0.210 HD
ENDBRANCH  13  44
BRANCH  10  46
HETATM   46  C22 UNL     1       3.148  56.619  -7.849  1.00  0.00    -0.045 A 
HETATM   47  C23 UNL     1       3.831  57.441  -7.052  1.00  0.00     0.087 A 
HETATM   48  C24 UNL     1       2.857  58.142  -6.215  1.00  0.00     0.283 A 
HETATM   49  O3  UNL     1       3.135  58.983  -5.378  1.00  0.00    -0.260 OA
HETATM   50  O4  UNL     1       1.610  57.702  -6.518  1.00  0.00    -0.314 OA
HETATM   51  C25 UNL     1       1.698  56.723  -7.554  1.00  0.00     0.213 A 
ENDBRANCH  10  46
TORSDOF 10
ENDMDL
MODEL 2
REMARK minimizedAffinity -8.51958847
REMARK CNNscore 0.530642271
REMARK CNNaffinity 6.47849894
REMARK  10 active torsions:
REMARK  status: ('A' for Active; 'I' for Inactive)
REMARK    1  A    between atoms: O1_2  and  C2_3 
REMARK    2  A    between atoms: C4_5  and  O2_6 
REMARK    3  A    between atoms: O2_6  and  C5_7 
REMARK    4  A    between atoms: C8_10  and  C9_11 
REMARK    5  A    between atoms: N1_12  and  C10_14 
REMARK    6  A    between atoms: C10_14  and  C11_15 
REMARK    7  A    between atoms: C21_27  and  C22_28 
REMARK    8  A    between atoms: C28_36  and  O5_37 
REMARK    9  A    between atoms: C32_41  and  O6_42 
REMARK   10  A    between atoms: C36_47  and  O8_48 
ROOT
HETATM    1  C5  UNL     1      -8.375  47.652 -25.087  1.00  0.00     0.127 C 
HETATM    2  C6  UNL     1      -9.306  46.441 -25.111  1.00  0.00     0.033 C 
HETATM    3  C7  UNL     1      -9.379  45.758 -26.481  1.00  0.00     0.021 C 
HETATM    4  C8  UNL     1      -9.701  46.713 -27.676  1.00  0.00     0.026 C 
HETATM    5  C16 UNL     1      -9.555  45.858 -29.012  1.00  0.00     0.009 C 
HETATM    6  C17 UNL     1     -10.899  45.302 -29.532  1.00  0.00     0.007 C 
HETATM    7  C18 UNL     1     -10.746  44.445 -30.785  1.00  0.00     0.013 C 
HETATM    8  C19 UNL     1     -10.034  45.189 -31.941  1.00  0.00    -0.005 C 
HETATM    9  C20 UNL     1     -10.963  46.280 -32.515  1.00  0.00     0.019 C 
HETATM   10  C21 UNL     1      -9.562  44.206 -33.055  1.00  0.00     0.028 C 
HETATM   11  C26 UNL     1      -8.311  43.543 -32.445  1.00  0.00     0.013 C 
HETATM   12  C27 UNL     1      -7.752  44.530 -31.409  1.00  0.00     0.040 C 
HETATM   13  C28 UNL     1      -8.672  45.768 -31.453  1.00  0.00     0.070 C 
HETATM   14  C29 UNL     1      -8.779  46.585 -30.134  1.00  0.00     0.026 C 
HETATM   15  C30 UNL     1      -7.395  47.065 -29.636  1.00  0.00     0.011 C 
HETATM   16  C31 UNL     1      -7.358  47.535 -28.175  1.00  0.00     0.039 C 
HETATM   17  C32 UNL     1      -8.740  47.945 -27.640  1.00  0.00     0.073 C 
HETATM   18  C33 UNL     1      -8.684  48.601 -26.243  1.00  0.00     0.071 C 
ENDROOT
BRANCH   1  19
HETATM   19  O2  UNL     1      -7.020  47.201 -25.167  1.00  0.00    -0.356 OA
BRANCH  19  20
HETATM   20  C4  UNL     1      -6.064  48.248 -24.954  1.00  0.00     0.263 C 
HETATM   21  C3  UNL     1      -5.683  48.202 -23.483  1.00  0.00     0.095 C 
HETATM   22  C2  UNL     1      -4.747  49.359 -23.129  1.00  0.00     0.156 C 
HETATM   23  C36 UNL     1      -3.834  49.735 -24.314  1.00  0.00     0.175 C 
HETATM   24  C34 UNL     1      -3.684  48.540 -25.271  1.00  0.00     0.151 C 
HETATM   25  O7  UNL     1      -4.936  48.083 -25.806  1.00  0.00    -0.354 OA
HETATM   26  C35 UNL     1      -2.788  48.862 -26.467  1.00  0.00     0.042 C 
BRANCH  22  27
HETATM   27  O1  UNL     1      -3.908  49.001 -22.021  1.00  0.00    -0.388 OA
HETATM   28  C1  UNL     1      -3.817  50.020 -21.031  1.00  0.00     0.202 C 
ENDBRANCH  22  27
BRANCH  23  29
HETATM   29  O8  UNL     1      -4.399  50.853 -25.014  1.00  0.00    -0.390 OA
HETATM   30  H50 UNL     1      -4.256  51.641 -24.459  1.00  0.00     0.210 HD
ENDBRANCH  23  29
ENDBRANCH  19  20
ENDBRANCH   1  19
BRANCH  17  31
HETATM   31  O6  UNL     1      -9.226  48.979 -28.520  1.00  0.00    -0.389 OA
HETATM   32  H42 UNL     1      -8.592  49.718 -28.485  1.00  0.00     0.210 HD
ENDBRANCH  17  31
BRANCH   4  33
HETATM   33  C9  UNL     1     -11.135  47.255 -27.571  1.00  0.00     0.069 C 
HETATM   34  N1  UNL     1     -12.025  46.692 -26.821  1.00  0.00    -0.397 N 
ATOM     35  H1  UNL     1     -11.827  45.885 -26.230  1.00  0.00     0.159 HD
BRANCH  34  36
HETATM   36  C10 UNL     1     -13.343  47.324 -26.899  1.00  0.00     0.158 C 
BRANCH  36  37
HETATM   37  C11 UNL     1     -14.404  46.293 -27.159  1.00  0.00    -0.025 A 
HETATM   38  C12 UNL     1     -14.511  45.650 -28.394  1.00  0.00     0.011 A 
HETATM   39  C13 UNL     1     -15.498  44.687 -28.583  1.00  0.00     0.018 A 
HETATM   40  C14 UNL     1     -16.342  44.394 -27.525  1.00  0.00     0.087 A 
HETATM   41  N2  UNL     1     -16.263  44.986 -26.314  1.00  0.00    -0.375 N 
HETATM   42  C15 UNL     1     -15.290  45.912 -26.154  1.00  0.00     0.096 A 
ATOM     43  H2  UNL     1     -16.904  44.747 -25.558  1.00  0.00     0.164 HD
ENDBRANCH  36  37
ENDBRANCH  34  36
ENDBRANCH   4  33
BRANCH  13  44
HETATM   44  O5  UNL     1      -8.162  46.641 -32.476  1.00  0.00    -0.389 OA
HETATM   45  H36 UNL     1      -7.238  46.857 -32.260  1.00  0.00     0.210 HD
ENDBRANCH  13  44
BRANCH  10  46
HETATM   46  C22 UNL     1     -10.596  43.269 -33.617  1.00  0.00    -0.045 A 
HETATM   47  C23 UNL     1     -10.681  41.941 -33.526  1.00  0.00     0.087 A 
HETATM   48  C24 UNL     1     -11.857  41.527 -34.291  1.00  0.00     0.283 A 
HETATM   49  O3  UNL     1     -12.240  40.377 -34.409  1.00  0.00    -0.260 OA
HETATM   50  O4  UNL     1     -12.438  42.622 -34.843  1.00  0.00    -0.314 OA
HETATM   51  C25 UNL     1     -11.698  43.784 -34.468  1.00  0.00     0.213 A 
ENDBRANCH  10  46
TORSDOF 10
ENDMDL
MODEL 3
REMARK minimizedAffinity -7.92857361
REMARK CNNscore 0.409853786
REMARK CNNaffinity 6.31318903
REMARK  10 active torsions:
REMARK  status: ('A' for Active; 'I' for Inactive)
REMARK    1  A    between atoms: O1_2  and  C2_3 
REMARK    2  A    between atoms: C4_5  and  O2_6 
REMARK    3  A    between atoms: O2_6  and  C5_7 
REMARK    4  A    between atoms: C8_10  and  C9_11 
REMARK    5  A    between atoms: N1_12  and  C10_14 
REMARK    6  A    between atoms: C10_14  and  C11_15 
REMARK    7  A    between atoms: C21_27  and  C22_28 
REMARK    8  A    between atoms: C28_36  and  O5_37 
REMARK    9  A    between atoms: C32_41  and  O6_42 
REMARK   10  A    between atoms: C36_47  and  O8_48 
ROOT
HETATM    1  C5  UNL     1      -8.738  46.434 -23.230  1.00  0.00     0.127 C 
HETATM    2  C6  UNL     1      -9.539  45.451 -24.082  1.00  0.00     0.033 C 
HETATM    3  C7  UNL     1      -9.130  45.454 -25.558  1.00  0.00     0.021 C 
HETATM    4  C8  UNL     1      -9.108  46.864 -26.233  1.00  0.00     0.026 C 
HETATM    5  C16 UNL     1      -8.492  46.677 -27.690  1.00  0.00     0.009 C 
HETATM    6  C17 UNL     1      -9.564  46.536 -28.794  1.00  0.00     0.007 C 
HETATM    7  C18 UNL     1      -8.968  46.311 -30.179  1.00  0.00     0.013 C 
HETATM    8  C19 UNL     1      -7.968  47.418 -30.594  1.00  0.00    -0.005 C 
HETATM    9  C20 UNL     1      -8.727  48.732 -30.876  1.00  0.00     0.019 C 
HETATM   10  C21 UNL     1      -7.108  46.989 -31.821  1.00  0.00     0.028 C 
HETATM   11  C26 UNL     1      -6.081  46.010 -31.216  1.00  0.00     0.013 C 
HETATM   12  C27 UNL     1      -5.942  46.381 -29.732  1.00  0.00     0.040 C 
HETATM   13  C28 UNL     1      -6.871  47.592 -29.502  1.00  0.00     0.070 C 
HETATM   14  C29 UNL     1      -7.442  47.748 -28.063  1.00  0.00     0.026 C 
HETATM   15  C30 UNL     1      -6.321  47.827 -27.000  1.00  0.00     0.011 C 
HETATM   16  C31 UNL     1      -6.781  47.597 -25.553  1.00  0.00     0.039 C 
HETATM   17  C32 UNL     1      -8.283  47.857 -25.353  1.00  0.00     0.073 C 
HETATM   18  C33 UNL     1      -8.716  47.820 -23.870  1.00  0.00     0.071 C 
ENDROOT
BRANCH   1  19
HETATM   19  O2  UNL     1      -7.404  45.940 -23.076  1.00  0.00    -0.356 OA
BRANCH  19  20
HETATM   20  C4  UNL     1      -6.713  46.519 -21.962  1.00  0.00     0.263 C 
HETATM   21  C3  UNL     1      -6.676  45.462 -20.870  1.00  0.00     0.095 C 
HETATM   22  C2  UNL     1      -6.055  46.024 -19.590  1.00  0.00     0.156 C 
HETATM   23  C36 UNL     1      -4.972  47.078 -19.900  1.00  0.00     0.175 C 
HETATM   24  C34 UNL     1      -4.408  46.863 -21.315  1.00  0.00     0.151 C 
HETATM   25  O7  UNL     1      -5.409  46.944 -22.342  1.00  0.00    -0.354 OA
HETATM   26  C35 UNL     1      -3.329  47.885 -21.672  1.00  0.00     0.042 C 
BRANCH  22  27
HETATM   27  O1  UNL     1      -5.444  44.973 -18.829  1.00  0.00    -0.388 OA
HETATM   28  C1  UNL     1      -5.282  43.765 -19.564  1.00  0.00     0.202 C 
ENDBRANCH  22  27
BRANCH  23  29
HETATM   29  O8  UNL     1      -5.542  48.391 -19.797  1.00  0.00    -0.390 OA
HETATM   30  H50 UNL     1      -5.665  48.576 -18.849  1.00  0.00     0.210 HD
ENDBRANCH  23  29
ENDBRANCH  19  20
ENDBRANCH   1  19
BRANCH  17  31
HETATM   31  O6  UNL     1      -8.522  49.214 -25.778  1.00  0.00    -0.389 OA
HETATM   32  H42 UNL     1      -7.977  49.798 -25.221  1.00  0.00     0.210 HD
ENDBRANCH  17  31
BRANCH   4  33
HETATM   33  C9  UNL     1     -10.529  47.436 -26.349  1.00  0.00     0.069 C 
HETATM   34  N1  UNL     1     -11.571  46.750 -26.011  1.00  0.00    -0.397 N 
ATOM     35  H1  UNL     1     -11.518  45.811 -25.617  1.00  0.00     0.159 HD
BRANCH  34  36
HETATM   36  C10 UNL     1     -12.836  47.448 -26.247  1.00  0.00     0.158 C 
BRANCH  36  37
HETATM   37  C11 UNL     1     -13.788  46.568 -27.004  1.00  0.00    -0.025 A 
HETATM   38  C12 UNL     1     -14.911  46.007 -26.391  1.00  0.00     0.011 A 
HETATM   39  C13 UNL     1     -15.776  45.213 -27.138  1.00  0.00     0.018 A 
HETATM   40  C14 UNL     1     -15.493  45.015 -28.479  1.00  0.00     0.087 A 
HETATM   41  N2  UNL     1     -14.426  45.548 -29.110  1.00  0.00    -0.375 N 
HETATM   42  C15 UNL     1     -13.605  46.322 -28.363  1.00  0.00     0.096 A 
ATOM     43  H2  UNL     1     -14.248  45.378 -30.099  1.00  0.00     0.164 HD
ENDBRANCH  36  37
ENDBRANCH  34  36
ENDBRANCH   4  33
BRANCH  13  44
HETATM   44  O5  UNL     1      -6.113  48.774 -29.809  1.00  0.00    -0.389 OA
HETATM   45  H36 UNL     1      -5.321  48.784 -29.244  1.00  0.00     0.210 HD
ENDBRANCH  13  44
BRANCH  10  46
HETATM   46  C22 UNL     1      -7.851  46.498 -33.034  1.00  0.00    -0.045 A 
HETATM   47  C23 UNL     1      -8.553  47.183 -33.936  1.00  0.00     0.087 A 
HETATM   48  C24 UNL     1      -9.106  46.214 -34.883  1.00  0.00     0.283 A 
HETATM   49  O3  UNL     1      -9.792  46.498 -35.849  1.00  0.00    -0.260 OA
HETATM   50  O4  UNL     1      -8.737  44.963 -34.508  1.00  0.00    -0.314 OA
HETATM   51  C25 UNL     1      -7.932  45.046 -33.331  1.00  0.00     0.213 A 
ENDBRANCH  10  46
TORSDOF 10
ENDMDL
MODEL 4
REMARK minimizedAffinity -8.33748627
REMARK CNNscore 0.359315932
REMARK CNNaffinity 6.48579025
REMARK  10 active torsions:
REMARK  status: ('A' for Active; 'I' for Inactive)
REMARK    1  A    between atoms: O1_2  and  C2_3 
REMARK    2  A    between atoms: C4_5  and  O2_6 
REMARK    3  A    between atoms: O2_6  and  C5_7 
REMARK    4  A    between atoms: C8_10  and  C9_11 
REMARK    5  A    between atoms: N1_12  and  C10_14 
REMARK    6  A    between atoms: C10_14  and  C11_15 
REMARK    7  A    between atoms: C21_27  and  C22_28 
REMARK    8  A    between atoms: C28_36  and  O5_37 
REMARK    9  A    between atoms: C32_41  and  O6_42 
REMARK   10  A    between atoms: C36_47  and  O8_48 
ROOT
HETATM    1  C5  UNL     1      -8.460  47.593 -19.196  1.00  0.00     0.127 C 
HETATM    2  C6  UNL     1      -8.100  48.993 -18.702  1.00  0.00     0.033 C 
HETATM    3  C7  UNL     1      -6.905  49.608 -19.438  1.00  0.00     0.021 C 
HETATM    4  C8  UNL     1      -5.629  48.707 -19.492  1.00  0.00     0.026 C 
HETATM    5  C16 UNL     1      -4.578  49.436 -20.440  1.00  0.00     0.009 C 
HETATM    6  C17 UNL     1      -3.540  50.281 -19.668  1.00  0.00     0.007 C 
HETATM    7  C18 UNL     1      -2.567  51.014 -20.584  1.00  0.00     0.013 C 
HETATM    8  C19 UNL     1      -1.817  50.065 -21.552  1.00  0.00    -0.005 C 
HETATM    9  C20 UNL     1      -0.801  49.210 -20.765  1.00  0.00     0.019 C 
HETATM   10  C21 UNL     1      -1.122  50.850 -22.705  1.00  0.00     0.028 C 
HETATM   11  C26 UNL     1      -2.287  51.214 -23.647  1.00  0.00     0.013 C 
HETATM   12  C27 UNL     1      -3.388  50.169 -23.408  1.00  0.00     0.040 C 
HETATM   13  C28 UNL     1      -2.832  49.194 -22.348  1.00  0.00     0.070 C 
HETATM   14  C29 UNL     1      -3.890  48.490 -21.450  1.00  0.00     0.026 C 
HETATM   15  C30 UNL     1      -4.932  47.710 -22.284  1.00  0.00     0.011 C 
HETATM   16  C31 UNL     1      -6.207  47.313 -21.526  1.00  0.00     0.039 C 
HETATM   17  C32 UNL     1      -6.012  47.280 -20.001  1.00  0.00     0.073 C 
HETATM   18  C33 UNL     1      -7.225  46.696 -19.244  1.00  0.00     0.071 C 
ENDROOT
BRANCH   1  19
HETATM   19  O2  UNL     1      -9.047  47.694 -20.497  1.00  0.00    -0.356 OA
BRANCH  19  20
HETATM   20  C4  UNL     1     -10.478  47.779 -20.464  1.00  0.00     0.263 C 
HETATM   21  C3  UNL     1     -11.004  46.708 -21.406  1.00  0.00     0.095 C 
HETATM   22  C2  UNL     1     -12.526  46.792 -21.528  1.00  0.00     0.156 C 
HETATM   23  C36 UNL     1     -13.176  47.275 -20.215  1.00  0.00     0.175 C 
HETATM   24  C34 UNL     1     -12.249  46.982 -19.023  1.00  0.00     0.151 C 
HETATM   25  O7  UNL     1     -10.964  47.612 -19.137  1.00  0.00    -0.354 OA
HETATM   26  C35 UNL     1     -12.848  47.443 -17.694  1.00  0.00     0.042 C 
BRANCH  22  27
HETATM   27  O1  UNL     1     -13.073  45.504 -21.846  1.00  0.00    -0.388 OA
HETATM   28  C1  UNL     1     -14.379  45.570 -22.409  1.00  0.00     0.202 C 
ENDBRANCH  22  27
BRANCH  23  29
HETATM   29  O8  UNL     1     -13.430  48.685 -20.299  1.00  0.00    -0.390 OA
HETATM   30  H50 UNL     1     -14.191  48.803 -20.896  1.00  0.00     0.210 HD
ENDBRANCH  23  29
ENDBRANCH  19  20
ENDBRANCH   1  19
BRANCH  17  31
HETATM   31  O6  UNL     1      -4.934  46.356 -19.748  1.00  0.00    -0.389 OA
HETATM   32  H42 UNL     1      -5.202  45.487 -20.097  1.00  0.00     0.210 HD
ENDBRANCH  17  31
BRANCH   4  33
HETATM   33  C9  UNL     1      -5.021  48.538 -18.090  1.00  0.00     0.069 C 
HETATM   34  N1  UNL     1      -3.849  48.021 -17.912  1.00  0.00    -0.397 N 
ATOM     35  H1  UNL     1      -3.245  47.730 -18.681  1.00  0.00     0.159 HD
BRANCH  34  36
HETATM   36  C10 UNL     1      -3.470  47.896 -16.504  1.00  0.00     0.158 C 
BRANCH  36  37
HETATM   37  C11 UNL     1      -2.022  48.242 -16.317  1.00  0.00    -0.025 A 
HETATM   38  C12 UNL     1      -1.356  49.102 -17.194  1.00  0.00     0.011 A 
HETATM   39  C13 UNL     1      -0.017  49.411 -16.970  1.00  0.00     0.018 A 
HETATM   40  C14 UNL     1       0.609  48.853 -15.868  1.00  0.00     0.087 A 
HETATM   41  N2  UNL     1      -0.002  48.028 -14.992  1.00  0.00    -0.375 N 
HETATM   42  C15 UNL     1      -1.304  47.750 -15.229  1.00  0.00     0.096 A 
ATOM     43  H2  UNL     1       0.493  47.633 -14.193  1.00  0.00     0.164 HD
ENDBRANCH  36  37
ENDBRANCH  34  36
ENDBRANCH   4  33
BRANCH  13  44
HETATM   44  O5  UNL     1      -2.099  48.176 -23.050  1.00  0.00    -0.389 OA
HETATM   45  H36 UNL     1      -2.700  47.751 -23.687  1.00  0.00     0.210 HD
ENDBRANCH  13  44
BRANCH  10  46
HETATM   46  C22 UNL     1      -0.218  51.985 -22.307  1.00  0.00    -0.045 A 
HETATM   47  C23 UNL     1       0.115  52.422 -21.092  1.00  0.00     0.087 A 
HETATM   48  C24 UNL     1       0.988  53.581 -21.271  1.00  0.00     0.283 A 
HETATM   49  O3  UNL     1       1.490  54.222 -20.365  1.00  0.00    -0.260 OA
HETATM   50  O4  UNL     1       1.139  53.825 -22.598  1.00  0.00    -0.314 OA
HETATM   51  C25 UNL     1       0.401  52.854 -23.339  1.00  0.00     0.213 A 
ENDBRANCH  10  46
TORSDOF 10
ENDMDL
MODEL 5
REMARK minimizedAffinity -8.03082371
REMARK CNNscore 0.297968924
REMARK CNNaffinity 6.02374649
REMARK  10 active torsions:
REMARK  status: ('A' for Active; 'I' for Inactive)
REMARK    1  A    between atoms: O1_2  and  C2_3 
REMARK    2  A    between atoms: C4_5  and  O2_6 
REMARK    3  A    between atoms: O2_6  and  C5_7 
REMARK    4  A    between atoms: C8_10  and  C9_11 
REMARK    5  A    between atoms: N1_12  and  C10_14 
REMARK    6  A    between atoms: C10_14  and  C11_15 
REMARK    7  A    between atoms: C21_27  and  C22_28 
REMARK    8  A    between atoms: C28_36  and  O5_37 
REMARK    9  A    between atoms: C32_41  and  O6_42 
REMARK   10  A    between atoms: C36_47  and  O8_48 
ROOT
HETATM    1  C5  UNL     1       3.644  68.971 -39.998  1.00  0.00     0.127 C 
HETATM    2  C6  UNL     1       5.029  68.438 -40.360  1.00  0.00     0.033 C 
HETATM    3  C7  UNL     1       5.534  67.357 -39.398  1.00  0.00     0.021 C 
HETATM    4  C8  UNL     1       5.481  67.745 -37.885  1.00  0.00     0.026 C 
HETATM    5  C16 UNL     1       5.870  66.444 -37.053  1.00  0.00     0.009 C 
HETATM    6  C17 UNL     1       7.360  66.402 -36.645  1.00  0.00     0.007 C 
HETATM    7  C18 UNL     1       7.735  65.131 -35.889  1.00  0.00     0.013 C 
HETATM    8  C19 UNL     1       6.866  64.900 -34.629  1.00  0.00    -0.005 C 
HETATM    9  C20 UNL     1       7.229  65.935 -33.543  1.00  0.00     0.019 C 
HETATM   10  C21 UNL     1       7.008  63.443 -34.090  1.00  0.00     0.028 C 
HETATM   11  C26 UNL     1       6.159  62.612 -35.073  1.00  0.00     0.013 C 
HETATM   12  C27 UNL     1       5.114  63.568 -35.669  1.00  0.00     0.040 C 
HETATM   13  C28 UNL     1       5.354  64.938 -35.000  1.00  0.00     0.070 C 
HETATM   14  C29 UNL     1       4.949  66.185 -35.839  1.00  0.00     0.026 C 
HETATM   15  C30 UNL     1       3.463  66.140 -36.263  1.00  0.00     0.011 C 
HETATM   16  C31 UNL     1       3.080  67.109 -37.391  1.00  0.00     0.039 C 
HETATM   17  C32 UNL     1       4.059  68.287 -37.529  1.00  0.00     0.073 C 
HETATM   18  C33 UNL     1       3.579  69.366 -38.524  1.00  0.00     0.071 C 
ENDROOT
BRANCH   1  19
HETATM   19  O2  UNL     1       2.667  67.966 -40.283  1.00  0.00    -0.356 OA
BRANCH  19  20
HETATM   20  C4  UNL     1       1.426  68.505 -40.759  1.00  0.00     0.263 C 
HETATM   21  C3  UNL     1       0.749  67.407 -41.561  1.00  0.00     0.095 C 
HETATM   22  C2  UNL     1      -0.538  67.922 -42.209  1.00  0.00     0.156 C 
HETATM   23  C36 UNL     1      -1.224  68.993 -41.336  1.00  0.00     0.175 C 
HETATM   24  C34 UNL     1      -0.797  68.836 -39.866  1.00  0.00     0.151 C 
HETATM   25  O7  UNL     1       0.621  68.951 -39.673  1.00  0.00    -0.354 OA
HETATM   26  C35 UNL     1      -1.450  69.877 -38.957  1.00  0.00     0.042 C 
BRANCH  22  27
HETATM   27  O1  UNL     1      -1.467  66.846 -42.400  1.00  0.00    -0.388 OA
HETATM   28  C1  UNL     1      -2.452  67.121 -43.389  1.00  0.00     0.202 C 
ENDBRANCH  22  27
BRANCH  23  29
HETATM   29  O8  UNL     1      -0.863  70.298 -41.811  1.00  0.00    -0.390 OA
HETATM   30  H50 UNL     1      -1.351  70.446 -42.641  1.00  0.00     0.210 HD
ENDBRANCH  23  29
ENDBRANCH  19  20
ENDBRANCH   1  19
BRANCH  17  31
HETATM   31  O6  UNL     1       4.086  68.946 -36.247  1.00  0.00    -0.389 OA
HETATM   32  H42 UNL     1       3.181  69.250 -36.052  1.00  0.00     0.210 HD
ENDBRANCH  17  31
BRANCH   4  33
HETATM   33  C9  UNL     1       6.483  68.868 -37.574  1.00  0.00     0.069 C 
HETATM   34  N1  UNL     1       6.210  70.111 -37.805  1.00  0.00    -0.397 N 
ATOM     35  H1  UNL     1       5.310  70.426 -38.168  1.00  0.00     0.159 HD
BRANCH  34  36
HETATM   36  C10 UNL     1       7.311  71.022 -37.493  1.00  0.00     0.158 C 
BRANCH  36  37
HETATM   37  C11 UNL     1       7.766  71.739 -38.732  1.00  0.00    -0.025 A 
HETATM   38  C12 UNL     1       8.876  72.586 -38.720  1.00  0.00     0.011 A 
HETATM   39  C13 UNL     1       9.273  73.214 -39.898  1.00  0.00     0.018 A 
HETATM   40  C14 UNL     1       8.548  72.966 -41.051  1.00  0.00     0.087 A 
HETATM   41  N2  UNL     1       7.478  72.145 -41.105  1.00  0.00    -0.375 N 
HETATM   42  C15 UNL     1       7.118  71.542 -39.949  1.00  0.00     0.096 A 
ATOM     43  H2  UNL     1       6.966  71.988 -41.973  1.00  0.00     0.164 HD
ENDBRANCH  36  37
ENDBRANCH  34  36
ENDBRANCH   4  33
BRANCH  13  44
HETATM   44  O5  UNL     1       4.591  64.956 -33.782  1.00  0.00    -0.389 OA
HETATM   45  H36 UNL     1       3.658  64.795 -34.004  1.00  0.00     0.210 HD
ENDBRANCH  13  44
BRANCH  10  46
HETATM   46  C22 UNL     1       8.405  62.944 -33.841  1.00  0.00    -0.045 A 
HETATM   47  C23 UNL     1       9.491  63.612 -33.453  1.00  0.00     0.087 A 
HETATM   48  C24 UNL     1      10.597  62.656 -33.407  1.00  0.00     0.283 A 
HETATM   49  O3  UNL     1      11.738  62.926 -33.077  1.00  0.00    -0.260 OA
HETATM   50  O4  UNL     1      10.147  61.435 -33.793  1.00  0.00    -0.314 OA
HETATM   51  C25 UNL     1       8.754  61.524 -34.093  1.00  0.00     0.213 A 
ENDBRANCH  10  46
TORSDOF 10
ENDMDL
MODEL 6
REMARK minimizedAffinity -8.29898357
REMARK CNNscore 0.295196116
REMARK CNNaffinity 5.80939674
REMARK  10 active torsions:
REMARK  status: ('A' for Active; 'I' for Inactive)
REMARK    1  A    between atoms: O1_2  and  C2_3 
REMARK    2  A    between atoms: C4_5  and  O2_6 
REMARK    3  A    between atoms: O2_6  and  C5_7 
REMARK    4  A    between atoms: C8_10  and  C9_11 
REMARK    5  A    between atoms: N1_12  and  C10_14 
REMARK    6  A    between atoms: C10_14  and  C11_15 
REMARK    7  A    between atoms: C21_27  and  C22_28 
REMARK    8  A    between atoms: C28_36  and  O5_37 
REMARK    9  A    between atoms: C32_41  and  O6_42 
REMARK   10  A    between atoms: C36_47  and  O8_48 
ROOT
HETATM    1  C5  UNL     1      -7.622  47.684 -26.015  1.00  0.00     0.127 C 
HETATM    2  C6  UNL     1      -8.766  48.416 -26.714  1.00  0.00     0.033 C 
HETATM    3  C7  UNL     1     -10.114  48.257 -26.003  1.00  0.00     0.021 C 
HETATM    4  C8  UNL     1     -10.524  46.781 -25.692  1.00  0.00     0.026 C 
HETATM    5  C16 UNL     1     -11.845  46.838 -24.804  1.00  0.00     0.009 C 
HETATM    6  C17 UNL     1     -13.143  46.673 -25.626  1.00  0.00     0.007 C 
HETATM    7  C18 UNL     1     -14.404  46.775 -24.775  1.00  0.00     0.013 C 
HETATM    8  C19 UNL     1     -14.425  45.765 -23.602  1.00  0.00    -0.005 C 
HETATM    9  C20 UNL     1     -14.623  44.334 -24.144  1.00  0.00     0.019 C 
HETATM   10  C21 UNL     1     -15.517  46.126 -22.549  1.00  0.00     0.028 C 
HETATM   11  C26 UNL     1     -14.899  47.312 -21.781  1.00  0.00     0.013 C 
HETATM   12  C27 UNL     1     -13.375  47.181 -21.923  1.00  0.00     0.040 C 
HETATM   13  C28 UNL     1     -13.129  45.900 -22.750  1.00  0.00     0.070 C 
HETATM   14  C29 UNL     1     -11.822  45.876 -23.594  1.00  0.00     0.026 C 
HETATM   15  C30 UNL     1     -10.565  46.104 -22.723  1.00  0.00     0.011 C 
HETATM   16  C31 UNL     1      -9.294  46.475 -23.500  1.00  0.00     0.039 C 
HETATM   17  C32 UNL     1      -9.346  46.045 -24.976  1.00  0.00     0.073 C 
HETATM   18  C33 UNL     1      -8.004  46.236 -25.715  1.00  0.00     0.071 C 
ENDROOT
BRANCH   1  19
HETATM   19  O2  UNL     1      -7.299  48.371 -24.803  1.00  0.00    -0.356 OA
BRANCH  19  20
HETATM   20  C4  UNL     1      -5.888  48.498 -24.586  1.00  0.00     0.263 C 
HETATM   21  C3  UNL     1      -5.224  48.424 -25.951  1.00  0.00     0.095 C 
HETATM   22  C2  UNL     1      -3.701  48.437 -25.817  1.00  0.00     0.156 C 
HETATM   23  C36 UNL     1      -3.244  49.277 -24.606  1.00  0.00     0.175 C 
HETATM   24  C34 UNL     1      -4.323  50.309 -24.236  1.00  0.00     0.151 C 
HETATM   25  O7  UNL     1      -5.588  49.713 -23.908  1.00  0.00    -0.354 OA
HETATM   26  C35 UNL     1      -3.920  51.169 -23.039  1.00  0.00     0.042 C 
BRANCH  22  27
HETATM   27  O1  UNL     1      -3.100  48.995 -26.994  1.00  0.00    -0.388 OA
HETATM   28  C1  UNL     1      -1.998  49.850 -26.713  1.00  0.00     0.202 C 
ENDBRANCH  22  27
BRANCH  23  29
HETATM   29  O8  UNL     1      -2.997  48.410 -23.490  1.00  0.00    -0.390 OA
HETATM   30  H50 UNL     1      -2.163  47.941 -23.671  1.00  0.00     0.210 HD
ENDBRANCH  23  29
ENDBRANCH  19  20
ENDBRANCH   1  19
BRANCH  17  31
HETATM   31  O6  UNL     1      -9.576  44.622 -24.978  1.00  0.00    -0.389 OA
HETATM   32  H42 UNL     1      -8.833  44.203 -24.506  1.00  0.00     0.210 HD
ENDBRANCH  17  31
BRANCH   4  33
HETATM   33  C9  UNL     1     -10.815  46.011 -26.990  1.00  0.00     0.069 C 
HETATM   34  N1  UNL     1     -10.980  46.616 -28.121  1.00  0.00    -0.397 N 
ATOM     35  H1  UNL     1     -10.894  47.626 -28.231  1.00  0.00     0.159 HD
BRANCH  34  36
HETATM   36  C10 UNL     1     -11.302  45.714 -29.228  1.00  0.00     0.158 C 
BRANCH  36  37
HETATM   37  C11 UNL     1     -10.357  45.931 -30.374  1.00  0.00    -0.025 A 
HETATM   38  C12 UNL     1     -10.326  47.136 -31.078  1.00  0.00     0.011 A 
HETATM   39  C13 UNL     1      -9.419  47.299 -32.121  1.00  0.00     0.018 A 
HETATM   40  C14 UNL     1      -8.566  46.250 -32.419  1.00  0.00     0.087 A 
HETATM   41  N2  UNL     1      -8.557  45.075 -31.755  1.00  0.00    -0.375 N 
HETATM   42  C15 UNL     1      -9.443  44.946 -30.742  1.00  0.00     0.096 A 
ATOM     43  H2  UNL     1      -7.916  44.323 -32.005  1.00  0.00     0.164 HD
ENDBRANCH  36  37
ENDBRANCH  34  36
ENDBRANCH   4  33
BRANCH  13  44
HETATM   44  O5  UNL     1     -13.080  44.800 -21.826  1.00  0.00    -0.389 OA
HETATM   45  H36 UNL     1     -12.379  44.978 -21.175  1.00  0.00     0.210 HD
ENDBRANCH  13  44
BRANCH  10  46
HETATM   46  C22 UNL     1     -16.916  46.333 -23.064  1.00  0.00    -0.045 A 
HETATM   47  C23 UNL     1     -17.332  46.661 -24.288  1.00  0.00     0.087 A 
HETATM   48  C24 UNL     1     -18.789  46.777 -24.235  1.00  0.00     0.283 A 
HETATM   49  O3  UNL     1     -19.501  47.052 -25.185  1.00  0.00    -0.260 OA
HETATM   50  O4  UNL     1     -19.210  46.536 -22.967  1.00  0.00    -0.314 OA
HETATM   51  C25 UNL     1     -18.078  46.245 -22.147  1.00  0.00     0.213 A 
ENDBRANCH  10  46
TORSDOF 10
ENDMDL
MODEL 7
REMARK minimizedAffinity -7.92316151
REMARK CNNscore 0.266543239
REMARK CNNaffinity 5.97577524
REMARK  10 active torsions:
REMARK  status: ('A' for Active; 'I' for Inactive)
REMARK    1  A    between atoms: O1_2  and  C2_3 
REMARK    2  A    between atoms: C4_5  and  O2_6 
REMARK    3  A    between atoms: O2_6  and  C5_7 
REMARK    4  A    between atoms: C8_10  and  C9_11 
REMARK    5  A    between atoms: N1_12  and  C10_14 
REMARK    6  A    between atoms: C10_14  and  C11_15 
REMARK    7  A    between atoms: C21_27  and  C22_28 
REMARK    8  A    between atoms: C28_36  and  O5_37 
REMARK    9  A    between atoms: C32_41  and  O6_42 
REMARK   10  A    between atoms: C36_47  and  O8_48 
ROOT
HETATM    1  C5  UNL     1      -8.957  47.261 -24.593  1.00  0.00     0.127 C 
HETATM    2  C6  UNL     1      -9.801  46.077 -25.064  1.00  0.00     0.033 C 
HETATM    3  C7  UNL     1      -9.441  45.597 -26.474  1.00  0.00     0.021 C 
HETATM    4  C8  UNL     1      -9.421  46.717 -27.565  1.00  0.00     0.026 C 
HETATM    5  C16 UNL     1      -8.857  46.059 -28.902  1.00  0.00     0.009 C 
HETATM    6  C17 UNL     1      -9.967  45.598 -29.873  1.00  0.00     0.007 C 
HETATM    7  C18 UNL     1      -9.421  44.927 -31.128  1.00  0.00     0.013 C 
HETATM    8  C19 UNL     1      -8.420  45.820 -31.903  1.00  0.00    -0.005 C 
HETATM    9  C20 UNL     1      -9.169  46.992 -32.570  1.00  0.00     0.019 C 
HETATM   10  C21 UNL     1      -7.607  45.000 -32.951  1.00  0.00     0.028 C 
HETATM   11  C26 UNL     1      -6.575  44.241 -32.092  1.00  0.00     0.013 C 
HETATM   12  C27 UNL     1      -6.381  45.064 -30.809  1.00  0.00     0.040 C 
HETATM   13  C28 UNL     1      -7.285  46.307 -30.954  1.00  0.00     0.070 C 
HETATM   14  C29 UNL     1      -7.805  46.929 -29.627  1.00  0.00     0.026 C 
HETATM   15  C30 UNL     1      -6.649  47.316 -28.675  1.00  0.00     0.011 C 
HETATM   16  C31 UNL     1      -7.063  47.572 -27.220  1.00  0.00     0.039 C 
HETATM   17  C32 UNL     1      -8.554  47.919 -27.072  1.00  0.00     0.073 C 
HETATM   18  C33 UNL     1      -8.937  48.368 -25.645  1.00  0.00     0.071 C 
ENDROOT
BRANCH   1  19
HETATM   19  O2  UNL     1      -7.627  46.809 -24.326  1.00  0.00    -0.356 OA
BRANCH  19  20
HETATM   20  C4  UNL     1      -7.065  47.382 -23.138  1.00  0.00     0.263 C 
HETATM   21  C3  UNL     1      -8.232  47.798 -22.257  1.00  0.00     0.095 C 
HETATM   22  C2  UNL     1      -7.736  48.527 -21.007  1.00  0.00     0.156 C 
HETATM   23  C36 UNL     1      -6.366  47.990 -20.542  1.00  0.00     0.175 C 
HETATM   24  C34 UNL     1      -6.154  46.556 -21.055  1.00  0.00     0.151 C 
HETATM   25  O7  UNL     1      -6.206  46.453 -22.487  1.00  0.00    -0.354 OA
HETATM   26  C35 UNL     1      -4.807  45.977 -20.622  1.00  0.00     0.042 C 
BRANCH  22  27
HETATM   27  O1  UNL     1      -8.667  48.357 -19.928  1.00  0.00    -0.388 OA
HETATM   28  C1  UNL     1      -8.172  48.826 -18.678  1.00  0.00     0.202 C 
ENDBRANCH  22  27
BRANCH  23  29
HETATM   29  O8  UNL     1      -5.326  48.845 -21.040  1.00  0.00    -0.390 OA
HETATM   30  H50 UNL     1      -5.353  49.664 -20.514  1.00  0.00     0.210 HD
ENDBRANCH  23  29
ENDBRANCH  19  20
ENDBRANCH   1  19
BRANCH  17  31
HETATM   31  O6  UNL     1      -8.787  49.074 -27.903  1.00  0.00    -0.389 OA
HETATM   32  H42 UNL     1      -8.215  49.792 -27.577  1.00  0.00     0.210 HD
ENDBRANCH  17  31
BRANCH   4  33
HETATM   33  C9  UNL     1     -10.837  47.256 -27.820  1.00  0.00     0.069 C 
HETATM   34  N1  UNL     1     -11.842  46.915 -27.080  1.00  0.00    -0.397 N 
ATOM     35  H1  UNL     1     -11.755  46.303 -26.269  1.00  0.00     0.159 HD
BRANCH  34  36
HETATM   36  C10 UNL     1     -13.115  47.490 -27.517  1.00  0.00     0.158 C 
BRANCH  36  37
HETATM   37  C11 UNL     1     -14.199  46.453 -27.480  1.00  0.00    -0.025 A 
HETATM   38  C12 UNL     1     -14.963  46.234 -26.331  1.00  0.00     0.011 A 
HETATM   39  C13 UNL     1     -15.972  45.275 -26.349  1.00  0.00     0.018 A 
HETATM   40  C14 UNL     1     -16.188  44.572 -27.522  1.00  0.00     0.087 A 
HETATM   41  N2  UNL     1     -15.480  44.762 -28.655  1.00  0.00    -0.375 N 
HETATM   42  C15 UNL     1     -14.511  45.705 -28.613  1.00  0.00     0.096 A 
ATOM     43  H2  UNL     1     -15.665  44.222 -29.500  1.00  0.00     0.164 HD
ENDBRANCH  36  37
ENDBRANCH  34  36
ENDBRANCH   4  33
BRANCH  13  44
HETATM   44  O5  UNL     1      -6.520  47.310 -31.645  1.00  0.00    -0.389 OA
HETATM   45  H36 UNL     1      -5.710  47.481 -31.134  1.00  0.00     0.210 HD
ENDBRANCH  13  44
BRANCH  10  46
HETATM   46  C22 UNL     1      -8.397  44.165 -33.921  1.00  0.00    -0.045 A 
HETATM   47  C23 UNL     1      -9.151  44.545 -34.954  1.00  0.00     0.087 A 
HETATM   48  C24 UNL     1      -9.731  43.335 -35.537  1.00  0.00     0.283 A 
HETATM   49  O3  UNL     1     -10.465  43.314 -36.509  1.00  0.00    -0.260 OA
HETATM   50  O4  UNL     1      -9.326  42.256 -34.820  1.00  0.00    -0.314 OA
HETATM   51  C25 UNL     1      -8.470  42.691 -33.763  1.00  0.00     0.213 A 
ENDBRANCH  10  46
TORSDOF 10
ENDMDL
MODEL 8
REMARK minimizedAffinity -9.24127579
REMARK CNNscore 0.247818023
REMARK CNNaffinity 5.65453863
REMARK  10 active torsions:
REMARK  status: ('A' for Active; 'I' for Inactive)
REMARK    1  A    between atoms: O1_2  and  C2_3 
REMARK    2  A    between atoms: C4_5  and  O2_6 
REMARK    3  A    between atoms: O2_6  and  C5_7 
REMARK    4  A    between atoms: C8_10  and  C9_11 
REMARK    5  A    between atoms: N1_12  and  C10_14 
REMARK    6  A    between atoms: C10_14  and  C11_15 
REMARK    7  A    between atoms: C21_27  and  C22_28 
REMARK    8  A    between atoms: C28_36  and  O5_37 
REMARK    9  A    between atoms: C32_41  and  O6_42 
REMARK   10  A    between atoms: C36_47  and  O8_48 
ROOT
HETATM    1  C5  UNL     1       5.548  66.098 -35.749  1.00  0.00     0.127 C 
HETATM    2  C6  UNL     1       4.102  65.751 -35.398  1.00  0.00     0.033 C 
HETATM    3  C7  UNL     1       3.103  66.132 -36.495  1.00  0.00     0.021 C 
HETATM    4  C8  UNL     1       3.200  67.613 -36.988  1.00  0.00     0.026 C 
HETATM    5  C16 UNL     1       2.219  67.757 -38.235  1.00  0.00     0.009 C 
HETATM    6  C17 UNL     1       0.832  68.326 -37.859  1.00  0.00     0.007 C 
HETATM    7  C18 UNL     1      -0.117  68.418 -39.049  1.00  0.00     0.013 C 
HETATM    8  C19 UNL     1       0.461  69.248 -40.221  1.00  0.00    -0.005 C 
HETATM    9  C20 UNL     1       0.501  70.742 -39.836  1.00  0.00     0.019 C 
HETATM   10  C21 UNL     1      -0.342  69.025 -41.538  1.00  0.00     0.028 C 
HETATM   11  C26 UNL     1       0.134  67.641 -42.020  1.00  0.00     0.013 C 
HETATM   12  C27 UNL     1       1.534  67.426 -41.425  1.00  0.00     0.040 C 
HETATM   13  C28 UNL     1       1.863  68.705 -40.627  1.00  0.00     0.070 C 
HETATM   14  C29 UNL     1       2.835  68.526 -39.425  1.00  0.00     0.026 C 
HETATM   15  C30 UNL     1       4.182  67.901 -39.857  1.00  0.00     0.011 C 
HETATM   16  C31 UNL     1       5.037  67.342 -38.711  1.00  0.00     0.039 C 
HETATM   17  C32 UNL     1       4.682  67.954 -37.345  1.00  0.00     0.073 C 
HETATM   18  C33 UNL     1       5.661  67.546 -36.222  1.00  0.00     0.071 C 
ENDROOT
BRANCH   1  19
HETATM   19  O2  UNL     1       6.009  65.208 -36.769  1.00  0.00    -0.356 OA
BRANCH  19  20
HETATM   20  C4  UNL     1       6.833  64.149 -36.262  1.00  0.00     0.263 C 
HETATM   21  C3  UNL     1       7.674  64.744 -35.145  1.00  0.00     0.095 C 
HETATM   22  C2  UNL     1       8.673  63.715 -34.612  1.00  0.00     0.156 C 
HETATM   23  C36 UNL     1       8.109  62.282 -34.688  1.00  0.00     0.175 C 
HETATM   24  C34 UNL     1       6.571  62.315 -34.708  1.00  0.00     0.151 C 
HETATM   25  O7  UNL     1       6.035  63.060 -35.812  1.00  0.00    -0.354 OA
HETATM   26  C35 UNL     1       5.960  60.916 -34.784  1.00  0.00     0.042 C 
BRANCH  22  27
HETATM   27  O1  UNL     1       8.992  63.993 -33.240  1.00  0.00    -0.388 OA
HETATM   28  C1  UNL     1      10.264  63.492 -32.845  1.00  0.00     0.202 C 
ENDBRANCH  22  27
BRANCH  23  29
HETATM   29  O8  UNL     1       8.597  61.640 -35.875  1.00  0.00    -0.390 OA
HETATM   30  H50 UNL     1       9.534  61.424 -35.718  1.00  0.00     0.210 HD
ENDBRANCH  23  29
ENDBRANCH  19  20
ENDBRANCH   1  19
BRANCH  17  31
HETATM   31  O6  UNL     1       4.845  69.380 -37.483  1.00  0.00    -0.389 OA
HETATM   32  H42 UNL     1       5.773  69.549 -37.725  1.00  0.00     0.210 HD
ENDBRANCH  17  31
BRANCH   4  33
HETATM   33  C9  UNL     1       2.766  68.587 -35.882  1.00  0.00     0.069 C 
HETATM   34  N1  UNL     1       2.446  69.813 -36.138  1.00  0.00    -0.397 N 
ATOM     35  H1  UNL     1       2.425  70.199 -37.082  1.00  0.00     0.159 HD
BRANCH  34  36
HETATM   36  C10 UNL     1       2.114  70.595 -34.946  1.00  0.00     0.158 C 
BRANCH  36  37
HETATM   37  C11 UNL     1       0.702  71.098 -35.024  1.00  0.00    -0.025 A 
HETATM   38  C12 UNL     1       0.039  71.592 -33.898  1.00  0.00     0.011 A 
HETATM   39  C13 UNL     1      -1.264  72.067 -34.021  1.00  0.00     0.018 A 
HETATM   40  C14 UNL     1      -1.857  72.038 -35.272  1.00  0.00     0.087 A 
HETATM   41  N2  UNL     1      -1.246  71.579 -36.385  1.00  0.00    -0.375 N 
HETATM   42  C15 UNL     1       0.022  71.131 -36.239  1.00  0.00     0.096 A 
ATOM     43  H2  UNL     1      -1.716  71.570 -37.290  1.00  0.00     0.164 HD
ENDBRANCH  36  37
ENDBRANCH  34  36
ENDBRANCH   4  33
BRANCH  13  44
HETATM   44  O5  UNL     1       2.459  69.638 -41.545  1.00  0.00    -0.389 OA
HETATM   45  H36 UNL     1       3.243  69.219 -41.939  1.00  0.00     0.210 HD
ENDBRANCH  13  44
BRANCH  10  46
HETATM   46  C22 UNL     1      -1.833  69.221 -41.466  1.00  0.00    -0.045 A 
HETATM   47  C23 UNL     1      -2.784  68.828 -42.313  1.00  0.00     0.087 A 
HETATM   48  C24 UNL     1      -4.060  69.316 -41.790  1.00  0.00     0.283 A 
HETATM   49  O3  UNL     1      -5.145  69.124 -42.311  1.00  0.00    -0.260 OA
HETATM   50  O4  UNL     1      -3.837  70.012 -40.647  1.00  0.00    -0.314 OA
HETATM   51  C25 UNL     1      -2.438  70.006 -40.362  1.00  0.00     0.213 A 
ENDBRANCH  10  46
TORSDOF 10
ENDMDL
MODEL 9
REMARK minimizedAffinity -7.79840136
REMARK CNNscore 0.238900557
REMARK CNNaffinity 6.6532197
REMARK  10 active torsions:
REMARK  status: ('A' for Active; 'I' for Inactive)
REMARK    1  A    between atoms: O1_2  and  C2_3 
REMARK    2  A    between atoms: C4_5  and  O2_6 
REMARK    3  A    between atoms: O2_6  and  C5_7 
REMARK    4  A    between atoms: C8_10  and  C9_11 
REMARK    5  A    between atoms: N1_12  and  C10_14 
REMARK    6  A    between atoms: C10_14  and  C11_15 
REMARK    7  A    between atoms: C21_27  and  C22_28 
REMARK    8  A    between atoms: C28_36  and  O5_37 
REMARK    9  A    between atoms: C32_41  and  O6_42 
REMARK   10  A    between atoms: C36_47  and  O8_48 
ROOT
HETATM    1  C5  UNL     1      -3.798  49.461 -11.510  1.00  0.00     0.127 C 
HETATM    2  C6  UNL     1      -2.598  48.933 -10.727  1.00  0.00     0.033 C 
HETATM    3  C7  UNL     1      -1.770  50.041 -10.066  1.00  0.00     0.021 C 
HETATM    4  C8  UNL     1      -1.328  51.194 -11.024  1.00  0.00     0.026 C 
HETATM    5  C16 UNL     1      -0.647  52.317 -10.124  1.00  0.00     0.009 C 
HETATM    6  C17 UNL     1       0.895  52.215 -10.081  1.00  0.00     0.007 C 
HETATM    7  C18 UNL     1       1.537  53.264  -9.180  1.00  0.00     0.013 C 
HETATM    8  C19 UNL     1       1.144  54.712  -9.563  1.00  0.00    -0.005 C 
HETATM    9  C20 UNL     1       1.817  55.103 -10.896  1.00  0.00     0.019 C 
HETATM   10  C21 UNL     1       1.500  55.725  -8.433  1.00  0.00     0.028 C 
HETATM   11  C26 UNL     1       0.397  55.491  -7.380  1.00  0.00     0.013 C 
HETATM   12  C27 UNL     1      -0.814  54.918  -8.132  1.00  0.00     0.040 C 
HETATM   13  C28 UNL     1      -0.406  54.854  -9.620  1.00  0.00     0.070 C 
HETATM   14  C29 UNL     1      -1.103  53.753 -10.470  1.00  0.00     0.026 C 
HETATM   15  C30 UNL     1      -2.644  53.875 -10.426  1.00  0.00     0.011 C 
HETATM   16  C31 UNL     1      -3.408  52.633 -10.906  1.00  0.00     0.039 C 
HETATM   17  C32 UNL     1      -2.566  51.725 -11.817  1.00  0.00     0.073 C 
HETATM   18  C33 UNL     1      -3.381  50.582 -12.460  1.00  0.00     0.071 C 
ENDROOT
BRANCH   1  19
HETATM   19  O2  UNL     1      -4.785  49.936 -10.590  1.00  0.00    -0.356 OA
BRANCH  19  20
HETATM   20  C4  UNL     1      -6.104  49.453 -10.878  1.00  0.00     0.263 C 
HETATM   21  C3  UNL     1      -5.953  48.013 -11.341  1.00  0.00     0.095 C 
HETATM   22  C2  UNL     1      -7.301  47.440 -11.783  1.00  0.00     0.156 C 
HETATM   23  C36 UNL     1      -8.466  48.036 -10.966  1.00  0.00     0.175 C 
HETATM   24  C34 UNL     1      -7.957  48.554  -9.610  1.00  0.00     0.151 C 
HETATM   25  O7  UNL     1      -6.943  49.563  -9.734  1.00  0.00    -0.354 OA
HETATM   26  C35 UNL     1      -9.075  49.157  -8.761  1.00  0.00     0.042 C 
BRANCH  22  27
HETATM   27  O1  UNL     1      -7.320  46.017 -11.606  1.00  0.00    -0.388 OA
HETATM   28  C1  UNL     1      -8.605  45.441 -11.811  1.00  0.00     0.202 C 
ENDBRANCH  22  27
BRANCH  23  29
HETATM   29  O8  UNL     1      -9.064  49.112 -11.705  1.00  0.00    -0.390 OA
HETATM   30  H50 UNL     1      -9.577  48.711 -12.429  1.00  0.00     0.210 HD
ENDBRANCH  23  29
ENDBRANCH  19  20
ENDBRANCH   1  19
BRANCH  17  31
HETATM   31  O6  UNL     1      -2.133  52.544 -12.922  1.00  0.00    -0.389 OA
HETATM   32  H42 UNL     1      -2.931  52.871 -13.376  1.00  0.00     0.210 HD
ENDBRANCH  17  31
BRANCH   4  33
HETATM   33  C9  UNL     1      -0.313  50.684 -12.060  1.00  0.00     0.069 C 
HETATM   34  N1  UNL     1       0.058  51.407 -13.066  1.00  0.00    -0.397 N 
ATOM     35  H1  UNL     1      -0.266  52.363 -13.216  1.00  0.00     0.159 HD
BRANCH  34  36
HETATM   36  C10 UNL     1       0.987  50.726 -13.968  1.00  0.00     0.158 C 
BRANCH  36  37
HETATM   37  C11 UNL     1       0.852  51.262 -15.363  1.00  0.00    -0.025 A 
HETATM   38  C12 UNL     1       0.024  50.649 -16.306  1.00  0.00     0.011 A 
HETATM   39  C13 UNL     1      -0.085  51.193 -17.582  1.00  0.00     0.018 A 
HETATM   40  C14 UNL     1       0.635  52.340 -17.870  1.00  0.00     0.087 A 
HETATM   41  N2  UNL     1       1.436  52.968 -16.985  1.00  0.00    -0.375 N 
HETATM   42  C15 UNL     1       1.518  52.424 -15.749  1.00  0.00     0.096 A 
ATOM     43  H2  UNL     1       1.954  53.811 -17.234  1.00  0.00     0.164 HD
ENDBRANCH  36  37
ENDBRANCH  34  36
ENDBRANCH   4  33
BRANCH  13  44
HETATM   44  O5  UNL     1      -0.720  56.130 -10.202  1.00  0.00    -0.389 OA
HETATM   45  H36 UNL     1      -1.669  56.300 -10.071  1.00  0.00     0.210 HD
ENDBRANCH  13  44
BRANCH  10  46
HETATM   46  C22 UNL     1       2.914  55.703  -7.920  1.00  0.00    -0.045 A 
HETATM   47  C23 UNL     1       3.448  54.993  -6.925  1.00  0.00     0.087 A 
HETATM   48  C24 UNL     1       4.853  55.385  -6.818  1.00  0.00     0.283 A 
HETATM   49  O3  UNL     1       5.646  54.921  -6.017  1.00  0.00    -0.260 OA
HETATM   50  O4  UNL     1       5.122  56.341  -7.742  1.00  0.00    -0.314 OA
HETATM   51  C25 UNL     1       3.938  56.611  -8.494  1.00  0.00     0.213 A 
ENDBRANCH  10  46
TORSDOF 10
ENDMDL
