MODEL 1
REMARK minimizedAffinity -9.14232922
REMARK CNNscore 0.831397772
REMARK CNNaffinity 7.51991272
REMARK  9 active torsions:
REMARK  status: ('A' for Active; 'I' for Inactive)
REMARK    1  A    between atoms: C4_4  and  C5_5 
REMARK    2  A    between atoms: C5_5  and  C6_6 
REMARK    3  A    between atoms: C6_6  and  C7_7 
REMARK    4  A    between atoms: C13_14  and  O2_15 
REMARK    5  A    between atoms: C14_16  and  C15_17 
REMARK    6  A    between atoms: C15_17  and  C16_18 
REMARK    7  A    between atoms: C22_25  and  C23_26 
REMARK    8  A    between atoms: C25_28  and  O4_29 
REMARK    9  A    between atoms: C27_31  and  O5_32 
ROOT
HETATM    1  C7  UNL     1       1.105  51.469 -15.234  1.00  0.00     0.082 A 
HETATM    2  C8  UNL     1       2.399  50.932 -14.605  1.00  0.00     0.051 C 
HETATM    3  C9  UNL     1       1.485  52.518 -16.267  1.00  0.00     0.012 A 
HETATM    4  C10 UNL     1       1.147  52.445 -17.557  1.00  0.00     0.016 A 
HETATM    5  C11 UNL     1       0.379  51.290 -17.963  1.00  0.00     0.035 A 
HETATM    6  C12 UNL     1       0.040  50.286 -17.065  1.00  0.00     0.117 A 
HETATM    7  O1  UNL     1       0.401  50.311 -15.743  1.00  0.00    -0.333 OA
HETATM    8  C13 UNL     1      -0.695  49.172 -17.490  1.00  0.00     0.107 A 
HETATM    9  C14 UNL     1      -1.128  49.003 -18.823  1.00  0.00    -0.006 A 
HETATM   10  C20 UNL     1      -0.789  50.040 -19.729  1.00  0.00     0.011 A 
HETATM   11  C21 UNL     1      -0.055  51.135 -19.280  1.00  0.00     0.100 A 
HETATM   12  O3  UNL     1       0.165  52.006 -20.307  1.00  0.00    -0.308 OA
HETATM   13  C22 UNL     1      -0.428  51.493 -21.426  1.00  0.00     0.087 A 
HETATM   14  C29 UNL     1      -1.024  50.287 -21.112  1.00  0.00     0.053 A 
ENDROOT
BRANCH  13  15
HETATM   15  C23 UNL     1      -0.310  52.288 -22.645  1.00  0.00     0.003 A 
HETATM   16  C24 UNL     1       0.688  53.268 -22.763  1.00  0.00     0.051 A 
HETATM   17  C25 UNL     1       0.801  54.026 -23.927  1.00  0.00     0.069 A 
HETATM   18  C26 UNL     1      -0.064  53.832 -24.994  1.00  0.00     0.073 A 
HETATM   19  C27 UNL     1      -1.053  52.864 -24.885  1.00  0.00     0.069 A 
HETATM   20  C28 UNL     1      -1.184  52.094 -23.729  1.00  0.00     0.051 A 
BRANCH  17  21
HETATM   21  O4  UNL     1       1.793  54.962 -23.978  1.00  0.00    -0.361 OA
HETATM   22  H28 UNL     1       1.755  55.405 -24.842  1.00  0.00     0.217 HD
ENDBRANCH  17  21
BRANCH  19  23
HETATM   23  O5  UNL     1      -1.891  52.693 -25.949  1.00  0.00    -0.361 OA
HETATM   24  H30 UNL     1      -2.526  51.989 -25.733  1.00  0.00     0.217 HD
ENDBRANCH  19  23
ENDBRANCH  13  15
BRANCH   9  25
HETATM   25  C15 UNL     1      -1.935  47.792 -19.232  1.00  0.00     0.070 C 
BRANCH  25  26
HETATM   26  C16 UNL     1      -2.970  48.130 -20.272  1.00  0.00    -0.020 C 
HETATM   27  C17 UNL     1      -3.771  47.299 -20.967  1.00  0.00    -0.091 C 
HETATM   28  C18 UNL     1      -3.801  45.802 -20.841  1.00  0.00     0.042 C 
HETATM   29  C19 UNL     1      -4.745  47.850 -21.978  1.00  0.00     0.042 C 
ENDBRANCH  25  26
ENDBRANCH   9  25
BRANCH   8  30
HETATM   30  O2  UNL     1      -1.009  48.205 -16.564  1.00  0.00    -0.357 OA
HETATM   31  H17 UNL     1      -0.618  48.514 -15.724  1.00  0.00     0.217 HD
ENDBRANCH   8  30
BRANCH   1  32
HETATM   32  C6  UNL     1       0.195  52.142 -14.178  1.00  0.00     0.046 C 
BRANCH  32  33
HETATM   33  C5  UNL     1      -0.492  51.166 -13.214  1.00  0.00     0.030 C 
BRANCH  33  34
HETATM   34  C4  UNL     1      -1.569  51.861 -12.425  1.00  0.00    -0.025 C 
HETATM   35  C2  UNL     1      -2.821  52.155 -12.825  1.00  0.00    -0.091 C 
HETATM   36  C1  UNL     1      -3.410  51.796 -14.162  1.00  0.00     0.042 C 
HETATM   37  C3  UNL     1      -3.766  52.891 -11.910  1.00  0.00     0.042 C 
ENDBRANCH  33  34
ENDBRANCH  32  33
ENDBRANCH   1  32
TORSDOF 9
ENDMDL
MODEL 2
REMARK minimizedAffinity -9.22599602
REMARK CNNscore 0.768945634
REMARK CNNaffinity 7.42807007
REMARK  9 active torsions:
REMARK  status: ('A' for Active; 'I' for Inactive)
REMARK    1  A    between atoms: C4_4  and  C5_5 
REMARK    2  A    between atoms: C5_5  and  C6_6 
REMARK    3  A    between atoms: C6_6  and  C7_7 
REMARK    4  A    between atoms: C13_14  and  O2_15 
REMARK    5  A    between atoms: C14_16  and  C15_17 
REMARK    6  A    between atoms: C15_17  and  C16_18 
REMARK    7  A    between atoms: C22_25  and  C23_26 
REMARK    8  A    between atoms: C25_28  and  O4_29 
REMARK    9  A    between atoms: C27_31  and  O5_32 
ROOT
HETATM    1  C7  UNL     1       0.935  51.414 -15.054  1.00  0.00     0.082 A 
HETATM    2  C8  UNL     1       2.180  50.866 -14.344  1.00  0.00     0.051 C 
HETATM    3  C9  UNL     1       1.393  52.417 -16.101  1.00  0.00     0.012 A 
HETATM    4  C10 UNL     1       1.117  52.308 -17.404  1.00  0.00     0.016 A 
HETATM    5  C11 UNL     1       0.338  51.160 -17.808  1.00  0.00     0.035 A 
HETATM    6  C12 UNL     1      -0.072  50.196 -16.896  1.00  0.00     0.117 A 
HETATM    7  O1  UNL     1       0.225  50.258 -15.559  1.00  0.00    -0.333 OA
HETATM    8  C13 UNL     1      -0.816  49.088 -17.320  1.00  0.00     0.107 A 
HETATM    9  C14 UNL     1      -1.187  48.884 -18.667  1.00  0.00    -0.006 A 
HETATM   10  C20 UNL     1      -0.776  49.881 -19.588  1.00  0.00     0.011 A 
HETATM   11  C21 UNL     1      -0.035  50.971 -19.139  1.00  0.00     0.100 A 
HETATM   12  O3  UNL     1       0.259  51.801 -20.183  1.00  0.00    -0.308 OA
HETATM   13  C22 UNL     1      -0.293  51.264 -21.312  1.00  0.00     0.087 A 
HETATM   14  C29 UNL     1      -0.937  50.086 -20.989  1.00  0.00     0.053 A 
ENDROOT
BRANCH  13  15
HETATM   15  C23 UNL     1      -0.093  52.014 -22.550  1.00  0.00     0.003 A 
HETATM   16  C24 UNL     1      -0.678  51.578 -23.748  1.00  0.00     0.051 A 
HETATM   17  C25 UNL     1      -0.488  52.294 -24.929  1.00  0.00     0.069 A 
HETATM   18  C26 UNL     1       0.280  53.449 -24.951  1.00  0.00     0.073 A 
HETATM   19  C27 UNL     1       0.862  53.885 -23.768  1.00  0.00     0.069 A 
HETATM   20  C28 UNL     1       0.685  53.184 -22.575  1.00  0.00     0.051 A 
BRANCH  17  21
HETATM   21  O4  UNL     1      -1.085  51.818 -26.060  1.00  0.00    -0.361 OA
HETATM   22  H28 UNL     1      -0.872  52.415 -26.797  1.00  0.00     0.217 HD
ENDBRANCH  17  21
BRANCH  19  23
HETATM   23  O5  UNL     1       1.613  55.025 -23.816  1.00  0.00    -0.361 OA
HETATM   24  H30 UNL     1       1.954  55.209 -22.924  1.00  0.00     0.217 HD
ENDBRANCH  19  23
ENDBRANCH  13  15
BRANCH   9  25
HETATM   25  C15 UNL     1      -2.006  47.681 -19.075  1.00  0.00     0.070 C 
BRANCH  25  26
HETATM   26  C16 UNL     1      -3.037  48.029 -20.116  1.00  0.00    -0.020 C 
HETATM   27  C17 UNL     1      -3.771  47.202 -20.887  1.00  0.00    -0.091 C 
HETATM   28  C18 UNL     1      -3.712  45.701 -20.864  1.00  0.00     0.042 C 
HETATM   29  C19 UNL     1      -4.754  47.764 -21.882  1.00  0.00     0.042 C 
ENDBRANCH  25  26
ENDBRANCH   9  25
BRANCH   8  30
HETATM   30  O2  UNL     1      -1.201  48.162 -16.379  1.00  0.00    -0.357 OA
HETATM   31  H17 UNL     1      -0.843  48.490 -15.531  1.00  0.00     0.217 HD
ENDBRANCH   8  30
BRANCH   1  32
HETATM   32  C6  UNL     1      -0.007  52.146 -14.068  1.00  0.00     0.046 C 
BRANCH  32  33
HETATM   33  C5  UNL     1       0.575  52.352 -12.664  1.00  0.00     0.030 C 
BRANCH  33  34
HETATM   34  C4  UNL     1      -0.321  53.232 -11.835  1.00  0.00    -0.025 C 
HETATM   35  C2  UNL     1       0.044  54.226 -11.001  1.00  0.00    -0.091 C 
HETATM   36  C1  UNL     1       1.458  54.684 -10.767  1.00  0.00     0.042 C 
HETATM   37  C3  UNL     1      -0.992  54.989 -10.218  1.00  0.00     0.042 C 
ENDBRANCH  33  34
ENDBRANCH  32  33
ENDBRANCH   1  32
TORSDOF 9
ENDMDL
MODEL 3
REMARK minimizedAffinity -9.19946289
REMARK CNNscore 0.334517121
REMARK CNNaffinity 6.83991241
REMARK  9 active torsions:
REMARK  status: ('A' for Active; 'I' for Inactive)
REMARK    1  A    between atoms: C4_4  and  C5_5 
REMARK    2  A    between atoms: C5_5  and  C6_6 
REMARK    3  A    between atoms: C6_6  and  C7_7 
REMARK    4  A    between atoms: C13_14  and  O2_15 
REMARK    5  A    between atoms: C14_16  and  C15_17 
REMARK    6  A    between atoms: C15_17  and  C16_18 
REMARK    7  A    between atoms: C22_25  and  C23_26 
REMARK    8  A    between atoms: C25_28  and  O4_29 
REMARK    9  A    between atoms: C27_31  and  O5_32 
ROOT
HETATM    1  C7  UNL     1      -6.370  47.626 -22.299  1.00  0.00     0.082 A 
HETATM    2  C8  UNL     1      -6.400  46.105 -22.093  1.00  0.00     0.051 C 
HETATM    3  C9  UNL     1      -5.666  48.248 -21.103  1.00  0.00     0.012 A 
HETATM    4  C10 UNL     1      -4.572  49.009 -21.199  1.00  0.00     0.016 A 
HETATM    5  C11 UNL     1      -4.051  49.232 -22.529  1.00  0.00     0.035 A 
HETATM    6  C12 UNL     1      -4.635  48.655 -23.649  1.00  0.00     0.117 A 
HETATM    7  O1  UNL     1      -5.736  47.840 -23.583  1.00  0.00    -0.333 OA
HETATM    8  C13 UNL     1      -4.100  48.880 -24.923  1.00  0.00     0.107 A 
HETATM    9  C14 UNL     1      -2.964  49.686 -25.146  1.00  0.00    -0.006 A 
HETATM   10  C20 UNL     1      -2.383  50.283 -23.998  1.00  0.00     0.011 A 
HETATM   11  C21 UNL     1      -2.934  50.040 -22.742  1.00  0.00     0.100 A 
HETATM   12  O3  UNL     1      -2.224  50.701 -21.782  1.00  0.00    -0.308 OA
HETATM   13  C22 UNL     1      -1.216  51.383 -22.402  1.00  0.00     0.087 A 
HETATM   14  C29 UNL     1      -1.280  51.152 -23.763  1.00  0.00     0.053 A 
ENDROOT
BRANCH  13  15
HETATM   15  C23 UNL     1      -0.336  52.167 -21.539  1.00  0.00     0.003 A 
HETATM   16  C24 UNL     1       0.479  53.173 -22.078  1.00  0.00     0.051 A 
HETATM   17  C25 UNL     1       1.318  53.922 -21.254  1.00  0.00     0.069 A 
HETATM   18  C26 UNL     1       1.369  53.692 -19.886  1.00  0.00     0.073 A 
HETATM   19  C27 UNL     1       0.564  52.698 -19.346  1.00  0.00     0.069 A 
HETATM   20  C28 UNL     1      -0.282  51.937 -20.153  1.00  0.00     0.051 A 
BRANCH  17  21
HETATM   21  O4  UNL     1       2.085  54.886 -21.840  1.00  0.00    -0.361 OA
HETATM   22  H28 UNL     1       2.609  55.326 -21.150  1.00  0.00     0.217 HD
ENDBRANCH  17  21
BRANCH  19  23
HETATM   23  O5  UNL     1       0.632  52.492 -17.998  1.00  0.00    -0.361 OA
HETATM   24  H30 UNL     1       0.021  51.773 -17.763  1.00  0.00     0.217 HD
ENDBRANCH  19  23
ENDBRANCH  13  15
BRANCH   9  25
HETATM   25  C15 UNL     1      -2.432  49.915 -26.543  1.00  0.00     0.070 C 
BRANCH  25  26
HETATM   26  C16 UNL     1      -0.948  50.164 -26.546  1.00  0.00    -0.020 C 
HETATM   27  C17 UNL     1      -0.275  51.253 -26.969  1.00  0.00    -0.091 C 
HETATM   28  C18 UNL     1      -0.893  52.496 -27.543  1.00  0.00     0.042 C 
HETATM   29  C19 UNL     1       1.230  51.295 -26.889  1.00  0.00     0.042 C 
ENDBRANCH  25  26
ENDBRANCH   9  25
BRANCH   8  30
HETATM   30  O2  UNL     1      -4.714  48.288 -26.002  1.00  0.00    -0.357 OA
HETATM   31  H17 UNL     1      -5.463  47.783 -25.630  1.00  0.00     0.217 HD
ENDBRANCH   8  30
BRANCH   1  32
HETATM   32  C6  UNL     1      -7.798  48.219 -22.379  1.00  0.00     0.046 C 
BRANCH  32  33
HETATM   33  C5  UNL     1      -8.797  47.368 -23.173  1.00  0.00     0.030 C 
BRANCH  33  34
HETATM   34  C4  UNL     1      -9.035  47.957 -24.538  1.00  0.00    -0.025 C 
HETATM   35  C2  UNL     1      -8.647  47.459 -25.728  1.00  0.00    -0.091 C 
HETATM   36  C1  UNL     1      -7.916  46.159 -25.926  1.00  0.00     0.042 C 
HETATM   37  C3  UNL     1      -8.944  48.203 -27.004  1.00  0.00     0.042 C 
ENDBRANCH  33  34
ENDBRANCH  32  33
ENDBRANCH   1  32
TORSDOF 9
ENDMDL
MODEL 4
REMARK minimizedAffinity -9.350564
REMARK CNNscore 0.311204702
REMARK CNNaffinity 6.97136688
REMARK  9 active torsions:
REMARK  status: ('A' for Active; 'I' for Inactive)
REMARK    1  A    between atoms: C4_4  and  C5_5 
REMARK    2  A    between atoms: C5_5  and  C6_6 
REMARK    3  A    between atoms: C6_6  and  C7_7 
REMARK    4  A    between atoms: C13_14  and  O2_15 
REMARK    5  A    between atoms: C14_16  and  C15_17 
REMARK    6  A    between atoms: C15_17  and  C16_18 
REMARK    7  A    between atoms: C22_25  and  C23_26 
REMARK    8  A    between atoms: C25_28  and  O4_29 
REMARK    9  A    between atoms: C27_31  and  O5_32 
ROOT
HETATM    1  C7  UNL     1      -6.802  48.190 -23.940  1.00  0.00     0.082 A 
HETATM    2  C8  UNL     1      -7.059  46.678 -23.999  1.00  0.00     0.051 C 
HETATM    3  C9  UNL     1      -6.350  48.535 -22.530  1.00  0.00     0.012 A 
HETATM    4  C10 UNL     1      -5.185  49.125 -22.248  1.00  0.00     0.016 A 
HETATM    5  C11 UNL     1      -4.329  49.440 -23.369  1.00  0.00     0.035 A 
HETATM    6  C12 UNL     1      -4.679  49.110 -24.672  1.00  0.00     0.117 A 
HETATM    7  O1  UNL     1      -5.849  48.472 -24.993  1.00  0.00    -0.333 OA
HETATM    8  C13 UNL     1      -3.823  49.417 -25.736  1.00  0.00     0.107 A 
HETATM    9  C14 UNL     1      -2.580  50.063 -25.559  1.00  0.00    -0.006 A 
HETATM   10  C20 UNL     1      -2.237  50.408 -24.226  1.00  0.00     0.011 A 
HETATM   11  C21 UNL     1      -3.107  50.089 -23.187  1.00  0.00     0.100 A 
HETATM   12  O3  UNL     1      -2.586  50.502 -21.995  1.00  0.00    -0.308 OA
HETATM   13  C22 UNL     1      -1.382  51.098 -22.249  1.00  0.00     0.087 A 
HETATM   14  C29 UNL     1      -1.133  51.060 -23.607  1.00  0.00     0.053 A 
ENDROOT
BRANCH  13  15
HETATM   15  C23 UNL     1      -0.659  51.618 -21.091  1.00  0.00     0.003 A 
HETATM   16  C24 UNL     1      -0.712  50.948 -19.859  1.00  0.00     0.051 A 
HETATM   17  C25 UNL     1      -0.021  51.444 -18.754  1.00  0.00     0.069 A 
HETATM   18  C26 UNL     1       0.732  52.606 -18.843  1.00  0.00     0.073 A 
HETATM   19  C27 UNL     1       0.788  53.273 -20.060  1.00  0.00     0.069 A 
HETATM   20  C28 UNL     1       0.105  52.794 -21.177  1.00  0.00     0.051 A 
BRANCH  17  21
HETATM   21  O4  UNL     1      -0.113  50.745 -17.586  1.00  0.00    -0.361 OA
HETATM   22  H28 UNL     1       0.419  51.201 -16.911  1.00  0.00     0.217 HD
ENDBRANCH  17  21
BRANCH  19  23
HETATM   23  O5  UNL     1       1.536  54.413 -20.121  1.00  0.00    -0.361 OA
HETATM   24  H30 UNL     1       1.485  54.770 -21.024  1.00  0.00     0.217 HD
ENDBRANCH  19  23
ENDBRANCH  13  15
BRANCH   9  25
HETATM   25  C15 UNL     1      -1.696  50.390 -26.741  1.00  0.00     0.070 C 
BRANCH  25  26
HETATM   26  C16 UNL     1      -0.256  50.561 -26.336  1.00  0.00    -0.020 C 
HETATM   27  C17 UNL     1       0.720  51.250 -26.960  1.00  0.00    -0.091 C 
HETATM   28  C18 UNL     1       0.566  52.023 -28.240  1.00  0.00     0.042 C 
HETATM   29  C19 UNL     1       2.112  51.288 -26.383  1.00  0.00     0.042 C 
ENDBRANCH  25  26
ENDBRANCH   9  25
BRANCH   8  30
HETATM   30  O2  UNL     1      -4.214  49.073 -27.009  1.00  0.00    -0.357 OA
HETATM   31  H17 UNL     1      -5.086  48.643 -26.905  1.00  0.00     0.217 HD
ENDBRANCH   8  30
BRANCH   1  32
HETATM   32  C6  UNL     1      -8.087  48.998 -24.244  1.00  0.00     0.046 C 
BRANCH  32  33
HETATM   33  C5  UNL     1      -9.129  48.247 -25.082  1.00  0.00     0.030 C 
BRANCH  33  34
HETATM   34  C4  UNL     1      -8.781  48.300 -26.545  1.00  0.00    -0.025 C 
HETATM   35  C2  UNL     1      -9.587  48.039 -27.592  1.00  0.00    -0.091 C 
HETATM   36  C1  UNL     1     -11.044  47.675 -27.495  1.00  0.00     0.042 C 
HETATM   37  C3  UNL     1      -9.059  48.108 -29.002  1.00  0.00     0.042 C 
ENDBRANCH  33  34
ENDBRANCH  32  33
ENDBRANCH   1  32
TORSDOF 9
ENDMDL
MODEL 5
REMARK minimizedAffinity -7.57684994
REMARK CNNscore 0.291687399
REMARK CNNaffinity 6.52786398
REMARK  9 active torsions:
REMARK  status: ('A' for Active; 'I' for Inactive)
REMARK    1  A    between atoms: C4_4  and  C5_5 
REMARK    2  A    between atoms: C5_5  and  C6_6 
REMARK    3  A    between atoms: C6_6  and  C7_7 
REMARK    4  A    between atoms: C13_14  and  O2_15 
REMARK    5  A    between atoms: C14_16  and  C15_17 
REMARK    6  A    between atoms: C15_17  and  C16_18 
REMARK    7  A    between atoms: C22_25  and  C23_26 
REMARK    8  A    between atoms: C25_28  and  O4_29 
REMARK    9  A    between atoms: C27_31  and  O5_32 
ROOT
HETATM    1  C7  UNL     1      -4.017  46.344 -18.218  1.00  0.00     0.082 A 
HETATM    2  C8  UNL     1      -3.514  44.907 -18.023  1.00  0.00     0.051 C 
HETATM    3  C9  UNL     1      -2.926  47.292 -17.748  1.00  0.00     0.012 A 
HETATM    4  C10 UNL     1      -2.367  48.224 -18.525  1.00  0.00     0.016 A 
HETATM    5  C11 UNL     1      -2.848  48.308 -19.885  1.00  0.00     0.035 A 
HETATM    6  C12 UNL     1      -3.816  47.440 -20.374  1.00  0.00     0.117 A 
HETATM    7  O1  UNL     1      -4.383  46.450 -19.615  1.00  0.00    -0.333 OA
HETATM    8  C13 UNL     1      -4.253  47.538 -21.700  1.00  0.00     0.107 A 
HETATM    9  C14 UNL     1      -3.751  48.501 -22.603  1.00  0.00    -0.006 A 
HETATM   10  C20 UNL     1      -2.774  49.391 -22.092  1.00  0.00     0.011 A 
HETATM   11  C21 UNL     1      -2.356  49.269 -20.769  1.00  0.00     0.100 A 
HETATM   12  O3  UNL     1      -1.414  50.215 -20.485  1.00  0.00    -0.308 OA
HETATM   13  C22 UNL     1      -1.218  50.962 -21.612  1.00  0.00     0.087 A 
HETATM   14  C29 UNL     1      -2.035  50.488 -22.620  1.00  0.00     0.053 A 
ENDROOT
BRANCH  13  15
HETATM   15  C23 UNL     1      -0.240  52.043 -21.512  1.00  0.00     0.003 A 
HETATM   16  C24 UNL     1       0.349  52.359 -20.279  1.00  0.00     0.051 A 
HETATM   17  C25 UNL     1       1.283  53.389 -20.183  1.00  0.00     0.069 A 
HETATM   18  C26 UNL     1       1.653  54.125 -21.300  1.00  0.00     0.073 A 
HETATM   19  C27 UNL     1       1.074  53.818 -22.524  1.00  0.00     0.069 A 
HETATM   20  C28 UNL     1       0.137  52.791 -22.641  1.00  0.00     0.051 A 
BRANCH  17  21
HETATM   21  O4  UNL     1       1.819  53.645 -18.955  1.00  0.00    -0.361 OA
HETATM   22  H28 UNL     1       2.452  54.378 -19.041  1.00  0.00     0.217 HD
ENDBRANCH  17  21
BRANCH  19  23
HETATM   23  O5  UNL     1       1.455  54.557 -23.607  1.00  0.00    -0.361 OA
HETATM   24  H30 UNL     1       0.974  54.233 -24.388  1.00  0.00     0.217 HD
ENDBRANCH  19  23
ENDBRANCH  13  15
BRANCH   9  25
HETATM   25  C15 UNL     1      -4.267  48.580 -24.022  1.00  0.00     0.070 C 
BRANCH  25  26
HETATM   26  C16 UNL     1      -3.149  48.736 -25.019  1.00  0.00    -0.020 C 
HETATM   27  C17 UNL     1      -2.844  49.802 -25.786  1.00  0.00    -0.091 C 
HETATM   28  C18 UNL     1      -3.584  51.109 -25.803  1.00  0.00     0.042 C 
HETATM   29  C19 UNL     1      -1.673  49.746 -26.733  1.00  0.00     0.042 C 
ENDBRANCH  25  26
ENDBRANCH   9  25
BRANCH   8  30
HETATM   30  O2  UNL     1      -5.214  46.658 -22.138  1.00  0.00    -0.357 OA
HETATM   31  H17 UNL     1      -5.414  46.088 -21.369  1.00  0.00     0.217 HD
ENDBRANCH   8  30
BRANCH   1  32
HETATM   32  C6  UNL     1      -5.289  46.621 -17.380  1.00  0.00     0.046 C 
BRANCH  32  33
HETATM   33  C5  UNL     1      -6.412  45.593 -17.567  1.00  0.00     0.030 C 
BRANCH  33  34
HETATM   34  C4  UNL     1      -7.506  46.146 -18.439  1.00  0.00    -0.025 C 
HETATM   35  C2  UNL     1      -7.767  47.439 -18.710  1.00  0.00    -0.091 C 
HETATM   36  C1  UNL     1      -6.963  48.608 -18.210  1.00  0.00     0.042 C 
HETATM   37  C3  UNL     1      -8.933  47.819 -19.586  1.00  0.00     0.042 C 
ENDBRANCH  33  34
ENDBRANCH  32  33
ENDBRANCH   1  32
TORSDOF 9
ENDMDL
MODEL 6
REMARK minimizedAffinity -9.13969612
REMARK CNNscore 0.267811269
REMARK CNNaffinity 6.38586283
REMARK  9 active torsions:
REMARK  status: ('A' for Active; 'I' for Inactive)
REMARK    1  A    between atoms: C4_4  and  C5_5 
REMARK    2  A    between atoms: C5_5  and  C6_6 
REMARK    3  A    between atoms: C6_6  and  C7_7 
REMARK    4  A    between atoms: C13_14  and  O2_15 
REMARK    5  A    between atoms: C14_16  and  C15_17 
REMARK    6  A    between atoms: C15_17  and  C16_18 
REMARK    7  A    between atoms: C22_25  and  C23_26 
REMARK    8  A    between atoms: C25_28  and  O4_29 
REMARK    9  A    between atoms: C27_31  and  O5_32 
ROOT
HETATM    1  C7  UNL     1      -7.085  47.011 -28.291  1.00  0.00     0.082 A 
HETATM    2  C8  UNL     1      -8.448  47.615 -28.656  1.00  0.00     0.051 C 
HETATM    3  C9  UNL     1      -6.027  47.685 -29.149  1.00  0.00     0.012 A 
HETATM    4  C10 UNL     1      -4.980  48.348 -28.651  1.00  0.00     0.016 A 
HETATM    5  C11 UNL     1      -4.877  48.412 -27.211  1.00  0.00     0.035 A 
HETATM    6  C12 UNL     1      -5.838  47.845 -26.384  1.00  0.00     0.117 A 
HETATM    7  O1  UNL     1      -6.943  47.190 -26.861  1.00  0.00    -0.333 OA
HETATM    8  C13 UNL     1      -5.717  47.934 -24.991  1.00  0.00     0.107 A 
HETATM    9  C14 UNL     1      -4.640  48.587 -24.356  1.00  0.00    -0.006 A 
HETATM   10  C20 UNL     1      -3.656  49.150 -25.208  1.00  0.00     0.011 A 
HETATM   11  C21 UNL     1      -3.803  49.050 -26.589  1.00  0.00     0.100 A 
HETATM   12  O3  UNL     1      -2.755  49.658 -27.218  1.00  0.00    -0.308 OA
HETATM   13  C22 UNL     1      -1.919  50.151 -26.257  1.00  0.00     0.087 A 
HETATM   14  C29 UNL     1      -2.437  49.859 -25.010  1.00  0.00     0.053 A 
ENDROOT
BRANCH  13  15
HETATM   15  C23 UNL     1      -0.722  50.842 -26.730  1.00  0.00     0.003 A 
HETATM   16  C24 UNL     1      -0.816  51.835 -27.717  1.00  0.00     0.051 A 
HETATM   17  C25 UNL     1       0.325  52.495 -28.168  1.00  0.00     0.069 A 
HETATM   18  C26 UNL     1       1.578  52.188 -27.656  1.00  0.00     0.073 A 
HETATM   19  C27 UNL     1       1.679  51.207 -26.680  1.00  0.00     0.069 A 
HETATM   20  C28 UNL     1       0.549  50.534 -26.214  1.00  0.00     0.051 A 
BRANCH  17  21
HETATM   21  O4  UNL     1       0.165  53.451 -29.128  1.00  0.00    -0.361 OA
HETATM   22  H28 UNL     1       1.037  53.826 -29.339  1.00  0.00     0.217 HD
ENDBRANCH  17  21
BRANCH  19  23
HETATM   23  O5  UNL     1       2.923  50.924 -26.193  1.00  0.00    -0.361 OA
HETATM   24  H30 UNL     1       2.842  50.224 -25.522  1.00  0.00     0.217 HD
ENDBRANCH  19  23
ENDBRANCH  13  15
BRANCH   9  25
HETATM   25  C15 UNL     1      -4.542  48.642 -22.848  1.00  0.00     0.070 C 
BRANCH  25  26
HETATM   26  C16 UNL     1      -3.344  49.429 -22.390  1.00  0.00    -0.020 C 
HETATM   27  C17 UNL     1      -3.296  50.482 -21.549  1.00  0.00    -0.091 C 
HETATM   28  C18 UNL     1      -4.478  51.111 -20.865  1.00  0.00     0.042 C 
HETATM   29  C19 UNL     1      -1.978  51.137 -21.224  1.00  0.00     0.042 C 
ENDBRANCH  25  26
ENDBRANCH   9  25
BRANCH   8  30
HETATM   30  O2  UNL     1      -6.693  47.355 -24.214  1.00  0.00    -0.357 OA
HETATM   31  H17 UNL     1      -7.332  46.969 -24.844  1.00  0.00     0.217 HD
ENDBRANCH   8  30
BRANCH   1  32
HETATM   32  C6  UNL     1      -7.040  45.490 -28.578  1.00  0.00     0.046 C 
BRANCH  32  33
HETATM   33  C5  UNL     1      -7.951  45.030 -29.723  1.00  0.00     0.030 C 
BRANCH  33  34
HETATM   34  C4  UNL     1      -7.328  43.888 -30.478  1.00  0.00    -0.025 C 
HETATM   35  C2  UNL     1      -6.361  43.952 -31.415  1.00  0.00    -0.091 C 
HETATM   36  C1  UNL     1      -5.673  45.211 -31.866  1.00  0.00     0.042 C 
HETATM   37  C3  UNL     1      -5.874  42.701 -32.100  1.00  0.00     0.042 C 
ENDBRANCH  33  34
ENDBRANCH  32  33
ENDBRANCH   1  32
TORSDOF 9
ENDMDL
MODEL 7
REMARK minimizedAffinity -7.8563323
REMARK CNNscore 0.260701835
REMARK CNNaffinity 6.08295584
REMARK  9 active torsions:
REMARK  status: ('A' for Active; 'I' for Inactive)
REMARK    1  A    between atoms: C4_4  and  C5_5 
REMARK    2  A    between atoms: C5_5  and  C6_6 
REMARK    3  A    between atoms: C6_6  and  C7_7 
REMARK    4  A    between atoms: C13_14  and  O2_15 
REMARK    5  A    between atoms: C14_16  and  C15_17 
REMARK    6  A    between atoms: C15_17  and  C16_18 
REMARK    7  A    between atoms: C22_25  and  C23_26 
REMARK    8  A    between atoms: C25_28  and  O4_29 
REMARK    9  A    between atoms: C27_31  and  O5_32 
ROOT
HETATM    1  C7  UNL     1       3.392  50.231 -11.570  1.00  0.00     0.082 A 
HETATM    2  C8  UNL     1       3.885  48.874 -11.048  1.00  0.00     0.051 C 
HETATM    3  C9  UNL     1       3.927  50.413 -12.982  1.00  0.00     0.012 A 
HETATM    4  C10 UNL     1       3.149  50.611 -14.049  1.00  0.00     0.016 A 
HETATM    5  C11 UNL     1       1.723  50.646 -13.817  1.00  0.00     0.035 A 
HETATM    6  C12 UNL     1       1.184  50.447 -12.552  1.00  0.00     0.117 A 
HETATM    7  O1  UNL     1       1.951  50.205 -11.442  1.00  0.00    -0.333 OA
HETATM    8  C13 UNL     1      -0.203  50.475 -12.360  1.00  0.00     0.107 A 
HETATM    9  C14 UNL     1      -1.118  50.701 -13.411  1.00  0.00    -0.006 A 
HETATM   10  C20 UNL     1      -0.557  50.917 -14.695  1.00  0.00     0.011 A 
HETATM   11  C21 UNL     1       0.825  50.882 -14.858  1.00  0.00     0.100 A 
HETATM   12  O3  UNL     1       1.150  51.108 -16.165  1.00  0.00    -0.308 OA
HETATM   13  C22 UNL     1      -0.012  51.300 -16.857  1.00  0.00     0.087 A 
HETATM   14  C29 UNL     1      -1.082  51.191 -15.991  1.00  0.00     0.053 A 
ENDROOT
BRANCH  13  15
HETATM   15  C23 UNL     1       0.122  51.566 -18.288  1.00  0.00     0.003 A 
HETATM   16  C24 UNL     1       0.747  52.738 -18.739  1.00  0.00     0.051 A 
HETATM   17  C25 UNL     1       0.875  52.991 -20.104  1.00  0.00     0.069 A 
HETATM   18  C26 UNL     1       0.392  52.094 -21.046  1.00  0.00     0.073 A 
HETATM   19  C27 UNL     1      -0.226  50.932 -20.606  1.00  0.00     0.069 A 
HETATM   20  C28 UNL     1      -0.366  50.660 -19.245  1.00  0.00     0.051 A 
BRANCH  17  21
HETATM   21  O4  UNL     1       1.493  54.149 -20.477  1.00  0.00    -0.361 OA
HETATM   22  H28 UNL     1       1.516  54.187 -21.448  1.00  0.00     0.217 HD
ENDBRANCH  17  21
BRANCH  19  23
HETATM   23  O5  UNL     1      -0.693  50.066 -21.553  1.00  0.00    -0.361 OA
HETATM   24  H30 UNL     1      -1.098  49.304 -21.105  1.00  0.00     0.217 HD
ENDBRANCH  19  23
ENDBRANCH  13  15
BRANCH   9  25
HETATM   25  C15 UNL     1      -2.607  50.740 -13.152  1.00  0.00     0.070 C 
BRANCH  25  26
HETATM   26  C16 UNL     1      -3.044  52.061 -12.578  1.00  0.00    -0.020 C 
HETATM   27  C17 UNL     1      -3.648  52.311 -11.399  1.00  0.00    -0.091 C 
HETATM   28  C18 UNL     1      -4.023  51.281 -10.371  1.00  0.00     0.042 C 
HETATM   29  C19 UNL     1      -4.010  53.723 -11.014  1.00  0.00     0.042 C 
ENDBRANCH  25  26
ENDBRANCH   9  25
BRANCH   8  30
HETATM   30  O2  UNL     1      -0.689  50.274 -11.090  1.00  0.00    -0.357 OA
HETATM   31  H17 UNL     1       0.099  50.136 -10.529  1.00  0.00     0.217 HD
ENDBRANCH   8  30
BRANCH   1  32
HETATM   32  C6  UNL     1       3.918  51.400 -10.702  1.00  0.00     0.046 C 
BRANCH  32  33
HETATM   33  C5  UNL     1       2.837  52.385 -10.238  1.00  0.00     0.030 C 
BRANCH  33  34
HETATM   34  C4  UNL     1       3.040  53.738 -10.864  1.00  0.00    -0.025 C 
HETATM   35  C2  UNL     1       3.853  54.726 -10.441  1.00  0.00    -0.091 C 
HETATM   36  C1  UNL     1       4.770  54.643  -9.252  1.00  0.00     0.042 C 
HETATM   37  C3  UNL     1       3.908  56.041 -11.176  1.00  0.00     0.042 C 
ENDBRANCH  33  34
ENDBRANCH  32  33
ENDBRANCH   1  32
TORSDOF 9
ENDMDL
MODEL 8
REMARK minimizedAffinity -9.83606052
REMARK CNNscore 0.254709244
REMARK CNNaffinity 6.95327997
REMARK  9 active torsions:
REMARK  status: ('A' for Active; 'I' for Inactive)
REMARK    1  A    between atoms: C4_4  and  C5_5 
REMARK    2  A    between atoms: C5_5  and  C6_6 
REMARK    3  A    between atoms: C6_6  and  C7_7 
REMARK    4  A    between atoms: C13_14  and  O2_15 
REMARK    5  A    between atoms: C14_16  and  C15_17 
REMARK    6  A    between atoms: C15_17  and  C16_18 
REMARK    7  A    between atoms: C22_25  and  C23_26 
REMARK    8  A    between atoms: C25_28  and  O4_29 
REMARK    9  A    between atoms: C27_31  and  O5_32 
ROOT
HETATM    1  C7  UNL     1      -2.120  49.935 -18.890  1.00  0.00     0.082 A 
HETATM    2  C8  UNL     1      -2.709  50.957 -17.909  1.00  0.00     0.051 C 
HETATM    3  C9  UNL     1      -3.274  49.195 -19.548  1.00  0.00     0.012 A 
HETATM    4  C10 UNL     1      -3.478  49.162 -20.867  1.00  0.00     0.016 A 
HETATM    5  C11 UNL     1      -2.532  49.882 -21.689  1.00  0.00     0.035 A 
HETATM    6  C12 UNL     1      -1.483  50.604 -21.135  1.00  0.00     0.117 A 
HETATM    7  O1  UNL     1      -1.266  50.689 -19.784  1.00  0.00    -0.333 OA
HETATM    8  C13 UNL     1      -0.590  51.301 -21.956  1.00  0.00     0.107 A 
HETATM    9  C14 UNL     1      -0.694  51.315 -23.364  1.00  0.00    -0.006 A 
HETATM   10  C20 UNL     1      -1.759  50.564 -23.922  1.00  0.00     0.011 A 
HETATM   11  C21 UNL     1      -2.635  49.882 -23.081  1.00  0.00     0.100 A 
HETATM   12  O3  UNL     1      -3.582  49.231 -23.817  1.00  0.00    -0.308 OA
HETATM   13  C22 UNL     1      -3.328  49.477 -25.137  1.00  0.00     0.087 A 
HETATM   14  C29 UNL     1      -2.216  50.290 -25.243  1.00  0.00     0.053 A 
ENDROOT
BRANCH  13  15
HETATM   15  C23 UNL     1      -4.237  48.858 -26.099  1.00  0.00     0.003 A 
HETATM   16  C24 UNL     1      -5.414  48.230 -25.664  1.00  0.00     0.051 A 
HETATM   17  C25 UNL     1      -6.282  47.641 -26.582  1.00  0.00     0.069 A 
HETATM   18  C26 UNL     1      -6.006  47.660 -27.942  1.00  0.00     0.073 A 
HETATM   19  C27 UNL     1      -4.844  48.281 -28.379  1.00  0.00     0.069 A 
HETATM   20  C28 UNL     1      -3.961  48.877 -27.477  1.00  0.00     0.051 A 
BRANCH  17  21
HETATM   21  O4  UNL     1      -7.409  47.047 -26.095  1.00  0.00    -0.361 OA
HETATM   22  H28 UNL     1      -7.917  46.688 -26.842  1.00  0.00     0.217 HD
ENDBRANCH  17  21
BRANCH  19  23
HETATM   23  O5  UNL     1      -4.596  48.287 -29.721  1.00  0.00    -0.361 OA
HETATM   24  H30 UNL     1      -3.757  48.751 -29.880  1.00  0.00     0.217 HD
ENDBRANCH  19  23
ENDBRANCH  13  15
BRANCH   9  25
HETATM   25  C15 UNL     1       0.306  52.068 -24.212  1.00  0.00     0.070 C 
BRANCH  25  26
HETATM   26  C16 UNL     1       0.007  51.941 -25.682  1.00  0.00    -0.020 C 
HETATM   27  C17 UNL     1       0.857  51.694 -26.698  1.00  0.00    -0.091 C 
HETATM   28  C18 UNL     1       2.340  51.484 -26.569  1.00  0.00     0.042 C 
HETATM   29  C19 UNL     1       0.346  51.611 -28.114  1.00  0.00     0.042 C 
ENDBRANCH  25  26
ENDBRANCH   9  25
BRANCH   8  30
HETATM   30  O2  UNL     1       0.434  52.000 -21.361  1.00  0.00    -0.357 OA
HETATM   31  H17 UNL     1       0.320  51.861 -20.401  1.00  0.00     0.217 HD
ENDBRANCH   8  30
BRANCH   1  32
HETATM   32  C6  UNL     1      -1.233  48.894 -18.165  1.00  0.00     0.046 C 
BRANCH  32  33
HETATM   33  C5  UNL     1      -0.525  49.423 -16.911  1.00  0.00     0.030 C 
BRANCH  33  34
HETATM   34  C4  UNL     1       0.396  50.562 -17.256  1.00  0.00    -0.025 C 
HETATM   35  C2  UNL     1       1.137  51.305 -16.411  1.00  0.00    -0.091 C 
HETATM   36  C1  UNL     1       1.220  51.101 -14.923  1.00  0.00     0.042 C 
HETATM   37  C3  UNL     1       1.985  52.438 -16.928  1.00  0.00     0.042 C 
ENDBRANCH  33  34
ENDBRANCH  32  33
ENDBRANCH   1  32
TORSDOF 9
ENDMDL
MODEL 9
REMARK minimizedAffinity -9.52677155
REMARK CNNscore 0.249478579
REMARK CNNaffinity 6.74243164
REMARK  9 active torsions:
REMARK  status: ('A' for Active; 'I' for Inactive)
REMARK    1  A    between atoms: C4_4  and  C5_5 
REMARK    2  A    between atoms: C5_5  and  C6_6 
REMARK    3  A    between atoms: C6_6  and  C7_7 
REMARK    4  A    between atoms: C13_14  and  O2_15 
REMARK    5  A    between atoms: C14_16  and  C15_17 
REMARK    6  A    between atoms: C15_17  and  C16_18 
REMARK    7  A    between atoms: C22_25  and  C23_26 
REMARK    8  A    between atoms: C25_28  and  O4_29 
REMARK    9  A    between atoms: C27_31  and  O5_32 
ROOT
HETATM    1  C7  UNL     1      -6.136  47.347 -22.186  1.00  0.00     0.082 A 
HETATM    2  C8  UNL     1      -6.083  45.820 -22.032  1.00  0.00     0.051 C 
HETATM    3  C9  UNL     1      -5.414  47.964 -20.999  1.00  0.00     0.012 A 
HETATM    4  C10 UNL     1      -4.364  48.782 -21.113  1.00  0.00     0.016 A 
HETATM    5  C11 UNL     1      -3.911  49.074 -22.454  1.00  0.00     0.035 A 
HETATM    6  C12 UNL     1      -4.513  48.505 -23.569  1.00  0.00     0.117 A 
HETATM    7  O1  UNL     1      -5.569  47.634 -23.486  1.00  0.00    -0.333 OA
HETATM    8  C13 UNL     1      -4.044  48.798 -24.855  1.00  0.00     0.107 A 
HETATM    9  C14 UNL     1      -2.959  49.668 -25.096  1.00  0.00    -0.006 A 
HETATM   10  C20 UNL     1      -2.360  50.255 -23.953  1.00  0.00     0.011 A 
HETATM   11  C21 UNL     1      -2.845  49.944 -22.685  1.00  0.00     0.100 A 
HETATM   12  O3  UNL     1      -2.128  50.609 -21.732  1.00  0.00    -0.308 OA
HETATM   13  C22 UNL     1      -1.182  51.360 -22.369  1.00  0.00     0.087 A 
HETATM   14  C29 UNL     1      -1.292  51.171 -23.733  1.00  0.00     0.053 A 
ENDROOT
BRANCH  13  15
HETATM   15  C23 UNL     1      -0.306  52.159 -21.515  1.00  0.00     0.003 A 
HETATM   16  C24 UNL     1       0.495  53.172 -22.065  1.00  0.00     0.051 A 
HETATM   17  C25 UNL     1       1.330  53.934 -21.251  1.00  0.00     0.069 A 
HETATM   18  C26 UNL     1       1.392  53.713 -19.882  1.00  0.00     0.073 A 
HETATM   19  C27 UNL     1       0.602  52.713 -19.332  1.00  0.00     0.069 A 
HETATM   20  C28 UNL     1      -0.241  51.938 -20.129  1.00  0.00     0.051 A 
BRANCH  17  21
HETATM   21  O4  UNL     1       2.083  54.903 -21.847  1.00  0.00    -0.361 OA
HETATM   22  H28 UNL     1       2.606  55.353 -21.163  1.00  0.00     0.217 HD
ENDBRANCH  17  21
BRANCH  19  23
HETATM   23  O5  UNL     1       0.680  52.516 -17.983  1.00  0.00    -0.361 OA
HETATM   24  H30 UNL     1       0.079  51.792 -17.739  1.00  0.00     0.217 HD
ENDBRANCH  19  23
ENDBRANCH  13  15
BRANCH   9  25
HETATM   25  C15 UNL     1      -2.500  49.968 -26.505  1.00  0.00     0.070 C 
BRANCH  25  26
HETATM   26  C16 UNL     1      -1.012  50.191 -26.576  1.00  0.00    -0.020 C 
HETATM   27  C17 UNL     1      -0.341  51.281 -26.997  1.00  0.00    -0.091 C 
HETATM   28  C18 UNL     1      -0.963  52.553 -27.499  1.00  0.00     0.042 C 
HETATM   29  C19 UNL     1       1.167  51.295 -26.992  1.00  0.00     0.042 C 
ENDBRANCH  25  26
ENDBRANCH   9  25
BRANCH   8  30
HETATM   30  O2  UNL     1      -4.674  48.212 -25.928  1.00  0.00    -0.357 OA
HETATM   31  H17 UNL     1      -5.380  47.657 -25.543  1.00  0.00     0.217 HD
ENDBRANCH   8  30
BRANCH   1  32
HETATM   32  C6  UNL     1      -7.594  47.869 -22.186  1.00  0.00     0.046 C 
BRANCH  32  33
HETATM   33  C5  UNL     1      -7.971  48.707 -20.958  1.00  0.00     0.030 C 
BRANCH  33  34
HETATM   34  C4  UNL     1      -9.135  48.093 -20.228  1.00  0.00    -0.025 C 
HETATM   35  C2  UNL     1      -9.536  48.340 -18.966  1.00  0.00    -0.091 C 
HETATM   36  C1  UNL     1      -8.902  49.337 -18.034  1.00  0.00     0.042 C 
HETATM   37  C3  UNL     1     -10.713  47.604 -18.377  1.00  0.00     0.042 C 
ENDBRANCH  33  34
ENDBRANCH  32  33
ENDBRANCH   1  32
TORSDOF 9
ENDMDL
