MODEL 1
REMARK minimizedAffinity -7.88737774
REMARK CNNscore 0.589928687
REMARK CNNaffinity 6.17532587
REMARK  8 active torsions:
REMARK  status: ('A' for Active; 'I' for Inactive)
REMARK    1  A    between atoms: C11_11  and  O1_12 
REMARK    2  A    between atoms: O1_12  and  C12_13 
REMARK    3  A    between atoms: C14_16  and  O3_17 
REMARK    4  A    between atoms: C15_18  and  O4_19 
REMARK    5  A    between atoms: C16_20  and  O5_21 
REMARK    6  A    between atoms: C19_24  and  C20_25 
REMARK    7  A    between atoms: C21_27  and  O7_28 
REMARK    8  A    between atoms: C24_31  and  C25_32 
ROOT
HETATM    1  C1  UNL     1       4.214  57.625  -4.883  1.00  0.00     0.019 C 
HETATM    2  C2  UNL     1       4.543  57.002  -6.256  1.00  0.00    -0.005 C 
HETATM    3  C3  UNL     1       3.587  57.610  -7.316  1.00  0.00     0.013 C 
HETATM    4  C4  UNL     1       2.143  57.134  -7.185  1.00  0.00     0.007 C 
HETATM    5  C5  UNL     1       2.030  55.599  -7.271  1.00  0.00     0.012 C 
HETATM    6  C6  UNL     1       2.961  54.928  -6.208  1.00  0.00     0.027 C 
HETATM    7  C7  UNL     1       2.899  53.386  -6.317  1.00  0.00     0.012 C 
HETATM    8  C8  UNL     1       1.476  52.841  -6.243  1.00  0.00     0.036 C 
HETATM    9  C9  UNL     1       0.614  53.534  -7.268  1.00  0.00    -0.065 C 
HETATM   10  C10 UNL     1       0.043  52.823  -8.261  1.00  0.00     0.009 C 
HETATM   11  C11 UNL     1      -0.643  53.419  -9.452  1.00  0.00     0.148 C 
HETATM   12  C17 UNL     1      -0.266  54.892  -9.625  1.00  0.00     0.037 C 
HETATM   13  C18 UNL     1      -0.379  55.635  -8.296  1.00  0.00     0.024 C 
HETATM   14  C19 UNL     1       0.555  55.065  -7.182  1.00  0.00     0.040 C 
HETATM   15  C21 UNL     1       4.425  55.452  -6.249  1.00  0.00     0.070 C 
HETATM   16  C22 UNL     1       5.228  55.040  -7.490  1.00  0.00     0.040 C 
HETATM   17  C23 UNL     1       6.429  55.984  -7.509  1.00  0.00     0.013 C 
HETATM   18  C24 UNL     1       6.023  57.261  -6.731  1.00  0.00     0.028 C 
ENDROOT
BRANCH  11  19
HETATM   19  O1  UNL     1      -2.043  53.296  -9.218  1.00  0.00    -0.349 OA
BRANCH  19  20
HETATM   20  C12 UNL     1      -2.706  52.499 -10.202  1.00  0.00     0.291 C 
HETATM   21  O2  UNL     1      -1.798  51.610 -10.857  1.00  0.00    -0.356 OA
HETATM   22  C13 UNL     1      -1.253  52.161 -12.060  1.00  0.00     0.205 C 
HETATM   23  C14 UNL     1      -2.359  52.276 -13.116  1.00  0.00     0.173 C 
HETATM   24  C15 UNL     1      -3.681  52.771 -12.498  1.00  0.00     0.182 C 
HETATM   25  C16 UNL     1      -3.425  53.471 -11.165  1.00  0.00     0.204 C 
BRANCH  23  26
HETATM   26  O3  UNL     1      -2.571  50.982 -13.705  1.00  0.00    -0.391 OA
HETATM   27  H20 UNL     1      -2.702  50.346 -12.978  1.00  0.00     0.210 HD
ENDBRANCH  23  26
BRANCH  24  28
HETATM   28  O4  UNL     1      -4.330  53.689 -13.390  1.00  0.00    -0.390 OA
HETATM   29  H22 UNL     1      -5.085  54.052 -12.885  1.00  0.00     0.210 HD
ENDBRANCH  24  28
BRANCH  25  30
HETATM   30  O5  UNL     1      -4.670  53.929 -10.611  1.00  0.00    -0.388 OA
HETATM   31  H24 UNL     1      -4.440  54.388  -9.780  1.00  0.00     0.210 HD
ENDBRANCH  25  30
ENDBRANCH  19  20
ENDBRANCH  11  19
BRANCH  14  32
HETATM   32  C20 UNL     1      -0.103  55.547  -5.866  1.00  0.00     0.245 C 
HETATM   33  O6  UNL     1      -1.093  55.065  -5.327  1.00  0.00    -0.306 OA
ENDBRANCH  14  32
BRANCH  15  34
HETATM   34  O7  UNL     1       5.121  54.954  -5.098  1.00  0.00    -0.389 OA
HETATM   35  H30 UNL     1       5.234  53.992  -5.187  1.00  0.00     0.210 HD
ENDBRANCH  15  34
BRANCH  18  36
HETATM   36  C25 UNL     1       7.027  57.663  -5.682  1.00  0.00    -0.045 A 
HETATM   37  C26 UNL     1       7.203  58.843  -5.084  1.00  0.00     0.087 A 
HETATM   38  C27 UNL     1       8.307  58.689  -4.138  1.00  0.00     0.283 A 
HETATM   39  O8  UNL     1       8.731  59.570  -3.414  1.00  0.00    -0.260 OA
HETATM   40  O9  UNL     1       8.765  57.410  -4.191  1.00  0.00    -0.314 OA
HETATM   41  C28 UNL     1       8.002  56.681  -5.150  1.00  0.00     0.213 A 
ENDBRANCH  18  36
TORSDOF 8
ENDMDL
MODEL 2
REMARK minimizedAffinity -7.27885532
REMARK CNNscore 0.565598369
REMARK CNNaffinity 6.29403734
REMARK  8 active torsions:
REMARK  status: ('A' for Active; 'I' for Inactive)
REMARK    1  A    between atoms: C11_11  and  O1_12 
REMARK    2  A    between atoms: O1_12  and  C12_13 
REMARK    3  A    between atoms: C14_16  and  O3_17 
REMARK    4  A    between atoms: C15_18  and  O4_19 
REMARK    5  A    between atoms: C16_20  and  O5_21 
REMARK    6  A    between atoms: C19_24  and  C20_25 
REMARK    7  A    between atoms: C21_27  and  O7_28 
REMARK    8  A    between atoms: C24_31  and  C25_32 
ROOT
HETATM    1  C1  UNL     1      -0.649  54.845 -10.520  1.00  0.00     0.019 C 
HETATM    2  C2  UNL     1      -0.453  54.302  -9.089  1.00  0.00    -0.005 C 
HETATM    3  C3  UNL     1      -0.344  55.504  -8.115  1.00  0.00     0.013 C 
HETATM    4  C4  UNL     1       0.959  56.285  -8.247  1.00  0.00     0.007 C 
HETATM    5  C5  UNL     1       2.195  55.389  -8.032  1.00  0.00     0.012 C 
HETATM    6  C6  UNL     1       2.151  54.166  -9.005  1.00  0.00     0.027 C 
HETATM    7  C7  UNL     1       3.358  53.228  -8.765  1.00  0.00     0.012 C 
HETATM    8  C8  UNL     1       4.698  53.954  -8.834  1.00  0.00     0.036 C 
HETATM    9  C9  UNL     1       4.682  55.136  -7.899  1.00  0.00    -0.065 C 
HETATM   10  C10 UNL     1       5.547  55.191  -6.865  1.00  0.00     0.009 C 
HETATM   11  C11 UNL     1       5.483  56.190  -5.751  1.00  0.00     0.148 C 
HETATM   12  C17 UNL     1       4.111  56.866  -5.695  1.00  0.00     0.037 C 
HETATM   13  C18 UNL     1       3.682  57.326  -7.086  1.00  0.00     0.024 C 
HETATM   14  C19 UNL     1       3.561  56.161  -8.118  1.00  0.00     0.040 C 
HETATM   15  C21 UNL     1       0.802  53.392  -8.966  1.00  0.00     0.070 C 
HETATM   16  C22 UNL     1       0.537  52.613  -7.671  1.00  0.00     0.040 C 
HETATM   17  C23 UNL     1      -0.960  52.309  -7.697  1.00  0.00     0.013 C 
HETATM   18  C24 UNL     1      -1.631  53.379  -8.595  1.00  0.00     0.028 C 
ENDROOT
BRANCH  11  19
HETATM   19  O1  UNL     1       6.495  57.158  -6.015  1.00  0.00    -0.349 OA
BRANCH  19  20
HETATM   20  C12 UNL     1       7.455  57.264  -4.962  1.00  0.00     0.291 C 
HETATM   21  O2  UNL     1       7.585  58.612  -4.503  1.00  0.00    -0.356 OA
HETATM   22  C13 UNL     1       8.633  59.326  -5.166  1.00  0.00     0.205 C 
HETATM   23  C14 UNL     1       9.990  58.745  -4.748  1.00  0.00     0.173 C 
HETATM   24  C15 UNL     1       9.948  57.207  -4.674  1.00  0.00     0.182 C 
HETATM   25  C16 UNL     1       8.777  56.660  -5.488  1.00  0.00     0.204 C 
BRANCH  23  26
HETATM   26  O3  UNL     1      10.337  59.269  -3.455  1.00  0.00    -0.391 OA
HETATM   27  H20 UNL     1       9.577  59.118  -2.864  1.00  0.00     0.210 HD
ENDBRANCH  23  26
BRANCH  24  28
HETATM   28  O4  UNL     1      11.170  56.654  -5.184  1.00  0.00    -0.390 OA
HETATM   29  H22 UNL     1      11.022  55.688  -5.223  1.00  0.00     0.210 HD
ENDBRANCH  24  28
BRANCH  25  30
HETATM   30  O5  UNL     1       8.761  55.223  -5.409  1.00  0.00    -0.388 OA
HETATM   31  H24 UNL     1       8.013  54.934  -5.967  1.00  0.00     0.210 HD
ENDBRANCH  25  30
ENDBRANCH  19  20
ENDBRANCH  11  19
BRANCH  14  32
HETATM   32  C20 UNL     1       3.683  56.868  -9.489  1.00  0.00     0.245 C 
HETATM   33  O6  UNL     1       3.588  56.343 -10.593  1.00  0.00    -0.306 OA
ENDBRANCH  14  32
BRANCH  15  34
HETATM   34  O7  UNL     1       0.783  52.452 -10.048  1.00  0.00    -0.389 OA
HETATM   35  H30 UNL     1       1.437  51.753  -9.873  1.00  0.00     0.210 HD
ENDBRANCH  15  34
BRANCH  18  36
HETATM   36  C25 UNL     1      -2.538  52.792  -9.644  1.00  0.00    -0.045 A 
HETATM   37  C26 UNL     1      -2.519  51.579 -10.201  1.00  0.00     0.087 A 
HETATM   38  C27 UNL     1      -3.626  51.522 -11.153  1.00  0.00     0.283 A 
HETATM   39  O8  UNL     1      -3.909  50.554 -11.834  1.00  0.00    -0.260 OA
HETATM   40  O9  UNL     1      -4.288  52.709 -11.141  1.00  0.00    -0.314 OA
HETATM   41  C28 UNL     1      -3.663  53.582 -10.202  1.00  0.00     0.213 A 
ENDBRANCH  18  36
TORSDOF 8
ENDMDL
MODEL 3
REMARK minimizedAffinity -7.48038626
REMARK CNNscore 0.543622136
REMARK CNNaffinity 6.1813221
REMARK  8 active torsions:
REMARK  status: ('A' for Active; 'I' for Inactive)
REMARK    1  A    between atoms: C11_11  and  O1_12 
REMARK    2  A    between atoms: O1_12  and  C12_13 
REMARK    3  A    between atoms: C14_16  and  O3_17 
REMARK    4  A    between atoms: C15_18  and  O4_19 
REMARK    5  A    between atoms: C16_20  and  O5_21 
REMARK    6  A    between atoms: C19_24  and  C20_25 
REMARK    7  A    between atoms: C21_27  and  O7_28 
REMARK    8  A    between atoms: C24_31  and  C25_32 
ROOT
HETATM    1  C1  UNL     1      -0.732  55.305  -9.829  1.00  0.00     0.019 C 
HETATM    2  C2  UNL     1       0.055  54.021  -9.496  1.00  0.00    -0.005 C 
HETATM    3  C3  UNL     1       0.436  54.051  -7.992  1.00  0.00     0.013 C 
HETATM    4  C4  UNL     1       1.511  55.079  -7.652  1.00  0.00     0.007 C 
HETATM    5  C5  UNL     1       2.802  54.854  -8.461  1.00  0.00     0.012 C 
HETATM    6  C6  UNL     1       2.484  54.833  -9.992  1.00  0.00     0.027 C 
HETATM    7  C7  UNL     1       3.764  54.556 -10.817  1.00  0.00     0.012 C 
HETATM    8  C8  UNL     1       4.902  55.519 -10.492  1.00  0.00     0.036 C 
HETATM    9  C9  UNL     1       5.154  55.521  -9.005  1.00  0.00    -0.065 C 
HETATM   10  C10 UNL     1       6.347  55.119  -8.522  1.00  0.00     0.009 C 
HETATM   11  C11 UNL     1       6.641  54.866  -7.075  1.00  0.00     0.148 C 
HETATM   12  C17 UNL     1       5.350  54.716  -6.268  1.00  0.00     0.037 C 
HETATM   13  C18 UNL     1       4.371  55.837  -6.608  1.00  0.00     0.024 C 
HETATM   14  C19 UNL     1       3.954  55.866  -8.113  1.00  0.00     0.040 C 
HETATM   15  C21 UNL     1       1.331  53.862 -10.372  1.00  0.00     0.070 C 
HETATM   16  C22 UNL     1       1.664  52.371 -10.228  1.00  0.00     0.040 C 
HETATM   17  C23 UNL     1       0.309  51.665 -10.240  1.00  0.00     0.013 C 
HETATM   18  C24 UNL     1      -0.750  52.694  -9.768  1.00  0.00     0.028 C 
ENDROOT
BRANCH  11  19
HETATM   19  O1  UNL     1       7.382  55.992  -6.610  1.00  0.00    -0.349 OA
BRANCH  19  20
HETATM   20  C12 UNL     1       8.019  55.760  -5.352  1.00  0.00     0.291 C 
HETATM   21  O2  UNL     1       7.110  55.938  -4.262  1.00  0.00    -0.356 OA
HETATM   22  C13 UNL     1       7.140  57.265  -3.727  1.00  0.00     0.205 C 
HETATM   23  C14 UNL     1       8.483  57.504  -3.027  1.00  0.00     0.173 C 
HETATM   24  C15 UNL     1       9.653  56.905  -3.830  1.00  0.00     0.182 C 
HETATM   25  C16 UNL     1       9.252  56.689  -5.287  1.00  0.00     0.204 C 
BRANCH  23  26
HETATM   26  O3  UNL     1       8.442  56.891  -1.727  1.00  0.00    -0.391 OA
HETATM   27  H20 UNL     1       8.150  55.969  -1.847  1.00  0.00     0.210 HD
ENDBRANCH  23  26
BRANCH  24  28
HETATM   28  O4  UNL     1      10.787  57.784  -3.783  1.00  0.00    -0.390 OA
HETATM   29  H22 UNL     1      11.436  57.404  -4.408  1.00  0.00     0.210 HD
ENDBRANCH  24  28
BRANCH  25  30
HETATM   30  O5  UNL     1      10.361  56.135  -6.019  1.00  0.00    -0.388 OA
HETATM   31  H24 UNL     1      10.053  56.046  -6.942  1.00  0.00     0.210 HD
ENDBRANCH  25  30
ENDBRANCH  19  20
ENDBRANCH  11  19
BRANCH  14  32
HETATM   32  C20 UNL     1       3.466  57.318  -8.333  1.00  0.00     0.245 C 
HETATM   33  O6  UNL     1       3.311  58.175  -7.471  1.00  0.00    -0.306 OA
ENDBRANCH  14  32
BRANCH  15  34
HETATM   34  O7  UNL     1       0.968  54.094 -11.739  1.00  0.00    -0.389 OA
HETATM   35  H30 UNL     1       1.696  53.801 -12.315  1.00  0.00     0.210 HD
ENDBRANCH  15  34
BRANCH  18  36
HETATM   36  C25 UNL     1      -1.943  52.783 -10.683  1.00  0.00    -0.045 A 
HETATM   37  C26 UNL     1      -2.017  52.592 -12.002  1.00  0.00     0.087 A 
HETATM   38  C27 UNL     1      -3.412  52.790 -12.391  1.00  0.00     0.283 A 
HETATM   39  O8  UNL     1      -3.840  52.684 -13.525  1.00  0.00    -0.260 OA
HETATM   40  O9  UNL     1      -4.145  53.092 -11.287  1.00  0.00    -0.314 OA
HETATM   41  C28 UNL     1      -3.287  53.107 -10.147  1.00  0.00     0.213 A 
ENDBRANCH  18  36
TORSDOF 8
ENDMDL
MODEL 4
REMARK minimizedAffinity -9.64255333
REMARK CNNscore 0.483950317
REMARK CNNaffinity 6.48397064
REMARK  8 active torsions:
REMARK  status: ('A' for Active; 'I' for Inactive)
REMARK    1  A    between atoms: C11_11  and  O1_12 
REMARK    2  A    between atoms: O1_12  and  C12_13 
REMARK    3  A    between atoms: C14_16  and  O3_17 
REMARK    4  A    between atoms: C15_18  and  O4_19 
REMARK    5  A    between atoms: C16_20  and  O5_21 
REMARK    6  A    between atoms: C19_24  and  C20_25 
REMARK    7  A    between atoms: C21_27  and  O7_28 
REMARK    8  A    between atoms: C24_31  and  C25_32 
ROOT
HETATM    1  C1  UNL     1      -0.434  52.582 -19.339  1.00  0.00     0.019 C 
HETATM    2  C2  UNL     1      -0.661  51.056 -19.362  1.00  0.00    -0.005 C 
HETATM    3  C3  UNL     1      -0.024  50.481 -20.655  1.00  0.00     0.013 C 
HETATM    4  C4  UNL     1      -0.781  50.848 -21.927  1.00  0.00     0.007 C 
HETATM    5  C5  UNL     1      -2.251  50.387 -21.880  1.00  0.00     0.012 C 
HETATM    6  C6  UNL     1      -2.954  50.954 -20.603  1.00  0.00     0.027 C 
HETATM    7  C7  UNL     1      -4.416  50.457 -20.513  1.00  0.00     0.012 C 
HETATM    8  C8  UNL     1      -5.222  50.747 -21.776  1.00  0.00     0.036 C 
HETATM    9  C9  UNL     1      -4.493  50.203 -22.978  1.00  0.00    -0.065 C 
HETATM   10  C10 UNL     1      -5.060  49.238 -23.732  1.00  0.00     0.009 C 
HETATM   11  C11 UNL     1      -4.353  48.468 -24.805  1.00  0.00     0.148 C 
HETATM   12  C17 UNL     1      -2.834  48.605 -24.673  1.00  0.00     0.037 C 
HETATM   13  C18 UNL     1      -2.442  50.066 -24.472  1.00  0.00     0.024 C 
HETATM   14  C19 UNL     1      -3.059  50.707 -23.189  1.00  0.00     0.040 C 
HETATM   15  C21 UNL     1      -2.168  50.678 -19.290  1.00  0.00     0.070 C 
HETATM   16  C22 UNL     1      -2.134  49.209 -18.850  1.00  0.00     0.040 C 
HETATM   17  C23 UNL     1      -1.001  49.133 -17.828  1.00  0.00     0.013 C 
HETATM   18  C24 UNL     1      -0.029  50.302 -18.131  1.00  0.00     0.028 C 
ENDROOT
BRANCH  11  19
HETATM   19  O1  UNL     1      -4.787  49.015 -26.048  1.00  0.00    -0.349 OA
BRANCH  19  20
HETATM   20  C12 UNL     1      -4.798  48.055 -27.107  1.00  0.00     0.291 C 
HETATM   21  O2  UNL     1      -3.860  48.393 -28.132  1.00  0.00    -0.356 OA
HETATM   22  C13 UNL     1      -4.446  49.163 -29.187  1.00  0.00     0.205 C 
HETATM   23  C14 UNL     1      -5.432  48.288 -29.972  1.00  0.00     0.173 C 
HETATM   24  C15 UNL     1      -6.264  47.394 -29.033  1.00  0.00     0.182 C 
HETATM   25  C16 UNL     1      -6.255  47.949 -27.611  1.00  0.00     0.204 C 
BRANCH  23  26
HETATM   26  O3  UNL     1      -4.689  47.455 -30.878  1.00  0.00    -0.391 OA
HETATM   27  H20 UNL     1      -3.995  47.006 -30.362  1.00  0.00     0.210 HD
ENDBRANCH  23  26
BRANCH  24  28
HETATM   28  O4  UNL     1      -7.620  47.319 -29.497  1.00  0.00    -0.390 OA
HETATM   29  H22 UNL     1      -8.109  46.847 -28.794  1.00  0.00     0.210 HD
ENDBRANCH  24  28
BRANCH  25  30
HETATM   30  O5  UNL     1      -7.043  47.103 -26.755  1.00  0.00    -0.388 OA
HETATM   31  H24 UNL     1      -7.021  47.522 -25.872  1.00  0.00     0.210 HD
ENDBRANCH  25  30
ENDBRANCH  19  20
ENDBRANCH  11  19
BRANCH  14  32
HETATM   32  C20 UNL     1      -3.016  52.227 -23.478  1.00  0.00     0.245 C 
HETATM   33  O6  UNL     1      -2.494  52.772 -24.444  1.00  0.00    -0.306 OA
ENDBRANCH  14  32
BRANCH  15  34
HETATM   34  O7  UNL     1      -2.769  51.434 -18.230  1.00  0.00    -0.389 OA
HETATM   35  H30 UNL     1      -3.649  51.065 -18.037  1.00  0.00     0.210 HD
ENDBRANCH  15  34
BRANCH  18  36
HETATM   36  C25 UNL     1       0.310  51.124 -16.915  1.00  0.00    -0.045 A 
HETATM   37  C26 UNL     1      -0.271  51.144 -15.714  1.00  0.00     0.087 A 
HETATM   38  C27 UNL     1       0.456  52.112 -14.896  1.00  0.00     0.283 A 
HETATM   39  O8  UNL     1       0.198  52.376 -13.737  1.00  0.00    -0.260 OA
HETATM   40  O9  UNL     1       1.465  52.649 -15.631  1.00  0.00    -0.314 OA
HETATM   41  C28 UNL     1       1.449  52.074 -16.936  1.00  0.00     0.213 A 
ENDBRANCH  18  36
TORSDOF 8
ENDMDL
MODEL 5
REMARK minimizedAffinity -8.9391737
REMARK CNNscore 0.452286273
REMARK CNNaffinity 6.19637728
REMARK  8 active torsions:
REMARK  status: ('A' for Active; 'I' for Inactive)
REMARK    1  A    between atoms: C11_11  and  O1_12 
REMARK    2  A    between atoms: O1_12  and  C12_13 
REMARK    3  A    between atoms: C14_16  and  O3_17 
REMARK    4  A    between atoms: C15_18  and  O4_19 
REMARK    5  A    between atoms: C16_20  and  O5_21 
REMARK    6  A    between atoms: C19_24  and  C20_25 
REMARK    7  A    between atoms: C21_27  and  O7_28 
REMARK    8  A    between atoms: C24_31  and  C25_32 
ROOT
HETATM    1  C1  UNL     1      -8.978  47.581 -22.709  1.00  0.00     0.019 C 
HETATM    2  C2  UNL     1      -7.871  47.262 -23.734  1.00  0.00    -0.005 C 
HETATM    3  C3  UNL     1      -6.803  46.371 -23.047  1.00  0.00     0.013 C 
HETATM    4  C4  UNL     1      -5.958  47.110 -22.014  1.00  0.00     0.007 C 
HETATM    5  C5  UNL     1      -5.236  48.328 -22.623  1.00  0.00     0.012 C 
HETATM    6  C6  UNL     1      -6.267  49.277 -23.316  1.00  0.00     0.027 C 
HETATM    7  C7  UNL     1      -5.552  50.479 -23.978  1.00  0.00     0.012 C 
HETATM    8  C8  UNL     1      -4.647  51.239 -23.012  1.00  0.00     0.036 C 
HETATM    9  C9  UNL     1      -3.689  50.279 -22.353  1.00  0.00    -0.065 C 
HETATM   10  C10 UNL     1      -2.361  50.417 -22.539  1.00  0.00     0.009 C 
HETATM   11  C11 UNL     1      -1.332  49.409 -22.126  1.00  0.00     0.148 C 
HETATM   12  C17 UNL     1      -1.973  48.047 -21.854  1.00  0.00     0.037 C 
HETATM   13  C18 UNL     1      -3.209  48.202 -20.971  1.00  0.00     0.024 C 
HETATM   14  C19 UNL     1      -4.320  49.097 -21.603  1.00  0.00     0.040 C 
HETATM   15  C21 UNL     1      -7.210  48.545 -24.313  1.00  0.00     0.070 C 
HETATM   16  C22 UNL     1      -6.533  48.037 -25.592  1.00  0.00     0.040 C 
HETATM   17  C23 UNL     1      -7.517  47.027 -26.181  1.00  0.00     0.013 C 
HETATM   18  C24 UNL     1      -8.390  46.502 -25.013  1.00  0.00     0.028 C 
ENDROOT
BRANCH  11  19
HETATM   19  O1  UNL     1      -0.726  49.912 -20.938  1.00  0.00    -0.349 OA
BRANCH  19  20
HETATM   20  C12 UNL     1      -0.754  51.338 -20.858  1.00  0.00     0.291 C 
HETATM   21  O2  UNL     1       0.101  51.936 -21.836  1.00  0.00    -0.356 OA
HETATM   22  C13 UNL     1       1.415  52.203 -21.335  1.00  0.00     0.205 C 
HETATM   23  C14 UNL     1       1.345  53.322 -20.288  1.00  0.00     0.173 C 
HETATM   24  C15 UNL     1       0.121  53.157 -19.366  1.00  0.00     0.182 C 
HETATM   25  C16 UNL     1      -0.393  51.720 -19.404  1.00  0.00     0.204 C 
BRANCH  23  26
HETATM   26  O3  UNL     1       1.256  54.586 -20.967  1.00  0.00    -0.391 OA
HETATM   27  H20 UNL     1       0.528  54.522 -21.612  1.00  0.00     0.210 HD
ENDBRANCH  23  26
BRANCH  24  28
HETATM   28  O4  UNL     1       0.471  53.493 -18.016  1.00  0.00    -0.390 OA
HETATM   29  H22 UNL     1      -0.307  53.247 -17.477  1.00  0.00     0.210 HD
ENDBRANCH  24  28
BRANCH  25  30
HETATM   30  O5  UNL     1      -1.530  51.589 -18.533  1.00  0.00    -0.388 OA
HETATM   31  H24 UNL     1      -1.795  50.649 -18.579  1.00  0.00     0.210 HD
ENDBRANCH  25  30
ENDBRANCH  19  20
ENDBRANCH  11  19
BRANCH  14  32
HETATM   32  C20 UNL     1      -5.157  49.563 -20.388  1.00  0.00     0.245 C 
HETATM   33  O6  UNL     1      -4.775  49.641 -19.225  1.00  0.00    -0.306 OA
ENDBRANCH  14  32
BRANCH  15  34
HETATM   34  O7  UNL     1      -8.252  49.449 -24.705  1.00  0.00    -0.389 OA
HETATM   35  H30 UNL     1      -7.869  50.158 -25.251  1.00  0.00     0.210 HD
ENDBRANCH  15  34
BRANCH  18  36
HETATM   36  C25 UNL     1      -9.867  46.560 -25.302  1.00  0.00    -0.045 A 
HETATM   37  C26 UNL     1     -10.574  47.508 -25.920  1.00  0.00     0.087 A 
HETATM   38  C27 UNL     1     -11.966  47.064 -25.945  1.00  0.00     0.283 A 
HETATM   39  O8  UNL     1     -12.887  47.685 -26.443  1.00  0.00    -0.260 OA
HETATM   40  O9  UNL     1     -12.059  45.851 -25.340  1.00  0.00    -0.314 OA
HETATM   41  C28 UNL     1     -10.763  45.449 -24.899  1.00  0.00     0.213 A 
ENDBRANCH  18  36
TORSDOF 8
ENDMDL
MODEL 6
REMARK minimizedAffinity -7.50532722
REMARK CNNscore 0.446200341
REMARK CNNaffinity 5.84690714
REMARK  8 active torsions:
REMARK  status: ('A' for Active; 'I' for Inactive)
REMARK    1  A    between atoms: C11_11  and  O1_12 
REMARK    2  A    between atoms: O1_12  and  C12_13 
REMARK    3  A    between atoms: C14_16  and  O3_17 
REMARK    4  A    between atoms: C15_18  and  O4_19 
REMARK    5  A    between atoms: C16_20  and  O5_21 
REMARK    6  A    between atoms: C19_24  and  C20_25 
REMARK    7  A    between atoms: C21_27  and  O7_28 
REMARK    8  A    between atoms: C24_31  and  C25_32 
ROOT
HETATM    1  C1  UNL     1      -3.304  51.228 -24.417  1.00  0.00     0.019 C 
HETATM    2  C2  UNL     1      -2.978  50.071 -23.451  1.00  0.00    -0.005 C 
HETATM    3  C3  UNL     1      -3.297  48.729 -24.162  1.00  0.00     0.013 C 
HETATM    4  C4  UNL     1      -4.789  48.469 -24.342  1.00  0.00     0.007 C 
HETATM    5  C5  UNL     1      -5.544  48.483 -22.999  1.00  0.00     0.012 C 
HETATM    6  C6  UNL     1      -5.277  49.825 -22.242  1.00  0.00     0.027 C 
HETATM    7  C7  UNL     1      -5.986  49.833 -20.866  1.00  0.00     0.012 C 
HETATM    8  C8  UNL     1      -7.478  49.530 -20.965  1.00  0.00     0.036 C 
HETATM    9  C9  UNL     1      -7.685  48.242 -21.722  1.00  0.00    -0.065 C 
HETATM   10  C10 UNL     1      -8.267  47.188 -21.114  1.00  0.00     0.009 C 
HETATM   11  C11 UNL     1      -8.325  45.802 -21.680  1.00  0.00     0.148 C 
HETATM   12  C17 UNL     1      -7.309  45.624 -22.810  1.00  0.00     0.037 C 
HETATM   13  C18 UNL     1      -7.384  46.794 -23.788  1.00  0.00     0.024 C 
HETATM   14  C19 UNL     1      -7.080  48.178 -23.131  1.00  0.00     0.040 C 
HETATM   15  C21 UNL     1      -3.766  50.173 -22.114  1.00  0.00     0.070 C 
HETATM   16  C22 UNL     1      -2.967  49.263 -21.173  1.00  0.00     0.040 C 
HETATM   17  C23 UNL     1      -1.504  49.519 -21.531  1.00  0.00     0.013 C 
HETATM   18  C24 UNL     1      -1.471  50.033 -22.993  1.00  0.00     0.028 C 
ENDROOT
BRANCH  11  19
HETATM   19  O1  UNL     1      -9.648  45.623 -22.178  1.00  0.00    -0.349 OA
BRANCH  19  20
HETATM   20  C12 UNL     1     -10.367  44.592 -21.499  1.00  0.00     0.291 C 
HETATM   21  O2  UNL     1      -9.652  43.353 -21.520  1.00  0.00    -0.356 OA
HETATM   22  C13 UNL     1     -10.026  42.517 -22.620  1.00  0.00     0.205 C 
HETATM   23  C14 UNL     1     -11.464  42.020 -22.419  1.00  0.00     0.173 C 
HETATM   24  C15 UNL     1     -12.376  43.136 -21.875  1.00  0.00     0.182 C 
HETATM   25  C16 UNL     1     -11.768  44.510 -22.146  1.00  0.00     0.204 C 
BRANCH  23  26
HETATM   26  O3  UNL     1     -11.448  40.927 -21.484  1.00  0.00    -0.391 OA
HETATM   27  H20 UNL     1     -10.955  41.222 -20.697  1.00  0.00     0.210 HD
ENDBRANCH  23  26
BRANCH  24  28
HETATM   28  O4  UNL     1     -13.667  43.065 -22.497  1.00  0.00    -0.390 OA
HETATM   29  H22 UNL     1     -14.142  43.867 -22.201  1.00  0.00     0.210 HD
ENDBRANCH  24  28
BRANCH  25  30
HETATM   30  O5  UNL     1     -12.639  45.535 -21.635  1.00  0.00    -0.388 OA
HETATM   31  H24 UNL     1     -12.212  46.384 -21.862  1.00  0.00     0.210 HD
ENDBRANCH  25  30
ENDBRANCH  19  20
ENDBRANCH  11  19
BRANCH  14  32
HETATM   32  C20 UNL     1      -7.741  49.196 -24.091  1.00  0.00     0.245 C 
HETATM   33  O6  UNL     1      -8.893  49.164 -24.510  1.00  0.00    -0.306 OA
ENDBRANCH  14  32
BRANCH  15  34
HETATM   34  O7  UNL     1      -3.646  51.515 -21.624  1.00  0.00    -0.389 OA
HETATM   35  H30 UNL     1      -3.953  51.545 -20.701  1.00  0.00     0.210 HD
ENDBRANCH  15  34
BRANCH  18  36
HETATM   36  C25 UNL     1      -0.664  51.293 -23.162  1.00  0.00    -0.045 A 
HETATM   37  C26 UNL     1      -0.194  51.857 -24.277  1.00  0.00     0.087 A 
HETATM   38  C27 UNL     1       0.514  53.073 -23.882  1.00  0.00     0.283 A 
HETATM   39  O8  UNL     1       1.062  53.840 -24.652  1.00  0.00    -0.260 OA
HETATM   40  O9  UNL     1       0.447  53.211 -22.532  1.00  0.00    -0.314 OA
HETATM   41  C28 UNL     1      -0.290  52.118 -21.988  1.00  0.00     0.213 A 
ENDBRANCH  18  36
TORSDOF 8
ENDMDL
MODEL 7
REMARK minimizedAffinity -8.64717102
REMARK CNNscore 0.399022907
REMARK CNNaffinity 5.35808229
REMARK  8 active torsions:
REMARK  status: ('A' for Active; 'I' for Inactive)
REMARK    1  A    between atoms: C11_11  and  O1_12 
REMARK    2  A    between atoms: O1_12  and  C12_13 
REMARK    3  A    between atoms: C14_16  and  O3_17 
REMARK    4  A    between atoms: C15_18  and  O4_19 
REMARK    5  A    between atoms: C16_20  and  O5_21 
REMARK    6  A    between atoms: C19_24  and  C20_25 
REMARK    7  A    between atoms: C21_27  and  O7_28 
REMARK    8  A    between atoms: C24_31  and  C25_32 
ROOT
HETATM    1  C1  UNL     1     -17.292  43.422 -24.781  1.00  0.00     0.019 C 
HETATM    2  C2  UNL     1     -17.451  44.893 -25.218  1.00  0.00    -0.005 C 
HETATM    3  C3  UNL     1     -17.287  44.971 -26.759  1.00  0.00     0.013 C 
HETATM    4  C4  UNL     1     -15.856  44.740 -27.236  1.00  0.00     0.007 C 
HETATM    5  C5  UNL     1     -14.868  45.739 -26.603  1.00  0.00     0.012 C 
HETATM    6  C6  UNL     1     -14.974  45.691 -25.044  1.00  0.00     0.027 C 
HETATM    7  C7  UNL     1     -14.025  46.727 -24.395  1.00  0.00     0.012 C 
HETATM    8  C8  UNL     1     -12.580  46.587 -24.865  1.00  0.00     0.036 C 
HETATM    9  C9  UNL     1     -12.533  46.615 -26.372  1.00  0.00    -0.065 C 
HETATM   10  C10 UNL     1     -11.864  47.598 -27.008  1.00  0.00     0.009 C 
HETATM   11  C11 UNL     1     -11.929  47.859 -28.482  1.00  0.00     0.148 C 
HETATM   12  C17 UNL     1     -13.138  47.163 -29.113  1.00  0.00     0.037 C 
HETATM   13  C18 UNL     1     -13.227  45.713 -28.644  1.00  0.00     0.024 C 
HETATM   14  C19 UNL     1     -13.386  45.565 -27.098  1.00  0.00     0.040 C 
HETATM   15  C21 UNL     1     -16.431  45.834 -24.518  1.00  0.00     0.070 C 
HETATM   16  C22 UNL     1     -17.056  47.222 -24.707  1.00  0.00     0.040 C 
HETATM   17  C23 UNL     1     -18.557  47.003 -24.519  1.00  0.00     0.013 C 
HETATM   18  C24 UNL     1     -18.849  45.517 -24.845  1.00  0.00     0.028 C 
ENDROOT
BRANCH  11  19
HETATM   19  O1  UNL     1     -10.722  47.344 -29.038  1.00  0.00    -0.349 OA
BRANCH  19  20
HETATM   20  C12 UNL     1     -10.229  48.129 -30.126  1.00  0.00     0.291 C 
HETATM   21  O2  UNL     1     -10.374  47.447 -31.374  1.00  0.00    -0.356 OA
HETATM   22  C13 UNL     1      -9.208  46.701 -31.737  1.00  0.00     0.205 C 
HETATM   23  C14 UNL     1      -8.064  47.669 -32.066  1.00  0.00     0.173 C 
HETATM   24  C15 UNL     1      -8.022  48.850 -31.078  1.00  0.00     0.182 C 
HETATM   25  C16 UNL     1      -8.768  48.504 -29.792  1.00  0.00     0.204 C 
BRANCH  23  26
HETATM   26  O3  UNL     1      -8.257  48.175 -33.398  1.00  0.00    -0.391 OA
HETATM   27  H20 UNL     1      -9.169  48.514 -33.454  1.00  0.00     0.210 HD
ENDBRANCH  23  26
BRANCH  24  28
HETATM   28  O4  UNL     1      -6.662  49.177 -30.758  1.00  0.00    -0.390 OA
HETATM   29  H22 UNL     1      -6.717  49.840 -30.041  1.00  0.00     0.210 HD
ENDBRANCH  24  28
BRANCH  25  30
HETATM   30  O5  UNL     1      -8.710  49.618 -28.883  1.00  0.00    -0.388 OA
HETATM   31  H24 UNL     1      -9.176  49.328 -28.075  1.00  0.00     0.210 HD
ENDBRANCH  25  30
ENDBRANCH  19  20
ENDBRANCH  11  19
BRANCH  14  32
HETATM   32  C20 UNL     1     -12.899  44.124 -26.812  1.00  0.00     0.245 C 
HETATM   33  O6  UNL     1     -11.737  43.762 -26.666  1.00  0.00    -0.306 OA
ENDBRANCH  14  32
BRANCH  15  34
HETATM   34  O7  UNL     1     -16.441  45.542 -23.114  1.00  0.00    -0.389 OA
HETATM   35  H30 UNL     1     -15.970  46.250 -22.640  1.00  0.00     0.210 HD
ENDBRANCH  15  34
BRANCH  18  36
HETATM   36  C25 UNL     1     -19.657  44.822 -23.781  1.00  0.00    -0.045 A 
HETATM   37  C26 UNL     1     -20.644  43.932 -23.910  1.00  0.00     0.087 A 
HETATM   38  C27 UNL     1     -21.076  43.567 -22.563  1.00  0.00     0.283 A 
HETATM   39  O8  UNL     1     -21.958  42.767 -22.308  1.00  0.00    -0.260 OA
HETATM   40  O9  UNL     1     -20.330  44.248 -21.654  1.00  0.00    -0.314 OA
HETATM   41  C28 UNL     1     -19.394  45.074 -22.344  1.00  0.00     0.213 A 
ENDBRANCH  18  36
TORSDOF 8
ENDMDL
MODEL 8
REMARK minimizedAffinity -9.65682888
REMARK CNNscore 0.319088757
REMARK CNNaffinity 6.59250784
REMARK  8 active torsions:
REMARK  status: ('A' for Active; 'I' for Inactive)
REMARK    1  A    between atoms: C11_11  and  O1_12 
REMARK    2  A    between atoms: O1_12  and  C12_13 
REMARK    3  A    between atoms: C14_16  and  O3_17 
REMARK    4  A    between atoms: C15_18  and  O4_19 
REMARK    5  A    between atoms: C16_20  and  O5_21 
REMARK    6  A    between atoms: C19_24  and  C20_25 
REMARK    7  A    between atoms: C21_27  and  O7_28 
REMARK    8  A    between atoms: C24_31  and  C25_32 
ROOT
HETATM    1  C1  UNL     1      -2.219  51.762 -20.493  1.00  0.00     0.019 C 
HETATM    2  C2  UNL     1      -1.519  50.525 -21.095  1.00  0.00    -0.005 C 
HETATM    3  C3  UNL     1      -0.880  50.930 -22.449  1.00  0.00     0.013 C 
HETATM    4  C4  UNL     1      -1.898  51.182 -23.557  1.00  0.00     0.007 C 
HETATM    5  C5  UNL     1      -2.799  49.957 -23.806  1.00  0.00     0.012 C 
HETATM    6  C6  UNL     1      -3.488  49.513 -22.475  1.00  0.00     0.027 C 
HETATM    7  C7  UNL     1      -4.355  48.251 -22.698  1.00  0.00     0.012 C 
HETATM    8  C8  UNL     1      -5.367  48.416 -23.828  1.00  0.00     0.036 C 
HETATM    9  C9  UNL     1      -4.658  48.866 -25.080  1.00  0.00    -0.065 C 
HETATM   10  C10 UNL     1      -4.670  48.086 -26.180  1.00  0.00     0.009 C 
HETATM   11  C11 UNL     1      -3.828  48.315 -27.398  1.00  0.00     0.148 C 
HETATM   12  C17 UNL     1      -2.672  49.272 -27.098  1.00  0.00     0.037 C 
HETATM   13  C18 UNL     1      -3.174  50.499 -26.341  1.00  0.00     0.024 C 
HETATM   14  C19 UNL     1      -3.837  50.158 -24.969  1.00  0.00     0.040 C 
HETATM   15  C21 UNL     1      -2.493  49.330 -21.294  1.00  0.00     0.070 C 
HETATM   16  C22 UNL     1      -1.545  48.131 -21.424  1.00  0.00     0.040 C 
HETATM   17  C23 UNL     1      -0.434  48.399 -20.410  1.00  0.00     0.013 C 
HETATM   18  C24 UNL     1      -0.383  49.931 -20.179  1.00  0.00     0.028 C 
ENDROOT
BRANCH  11  19
HETATM   19  O1  UNL     1      -4.688  48.881 -28.385  1.00  0.00    -0.349 OA
BRANCH  19  20
HETATM   20  C12 UNL     1      -5.418  47.896 -29.120  1.00  0.00     0.291 C 
HETATM   21  O2  UNL     1      -4.775  47.582 -30.358  1.00  0.00    -0.356 OA
HETATM   22  C13 UNL     1      -5.261  48.368 -31.450  1.00  0.00     0.205 C 
HETATM   23  C14 UNL     1      -6.708  47.966 -31.764  1.00  0.00     0.173 C 
HETATM   24  C15 UNL     1      -7.523  47.737 -30.476  1.00  0.00     0.182 C 
HETATM   25  C16 UNL     1      -6.859  48.428 -29.288  1.00  0.00     0.204 C 
BRANCH  23  26
HETATM   26  O3  UNL     1      -6.694  46.752 -32.534  1.00  0.00    -0.391 OA
HETATM   27  H20 UNL     1      -6.138  46.109 -32.058  1.00  0.00     0.210 HD
ENDBRANCH  23  26
BRANCH  24  28
HETATM   28  O4  UNL     1      -8.852  48.254 -30.635  1.00  0.00    -0.390 OA
HETATM   29  H22 UNL     1      -9.263  48.188 -29.750  1.00  0.00     0.210 HD
ENDBRANCH  24  28
BRANCH  25  30
HETATM   30  O5  UNL     1      -7.639  48.206 -28.100  1.00  0.00    -0.388 OA
HETATM   31  H24 UNL     1      -7.182  48.692 -27.386  1.00  0.00     0.210 HD
ENDBRANCH  25  30
ENDBRANCH  19  20
ENDBRANCH  11  19
BRANCH  14  32
HETATM   32  C20 UNL     1      -4.729  51.388 -24.674  1.00  0.00     0.245 C 
HETATM   33  O6  UNL     1      -5.308  51.634 -23.622  1.00  0.00    -0.306 OA
ENDBRANCH  14  32
BRANCH  15  34
HETATM   34  O7  UNL     1      -3.245  49.158 -20.085  1.00  0.00    -0.389 OA
HETATM   35  H30 UNL     1      -3.705  48.300 -20.116  1.00  0.00     0.210 HD
ENDBRANCH  15  34
BRANCH  18  36
HETATM   36  C25 UNL     1      -0.397  50.314 -18.722  1.00  0.00    -0.045 A 
HETATM   37  C26 UNL     1      -0.952  49.685 -17.684  1.00  0.00     0.087 A 
HETATM   38  C27 UNL     1      -0.660  50.476 -16.491  1.00  0.00     0.283 A 
HETATM   39  O8  UNL     1      -1.011  50.188 -15.362  1.00  0.00    -0.260 OA
HETATM   40  O9  UNL     1       0.072  51.565 -16.845  1.00  0.00    -0.314 OA
HETATM   41  C28 UNL     1       0.291  51.542 -18.254  1.00  0.00     0.213 A 
ENDBRANCH  18  36
TORSDOF 8
ENDMDL
MODEL 9
REMARK minimizedAffinity -8.33274746
REMARK CNNscore 0.283825666
REMARK CNNaffinity 6.00184965
REMARK  8 active torsions:
REMARK  status: ('A' for Active; 'I' for Inactive)
REMARK    1  A    between atoms: C11_11  and  O1_12 
REMARK    2  A    between atoms: O1_12  and  C12_13 
REMARK    3  A    between atoms: C14_16  and  O3_17 
REMARK    4  A    between atoms: C15_18  and  O4_19 
REMARK    5  A    between atoms: C16_20  and  O5_21 
REMARK    6  A    between atoms: C19_24  and  C20_25 
REMARK    7  A    between atoms: C21_27  and  O7_28 
REMARK    8  A    between atoms: C24_31  and  C25_32 
ROOT
HETATM    1  C1  UNL     1      -1.383  52.084 -20.173  1.00  0.00     0.019 C 
HETATM    2  C2  UNL     1      -1.547  50.550 -20.203  1.00  0.00    -0.005 C 
HETATM    3  C3  UNL     1      -1.186  50.042 -21.624  1.00  0.00     0.013 C 
HETATM    4  C4  UNL     1      -2.217  50.407 -22.687  1.00  0.00     0.007 C 
HETATM    5  C5  UNL     1      -3.621  49.875 -22.337  1.00  0.00     0.012 C 
HETATM    6  C6  UNL     1      -4.049  50.372 -20.918  1.00  0.00     0.027 C 
HETATM    7  C7  UNL     1      -5.435  49.803 -20.530  1.00  0.00     0.012 C 
HETATM    8  C8  UNL     1      -6.510  50.089 -21.575  1.00  0.00     0.036 C 
HETATM    9  C9  UNL     1      -6.040  49.614 -22.927  1.00  0.00    -0.065 C 
HETATM   10  C10 UNL     1      -6.718  48.644 -23.575  1.00  0.00     0.009 C 
HETATM   11  C11 UNL     1      -6.233  47.939 -24.804  1.00  0.00     0.148 C 
HETATM   12  C17 UNL     1      -4.729  48.144 -25.001  1.00  0.00     0.037 C 
HETATM   13  C18 UNL     1      -4.362  49.617 -24.835  1.00  0.00     0.024 C 
HETATM   14  C19 UNL     1      -4.709  50.192 -23.426  1.00  0.00     0.040 C 
HETATM   15  C21 UNL     1      -2.984  50.098 -19.818  1.00  0.00     0.070 C 
HETATM   16  C22 UNL     1      -2.795  48.621 -19.451  1.00  0.00     0.040 C 
HETATM   17  C23 UNL     1      -1.463  48.572 -18.704  1.00  0.00     0.013 C 
HETATM   18  C24 UNL     1      -0.630  49.794 -19.168  1.00  0.00     0.028 C 
ENDROOT
BRANCH  11  19
HETATM   19  O1  UNL     1      -6.951  48.498 -25.902  1.00  0.00    -0.349 OA
BRANCH  19  20
HETATM   20  C12 UNL     1      -8.009  47.656 -26.363  1.00  0.00     0.291 C 
HETATM   21  O2  UNL     1      -7.770  47.195 -27.696  1.00  0.00    -0.356 OA
HETATM   22  C13 UNL     1      -8.368  48.034 -28.689  1.00  0.00     0.205 C 
HETATM   23  C14 UNL     1      -9.895  47.913 -28.609  1.00  0.00     0.173 C 
HETATM   24  C15 UNL     1     -10.383  47.874 -27.148  1.00  0.00     0.182 C 
HETATM   25  C16 UNL     1      -9.325  48.452 -26.211  1.00  0.00     0.204 C 
BRANCH  23  26
HETATM   26  O3  UNL     1     -10.296  46.701 -29.271  1.00  0.00    -0.391 OA
HETATM   27  H20 UNL     1      -9.763  45.974 -28.902  1.00  0.00     0.210 HD
ENDBRANCH  23  26
BRANCH  24  28
HETATM   28  O4  UNL     1     -11.593  48.634 -27.012  1.00  0.00    -0.390 OA
HETATM   29  H22 UNL     1     -11.770  48.668 -26.051  1.00  0.00     0.210 HD
ENDBRANCH  24  28
BRANCH  25  30
HETATM   30  O5  UNL     1      -9.804  48.412 -24.855  1.00  0.00    -0.388 OA
HETATM   31  H24 UNL     1      -9.101  48.816 -24.311  1.00  0.00     0.210 HD
ENDBRANCH  25  30
ENDBRANCH  19  20
ENDBRANCH  11  19
BRANCH  14  32
HETATM   32  C20 UNL     1      -4.793  51.720 -23.661  1.00  0.00     0.245 C 
HETATM   33  O6  UNL     1      -4.557  52.311 -24.708  1.00  0.00    -0.306 OA
ENDBRANCH  14  32
BRANCH  15  34
HETATM   34  O7  UNL     1      -3.369  50.795 -18.626  1.00  0.00    -0.389 OA
HETATM   35  H30 UNL     1      -4.169  50.379 -18.259  1.00  0.00     0.210 HD
ENDBRANCH  15  34
BRANCH  18  36
HETATM   36  C25 UNL     1      -0.066  50.597 -18.026  1.00  0.00    -0.045 A 
HETATM   37  C26 UNL     1       0.893  51.526 -18.033  1.00  0.00     0.087 A 
HETATM   38  C27 UNL     1       1.047  52.000 -16.660  1.00  0.00     0.283 A 
HETATM   39  O8  UNL     1       1.833  52.858 -16.304  1.00  0.00    -0.260 OA
HETATM   40  O9  UNL     1       0.168  51.342 -15.858  1.00  0.00    -0.314 OA
HETATM   41  C28 UNL     1      -0.588  50.427 -16.648  1.00  0.00     0.213 A 
ENDBRANCH  18  36
TORSDOF 8
ENDMDL
