MODEL 1
REMARK minimizedAffinity -7.63246489
REMARK CNNscore 0.502457261
REMARK CNNaffinity 5.87787008
REMARK  4 active torsions:
REMARK  status: ('A' for Active; 'I' for Inactive)
REMARK    1  A    between atoms: C4_4  and  C5_5 
REMARK    2  A    between atoms: C5_5  and  C6_6 
REMARK    3  A    between atoms: C6_6  and  C7_7 
REMARK    4  A    between atoms: C7_7  and  C9_9 
ROOT
HETATM    1  C9  UNL     1      -7.446  47.386 -30.576  1.00  0.00    -0.002 C 
HETATM    2  C10 UNL     1      -8.070  48.757 -30.997  1.00  0.00     0.007 C 
HETATM    3  C11 UNL     1      -9.531  48.774 -30.509  1.00  0.00     0.015 C 
HETATM    4  C12 UNL     1      -9.835  47.303 -30.166  1.00  0.00    -0.013 C 
HETATM    5  C13 UNL     1     -10.178  46.617 -31.526  1.00  0.00     0.021 C 
HETATM    6  C14 UNL     1     -10.955  46.959 -29.186  1.00  0.00    -0.070 C 
HETATM    7  C15 UNL     1     -11.738  47.877 -28.590  1.00  0.00    -0.022 C 
HETATM    8  C16 UNL     1     -12.713  47.570 -27.491  1.00  0.00     0.034 C 
HETATM    9  C17 UNL     1     -12.475  46.185 -26.849  1.00  0.00     0.013 C 
HETATM   10  C18 UNL     1     -13.458  45.800 -25.675  1.00  0.00     0.018 C 
HETATM   11  C19 UNL     1     -14.536  46.870 -25.404  1.00  0.00     0.023 C 
HETATM   12  C20 UNL     1     -12.650  45.632 -24.367  1.00  0.00     0.023 C 
HETATM   13  C21 UNL     1     -14.167  44.456 -25.905  1.00  0.00     0.135 C 
HETATM   14  O1  UNL     1     -15.337  44.267 -25.557  1.00  0.00    -0.297 OA
HETATM   15  C22 UNL     1     -13.386  43.301 -26.491  1.00  0.00     0.080 C 
HETATM   16  C23 UNL     1     -12.160  43.731 -27.279  1.00  0.00     0.017 C 
HETATM   17  C24 UNL     1     -12.317  45.103 -27.966  1.00  0.00    -0.031 C 
HETATM   18  C25 UNL     1     -13.557  45.064 -28.910  1.00  0.00     0.016 C 
HETATM   19  C26 UNL     1     -11.063  45.458 -28.865  1.00  0.00     0.024 C 
HETATM   20  C27 UNL     1      -9.698  44.936 -28.358  1.00  0.00     0.010 C 
HETATM   21  C28 UNL     1      -8.499  45.348 -29.247  1.00  0.00     0.011 C 
HETATM   22  C29 UNL     1      -8.463  46.870 -29.510  1.00  0.00    -0.029 C 
HETATM   23  C30 UNL     1      -8.184  47.584 -28.148  1.00  0.00     0.016 C 
ENDROOT
BRANCH   1  24
HETATM   24  C7  UNL     1      -5.932  47.530 -30.226  1.00  0.00    -0.014 C 
HETATM   25  C8  UNL     1      -5.322  48.814 -30.795  1.00  0.00     0.010 C 
BRANCH  24  26
HETATM   26  C6  UNL     1      -5.744  47.485 -28.681  1.00  0.00     0.008 C 
BRANCH  26  27
HETATM   27  C5  UNL     1      -4.619  48.352 -28.099  1.00  0.00     0.028 C 
BRANCH  27  28
HETATM   28  C4  UNL     1      -4.552  48.319 -26.597  1.00  0.00    -0.025 C 
HETATM   29  C2  UNL     1      -3.521  48.692 -25.815  1.00  0.00    -0.091 C 
HETATM   30  C1  UNL     1      -3.602  48.551 -24.317  1.00  0.00     0.042 C 
HETATM   31  C3  UNL     1      -2.229  49.277 -26.314  1.00  0.00     0.042 C 
ENDBRANCH  27  28
ENDBRANCH  26  27
ENDBRANCH  24  26
ENDBRANCH   1  24
TORSDOF 4
ENDMDL
MODEL 2
REMARK minimizedAffinity -6.93831301
REMARK CNNscore 0.502008319
REMARK CNNaffinity 6.63983679
REMARK  4 active torsions:
REMARK  status: ('A' for Active; 'I' for Inactive)
REMARK    1  A    between atoms: C4_4  and  C5_5 
REMARK    2  A    between atoms: C5_5  and  C6_6 
REMARK    3  A    between atoms: C6_6  and  C7_7 
REMARK    4  A    between atoms: C7_7  and  C9_9 
ROOT
HETATM    1  C9  UNL     1      -1.878  52.401 -10.901  1.00  0.00    -0.002 C 
HETATM    2  C10 UNL     1      -1.258  50.986 -11.142  1.00  0.00     0.007 C 
HETATM    3  C11 UNL     1       0.240  51.068 -10.790  1.00  0.00     0.015 C 
HETATM    4  C12 UNL     1       0.534  52.579 -10.724  1.00  0.00    -0.013 C 
HETATM    5  C13 UNL     1       0.741  53.031 -12.204  1.00  0.00     0.021 C 
HETATM    6  C14 UNL     1       1.725  53.094  -9.918  1.00  0.00    -0.070 C 
HETATM    7  C15 UNL     1       2.579  52.298  -9.250  1.00  0.00    -0.022 C 
HETATM    8  C16 UNL     1       3.636  52.796  -8.308  1.00  0.00     0.034 C 
HETATM    9  C17 UNL     1       3.419  54.266  -7.887  1.00  0.00     0.013 C 
HETATM   10  C18 UNL     1       4.488  54.853  -6.884  1.00  0.00     0.018 C 
HETATM   11  C19 UNL     1       5.613  53.855  -6.536  1.00  0.00     0.023 C 
HETATM   12  C20 UNL     1       3.791  55.229  -5.556  1.00  0.00     0.023 C 
HETATM   13  C21 UNL     1       5.140  56.148  -7.397  1.00  0.00     0.135 C 
HETATM   14  O1  UNL     1       6.330  56.405  -7.190  1.00  0.00    -0.297 OA
HETATM   15  C22 UNL     1       4.283  57.179  -8.094  1.00  0.00     0.080 C 
HETATM   16  C23 UNL     1       3.005  56.610  -8.688  1.00  0.00     0.017 C 
HETATM   17  C24 UNL     1       3.137  55.143  -9.148  1.00  0.00    -0.031 C 
HETATM   18  C25 UNL     1       4.290  55.037 -10.193  1.00  0.00     0.016 C 
HETATM   19  C26 UNL     1       1.821  54.629  -9.862  1.00  0.00     0.024 C 
HETATM   20  C27 UNL     1       0.491  55.214  -9.329  1.00  0.00     0.010 C 
HETATM   21  C28 UNL     1      -0.768  54.645 -10.028  1.00  0.00     0.011 C 
HETATM   22  C29 UNL     1      -0.788  53.100 -10.030  1.00  0.00    -0.029 C 
HETATM   23  C30 UNL     1      -0.931  52.622  -8.549  1.00  0.00     0.016 C 
ENDROOT
BRANCH   1  24
HETATM   24  C7  UNL     1      -3.353  52.302 -10.399  1.00  0.00    -0.014 C 
HETATM   25  C8  UNL     1      -4.178  53.538 -10.766  1.00  0.00     0.010 C 
BRANCH  24  26
HETATM   26  C6  UNL     1      -4.019  51.020 -10.979  1.00  0.00     0.008 C 
BRANCH  26  27
HETATM   27  C5  UNL     1      -4.689  50.076  -9.972  1.00  0.00     0.028 C 
BRANCH  27  28
HETATM   28  C4  UNL     1      -6.189  50.051 -10.078  1.00  0.00    -0.025 C 
HETATM   29  C2  UNL     1      -6.947  49.167 -10.757  1.00  0.00    -0.091 C 
HETATM   30  C1  UNL     1      -8.446  49.312 -10.798  1.00  0.00     0.042 C 
HETATM   31  C3  UNL     1      -6.417  47.979 -11.510  1.00  0.00     0.042 C 
ENDBRANCH  27  28
ENDBRANCH  26  27
ENDBRANCH  24  26
ENDBRANCH   1  24
TORSDOF 4
ENDMDL
MODEL 3
REMARK minimizedAffinity -6.98782301
REMARK CNNscore 0.432492912
REMARK CNNaffinity 5.8915658
REMARK  4 active torsions:
REMARK  status: ('A' for Active; 'I' for Inactive)
REMARK    1  A    between atoms: C4_4  and  C5_5 
REMARK    2  A    between atoms: C5_5  and  C6_6 
REMARK    3  A    between atoms: C6_6  and  C7_7 
REMARK    4  A    between atoms: C7_7  and  C9_9 
ROOT
HETATM    1  C9  UNL     1       2.603  55.618  -8.521  1.00  0.00    -0.002 C 
HETATM    2  C10 UNL     1       1.464  56.115  -7.571  1.00  0.00     0.007 C 
HETATM    3  C11 UNL     1       2.126  56.638  -6.282  1.00  0.00     0.015 C 
HETATM    4  C12 UNL     1       3.566  56.095  -6.347  1.00  0.00    -0.013 C 
HETATM    5  C13 UNL     1       3.482  54.621  -5.840  1.00  0.00     0.021 C 
HETATM    6  C14 UNL     1       4.683  56.784  -5.564  1.00  0.00    -0.070 C 
HETATM    7  C15 UNL     1       4.493  57.859  -4.778  1.00  0.00    -0.022 C 
HETATM    8  C16 UNL     1       5.602  58.655  -4.153  1.00  0.00     0.034 C 
HETATM    9  C17 UNL     1       6.980  58.361  -4.787  1.00  0.00     0.013 C 
HETATM   10  C18 UNL     1       8.194  59.173  -4.188  1.00  0.00     0.018 C 
HETATM   11  C19 UNL     1       7.794  60.096  -3.017  1.00  0.00     0.023 C 
HETATM   12  C20 UNL     1       8.798  60.076  -5.287  1.00  0.00     0.023 C 
HETATM   13  C21 UNL     1       9.342  58.268  -3.711  1.00  0.00     0.135 C 
HETATM   14  O1  UNL     1      10.010  58.536  -2.708  1.00  0.00    -0.297 OA
HETATM   15  C22 UNL     1       9.725  57.065  -4.541  1.00  0.00     0.080 C 
HETATM   16  C23 UNL     1       8.613  56.573  -5.453  1.00  0.00     0.017 C 
HETATM   17  C24 UNL     1       7.198  56.817  -4.889  1.00  0.00    -0.031 C 
HETATM   18  C25 UNL     1       7.076  56.125  -3.497  1.00  0.00     0.016 C 
HETATM   19  C26 UNL     1       6.079  56.190  -5.816  1.00  0.00     0.024 C 
HETATM   20  C27 UNL     1       6.378  56.193  -7.334  1.00  0.00     0.010 C 
HETATM   21  C28 UNL     1       5.234  55.611  -8.200  1.00  0.00     0.011 C 
HETATM   22  C29 UNL     1       3.872  56.270  -7.888  1.00  0.00    -0.029 C 
HETATM   23  C30 UNL     1       3.954  57.767  -8.330  1.00  0.00     0.016 C 
ENDROOT
BRANCH   1  24
HETATM   24  C7  UNL     1       2.246  55.866 -10.020  1.00  0.00    -0.014 C 
HETATM   25  C8  UNL     1       3.488  55.922 -10.913  1.00  0.00     0.010 C 
BRANCH  24  26
HETATM   26  C6  UNL     1       1.277  54.754 -10.519  1.00  0.00     0.008 C 
BRANCH  26  27
HETATM   27  C5  UNL     1      -0.212  54.945 -10.199  1.00  0.00     0.028 C 
BRANCH  27  28
HETATM   28  C4  UNL     1      -0.885  53.693  -9.707  1.00  0.00    -0.025 C 
HETATM   29  C2  UNL     1      -2.172  53.333  -9.879  1.00  0.00    -0.091 C 
HETATM   30  C1  UNL     1      -2.701  52.057  -9.278  1.00  0.00     0.042 C 
HETATM   31  C3  UNL     1      -3.187  54.117 -10.664  1.00  0.00     0.042 C 
ENDBRANCH  27  28
ENDBRANCH  26  27
ENDBRANCH  24  26
ENDBRANCH   1  24
TORSDOF 4
ENDMDL
MODEL 4
REMARK minimizedAffinity -6.76445913
REMARK CNNscore 0.429340571
REMARK CNNaffinity 6.46132708
REMARK  4 active torsions:
REMARK  status: ('A' for Active; 'I' for Inactive)
REMARK    1  A    between atoms: C4_4  and  C5_5 
REMARK    2  A    between atoms: C5_5  and  C6_6 
REMARK    3  A    between atoms: C6_6  and  C7_7 
REMARK    4  A    between atoms: C7_7  and  C9_9 
ROOT
HETATM    1  C9  UNL     1       4.987  56.146  -8.130  1.00  0.00    -0.002 C 
HETATM    2  C10 UNL     1       4.077  57.396  -7.901  1.00  0.00     0.007 C 
HETATM    3  C11 UNL     1       2.673  57.056  -8.437  1.00  0.00     0.015 C 
HETATM    4  C12 UNL     1       2.888  55.794  -9.293  1.00  0.00    -0.013 C 
HETATM    5  C13 UNL     1       3.414  56.306 -10.671  1.00  0.00     0.021 C 
HETATM    6  C14 UNL     1       1.721  54.848  -9.573  1.00  0.00    -0.070 C 
HETATM    7  C15 UNL     1       0.469  55.050  -9.126  1.00  0.00    -0.022 C 
HETATM    8  C16 UNL     1      -0.640  54.044  -9.234  1.00  0.00     0.034 C 
HETATM    9  C17 UNL     1      -0.129  52.624  -9.564  1.00  0.00     0.013 C 
HETATM   10  C18 UNL     1      -1.240  51.509  -9.679  1.00  0.00     0.018 C 
HETATM   11  C19 UNL     1      -2.673  52.052  -9.492  1.00  0.00     0.023 C 
HETATM   12  C20 UNL     1      -1.014  50.445  -8.581  1.00  0.00     0.023 C 
HETATM   13  C21 UNL     1      -1.188  50.749 -11.015  1.00  0.00     0.135 C 
HETATM   14  O1  UNL     1      -2.213  50.368 -11.589  1.00  0.00    -0.297 OA
HETATM   15  C22 UNL     1       0.155  50.377 -11.599  1.00  0.00     0.080 C 
HETATM   16  C23 UNL     1       1.300  51.242 -11.099  1.00  0.00     0.017 C 
HETATM   17  C24 UNL     1       0.878  52.686 -10.757  1.00  0.00    -0.031 C 
HETATM   18  C25 UNL     1       0.238  53.344 -12.017  1.00  0.00     0.016 C 
HETATM   19  C26 UNL     1       2.119  53.581 -10.349  1.00  0.00     0.024 C 
HETATM   20  C27 UNL     1       3.262  52.852  -9.604  1.00  0.00     0.010 C 
HETATM   21  C28 UNL     1       4.430  53.779  -9.187  1.00  0.00     0.011 C 
HETATM   22  C29 UNL     1       3.943  55.019  -8.406  1.00  0.00    -0.029 C 
HETATM   23  C30 UNL     1       3.352  54.524  -7.046  1.00  0.00     0.016 C 
ENDROOT
BRANCH   1  24
HETATM   24  C7  UNL     1       6.042  55.989  -6.991  1.00  0.00    -0.014 C 
HETATM   25  C8  UNL     1       7.408  55.542  -7.520  1.00  0.00     0.010 C 
BRANCH  24  26
HETATM   26  C6  UNL     1       6.181  57.332  -6.216  1.00  0.00     0.008 C 
BRANCH  26  27
HETATM   27  C5  UNL     1       7.005  57.299  -4.922  1.00  0.00     0.028 C 
BRANCH  27  28
HETATM   28  C4  UNL     1       8.117  58.311  -4.893  1.00  0.00    -0.025 C 
HETATM   29  C2  UNL     1       9.440  58.076  -4.988  1.00  0.00    -0.091 C 
HETATM   30  C1  UNL     1      10.430  59.208  -4.895  1.00  0.00     0.042 C 
HETATM   31  C3  UNL     1      10.062  56.724  -5.202  1.00  0.00     0.042 C 
ENDBRANCH  27  28
ENDBRANCH  26  27
ENDBRANCH  24  26
ENDBRANCH   1  24
TORSDOF 4
ENDMDL
MODEL 5
REMARK minimizedAffinity -7.29131413
REMARK CNNscore 0.412062526
REMARK CNNaffinity 6.00863886
REMARK  4 active torsions:
REMARK  status: ('A' for Active; 'I' for Inactive)
REMARK    1  A    between atoms: C4_4  and  C5_5 
REMARK    2  A    between atoms: C5_5  and  C6_6 
REMARK    3  A    between atoms: C6_6  and  C7_7 
REMARK    4  A    between atoms: C7_7  and  C9_9 
ROOT
HETATM    1  C9  UNL     1      -6.842  46.569 -29.161  1.00  0.00    -0.002 C 
HETATM    2  C10 UNL     1      -5.762  47.376 -29.953  1.00  0.00     0.007 C 
HETATM    3  C11 UNL     1      -6.040  47.177 -31.456  1.00  0.00     0.015 C 
HETATM    4  C12 UNL     1      -7.011  45.982 -31.508  1.00  0.00    -0.013 C 
HETATM    5  C13 UNL     1      -6.115  44.708 -31.389  1.00  0.00     0.021 C 
HETATM    6  C14 UNL     1      -7.924  45.787 -32.718  1.00  0.00    -0.070 C 
HETATM    7  C15 UNL     1      -7.932  46.600 -33.789  1.00  0.00    -0.022 C 
HETATM    8  C16 UNL     1      -8.945  46.530 -34.894  1.00  0.00     0.034 C 
HETATM    9  C17 UNL     1     -10.188  45.695 -34.515  1.00  0.00     0.013 C 
HETATM   10  C18 UNL     1     -11.303  45.590 -35.627  1.00  0.00     0.018 C 
HETATM   11  C19 UNL     1     -10.928  46.307 -36.942  1.00  0.00     0.023 C 
HETATM   12  C20 UNL     1     -12.604  46.246 -35.111  1.00  0.00     0.023 C 
HETATM   13  C21 UNL     1     -11.674  44.136 -35.967  1.00  0.00     0.135 C 
HETATM   14  O1  UNL     1     -11.955  43.786 -37.117  1.00  0.00    -0.297 OA
HETATM   15  C22 UNL     1     -11.786  43.124 -34.849  1.00  0.00     0.080 C 
HETATM   16  C23 UNL     1     -11.011  43.506 -33.599  1.00  0.00     0.017 C 
HETATM   17  C24 UNL     1      -9.742  44.335 -33.889  1.00  0.00    -0.031 C 
HETATM   18  C25 UNL     1      -8.816  43.533 -34.853  1.00  0.00     0.016 C 
HETATM   19  C26 UNL     1      -8.908  44.613 -32.573  1.00  0.00     0.024 C 
HETATM   20  C27 UNL     1      -9.731  44.783 -31.273  1.00  0.00     0.010 C 
HETATM   21  C28 UNL     1      -8.873  45.098 -30.024  1.00  0.00     0.011 C 
HETATM   22  C29 UNL     1      -7.922  46.294 -30.254  1.00  0.00    -0.029 C 
HETATM   23  C30 UNL     1      -8.800  47.573 -30.440  1.00  0.00     0.016 C 
ENDROOT
BRANCH   1  24
HETATM   24  C7  UNL     1      -7.226  47.283 -27.827  1.00  0.00    -0.014 C 
HETATM   25  C8  UNL     1      -7.908  46.336 -26.835  1.00  0.00     0.010 C 
BRANCH  24  26
HETATM   26  C6  UNL     1      -5.955  47.910 -27.184  1.00  0.00     0.008 C 
BRANCH  26  27
HETATM   27  C5  UNL     1      -5.881  47.895 -25.650  1.00  0.00     0.028 C 
BRANCH  27  28
HETATM   28  C4  UNL     1      -4.792  48.770 -25.094  1.00  0.00    -0.025 C 
HETATM   29  C2  UNL     1      -3.562  48.971 -25.605  1.00  0.00    -0.091 C 
HETATM   30  C1  UNL     1      -2.568  49.851 -24.893  1.00  0.00     0.042 C 
HETATM   31  C3  UNL     1      -3.057  48.380 -26.892  1.00  0.00     0.042 C 
ENDBRANCH  27  28
ENDBRANCH  26  27
ENDBRANCH  24  26
ENDBRANCH   1  24
TORSDOF 4
ENDMDL
MODEL 6
REMARK minimizedAffinity -6.71939087
REMARK CNNscore 0.402142048
REMARK CNNaffinity 6.59585333
REMARK  4 active torsions:
REMARK  status: ('A' for Active; 'I' for Inactive)
REMARK    1  A    between atoms: C4_4  and  C5_5 
REMARK    2  A    between atoms: C5_5  and  C6_6 
REMARK    3  A    between atoms: C6_6  and  C7_7 
REMARK    4  A    between atoms: C7_7  and  C9_9 
ROOT
HETATM    1  C9  UNL     1      -0.624  54.480  -8.058  1.00  0.00    -0.002 C 
HETATM    2  C10 UNL     1      -1.229  53.360  -7.150  1.00  0.00     0.007 C 
HETATM    3  C11 UNL     1      -1.392  52.095  -8.016  1.00  0.00     0.015 C 
HETATM    4  C12 UNL     1      -1.245  52.603  -9.463  1.00  0.00    -0.013 C 
HETATM    5  C13 UNL     1      -2.642  53.183  -9.847  1.00  0.00     0.021 C 
HETATM    6  C14 UNL     1      -0.827  51.642 -10.575  1.00  0.00    -0.070 C 
HETATM    7  C15 UNL     1      -0.586  50.333 -10.382  1.00  0.00    -0.022 C 
HETATM    8  C16 UNL     1       0.000  49.420 -11.420  1.00  0.00     0.034 C 
HETATM    9  C17 UNL     1       0.646  50.187 -12.595  1.00  0.00     0.013 C 
HETATM   10  C18 UNL     1       1.296  49.290 -13.719  1.00  0.00     0.018 C 
HETATM   11  C19 UNL     1       1.123  47.776 -13.471  1.00  0.00     0.023 C 
HETATM   12  C20 UNL     1       2.816  49.567 -13.780  1.00  0.00     0.023 C 
HETATM   13  C21 UNL     1       0.756  49.607 -15.124  1.00  0.00     0.135 C 
HETATM   14  O1  UNL     1       0.582  48.726 -15.971  1.00  0.00    -0.297 OA
HETATM   15  C22 UNL     1       0.517  51.048 -15.513  1.00  0.00     0.080 C 
HETATM   16  C23 UNL     1       0.321  51.977 -14.327  1.00  0.00     0.017 C 
HETATM   17  C24 UNL     1      -0.332  51.292 -13.108  1.00  0.00    -0.031 C 
HETATM   18  C25 UNL     1      -1.707  50.693 -13.534  1.00  0.00     0.016 C 
HETATM   19  C26 UNL     1      -0.620  52.321 -11.939  1.00  0.00     0.024 C 
HETATM   20  C27 UNL     1       0.394  53.481 -11.794  1.00  0.00     0.010 C 
HETATM   21  C28 UNL     1       0.093  54.431 -10.610  1.00  0.00     0.011 C 
HETATM   22  C29 UNL     1      -0.090  53.668  -9.279  1.00  0.00    -0.029 C 
HETATM   23  C30 UNL     1       1.283  53.023  -8.905  1.00  0.00     0.016 C 
ENDROOT
BRANCH   1  24
HETATM   24  C7  UNL     1       0.327  55.418  -7.251  1.00  0.00    -0.014 C 
HETATM   25  C8  UNL     1       1.164  54.654  -6.222  1.00  0.00     0.010 C 
BRANCH  24  26
HETATM   26  C6  UNL     1       1.256  56.192  -8.232  1.00  0.00     0.008 C 
BRANCH  26  27
HETATM   27  C5  UNL     1       2.609  56.658  -7.675  1.00  0.00     0.028 C 
BRANCH  27  28
HETATM   28  C4  UNL     1       3.782  55.908  -8.244  1.00  0.00    -0.025 C 
HETATM   29  C2  UNL     1       4.108  55.761  -9.542  1.00  0.00    -0.091 C 
HETATM   30  C1  UNL     1       5.301  54.935  -9.947  1.00  0.00     0.042 C 
HETATM   31  C3  UNL     1       3.365  56.384 -10.692  1.00  0.00     0.042 C 
ENDBRANCH  27  28
ENDBRANCH  26  27
ENDBRANCH  24  26
ENDBRANCH   1  24
TORSDOF 4
ENDMDL
MODEL 7
REMARK minimizedAffinity -7.2421279
REMARK CNNscore 0.320551842
REMARK CNNaffinity 6.72655249
REMARK  4 active torsions:
REMARK  status: ('A' for Active; 'I' for Inactive)
REMARK    1  A    between atoms: C4_4  and  C5_5 
REMARK    2  A    between atoms: C5_5  and  C6_6 
REMARK    3  A    between atoms: C6_6  and  C7_7 
REMARK    4  A    between atoms: C7_7  and  C9_9 
ROOT
HETATM    1  C9  UNL     1      -0.016  50.355 -14.543  1.00  0.00    -0.002 C 
HETATM    2  C10 UNL     1      -1.341  51.170 -14.384  1.00  0.00     0.007 C 
HETATM    3  C11 UNL     1      -1.169  52.109 -13.175  1.00  0.00     0.015 C 
HETATM    4  C12 UNL     1       0.070  51.561 -12.441  1.00  0.00    -0.013 C 
HETATM    5  C13 UNL     1      -0.448  50.364 -11.582  1.00  0.00     0.021 C 
HETATM    6  C14 UNL     1       0.879  52.470 -11.517  1.00  0.00    -0.070 C 
HETATM    7  C15 UNL     1       0.571  53.756 -11.274  1.00  0.00    -0.022 C 
HETATM    8  C16 UNL     1       1.454  54.709 -10.521  1.00  0.00     0.034 C 
HETATM    9  C17 UNL     1       2.903  54.192 -10.374  1.00  0.00     0.013 C 
HETATM   10  C18 UNL     1       3.893  55.150  -9.604  1.00  0.00     0.018 C 
HETATM   11  C19 UNL     1       3.217  56.434  -9.076  1.00  0.00     0.023 C 
HETATM   12  C20 UNL     1       5.022  55.596 -10.561  1.00  0.00     0.023 C 
HETATM   13  C21 UNL     1       4.594  54.460  -8.422  1.00  0.00     0.135 C 
HETATM   14  O1  UNL     1       4.844  55.059  -7.372  1.00  0.00    -0.297 OA
HETATM   15  C22 UNL     1       5.075  53.035  -8.580  1.00  0.00     0.080 C 
HETATM   16  C23 UNL     1       4.352  52.265  -9.673  1.00  0.00     0.017 C 
HETATM   17  C24 UNL     1       2.890  52.711  -9.879  1.00  0.00    -0.031 C 
HETATM   18  C25 UNL     1       2.115  52.559  -8.534  1.00  0.00     0.016 C 
HETATM   19  C26 UNL     1       2.144  51.808 -10.945  1.00  0.00     0.024 C 
HETATM   20  C27 UNL     1       3.017  51.268 -12.103  1.00  0.00     0.010 C 
HETATM   21  C28 UNL     1       2.233  50.430 -13.141  1.00  0.00     0.011 C 
HETATM   22  C29 UNL     1       0.986  51.173 -13.670  1.00  0.00    -0.029 C 
HETATM   23  C30 UNL     1       1.477  52.415 -14.482  1.00  0.00     0.016 C 
ENDROOT
BRANCH   1  24
HETATM   24  C7  UNL     1       0.296  50.057 -16.043  1.00  0.00    -0.014 C 
HETATM   25  C8  UNL     1      -0.094  48.633 -16.448  1.00  0.00     0.010 C 
BRANCH  24  26
HETATM   26  C6  UNL     1      -0.436  51.092 -16.946  1.00  0.00     0.008 C 
BRANCH  26  27
HETATM   27  C5  UNL     1      -0.096  51.062 -18.443  1.00  0.00     0.028 C 
BRANCH  27  28
HETATM   28  C4  UNL     1       0.325  52.398 -18.990  1.00  0.00    -0.025 C 
HETATM   29  C2  UNL     1       0.604  52.707 -20.271  1.00  0.00    -0.091 C 
HETATM   30  C1  UNL     1       1.059  54.094 -20.645  1.00  0.00     0.042 C 
HETATM   31  C3  UNL     1       0.491  51.756 -21.430  1.00  0.00     0.042 C 
ENDBRANCH  27  28
ENDBRANCH  26  27
ENDBRANCH  24  26
ENDBRANCH   1  24
TORSDOF 4
ENDMDL
MODEL 8
REMARK minimizedAffinity -7.17719364
REMARK CNNscore 0.317035347
REMARK CNNaffinity 5.46343803
REMARK  4 active torsions:
REMARK  status: ('A' for Active; 'I' for Inactive)
REMARK    1  A    between atoms: C4_4  and  C5_5 
REMARK    2  A    between atoms: C5_5  and  C6_6 
REMARK    3  A    between atoms: C6_6  and  C7_7 
REMARK    4  A    between atoms: C7_7  and  C9_9 
ROOT
HETATM    1  C9  UNL     1       1.397  68.873 -39.197  1.00  0.00    -0.002 C 
HETATM    2  C10 UNL     1       2.262  68.900 -40.499  1.00  0.00     0.007 C 
HETATM    3  C11 UNL     1       3.665  68.374 -40.138  1.00  0.00     0.015 C 
HETATM    4  C12 UNL     1       3.702  68.415 -38.599  1.00  0.00    -0.013 C 
HETATM    5  C13 UNL     1       4.037  69.894 -38.227  1.00  0.00     0.021 C 
HETATM    6  C14 UNL     1       4.672  67.520 -37.830  1.00  0.00    -0.070 C 
HETATM    7  C15 UNL     1       5.542  66.679 -38.418  1.00  0.00    -0.022 C 
HETATM    8  C16 UNL     1       6.366  65.664 -37.681  1.00  0.00     0.034 C 
HETATM    9  C17 UNL     1       5.861  65.414 -36.243  1.00  0.00     0.013 C 
HETATM   10  C18 UNL     1       6.673  64.346 -35.411  1.00  0.00     0.018 C 
HETATM   11  C19 UNL     1       7.885  63.768 -36.173  1.00  0.00     0.023 C 
HETATM   12  C20 UNL     1       5.749  63.157 -35.064  1.00  0.00     0.023 C 
HETATM   13  C21 UNL     1       7.175  64.894 -34.064  1.00  0.00     0.135 C 
HETATM   14  O1  UNL     1       8.268  64.566 -33.593  1.00  0.00    -0.297 OA
HETATM   15  C22 UNL     1       6.269  65.787 -33.248  1.00  0.00     0.080 C 
HETATM   16  C23 UNL     1       5.192  66.478 -34.068  1.00  0.00     0.017 C 
HETATM   17  C24 UNL     1       5.620  66.778 -35.520  1.00  0.00    -0.031 C 
HETATM   18  C25 UNL     1       6.908  67.656 -35.503  1.00  0.00     0.016 C 
HETATM   19  C26 UNL     1       4.514  67.597 -36.302  1.00  0.00     0.024 C 
HETATM   20  C27 UNL     1       3.046  67.291 -35.916  1.00  0.00     0.010 C 
HETATM   21  C28 UNL     1       2.003  68.084 -36.740  1.00  0.00     0.011 C 
HETATM   22  C29 UNL     1       2.231  67.943 -38.262  1.00  0.00    -0.029 C 
HETATM   23  C30 UNL     1       1.963  66.453 -38.649  1.00  0.00     0.016 C 
ENDROOT
BRANCH   1  24
HETATM   24  C7  UNL     1      -0.098  68.550 -39.511  1.00  0.00    -0.014 C 
HETATM   25  C8  UNL     1      -1.063  69.456 -38.742  1.00  0.00     0.010 C 
BRANCH  24  26
HETATM   26  C6  UNL     1      -0.351  68.673 -41.042  1.00  0.00     0.008 C 
BRANCH  26  27
HETATM   27  C5  UNL     1      -1.089  69.932 -41.519  1.00  0.00     0.028 C 
BRANCH  27  28
HETATM   28  C4  UNL     1      -2.574  69.740 -41.658  1.00  0.00    -0.025 C 
HETATM   29  C2  UNL     1      -3.215  68.872 -42.465  1.00  0.00    -0.091 C 
HETATM   30  C1  UNL     1      -4.721  68.839 -42.516  1.00  0.00     0.042 C 
HETATM   31  C3  UNL     1      -2.541  67.870 -43.361  1.00  0.00     0.042 C 
ENDBRANCH  27  28
ENDBRANCH  26  27
ENDBRANCH  24  26
ENDBRANCH   1  24
TORSDOF 4
ENDMDL
MODEL 9
REMARK minimizedAffinity -6.81374121
REMARK CNNscore 0.310427547
REMARK CNNaffinity 5.41652822
REMARK  4 active torsions:
REMARK  status: ('A' for Active; 'I' for Inactive)
REMARK    1  A    between atoms: C4_4  and  C5_5 
REMARK    2  A    between atoms: C5_5  and  C6_6 
REMARK    3  A    between atoms: C6_6  and  C7_7 
REMARK    4  A    between atoms: C7_7  and  C9_9 
ROOT
HETATM    1  C9  UNL     1       1.695  69.071 -39.572  1.00  0.00    -0.002 C 
HETATM    2  C10 UNL     1       2.669  69.149 -40.793  1.00  0.00     0.007 C 
HETATM    3  C11 UNL     1       4.038  68.611 -40.333  1.00  0.00     0.015 C 
HETATM    4  C12 UNL     1       3.943  68.593 -38.796  1.00  0.00    -0.013 C 
HETATM    5  C13 UNL     1       4.238  70.058 -38.341  1.00  0.00     0.021 C 
HETATM    6  C14 UNL     1       4.848  67.670 -37.981  1.00  0.00    -0.070 C 
HETATM    7  C15 UNL     1       5.768  66.854 -38.524  1.00  0.00    -0.022 C 
HETATM    8  C16 UNL     1       6.531  65.813 -37.757  1.00  0.00     0.034 C 
HETATM    9  C17 UNL     1       5.905  65.507 -36.378  1.00  0.00     0.013 C 
HETATM   10  C18 UNL     1       6.648  64.410 -35.520  1.00  0.00     0.018 C 
HETATM   11  C19 UNL     1       7.922  63.862 -36.198  1.00  0.00     0.023 C 
HETATM   12  C20 UNL     1       5.703  63.207 -35.299  1.00  0.00     0.023 C 
HETATM   13  C21 UNL     1       7.030  64.906 -34.116  1.00  0.00     0.135 C 
HETATM   14  O1  UNL     1       8.081  64.562 -33.566  1.00  0.00    -0.297 OA
HETATM   15  C22 UNL     1       6.054  65.767 -33.347  1.00  0.00     0.080 C 
HETATM   16  C23 UNL     1       5.049  66.488 -34.230  1.00  0.00     0.017 C 
HETATM   17  C24 UNL     1       5.597  66.842 -35.628  1.00  0.00    -0.031 C 
HETATM   18  C25 UNL     1       6.876  67.721 -35.467  1.00  0.00     0.016 C 
HETATM   19  C26 UNL     1       4.559  67.690 -36.470  1.00  0.00     0.024 C 
HETATM   20  C27 UNL     1       3.065  67.368 -36.223  1.00  0.00     0.010 C 
HETATM   21  C28 UNL     1       2.093  68.191 -37.103  1.00  0.00     0.011 C 
HETATM   22  C29 UNL     1       2.450  68.108 -38.604  1.00  0.00    -0.029 C 
HETATM   23  C30 UNL     1       2.223  66.633 -39.068  1.00  0.00     0.016 C 
ENDROOT
BRANCH   1  24
HETATM   24  C7  UNL     1       0.234  68.759 -40.024  1.00  0.00    -0.014 C 
HETATM   25  C8  UNL     1       0.040  67.285 -40.389  1.00  0.00     0.010 C 
BRANCH  24  26
HETATM   26  C6  UNL     1      -0.761  69.169 -38.900  1.00  0.00     0.008 C 
BRANCH  26  27
HETATM   27  C5  UNL     1      -0.543  70.545 -38.255  1.00  0.00     0.028 C 
BRANCH  27  28
HETATM   28  C4  UNL     1      -1.518  70.852 -37.152  1.00  0.00    -0.025 C 
HETATM   29  C2  UNL     1      -2.782  71.301 -37.277  1.00  0.00    -0.091 C 
HETATM   30  C1  UNL     1      -3.615  71.603 -36.059  1.00  0.00     0.042 C 
HETATM   31  C3  UNL     1      -3.487  71.534 -38.585  1.00  0.00     0.042 C 
ENDBRANCH  27  28
ENDBRANCH  26  27
ENDBRANCH  24  26
ENDBRANCH   1  24
TORSDOF 4
ENDMDL
