MODEL 1
REMARK minimizedAffinity -7.17886066
REMARK CNNscore 0.763508976
REMARK CNNaffinity 7.05064726
REMARK  8 active torsions:
REMARK  status: ('A' for Active; 'I' for Inactive)
REMARK    1  A    between atoms: C2_2  and  C3_3 
REMARK    2  A    between atoms: C2_2  and  C9_12 
REMARK    3  A    between atoms: C3_3  and  C4_4 
REMARK    4  A    between atoms: C4_4  and  C5_5 
REMARK    5  A    between atoms: C6_6  and  C7_7 
REMARK    6  A    between atoms: C6_6  and  C8_9 
REMARK    7  A    between atoms: C7_7  and  O1_8 
REMARK    8  A    between atoms: C8_9  and  O3_11 
ROOT
HETATM    1  C9  UNL     1      -1.055  53.273  -9.815  1.00  0.00    -0.002 C 
HETATM    2  C10 UNL     1      -0.626  53.212 -11.315  1.00  0.00     0.006 C 
HETATM    3  C11 UNL     1       0.660  54.057 -11.455  1.00  0.00     0.011 C 
HETATM    4  C12 UNL     1       1.159  54.242 -10.013  1.00  0.00    -0.032 C 
HETATM    5  C13 UNL     1       1.895  52.916  -9.639  1.00  0.00     0.016 C 
HETATM    6  C14 UNL     1       2.109  55.449  -9.744  1.00  0.00     0.004 C 
HETATM    7  C15 UNL     1       3.373  55.502 -10.605  1.00  0.00     0.007 C 
HETATM    8  C16 UNL     1       4.660  54.888 -10.063  1.00  0.00     0.007 C 
HETATM    9  C17 UNL     1       4.710  54.432  -8.595  1.00  0.00     0.010 C 
HETATM   10  C18 UNL     1       6.168  54.411  -8.021  1.00  0.00     0.018 C 
HETATM   11  C19 UNL     1       7.068  53.484  -8.866  1.00  0.00     0.023 C 
HETATM   12  C20 UNL     1       6.835  55.798  -7.956  1.00  0.00     0.023 C 
HETATM   13  C21 UNL     1       6.105  53.861  -6.588  1.00  0.00     0.135 C 
HETATM   14  O4  UNL     1       6.842  52.960  -6.185  1.00  0.00    -0.297 OA
HETATM   15  C22 UNL     1       5.136  54.529  -5.647  1.00  0.00     0.080 C 
HETATM   16  C23 UNL     1       3.744  54.526  -6.249  1.00  0.00     0.018 C 
HETATM   17  C24 UNL     1       3.721  55.126  -7.651  1.00  0.00    -0.026 A 
HETATM   18  C25 UNL     1       3.425  56.599  -7.790  1.00  0.00     0.021 A 
HETATM   19  C26 UNL     1       2.371  55.594  -8.232  1.00  0.00    -0.027 A 
HETATM   20  C27 UNL     1       1.086  55.598  -7.388  1.00  0.00     0.011 C 
HETATM   21  C28 UNL     1       0.080  54.488  -7.749  1.00  0.00     0.011 C 
HETATM   22  C29 UNL     1      -0.218  54.467  -9.258  1.00  0.00    -0.032 C 
HETATM   23  C30 UNL     1      -0.937  55.801  -9.618  1.00  0.00     0.016 C 
ENDROOT
BRANCH   1  24
HETATM   24  C2  UNL     1      -2.593  53.118  -9.593  1.00  0.00    -0.014 C 
HETATM   25  C1  UNL     1      -3.101  51.702  -9.299  1.00  0.00     0.010 C 
BRANCH  24  26
HETATM   26  C3  UNL     1      -3.388  53.784 -10.742  1.00  0.00     0.008 C 
BRANCH  26  27
HETATM   27  C4  UNL     1      -4.210  52.831 -11.626  1.00  0.00     0.028 C 
BRANCH  27  28
HETATM   28  C5  UNL     1      -3.572  52.473 -12.938  1.00  0.00    -0.011 C 
HETATM   29  C6  UNL     1      -3.179  51.239 -13.321  1.00  0.00     0.035 C 
BRANCH  29  30
HETATM   30  C7  UNL     1      -3.398  49.987 -12.526  1.00  0.00     0.209 C 
BRANCH  30  31
HETATM   31  O1  UNL     1      -2.786  48.896 -13.204  1.00  0.00    -0.396 OA
HETATM   32  H12 UNL     1      -3.098  48.086 -12.767  1.00  0.00     0.209 HD
ENDBRANCH  30  31
ENDBRANCH  29  30
BRANCH  29  33
HETATM   33  C8  UNL     1      -2.541  51.025 -14.644  1.00  0.00     0.173 C 
HETATM   34  O2  UNL     1      -1.346  51.093 -14.876  1.00  0.00    -0.646 OA
BRANCH  33  35
HETATM   35  O3  UNL     1      -3.409  50.729 -15.627  1.00  0.00    -0.773 OA
HETATM   36  H13 UNL     1      -2.839  50.643 -16.419  1.00  0.00     0.167 HD
ENDBRANCH  33  35
ENDBRANCH  29  33
ENDBRANCH  27  28
ENDBRANCH  26  27
ENDBRANCH  24  26
ENDBRANCH   1  24
TORSDOF 8
ENDMDL
MODEL 2
REMARK minimizedAffinity -7.28538132
REMARK CNNscore 0.578191757
REMARK CNNaffinity 6.89966536
REMARK  8 active torsions:
REMARK  status: ('A' for Active; 'I' for Inactive)
REMARK    1  A    between atoms: C2_2  and  C3_3 
REMARK    2  A    between atoms: C2_2  and  C9_12 
REMARK    3  A    between atoms: C3_3  and  C4_4 
REMARK    4  A    between atoms: C4_4  and  C5_5 
REMARK    5  A    between atoms: C6_6  and  C7_7 
REMARK    6  A    between atoms: C6_6  and  C8_9 
REMARK    7  A    between atoms: C7_7  and  O1_8 
REMARK    8  A    between atoms: C8_9  and  O3_11 
ROOT
HETATM    1  C9  UNL     1       2.270  54.806  -8.503  1.00  0.00    -0.002 C 
HETATM    2  C10 UNL     1       2.295  54.010  -7.160  1.00  0.00     0.006 C 
HETATM    3  C11 UNL     1       0.893  53.389  -6.973  1.00  0.00     0.011 C 
HETATM    4  C12 UNL     1       0.237  53.492  -8.359  1.00  0.00    -0.032 C 
HETATM    5  C13 UNL     1       0.812  52.306  -9.196  1.00  0.00     0.016 C 
HETATM    6  C14 UNL     1      -1.321  53.447  -8.408  1.00  0.00     0.004 C 
HETATM    7  C15 UNL     1      -1.969  52.221  -7.759  1.00  0.00     0.007 C 
HETATM    8  C16 UNL     1      -2.309  51.017  -8.632  1.00  0.00     0.007 C 
HETATM    9  C17 UNL     1      -2.195  51.147 -10.161  1.00  0.00     0.010 C 
HETATM   10  C18 UNL     1      -3.113  50.131 -10.922  1.00  0.00     0.018 C 
HETATM   11  C19 UNL     1      -2.768  48.683 -10.513  1.00  0.00     0.023 C 
HETATM   12  C20 UNL     1      -4.619  50.349 -10.685  1.00  0.00     0.023 C 
HETATM   13  C21 UNL     1      -2.853  50.292 -12.427  1.00  0.00     0.135 C 
HETATM   14  O4  UNL     1      -2.623  49.338 -13.171  1.00  0.00    -0.297 OA
HETATM   15  C22 UNL     1      -2.966  51.686 -12.989  1.00  0.00     0.080 C 
HETATM   16  C23 UNL     1      -2.063  52.629 -12.218  1.00  0.00     0.018 C 
HETATM   17  C24 UNL     1      -2.317  52.572 -10.716  1.00  0.00    -0.026 A 
HETATM   18  C25 UNL     1      -3.300  53.550 -10.123  1.00  0.00     0.021 A 
HETATM   19  C26 UNL     1      -1.818  53.738  -9.837  1.00  0.00    -0.027 A 
HETATM   20  C27 UNL     1      -1.201  55.006 -10.451  1.00  0.00     0.011 C 
HETATM   21  C28 UNL     1       0.326  55.121 -10.280  1.00  0.00     0.011 C 
HETATM   22  C29 UNL     1       0.745  54.925  -8.812  1.00  0.00    -0.032 C 
HETATM   23  C30 UNL     1       0.151  56.107  -7.988  1.00  0.00     0.016 C 
ENDROOT
BRANCH   1  24
HETATM   24  C2  UNL     1       3.255  56.018  -8.535  1.00  0.00    -0.014 C 
HETATM   25  C1  UNL     1       2.928  57.187  -7.599  1.00  0.00     0.010 C 
BRANCH  24  26
HETATM   26  C3  UNL     1       3.495  56.498  -9.987  1.00  0.00     0.008 C 
BRANCH  26  27
HETATM   27  C4  UNL     1       4.461  55.641 -10.822  1.00  0.00     0.028 C 
BRANCH  27  28
HETATM   28  C5  UNL     1       4.880  54.349 -10.182  1.00  0.00    -0.011 C 
HETATM   29  C6  UNL     1       5.970  54.163  -9.406  1.00  0.00     0.035 C 
BRANCH  29  30
HETATM   30  C7  UNL     1       6.909  55.249  -8.975  1.00  0.00     0.209 C 
BRANCH  30  31
HETATM   31  O1  UNL     1       6.636  55.585  -7.620  1.00  0.00    -0.396 OA
HETATM   32  H12 UNL     1       7.126  56.403  -7.431  1.00  0.00     0.209 HD
ENDBRANCH  30  31
ENDBRANCH  29  30
BRANCH  29  33
HETATM   33  C8  UNL     1       6.281  52.822  -8.849  1.00  0.00     0.173 C 
HETATM   34  O2  UNL     1       6.917  51.949  -9.413  1.00  0.00    -0.646 OA
BRANCH  33  35
HETATM   35  O3  UNL     1       5.798  52.621  -7.610  1.00  0.00    -0.773 OA
HETATM   36  H13 UNL     1       6.067  51.702  -7.406  1.00  0.00     0.167 HD
ENDBRANCH  33  35
ENDBRANCH  29  33
ENDBRANCH  27  28
ENDBRANCH  26  27
ENDBRANCH  24  26
ENDBRANCH   1  24
TORSDOF 8
ENDMDL
MODEL 3
REMARK minimizedAffinity -7.37112665
REMARK CNNscore 0.544647396
REMARK CNNaffinity 6.11288309
REMARK  8 active torsions:
REMARK  status: ('A' for Active; 'I' for Inactive)
REMARK    1  A    between atoms: C2_2  and  C3_3 
REMARK    2  A    between atoms: C2_2  and  C9_12 
REMARK    3  A    between atoms: C3_3  and  C4_4 
REMARK    4  A    between atoms: C4_4  and  C5_5 
REMARK    5  A    between atoms: C6_6  and  C7_7 
REMARK    6  A    between atoms: C6_6  and  C8_9 
REMARK    7  A    between atoms: C7_7  and  O1_8 
REMARK    8  A    between atoms: C8_9  and  O3_11 
ROOT
HETATM    1  C9  UNL     1     -11.866  46.538 -28.537  1.00  0.00    -0.002 C 
HETATM    2  C10 UNL     1     -12.011  45.272 -29.438  1.00  0.00     0.006 C 
HETATM    3  C11 UNL     1     -12.885  44.259 -28.663  1.00  0.00     0.011 C 
HETATM    4  C12 UNL     1     -13.541  45.090 -27.549  1.00  0.00    -0.032 C 
HETATM    5  C13 UNL     1     -14.740  45.835 -28.218  1.00  0.00     0.016 C 
HETATM    6  C14 UNL     1     -14.054  44.313 -26.298  1.00  0.00     0.004 C 
HETATM    7  C15 UNL     1     -15.047  43.183 -26.580  1.00  0.00     0.007 C 
HETATM    8  C16 UNL     1     -16.542  43.480 -26.508  1.00  0.00     0.007 C 
HETATM    9  C17 UNL     1     -17.008  44.834 -25.945  1.00  0.00     0.010 C 
HETATM   10  C18 UNL     1     -18.464  44.776 -25.367  1.00  0.00     0.018 C 
HETATM   11  C19 UNL     1     -19.457  44.315 -26.454  1.00  0.00     0.023 C 
HETATM   12  C20 UNL     1     -18.617  43.844 -24.150  1.00  0.00     0.023 C 
HETATM   13  C21 UNL     1     -18.851  46.193 -24.917  1.00  0.00     0.135 C 
HETATM   14  O4  UNL     1     -19.911  46.730 -25.241  1.00  0.00    -0.297 OA
HETATM   15  C22 UNL     1     -17.898  46.892 -23.981  1.00  0.00     0.080 C 
HETATM   16  C23 UNL     1     -16.507  46.918 -24.584  1.00  0.00     0.018 C 
HETATM   17  C24 UNL     1     -16.028  45.529 -24.991  1.00  0.00    -0.026 A 
HETATM   18  C25 UNL     1     -15.227  44.731 -23.992  1.00  0.00     0.021 A 
HETATM   19  C26 UNL     1     -14.519  45.302 -25.210  1.00  0.00    -0.027 A 
HETATM   20  C27 UNL     1     -13.483  46.395 -24.898  1.00  0.00     0.011 C 
HETATM   21  C28 UNL     1     -12.870  47.069 -26.141  1.00  0.00     0.011 C 
HETATM   22  C29 UNL     1     -12.330  46.028 -27.137  1.00  0.00    -0.032 C 
HETATM   23  C30 UNL     1     -11.146  45.284 -26.450  1.00  0.00     0.016 C 
ENDROOT
BRANCH   1  24
HETATM   24  C2  UNL     1     -10.539  47.329 -28.772  1.00  0.00    -0.014 C 
HETATM   25  C1  UNL     1     -10.457  48.155 -30.060  1.00  0.00     0.010 C 
BRANCH  24  26
HETATM   26  C3  UNL     1      -9.307  46.407 -28.603  1.00  0.00     0.008 C 
BRANCH  26  27
HETATM   27  C4  UNL     1      -7.941  47.111 -28.600  1.00  0.00     0.028 C 
BRANCH  27  28
HETATM   28  C5  UNL     1      -7.082  46.838 -29.802  1.00  0.00    -0.011 C 
HETATM   29  C6  UNL     1      -5.824  47.286 -29.999  1.00  0.00     0.035 C 
BRANCH  29  30
HETATM   30  C7  UNL     1      -5.028  48.068 -28.998  1.00  0.00     0.209 C 
BRANCH  30  31
HETATM   31  O1  UNL     1      -4.690  49.330 -29.561  1.00  0.00    -0.396 OA
HETATM   32  H12 UNL     1      -4.030  49.731 -28.970  1.00  0.00     0.209 HD
ENDBRANCH  30  31
ENDBRANCH  29  30
BRANCH  29  33
HETATM   33  C8  UNL     1      -5.091  46.957 -31.248  1.00  0.00     0.173 C 
HETATM   34  O2  UNL     1      -4.417  47.734 -31.902  1.00  0.00    -0.646 OA
BRANCH  33  35
HETATM   35  O3  UNL     1      -5.216  45.675 -31.632  1.00  0.00    -0.773 OA
HETATM   36  H13 UNL     1      -4.702  45.633 -32.465  1.00  0.00     0.167 HD
ENDBRANCH  33  35
ENDBRANCH  29  33
ENDBRANCH  27  28
ENDBRANCH  26  27
ENDBRANCH  24  26
ENDBRANCH   1  24
TORSDOF 8
ENDMDL
MODEL 4
REMARK minimizedAffinity -7.85541391
REMARK CNNscore 0.45923683
REMARK CNNaffinity 6.61162949
REMARK  8 active torsions:
REMARK  status: ('A' for Active; 'I' for Inactive)
REMARK    1  A    between atoms: C2_2  and  C3_3 
REMARK    2  A    between atoms: C2_2  and  C9_12 
REMARK    3  A    between atoms: C3_3  and  C4_4 
REMARK    4  A    between atoms: C4_4  and  C5_5 
REMARK    5  A    between atoms: C6_6  and  C7_7 
REMARK    6  A    between atoms: C6_6  and  C8_9 
REMARK    7  A    between atoms: C7_7  and  O1_8 
REMARK    8  A    between atoms: C8_9  and  O3_11 
ROOT
HETATM    1  C9  UNL     1       2.082  54.476  -9.909  1.00  0.00    -0.002 C 
HETATM    2  C10 UNL     1       3.048  53.435 -10.557  1.00  0.00     0.006 C 
HETATM    3  C11 UNL     1       4.477  53.783 -10.085  1.00  0.00     0.011 C 
HETATM    4  C12 UNL     1       4.269  54.730  -8.892  1.00  0.00    -0.032 C 
HETATM    5  C13 UNL     1       3.931  53.815  -7.672  1.00  0.00     0.016 C 
HETATM    6  C14 UNL     1       5.459  55.665  -8.517  1.00  0.00     0.004 C 
HETATM    7  C15 UNL     1       6.789  54.964  -8.233  1.00  0.00     0.007 C 
HETATM    8  C16 UNL     1       7.142  54.608  -6.792  1.00  0.00     0.007 C 
HETATM    9  C17 UNL     1       6.264  55.152  -5.651  1.00  0.00     0.010 C 
HETATM   10  C18 UNL     1       7.034  55.245  -4.290  1.00  0.00     0.018 C 
HETATM   11  C19 UNL     1       7.583  53.860  -3.885  1.00  0.00     0.023 C 
HETATM   12  C20 UNL     1       8.210  56.240  -4.303  1.00  0.00     0.023 C 
HETATM   13  C21 UNL     1       6.042  55.714  -3.215  1.00  0.00     0.135 C 
HETATM   14  O4  UNL     1       5.914  55.144  -2.130  1.00  0.00    -0.297 OA
HETATM   15  C22 UNL     1       5.265  56.970  -3.512  1.00  0.00     0.080 C 
HETATM   16  C23 UNL     1       4.542  56.831  -4.837  1.00  0.00     0.018 C 
HETATM   17  C24 UNL     1       5.483  56.434  -5.969  1.00  0.00    -0.026 A 
HETATM   18  C25 UNL     1       6.106  57.532  -6.795  1.00  0.00     0.021 A 
HETATM   19  C26 UNL     1       5.028  56.664  -7.424  1.00  0.00    -0.027 A 
HETATM   20  C27 UNL     1       3.720  57.402  -7.755  1.00  0.00     0.011 C 
HETATM   21  C28 UNL     1       2.583  56.493  -8.261  1.00  0.00     0.011 C 
HETATM   22  C29 UNL     1       3.052  55.598  -9.422  1.00  0.00    -0.032 C 
HETATM   23  C30 UNL     1       3.400  56.525 -10.624  1.00  0.00     0.016 C 
ENDROOT
BRANCH   1  24
HETATM   24  C2  UNL     1       0.796  54.752 -10.751  1.00  0.00    -0.014 C 
HETATM   25  C1  UNL     1      -0.423  55.277  -9.983  1.00  0.00     0.010 C 
BRANCH  24  26
HETATM   26  C3  UNL     1       0.436  53.530 -11.629  1.00  0.00     0.008 C 
BRANCH  26  27
HETATM   27  C4  UNL     1      -0.994  52.987 -11.465  1.00  0.00     0.028 C 
BRANCH  27  28
HETATM   28  C5  UNL     1      -1.500  52.171 -12.620  1.00  0.00    -0.011 C 
HETATM   29  C6  UNL     1      -2.782  52.093 -13.037  1.00  0.00     0.035 C 
BRANCH  29  30
HETATM   30  C7  UNL     1      -3.917  52.888 -12.465  1.00  0.00     0.209 C 
BRANCH  30  31
HETATM   31  O1  UNL     1      -4.298  53.889 -13.401  1.00  0.00    -0.396 OA
HETATM   32  H12 UNL     1      -4.900  54.493 -12.934  1.00  0.00     0.209 HD
ENDBRANCH  30  31
ENDBRANCH  29  30
BRANCH  29  33
HETATM   33  C8  UNL     1      -3.152  51.229 -14.186  1.00  0.00     0.173 C 
HETATM   34  O2  UNL     1      -3.329  51.606 -15.331  1.00  0.00    -0.646 OA
BRANCH  33  35
HETATM   35  O3  UNL     1      -3.280  49.928 -13.871  1.00  0.00    -0.773 OA
HETATM   36  H13 UNL     1      -3.542  49.511 -14.717  1.00  0.00     0.167 HD
ENDBRANCH  33  35
ENDBRANCH  29  33
ENDBRANCH  27  28
ENDBRANCH  26  27
ENDBRANCH  24  26
ENDBRANCH   1  24
TORSDOF 8
ENDMDL
MODEL 5
REMARK minimizedAffinity -8.10426521
REMARK CNNscore 0.423434466
REMARK CNNaffinity 5.88611746
REMARK  8 active torsions:
REMARK  status: ('A' for Active; 'I' for Inactive)
REMARK    1  A    between atoms: C2_2  and  C3_3 
REMARK    2  A    between atoms: C2_2  and  C9_12 
REMARK    3  A    between atoms: C3_3  and  C4_4 
REMARK    4  A    between atoms: C4_4  and  C5_5 
REMARK    5  A    between atoms: C6_6  and  C7_7 
REMARK    6  A    between atoms: C6_6  and  C8_9 
REMARK    7  A    between atoms: C7_7  and  O1_8 
REMARK    8  A    between atoms: C8_9  and  O3_11 
ROOT
HETATM    1  C9  UNL     1       6.450  64.955 -35.251  1.00  0.00    -0.002 C 
HETATM    2  C10 UNL     1       6.049  65.563 -33.870  1.00  0.00     0.006 C 
HETATM    3  C11 UNL     1       5.374  66.924 -34.150  1.00  0.00     0.011 C 
HETATM    4  C12 UNL     1       5.042  66.889 -35.650  1.00  0.00    -0.032 C 
HETATM    5  C13 UNL     1       3.732  66.048 -35.780  1.00  0.00     0.016 C 
HETATM    6  C14 UNL     1       4.842  68.262 -36.362  1.00  0.00     0.004 C 
HETATM    7  C15 UNL     1       3.782  69.179 -35.748  1.00  0.00     0.007 C 
HETATM    8  C16 UNL     1       2.362  69.140 -36.305  1.00  0.00     0.007 C 
HETATM    9  C17 UNL     1       2.087  68.351 -37.597  1.00  0.00     0.010 C 
HETATM   10  C18 UNL     1       0.824  68.873 -38.364  1.00  0.00     0.018 C 
HETATM   11  C19 UNL     1      -0.423  68.803 -37.458  1.00  0.00     0.023 C 
HETATM   12  C20 UNL     1       0.959  70.317 -38.883  1.00  0.00     0.023 C 
HETATM   13  C21 UNL     1       0.599  67.963 -39.581  1.00  0.00     0.135 C 
HETATM   14  O4  UNL     1      -0.494  67.462 -39.848  1.00  0.00    -0.297 OA
HETATM   15  C22 UNL     1       1.775  67.758 -40.501  1.00  0.00     0.080 C 
HETATM   16  C23 UNL     1       2.969  67.257 -39.712  1.00  0.00     0.018 C 
HETATM   17  C24 UNL     1       3.294  68.157 -38.524  1.00  0.00    -0.026 A 
HETATM   18  C25 UNL     1       4.301  69.263 -38.723  1.00  0.00     0.021 A 
HETATM   19  C26 UNL     1       4.693  68.057 -37.883  1.00  0.00    -0.027 A 
HETATM   20  C27 UNL     1       5.801  67.182 -38.491  1.00  0.00     0.011 C 
HETATM   21  C28 UNL     1       6.097  65.888 -37.708  1.00  0.00     0.011 C 
HETATM   22  C29 UNL     1       6.341  66.176 -36.217  1.00  0.00    -0.032 C 
HETATM   23  C30 UNL     1       7.641  67.028 -36.105  1.00  0.00     0.016 C 
ENDROOT
BRANCH   1  24
HETATM   24  C2  UNL     1       7.694  64.013 -35.187  1.00  0.00    -0.014 C 
HETATM   25  C1  UNL     1       8.420  63.751 -36.511  1.00  0.00     0.010 C 
BRANCH  24  26
HETATM   26  C3  UNL     1       7.352  62.694 -34.451  1.00  0.00     0.008 C 
BRANCH  26  27
HETATM   27  C4  UNL     1       8.488  61.661 -34.370  1.00  0.00     0.028 C 
BRANCH  27  28
HETATM   28  C5  UNL     1       9.359  61.769 -33.150  1.00  0.00    -0.011 C 
HETATM   29  C6  UNL     1      10.517  62.456 -33.058  1.00  0.00     0.035 C 
BRANCH  29  30
HETATM   30  C7  UNL     1      11.092  63.312 -34.146  1.00  0.00     0.209 C 
BRANCH  30  31
HETATM   31  O1  UNL     1      12.502  63.124 -34.186  1.00  0.00    -0.396 OA
HETATM   32  H12 UNL     1      12.860  63.818 -34.765  1.00  0.00     0.209 HD
ENDBRANCH  30  31
ENDBRANCH  29  30
BRANCH  29  33
HETATM   33  C8  UNL     1      11.293  62.464 -31.792  1.00  0.00     0.173 C 
HETATM   34  O2  UNL     1      11.758  63.451 -31.250  1.00  0.00    -0.646 OA
BRANCH  33  35
HETATM   35  O3  UNL     1      11.456  61.246 -31.245  1.00  0.00    -0.773 OA
HETATM   36  H13 UNL     1      11.996  61.424 -30.447  1.00  0.00     0.167 HD
ENDBRANCH  33  35
ENDBRANCH  29  33
ENDBRANCH  27  28
ENDBRANCH  26  27
ENDBRANCH  24  26
ENDBRANCH   1  24
TORSDOF 8
ENDMDL
MODEL 6
REMARK minimizedAffinity -7.01529074
REMARK CNNscore 0.390479267
REMARK CNNaffinity 5.65637636
REMARK  8 active torsions:
REMARK  status: ('A' for Active; 'I' for Inactive)
REMARK    1  A    between atoms: C2_2  and  C3_3 
REMARK    2  A    between atoms: C2_2  and  C9_12 
REMARK    3  A    between atoms: C3_3  and  C4_4 
REMARK    4  A    between atoms: C4_4  and  C5_5 
REMARK    5  A    between atoms: C6_6  and  C7_7 
REMARK    6  A    between atoms: C6_6  and  C8_9 
REMARK    7  A    between atoms: C7_7  and  O1_8 
REMARK    8  A    between atoms: C8_9  and  O3_11 
ROOT
HETATM    1  C9  UNL     1     -12.380  46.306 -27.007  1.00  0.00    -0.002 C 
HETATM    2  C10 UNL     1     -13.170  47.376 -27.824  1.00  0.00     0.006 C 
HETATM    3  C11 UNL     1     -12.163  48.054 -28.780  1.00  0.00     0.011 C 
HETATM    4  C12 UNL     1     -10.946  47.116 -28.787  1.00  0.00    -0.032 C 
HETATM    5  C13 UNL     1     -11.310  45.950 -29.761  1.00  0.00     0.016 C 
HETATM    6  C14 UNL     1      -9.580  47.733 -29.215  1.00  0.00     0.004 C 
HETATM    7  C15 UNL     1      -9.560  48.412 -30.587  1.00  0.00     0.007 C 
HETATM    8  C16 UNL     1      -9.115  47.603 -31.802  1.00  0.00     0.007 C 
HETATM    9  C17 UNL     1      -8.498  46.211 -31.588  1.00  0.00     0.010 C 
HETATM   10  C18 UNL     1      -7.563  45.778 -32.770  1.00  0.00     0.018 C 
HETATM   11  C19 UNL     1      -8.343  45.783 -34.103  1.00  0.00     0.023 C 
HETATM   12  C20 UNL     1      -6.317  46.668 -32.940  1.00  0.00     0.023 C 
HETATM   13  C21 UNL     1      -7.077  44.348 -32.491  1.00  0.00     0.135 C 
HETATM   14  O4  UNL     1      -7.136  43.447 -33.329  1.00  0.00    -0.297 OA
HETATM   15  C22 UNL     1      -6.442  44.099 -31.147  1.00  0.00     0.080 C 
HETATM   16  C23 UNL     1      -7.382  44.536 -30.040  1.00  0.00     0.018 C 
HETATM   17  C24 UNL     1      -7.851  45.975 -30.217  1.00  0.00    -0.026 A 
HETATM   18  C25 UNL     1      -7.065  47.069 -29.537  1.00  0.00     0.021 A 
HETATM   19  C26 UNL     1      -8.443  46.715 -29.000  1.00  0.00    -0.027 A 
HETATM   20  C27 UNL     1      -8.445  46.088 -27.596  1.00  0.00     0.011 C 
HETATM   21  C28 UNL     1      -9.825  45.602 -27.113  1.00  0.00     0.011 C 
HETATM   22  C29 UNL     1     -10.891  46.703 -27.257  1.00  0.00    -0.032 C 
HETATM   23  C30 UNL     1     -10.506  47.863 -26.292  1.00  0.00     0.016 C 
ENDROOT
BRANCH   1  24
HETATM   24  C2  UNL     1     -12.974  46.031 -25.588  1.00  0.00    -0.014 C 
HETATM   25  C1  UNL     1     -13.305  44.571 -25.259  1.00  0.00     0.010 C 
BRANCH  24  26
HETATM   26  C3  UNL     1     -14.170  46.969 -25.298  1.00  0.00     0.008 C 
BRANCH  26  27
HETATM   27  C4  UNL     1     -14.878  46.751 -23.950  1.00  0.00     0.028 C 
BRANCH  27  28
HETATM   28  C5  UNL     1     -16.353  47.034 -23.954  1.00  0.00    -0.011 C 
HETATM   29  C6  UNL     1     -17.328  46.165 -24.297  1.00  0.00     0.035 C 
BRANCH  29  30
HETATM   30  C7  UNL     1     -17.106  44.726 -24.652  1.00  0.00     0.209 C 
BRANCH  30  31
HETATM   31  O1  UNL     1     -16.804  44.633 -26.040  1.00  0.00    -0.396 OA
HETATM   32  H12 UNL     1     -16.847  43.690 -26.272  1.00  0.00     0.209 HD
ENDBRANCH  30  31
ENDBRANCH  29  30
BRANCH  29  33
HETATM   33  C8  UNL     1     -18.753  46.581 -24.276  1.00  0.00     0.173 C 
HETATM   34  O2  UNL     1     -19.209  47.581 -24.803  1.00  0.00    -0.646 OA
BRANCH  33  35
HETATM   35  O3  UNL     1     -19.559  45.736 -23.609  1.00  0.00    -0.773 OA
HETATM   36  H13 UNL     1     -20.439  46.161 -23.671  1.00  0.00     0.167 HD
ENDBRANCH  33  35
ENDBRANCH  29  33
ENDBRANCH  27  28
ENDBRANCH  26  27
ENDBRANCH  24  26
ENDBRANCH   1  24
TORSDOF 8
ENDMDL
MODEL 7
REMARK minimizedAffinity -7.9393692
REMARK CNNscore 0.305167496
REMARK CNNaffinity 6.34107065
REMARK  8 active torsions:
REMARK  status: ('A' for Active; 'I' for Inactive)
REMARK    1  A    between atoms: C2_2  and  C3_3 
REMARK    2  A    between atoms: C2_2  and  C9_12 
REMARK    3  A    between atoms: C3_3  and  C4_4 
REMARK    4  A    between atoms: C4_4  and  C5_5 
REMARK    5  A    between atoms: C6_6  and  C7_7 
REMARK    6  A    between atoms: C6_6  and  C8_9 
REMARK    7  A    between atoms: C7_7  and  O1_8 
REMARK    8  A    between atoms: C8_9  and  O3_11 
ROOT
HETATM    1  C9  UNL     1      -6.378  49.307 -22.047  1.00  0.00    -0.002 C 
HETATM    2  C10 UNL     1      -6.912  49.644 -20.620  1.00  0.00     0.006 C 
HETATM    3  C11 UNL     1      -5.684  49.754 -19.689  1.00  0.00     0.011 C 
HETATM    4  C12 UNL     1      -4.486  49.880 -20.643  1.00  0.00    -0.032 C 
HETATM    5  C13 UNL     1      -4.457  51.373 -21.101  1.00  0.00     0.016 C 
HETATM    6  C14 UNL     1      -3.087  49.490 -20.077  1.00  0.00     0.004 C 
HETATM    7  C15 UNL     1      -2.655  50.230 -18.808  1.00  0.00     0.007 C 
HETATM    8  C16 UNL     1      -1.802  51.488 -18.943  1.00  0.00     0.007 C 
HETATM    9  C17 UNL     1      -1.220  51.852 -20.319  1.00  0.00     0.010 C 
HETATM   10  C18 UNL     1       0.067  52.740 -20.213  1.00  0.00     0.018 C 
HETATM   11  C19 UNL     1      -0.238  54.039 -19.436  1.00  0.00     0.023 C 
HETATM   12  C20 UNL     1       1.256  52.039 -19.529  1.00  0.00     0.023 C 
HETATM   13  C21 UNL     1       0.505  53.111 -21.638  1.00  0.00     0.135 C 
HETATM   14  O4  UNL     1       0.765  54.267 -21.977  1.00  0.00    -0.297 OA
HETATM   15  C22 UNL     1       0.682  51.974 -22.611  1.00  0.00     0.080 C 
HETATM   16  C23 UNL     1      -0.587  51.145 -22.674  1.00  0.00     0.018 C 
HETATM   17  C24 UNL     1      -1.043  50.682 -21.295  1.00  0.00    -0.026 A 
HETATM   18  C25 UNL     1      -0.574  49.334 -20.807  1.00  0.00     0.021 A 
HETATM   19  C26 UNL     1      -2.033  49.503 -21.202  1.00  0.00    -0.027 A 
HETATM   20  C27 UNL     1      -2.459  48.705 -22.445  1.00  0.00     0.011 C 
HETATM   21  C28 UNL     1      -3.896  48.987 -22.925  1.00  0.00     0.011 C 
HETATM   22  C29 UNL     1      -4.910  48.853 -21.776  1.00  0.00    -0.032 C 
HETATM   23  C30 UNL     1      -4.916  47.363 -21.321  1.00  0.00     0.016 C 
ENDROOT
BRANCH   1  24
HETATM   24  C2  UNL     1      -7.387  48.494 -22.921  1.00  0.00    -0.014 C 
HETATM   25  C1  UNL     1      -8.443  47.681 -22.164  1.00  0.00     0.010 C 
BRANCH  24  26
HETATM   26  C3  UNL     1      -6.642  47.631 -23.967  1.00  0.00     0.008 C 
BRANCH  26  27
HETATM   27  C4  UNL     1      -6.963  47.940 -25.439  1.00  0.00     0.028 C 
BRANCH  27  28
HETATM   28  C5  UNL     1      -8.426  47.981 -25.775  1.00  0.00    -0.011 C 
HETATM   29  C6  UNL     1      -8.955  48.141 -27.007  1.00  0.00     0.035 C 
BRANCH  29  30
HETATM   30  C7  UNL     1      -8.160  48.217 -28.275  1.00  0.00     0.209 C 
BRANCH  30  31
HETATM   31  O1  UNL     1      -8.589  49.349 -29.024  1.00  0.00    -0.396 OA
HETATM   32  H12 UNL     1      -8.192  49.266 -29.907  1.00  0.00     0.209 HD
ENDBRANCH  30  31
ENDBRANCH  29  30
BRANCH  29  33
HETATM   33  C8  UNL     1     -10.427  48.184 -27.198  1.00  0.00     0.173 C 
HETATM   34  O2  UNL     1     -11.058  47.521 -28.003  1.00  0.00    -0.646 OA
BRANCH  33  35
HETATM   35  O3  UNL     1     -11.059  49.042 -26.378  1.00  0.00    -0.773 OA
HETATM   36  H13 UNL     1     -11.998  48.965 -26.645  1.00  0.00     0.167 HD
ENDBRANCH  33  35
ENDBRANCH  29  33
ENDBRANCH  27  28
ENDBRANCH  26  27
ENDBRANCH  24  26
ENDBRANCH   1  24
TORSDOF 8
ENDMDL
MODEL 8
REMARK minimizedAffinity -7.55100441
REMARK CNNscore 0.260884523
REMARK CNNaffinity 5.51213503
REMARK  8 active torsions:
REMARK  status: ('A' for Active; 'I' for Inactive)
REMARK    1  A    between atoms: C2_2  and  C3_3 
REMARK    2  A    between atoms: C2_2  and  C9_12 
REMARK    3  A    between atoms: C3_3  and  C4_4 
REMARK    4  A    between atoms: C4_4  and  C5_5 
REMARK    5  A    between atoms: C6_6  and  C7_7 
REMARK    6  A    between atoms: C6_6  and  C8_9 
REMARK    7  A    between atoms: C7_7  and  O1_8 
REMARK    8  A    between atoms: C8_9  and  O3_11 
ROOT
HETATM    1  C9  UNL     1       3.259  66.910 -37.627  1.00  0.00    -0.002 C 
HETATM    2  C10 UNL     1       4.195  67.610 -38.663  1.00  0.00     0.006 C 
HETATM    3  C11 UNL     1       5.629  67.553 -38.092  1.00  0.00     0.011 C 
HETATM    4  C12 UNL     1       5.559  66.499 -36.975  1.00  0.00    -0.032 C 
HETATM    5  C13 UNL     1       5.630  65.112 -37.689  1.00  0.00     0.016 C 
HETATM    6  C14 UNL     1       6.658  66.565 -35.871  1.00  0.00     0.004 C 
HETATM    7  C15 UNL     1       8.104  66.509 -36.371  1.00  0.00     0.007 C 
HETATM    8  C16 UNL     1       8.812  65.159 -36.428  1.00  0.00     0.007 C 
HETATM    9  C17 UNL     1       8.140  63.935 -35.783  1.00  0.00     0.010 C 
HETATM   10  C18 UNL     1       9.171  62.828 -35.372  1.00  0.00     0.018 C 
HETATM   11  C19 UNL     1       9.984  62.367 -36.600  1.00  0.00     0.023 C 
HETATM   12  C20 UNL     1      10.162  63.272 -34.280  1.00  0.00     0.023 C 
HETATM   13  C21 UNL     1       8.385  61.628 -34.824  1.00  0.00     0.135 C 
HETATM   14  O4  UNL     1       8.580  60.472 -35.203  1.00  0.00    -0.297 OA
HETATM   15  C22 UNL     1       7.392  61.912 -33.726  1.00  0.00     0.080 C 
HETATM   16  C23 UNL     1       6.421  62.988 -34.172  1.00  0.00     0.018 C 
HETATM   17  C24 UNL     1       7.136  64.241 -34.665  1.00  0.00    -0.026 A 
HETATM   18  C25 UNL     1       7.400  65.347 -33.672  1.00  0.00     0.021 A 
HETATM   19  C26 UNL     1       6.342  65.562 -34.744  1.00  0.00    -0.027 A 
HETATM   20  C27 UNL     1       4.904  65.673 -34.214  1.00  0.00     0.011 C 
HETATM   21  C28 UNL     1       3.822  65.750 -35.310  1.00  0.00     0.011 C 
HETATM   22  C29 UNL     1       4.145  66.843 -36.344  1.00  0.00    -0.032 C 
HETATM   23  C30 UNL     1       4.085  68.218 -35.614  1.00  0.00     0.016 C 
ENDROOT
BRANCH   1  24
HETATM   24  C2  UNL     1       1.793  67.449 -37.638  1.00  0.00    -0.014 C 
HETATM   25  C1  UNL     1       0.933  67.110 -36.415  1.00  0.00     0.010 C 
BRANCH  24  26
HETATM   26  C3  UNL     1       1.077  67.081 -38.960  1.00  0.00     0.008 C 
BRANCH  26  27
HETATM   27  C4  UNL     1       0.951  68.215 -39.990  1.00  0.00     0.028 C 
BRANCH  27  28
HETATM   28  C5  UNL     1      -0.344  68.975 -39.943  1.00  0.00    -0.011 C 
HETATM   29  C6  UNL     1      -1.254  69.056 -40.937  1.00  0.00     0.035 C 
BRANCH  29  30
HETATM   30  C7  UNL     1      -1.166  68.319 -42.239  1.00  0.00     0.209 C 
BRANCH  30  31
HETATM   31  O1  UNL     1      -2.455  67.816 -42.574  1.00  0.00    -0.396 OA
HETATM   32  H12 UNL     1      -2.330  67.198 -43.314  1.00  0.00     0.209 HD
ENDBRANCH  30  31
ENDBRANCH  29  30
BRANCH  29  33
HETATM   33  C8  UNL     1      -2.490  69.861 -40.766  1.00  0.00     0.173 C 
HETATM   34  O2  UNL     1      -2.533  71.055 -40.526  1.00  0.00    -0.646 OA
BRANCH  33  35
HETATM   35  O3  UNL     1      -3.625  69.154 -40.909  1.00  0.00    -0.773 OA
HETATM   36  H13 UNL     1      -4.329  69.815 -40.747  1.00  0.00     0.167 HD
ENDBRANCH  33  35
ENDBRANCH  29  33
ENDBRANCH  27  28
ENDBRANCH  26  27
ENDBRANCH  24  26
ENDBRANCH   1  24
TORSDOF 8
ENDMDL
MODEL 9
REMARK minimizedAffinity -8.52624702
REMARK CNNscore 0.199633166
REMARK CNNaffinity 6.34275484
REMARK  8 active torsions:
REMARK  status: ('A' for Active; 'I' for Inactive)
REMARK    1  A    between atoms: C2_2  and  C3_3 
REMARK    2  A    between atoms: C2_2  and  C9_12 
REMARK    3  A    between atoms: C3_3  and  C4_4 
REMARK    4  A    between atoms: C4_4  and  C5_5 
REMARK    5  A    between atoms: C6_6  and  C7_7 
REMARK    6  A    between atoms: C6_6  and  C8_9 
REMARK    7  A    between atoms: C7_7  and  O1_8 
REMARK    8  A    between atoms: C8_9  and  O3_11 
ROOT
HETATM    1  C9  UNL     1      -0.626  49.408 -18.345  1.00  0.00    -0.002 C 
HETATM    2  C10 UNL     1      -1.760  48.337 -18.277  1.00  0.00     0.006 C 
HETATM    3  C11 UNL     1      -2.780  48.683 -19.384  1.00  0.00     0.011 C 
HETATM    4  C12 UNL     1      -2.036  49.667 -20.301  1.00  0.00    -0.032 C 
HETATM    5  C13 UNL     1      -1.119  48.793 -21.214  1.00  0.00     0.016 C 
HETATM    6  C14 UNL     1      -2.909  50.600 -21.194  1.00  0.00     0.004 C 
HETATM    7  C15 UNL     1      -3.911  49.892 -22.110  1.00  0.00     0.007 C 
HETATM    8  C16 UNL     1      -3.500  49.575 -23.545  1.00  0.00     0.007 C 
HETATM    9  C17 UNL     1      -2.189  50.162 -24.094  1.00  0.00     0.010 C 
HETATM   10  C18 UNL     1      -2.192  50.287 -25.657  1.00  0.00     0.018 C 
HETATM   11  C19 UNL     1      -2.436  48.908 -26.306  1.00  0.00     0.023 C 
HETATM   12  C20 UNL     1      -3.246  51.268 -26.204  1.00  0.00     0.023 C 
HETATM   13  C21 UNL     1      -0.811  50.799 -26.094  1.00  0.00     0.135 C 
HETATM   14  O4  UNL     1      -0.152  50.263 -26.986  1.00  0.00    -0.297 OA
HETATM   15  C22 UNL     1      -0.311  52.054 -25.428  1.00  0.00     0.080 C 
HETATM   16  C23 UNL     1      -0.331  51.884 -23.921  1.00  0.00     0.018 C 
HETATM   17  C24 UNL     1      -1.697  51.443 -23.408  1.00  0.00    -0.026 A 
HETATM   18  C25 UNL     1      -2.672  52.509 -22.974  1.00  0.00     0.021 A 
HETATM   19  C26 UNL     1      -2.022  51.635 -21.912  1.00  0.00    -0.027 A 
HETATM   20  C27 UNL     1      -1.064  52.377 -20.966  1.00  0.00     0.011 C 
HETATM   21  C28 UNL     1      -0.301  51.467 -19.984  1.00  0.00     0.011 C 
HETATM   22  C29 UNL     1      -1.258  50.533 -19.223  1.00  0.00    -0.032 C 
HETATM   23  C30 UNL     1      -2.175  51.420 -18.329  1.00  0.00     0.016 C 
ENDROOT
BRANCH   1  24
HETATM   24  C2  UNL     1       0.073  49.674 -16.973  1.00  0.00    -0.014 C 
HETATM   25  C1  UNL     1      -0.739  49.336 -15.717  1.00  0.00     0.010 C 
BRANCH  24  26
HETATM   26  C3  UNL     1       0.648  51.109 -16.913  1.00  0.00     0.008 C 
BRANCH  26  27
HETATM   27  C4  UNL     1       1.100  51.590 -15.524  1.00  0.00     0.028 C 
BRANCH  27  28
HETATM   28  C5  UNL     1       2.323  50.908 -14.982  1.00  0.00    -0.011 C 
HETATM   29  C6  UNL     1       2.446  50.349 -13.759  1.00  0.00     0.035 C 
BRANCH  29  30
HETATM   30  C7  UNL     1       1.338  50.237 -12.755  1.00  0.00     0.209 C 
BRANCH  30  31
HETATM   31  O1  UNL     1       1.751  50.850 -11.540  1.00  0.00    -0.396 OA
HETATM   32  H12 UNL     1       1.096  50.603 -10.865  1.00  0.00     0.209 HD
ENDBRANCH  30  31
ENDBRANCH  29  30
BRANCH  29  33
HETATM   33  C8  UNL     1       3.724  49.721 -13.339  1.00  0.00     0.173 C 
HETATM   34  O2  UNL     1       3.865  48.957 -12.400  1.00  0.00    -0.646 OA
BRANCH  33  35
HETATM   35  O3  UNL     1       4.775  50.059 -14.106  1.00  0.00    -0.773 OA
HETATM   36  H13 UNL     1       5.525  49.587 -13.688  1.00  0.00     0.167 HD
ENDBRANCH  33  35
ENDBRANCH  29  33
ENDBRANCH  27  28
ENDBRANCH  26  27
ENDBRANCH  24  26
ENDBRANCH   1  24
TORSDOF 8
ENDMDL
