MODEL 1
REMARK minimizedAffinity -8.15266705
REMARK CNNscore 0.580332279
REMARK CNNaffinity 7.19973707
REMARK  15 active torsions:
REMARK  status: ('A' for Active; 'I' for Inactive)
REMARK    1  A    between atoms: C4_5  and  O2_6 
REMARK    2  A    between atoms: C7_10  and  O4_11 
REMARK    3  A    between atoms: O4_11  and  C8_12 
REMARK    4  A    between atoms: C8_12  and  C9_14 
REMARK    5  A    between atoms: C9_14  and  C11_16 
REMARK    6  A    between atoms: C11_16  and  O6_17 
REMARK    7  A    between atoms: C11_16  and  C12_18 
REMARK    8  A    between atoms: C14_20  and  C15_21 
REMARK    9  A    between atoms: C15_21  and  C16_22 
REMARK   10  A    between atoms: C15_21  and  C17_24 
REMARK   11  A    between atoms: C16_22  and  O7_23 
REMARK   12  A    between atoms: C17_24  and  C18_25 
REMARK   13  A    between atoms: C18_25  and  C19_26 
REMARK   14  A    between atoms: C19_26  and  C20_27 
REMARK   15  A    between atoms: C20_27  and  C21_28 
ROOT
HETATM    1  O4  UNL     1      -0.244   7.329  11.737  1.00  0.00    -0.312 OA
ENDROOT
BRANCH   1   2
HETATM    2  C7  UNL     1       0.481   8.452  11.210  1.00  0.00     0.170 C 
HETATM    3  C6  UNL     1       1.963   8.131  11.237  1.00  0.00     0.127 A 
HETATM    4  C5  UNL     1       2.794   8.517  12.447  1.00  0.00     0.223 A 
HETATM    5  O3  UNL     1       2.763   9.329  11.260  1.00  0.00    -0.360 OA
HETATM    6  C27 UNL     1       2.482   7.058  10.274  1.00  0.00    -0.003 C 
HETATM    7  C4  UNL     1       4.124   7.892  12.750  1.00  0.00     0.199 C 
HETATM    8  O1  UNL     1       5.128   8.909  12.817  1.00  0.00    -0.348 OA
HETATM    9  C30 UNL     1       4.611   6.857  11.721  1.00  0.00     0.082 C 
HETATM   10  C3  UNL     1       6.391   8.283  12.566  1.00  0.00     0.205 C 
HETATM   11  C2  UNL     1       6.101   7.076  11.742  1.00  0.00    -0.056 C 
HETATM   12  C1  UNL     1       7.018   6.325  11.116  1.00  0.00     0.017 C 
HETATM   13  C29 UNL     1       4.041   7.052  10.304  1.00  0.00     0.027 C 
HETATM   14  C25 UNL     1       1.982   7.414   8.830  1.00  0.00    -0.007 C 
HETATM   15  C28 UNL     1       1.991   5.661  10.722  1.00  0.00     0.019 C 
HETATM   16  C24 UNL     1       0.460   7.678   8.788  1.00  0.00     0.007 C 
HETATM   17  C26 UNL     1       2.346   6.377   7.762  1.00  0.00     0.011 C 
HETATM   18  C23 UNL     1       0.048   8.770   9.773  1.00  0.00     0.036 C 
BRANCH   7  19
HETATM   19  O2  UNL     1       4.055   7.278  14.035  1.00  0.00    -0.363 OA
HETATM   20  H5  UNL     1       3.970   8.028  14.648  1.00  0.00     0.213 HD
ENDBRANCH   7  19
ENDBRANCH   1   2
BRANCH   1  21
HETATM   21  C8  UNL     1      -1.265   7.621  12.590  1.00  0.00     0.266 C 
HETATM   22  O5  UNL     1      -2.102   8.492  12.406  1.00  0.00    -0.265 OA
BRANCH  21  23
HETATM   23  C9  UNL     1      -1.244   6.677  13.774  1.00  0.00     0.114 C 
HETATM   24  C10 UNL     1       0.086   5.921  13.797  1.00  0.00     0.023 C 
BRANCH  23  25
HETATM   25  C11 UNL     1      -2.501   5.785  13.789  1.00  0.00     0.159 C 
BRANCH  25  26
HETATM   26  O6  UNL     1      -2.617   5.174  15.083  1.00  0.00    -0.390 OA
HETATM   27  H13 UNL     1      -1.758   4.776  15.298  1.00  0.00     0.210 HD
ENDBRANCH  25  26
BRANCH  25  28
HETATM   28  C12 UNL     1      -2.583   4.710  12.709  1.00  0.00    -0.058 C 
HETATM   29  C13 UNL     1      -1.767   4.978  11.468  1.00  0.00     0.046 C 
HETATM   30  C14 UNL     1      -3.328   3.588  12.831  1.00  0.00    -0.015 C 
BRANCH  30  31
HETATM   31  C15 UNL     1      -3.409   2.434  11.841  1.00  0.00     0.032 C 
BRANCH  31  32
HETATM   32  C16 UNL     1      -2.001   2.024  11.369  1.00  0.00     0.172 C 
BRANCH  32  33
HETATM   33  O7  UNL     1      -1.873   2.083   9.953  1.00  0.00    -0.400 OA
HETATM   34  H21 UNL     1      -1.672   3.007   9.725  1.00  0.00     0.209 HD
ENDBRANCH  32  33
ENDBRANCH  31  32
BRANCH  31  35
HETATM   35  C17 UNL     1      -4.341   2.849  10.683  1.00  0.00     0.010 C 
BRANCH  35  36
HETATM   36  C18 UNL     1      -5.810   3.086  11.060  1.00  0.00     0.001 C 
BRANCH  36  37
HETATM   37  C19 UNL     1      -6.434   1.966  11.905  1.00  0.00     0.000 C 
BRANCH  37  38
HETATM   38  C20 UNL     1      -7.668   2.418  12.694  1.00  0.00    -0.000 C 
BRANCH  38  39
HETATM   39  C21 UNL     1      -7.280   3.370  13.826  1.00  0.00    -0.005 C 
HETATM   40  C22 UNL     1      -7.777   4.783  13.561  1.00  0.00     0.005 C 
ENDBRANCH  38  39
ENDBRANCH  37  38
ENDBRANCH  36  37
ENDBRANCH  35  36
ENDBRANCH  31  35
ENDBRANCH  30  31
ENDBRANCH  25  28
ENDBRANCH  23  25
ENDBRANCH  21  23
ENDBRANCH   1  21
TORSDOF 15
ENDMDL
MODEL 2
REMARK minimizedAffinity -8.3961153
REMARK CNNscore 0.482985556
REMARK CNNaffinity 6.78942728
REMARK  15 active torsions:
REMARK  status: ('A' for Active; 'I' for Inactive)
REMARK    1  A    between atoms: C4_5  and  O2_6 
REMARK    2  A    between atoms: C7_10  and  O4_11 
REMARK    3  A    between atoms: O4_11  and  C8_12 
REMARK    4  A    between atoms: C8_12  and  C9_14 
REMARK    5  A    between atoms: C9_14  and  C11_16 
REMARK    6  A    between atoms: C11_16  and  O6_17 
REMARK    7  A    between atoms: C11_16  and  C12_18 
REMARK    8  A    between atoms: C14_20  and  C15_21 
REMARK    9  A    between atoms: C15_21  and  C16_22 
REMARK   10  A    between atoms: C15_21  and  C17_24 
REMARK   11  A    between atoms: C16_22  and  O7_23 
REMARK   12  A    between atoms: C17_24  and  C18_25 
REMARK   13  A    between atoms: C18_25  and  C19_26 
REMARK   14  A    between atoms: C19_26  and  C20_27 
REMARK   15  A    between atoms: C20_27  and  C21_28 
ROOT
HETATM    1  O4  UNL     1      -0.505   7.202  11.834  1.00  0.00    -0.312 OA
ENDROOT
BRANCH   1   2
HETATM    2  C7  UNL     1       0.167   8.390  11.383  1.00  0.00     0.170 C 
HETATM    3  C6  UNL     1       1.664   8.149  11.424  1.00  0.00     0.127 A 
HETATM    4  C5  UNL     1       2.451   8.513  12.670  1.00  0.00     0.223 A 
HETATM    5  O3  UNL     1       2.396   9.385  11.528  1.00  0.00    -0.360 OA
HETATM    6  C27 UNL     1       2.259   7.159  10.416  1.00  0.00    -0.003 C 
HETATM    7  C4  UNL     1       3.808   7.945  12.966  1.00  0.00     0.199 C 
HETATM    8  O1  UNL     1       4.752   9.010  13.109  1.00  0.00    -0.348 OA
HETATM    9  C30 UNL     1       4.369   6.995  11.894  1.00  0.00     0.082 C 
HETATM   10  C3  UNL     1       6.052   8.468  12.851  1.00  0.00     0.205 C 
HETATM   11  C2  UNL     1       5.844   7.293  11.958  1.00  0.00    -0.056 C 
HETATM   12  C1  UNL     1       6.812   6.628  11.311  1.00  0.00     0.017 C 
HETATM   13  C29 UNL     1       3.815   7.237  10.478  1.00  0.00     0.027 C 
HETATM   14  C25 UNL     1       1.765   7.566   8.983  1.00  0.00    -0.007 C 
HETATM   15  C28 UNL     1       1.837   5.716  10.778  1.00  0.00     0.019 C 
HETATM   16  C24 UNL     1       0.232   7.749   8.923  1.00  0.00     0.007 C 
HETATM   17  C26 UNL     1       2.204   6.611   7.868  1.00  0.00     0.011 C 
HETATM   18  C23 UNL     1      -0.257   8.762   9.957  1.00  0.00     0.036 C 
BRANCH   7  19
HETATM   19  O2  UNL     1       3.749   7.259  14.216  1.00  0.00    -0.363 OA
HETATM   20  H5  UNL     1       3.613   7.969  14.866  1.00  0.00     0.213 HD
ENDBRANCH   7  19
ENDBRANCH   1   2
BRANCH   1  21
HETATM   21  C8  UNL     1      -1.651   7.393  12.544  1.00  0.00     0.266 C 
HETATM   22  O5  UNL     1      -2.294   8.432  12.565  1.00  0.00    -0.265 OA
BRANCH  21  23
HETATM   23  C9  UNL     1      -2.041   6.119  13.263  1.00  0.00     0.114 C 
HETATM   24  C10 UNL     1      -3.026   5.330  12.400  1.00  0.00     0.023 C 
BRANCH  23  25
HETATM   25  C11 UNL     1      -2.523   6.420  14.695  1.00  0.00     0.159 C 
BRANCH  25  26
HETATM   26  O6  UNL     1      -2.221   5.293  15.531  1.00  0.00    -0.390 OA
HETATM   27  H13 UNL     1      -2.552   4.497  15.082  1.00  0.00     0.210 HD
ENDBRANCH  25  26
BRANCH  25  28
HETATM   28  C12 UNL     1      -3.997   6.789  14.850  1.00  0.00    -0.058 C 
HETATM   29  C13 UNL     1      -4.269   8.235  15.181  1.00  0.00     0.046 C 
HETATM   30  C14 UNL     1      -5.005   5.898  14.708  1.00  0.00    -0.015 C 
BRANCH  30  31
HETATM   31  C15 UNL     1      -6.497   6.192  14.770  1.00  0.00     0.032 C 
BRANCH  31  32
HETATM   32  C16 UNL     1      -7.067   5.821  16.153  1.00  0.00     0.172 C 
BRANCH  32  33
HETATM   33  O7  UNL     1      -7.040   6.922  17.055  1.00  0.00    -0.400 OA
HETATM   34  H21 UNL     1      -7.836   7.452  16.878  1.00  0.00     0.209 HD
ENDBRANCH  32  33
ENDBRANCH  31  32
BRANCH  31  35
HETATM   35  C17 UNL     1      -7.189   5.449  13.608  1.00  0.00     0.010 C 
BRANCH  35  36
HETATM   36  C18 UNL     1      -7.593   3.995  13.890  1.00  0.00     0.001 C 
BRANCH  36  37
HETATM   37  C19 UNL     1      -7.093   2.987  12.846  1.00  0.00     0.000 C 
BRANCH  37  38
HETATM   38  C20 UNL     1      -6.113   3.596  11.838  1.00  0.00    -0.000 C 
BRANCH  38  39
HETATM   39  C21 UNL     1      -5.387   2.507  11.047  1.00  0.00    -0.005 C 
HETATM   40  C22 UNL     1      -6.034   1.146  11.253  1.00  0.00     0.005 C 
ENDBRANCH  38  39
ENDBRANCH  37  38
ENDBRANCH  36  37
ENDBRANCH  35  36
ENDBRANCH  31  35
ENDBRANCH  30  31
ENDBRANCH  25  28
ENDBRANCH  23  25
ENDBRANCH  21  23
ENDBRANCH   1  21
TORSDOF 15
ENDMDL
MODEL 3
REMARK minimizedAffinity -8.26746273
REMARK CNNscore 0.413516998
REMARK CNNaffinity 6.82744789
REMARK  15 active torsions:
REMARK  status: ('A' for Active; 'I' for Inactive)
REMARK    1  A    between atoms: C4_5  and  O2_6 
REMARK    2  A    between atoms: C7_10  and  O4_11 
REMARK    3  A    between atoms: O4_11  and  C8_12 
REMARK    4  A    between atoms: C8_12  and  C9_14 
REMARK    5  A    between atoms: C9_14  and  C11_16 
REMARK    6  A    between atoms: C11_16  and  O6_17 
REMARK    7  A    between atoms: C11_16  and  C12_18 
REMARK    8  A    between atoms: C14_20  and  C15_21 
REMARK    9  A    between atoms: C15_21  and  C16_22 
REMARK   10  A    between atoms: C15_21  and  C17_24 
REMARK   11  A    between atoms: C16_22  and  O7_23 
REMARK   12  A    between atoms: C17_24  and  C18_25 
REMARK   13  A    between atoms: C18_25  and  C19_26 
REMARK   14  A    between atoms: C19_26  and  C20_27 
REMARK   15  A    between atoms: C20_27  and  C21_28 
ROOT
HETATM    1  O4  UNL     1      -0.334   7.150  11.748  1.00  0.00    -0.312 OA
ENDROOT
BRANCH   1   2
HETATM    2  C7  UNL     1       0.329   8.332  11.271  1.00  0.00     0.170 C 
HETATM    3  C6  UNL     1       1.827   8.092  11.292  1.00  0.00     0.127 A 
HETATM    4  C5  UNL     1       2.633   8.474  12.521  1.00  0.00     0.223 A 
HETATM    5  O3  UNL     1       2.560   9.330  11.368  1.00  0.00    -0.360 OA
HETATM    6  C27 UNL     1       2.408   7.090  10.289  1.00  0.00    -0.003 C 
HETATM    7  C4  UNL     1       3.994   7.911  12.804  1.00  0.00     0.199 C 
HETATM    8  O1  UNL     1       4.940   8.979  12.919  1.00  0.00    -0.348 OA
HETATM    9  C30 UNL     1       4.541   6.947  11.736  1.00  0.00     0.082 C 
HETATM   10  C3  UNL     1       6.236   8.434  12.648  1.00  0.00     0.205 C 
HETATM   11  C2  UNL     1       6.016   7.247  11.774  1.00  0.00    -0.056 C 
HETATM   12  C1  UNL     1       6.975   6.574  11.122  1.00  0.00     0.017 C 
HETATM   13  C29 UNL     1       3.964   7.169  10.326  1.00  0.00     0.027 C 
HETATM   14  C25 UNL     1       1.891   7.477   8.858  1.00  0.00    -0.007 C 
HETATM   15  C28 UNL     1       1.993   5.651  10.677  1.00  0.00     0.019 C 
HETATM   16  C24 UNL     1       0.357   7.658   8.819  1.00  0.00     0.007 C 
HETATM   17  C26 UNL     1       2.315   6.507   7.750  1.00  0.00     0.011 C 
HETATM   18  C23 UNL     1      -0.117   8.684   9.847  1.00  0.00     0.036 C 
BRANCH   7  19
HETATM   19  O2  UNL     1       3.956   7.242  14.064  1.00  0.00    -0.363 OA
HETATM   20  H5  UNL     1       3.828   7.960  14.706  1.00  0.00     0.213 HD
ENDBRANCH   7  19
ENDBRANCH   1   2
BRANCH   1  21
HETATM   21  C8  UNL     1      -0.999   7.270  12.931  1.00  0.00     0.266 C 
HETATM   22  O5  UNL     1      -0.482   7.581  13.994  1.00  0.00    -0.265 OA
BRANCH  21  23
HETATM   23  C9  UNL     1      -2.477   7.013  12.729  1.00  0.00     0.114 C 
HETATM   24  C10 UNL     1      -3.235   8.341  12.773  1.00  0.00     0.023 C 
BRANCH  23  25
HETATM   25  C11 UNL     1      -2.987   5.938  13.708  1.00  0.00     0.159 C 
BRANCH  25  26
HETATM   26  O6  UNL     1      -1.884   5.474  14.500  1.00  0.00    -0.390 OA
HETATM   27  H13 UNL     1      -1.160   5.249  13.892  1.00  0.00     0.210 HD
ENDBRANCH  25  26
BRANCH  25  28
HETATM   28  C12 UNL     1      -3.706   4.743  13.087  1.00  0.00    -0.058 C 
HETATM   29  C13 UNL     1      -2.821   3.765  12.356  1.00  0.00     0.046 C 
HETATM   30  C14 UNL     1      -5.043   4.554  13.171  1.00  0.00    -0.015 C 
BRANCH  30  31
HETATM   31  C15 UNL     1      -5.829   3.359  12.649  1.00  0.00     0.032 C 
BRANCH  31  32
HETATM   32  C16 UNL     1      -5.889   3.378  11.110  1.00  0.00     0.172 C 
BRANCH  32  33
HETATM   33  O7  UNL     1      -5.660   2.089  10.550  1.00  0.00    -0.400 OA
HETATM   34  H21 UNL     1      -6.511   1.617  10.570  1.00  0.00     0.209 HD
ENDBRANCH  32  33
ENDBRANCH  31  32
BRANCH  31  35
HETATM   35  C17 UNL     1      -7.223   3.366  13.312  1.00  0.00     0.010 C 
BRANCH  35  36
HETATM   36  C18 UNL     1      -8.292   4.218  12.613  1.00  0.00     0.001 C 
BRANCH  36  37
HETATM   37  C19 UNL     1      -8.103   5.732  12.783  1.00  0.00     0.000 C 
BRANCH  37  38
HETATM   38  C20 UNL     1      -8.872   6.307  13.978  1.00  0.00    -0.000 C 
BRANCH  38  39
HETATM   39  C21 UNL     1      -7.958   7.150  14.868  1.00  0.00    -0.005 C 
HETATM   40  C22 UNL     1      -8.626   7.483  16.194  1.00  0.00     0.005 C 
ENDBRANCH  38  39
ENDBRANCH  37  38
ENDBRANCH  36  37
ENDBRANCH  35  36
ENDBRANCH  31  35
ENDBRANCH  30  31
ENDBRANCH  25  28
ENDBRANCH  23  25
ENDBRANCH  21  23
ENDBRANCH   1  21
TORSDOF 15
ENDMDL
MODEL 4
REMARK minimizedAffinity -8.30565071
REMARK CNNscore 0.393562675
REMARK CNNaffinity 6.91772985
REMARK  15 active torsions:
REMARK  status: ('A' for Active; 'I' for Inactive)
REMARK    1  A    between atoms: C4_5  and  O2_6 
REMARK    2  A    between atoms: C7_10  and  O4_11 
REMARK    3  A    between atoms: O4_11  and  C8_12 
REMARK    4  A    between atoms: C8_12  and  C9_14 
REMARK    5  A    between atoms: C9_14  and  C11_16 
REMARK    6  A    between atoms: C11_16  and  O6_17 
REMARK    7  A    between atoms: C11_16  and  C12_18 
REMARK    8  A    between atoms: C14_20  and  C15_21 
REMARK    9  A    between atoms: C15_21  and  C16_22 
REMARK   10  A    between atoms: C15_21  and  C17_24 
REMARK   11  A    between atoms: C16_22  and  O7_23 
REMARK   12  A    between atoms: C17_24  and  C18_25 
REMARK   13  A    between atoms: C18_25  and  C19_26 
REMARK   14  A    between atoms: C19_26  and  C20_27 
REMARK   15  A    between atoms: C20_27  and  C21_28 
ROOT
HETATM    1  O4  UNL     1      -0.402   6.649  11.667  1.00  0.00    -0.312 OA
ENDROOT
BRANCH   1   2
HETATM    2  C7  UNL     1      -0.027   8.034  11.598  1.00  0.00     0.170 C 
HETATM    3  C6  UNL     1       1.470   8.145  11.818  1.00  0.00     0.127 A 
HETATM    4  C5  UNL     1       2.010   8.358  13.221  1.00  0.00     0.223 A 
HETATM    5  O3  UNL     1       1.838   9.451  12.303  1.00  0.00    -0.360 OA
HETATM    6  C27 UNL     1       2.398   7.608  10.723  1.00  0.00    -0.003 C 
HETATM    7  C4  UNL     1       3.434   8.065  13.593  1.00  0.00     0.199 C 
HETATM    8  O1  UNL     1       4.046   9.250  14.112  1.00  0.00    -0.348 OA
HETATM    9  C30 UNL     1       4.326   7.573  12.440  1.00  0.00     0.082 C 
HETATM   10  C3  UNL     1       5.462   9.108  13.947  1.00  0.00     0.205 C 
HETATM   11  C2  UNL     1       5.657   8.180  12.797  1.00  0.00    -0.056 C 
HETATM   12  C1  UNL     1       6.823   7.943  12.180  1.00  0.00     0.017 C 
HETATM   13  C29 UNL     1       3.865   8.027  11.042  1.00  0.00     0.027 C 
HETATM   14  C25 UNL     1       1.954   8.235   9.355  1.00  0.00    -0.007 C 
HETATM   15  C28 UNL     1       2.339   6.062  10.690  1.00  0.00     0.019 C 
HETATM   16  C24 UNL     1       0.440   8.065   9.098  1.00  0.00     0.007 C 
HETATM   17  C26 UNL     1       2.734   7.720   8.141  1.00  0.00     0.011 C 
HETATM   18  C23 UNL     1      -0.395   8.644  10.240  1.00  0.00     0.036 C 
BRANCH   7  19
HETATM   19  O2  UNL     1       3.439   7.093  14.637  1.00  0.00    -0.363 OA
HETATM   20  H5  UNL     1       3.059   7.565  15.397  1.00  0.00     0.213 HD
ENDBRANCH   7  19
ENDBRANCH   1   2
BRANCH   1  21
HETATM   21  C8  UNL     1      -1.110   6.273  12.768  1.00  0.00     0.266 C 
HETATM   22  O5  UNL     1      -0.854   6.613  13.913  1.00  0.00    -0.265 OA
BRANCH  21  23
HETATM   23  C9  UNL     1      -2.290   5.414  12.363  1.00  0.00     0.114 C 
HETATM   24  C10 UNL     1      -3.313   5.388  13.499  1.00  0.00     0.023 C 
BRANCH  23  25
HETATM   25  C11 UNL     1      -1.820   4.030  11.875  1.00  0.00     0.159 C 
BRANCH  25  26
HETATM   26  O6  UNL     1      -0.737   4.209  10.950  1.00  0.00    -0.390 OA
HETATM   27  H13 UNL     1      -1.018   4.868  10.293  1.00  0.00     0.210 HD
ENDBRANCH  25  26
BRANCH  25  28
HETATM   28  C12 UNL     1      -2.886   3.137  11.244  1.00  0.00    -0.058 C 
HETATM   29  C13 UNL     1      -2.653   1.653  11.388  1.00  0.00     0.046 C 
HETATM   30  C14 UNL     1      -3.970   3.618  10.596  1.00  0.00    -0.015 C 
BRANCH  30  31
HETATM   31  C15 UNL     1      -5.115   2.806  10.005  1.00  0.00     0.032 C 
BRANCH  31  32
HETATM   32  C16 UNL     1      -5.715   3.523   8.781  1.00  0.00     0.172 C 
BRANCH  32  33
HETATM   33  O7  UNL     1      -5.767   2.677   7.637  1.00  0.00    -0.400 OA
HETATM   34  H21 UNL     1      -6.578   2.147   7.715  1.00  0.00     0.209 HD
ENDBRANCH  32  33
ENDBRANCH  31  32
BRANCH  31  35
HETATM   35  C17 UNL     1      -6.148   2.539  11.120  1.00  0.00     0.010 C 
BRANCH  35  36
HETATM   36  C18 UNL     1      -5.962   3.347  12.412  1.00  0.00     0.001 C 
BRANCH  36  37
HETATM   37  C19 UNL     1      -7.203   3.388  13.315  1.00  0.00     0.000 C 
BRANCH  37  38
HETATM   38  C20 UNL     1      -8.344   4.232  12.738  1.00  0.00    -0.000 C 
BRANCH  38  39
HETATM   39  C21 UNL     1      -8.055   5.727  12.889  1.00  0.00    -0.005 C 
HETATM   40  C22 UNL     1      -9.154   6.428  13.672  1.00  0.00     0.005 C 
ENDBRANCH  38  39
ENDBRANCH  37  38
ENDBRANCH  36  37
ENDBRANCH  35  36
ENDBRANCH  31  35
ENDBRANCH  30  31
ENDBRANCH  25  28
ENDBRANCH  23  25
ENDBRANCH  21  23
ENDBRANCH   1  21
TORSDOF 15
ENDMDL
MODEL 5
REMARK minimizedAffinity -6.93684435
REMARK CNNscore 0.353481561
REMARK CNNaffinity 6.60507774
REMARK  15 active torsions:
REMARK  status: ('A' for Active; 'I' for Inactive)
REMARK    1  A    between atoms: C4_5  and  O2_6 
REMARK    2  A    between atoms: C7_10  and  O4_11 
REMARK    3  A    between atoms: O4_11  and  C8_12 
REMARK    4  A    between atoms: C8_12  and  C9_14 
REMARK    5  A    between atoms: C9_14  and  C11_16 
REMARK    6  A    between atoms: C11_16  and  O6_17 
REMARK    7  A    between atoms: C11_16  and  C12_18 
REMARK    8  A    between atoms: C14_20  and  C15_21 
REMARK    9  A    between atoms: C15_21  and  C16_22 
REMARK   10  A    between atoms: C15_21  and  C17_24 
REMARK   11  A    between atoms: C16_22  and  O7_23 
REMARK   12  A    between atoms: C17_24  and  C18_25 
REMARK   13  A    between atoms: C18_25  and  C19_26 
REMARK   14  A    between atoms: C19_26  and  C20_27 
REMARK   15  A    between atoms: C20_27  and  C21_28 
ROOT
HETATM    1  O4  UNL     1      -1.602   4.318  11.366  1.00  0.00    -0.312 OA
ENDROOT
BRANCH   1   2
HETATM    2  C7  UNL     1      -0.715   4.757  12.407  1.00  0.00     0.170 C 
HETATM    3  C6  UNL     1       0.385   5.598  11.788  1.00  0.00     0.127 A 
HETATM    4  C5  UNL     1       1.680   4.937  11.347  1.00  0.00     0.223 A 
HETATM    5  O3  UNL     1       1.567   5.613  12.612  1.00  0.00    -0.360 OA
HETATM    6  C27 UNL     1       0.007   6.971  11.222  1.00  0.00    -0.003 C 
HETATM    7  C4  UNL     1       2.624   5.575  10.371  1.00  0.00     0.199 C 
HETATM    8  O1  UNL     1       3.914   5.715  10.976  1.00  0.00    -0.348 OA
HETATM    9  C30 UNL     1       2.212   6.973   9.878  1.00  0.00     0.082 C 
HETATM   10  C3  UNL     1       4.601   6.762  10.281  1.00  0.00     0.205 C 
HETATM   11  C2  UNL     1       3.546   7.651   9.717  1.00  0.00    -0.056 C 
HETATM   12  C1  UNL     1       3.757   8.859   9.174  1.00  0.00     0.017 C 
HETATM   13  C29 UNL     1       1.307   7.749  10.852  1.00  0.00     0.027 C 
HETATM   14  C25 UNL     1      -0.781   7.754  12.330  1.00  0.00    -0.007 C 
HETATM   15  C28 UNL     1      -0.831   6.801   9.934  1.00  0.00     0.019 C 
HETATM   16  C24 UNL     1      -1.944   6.924  12.917  1.00  0.00     0.007 C 
HETATM   17  C26 UNL     1      -1.311   9.121  11.882  1.00  0.00     0.011 C 
HETATM   18  C23 UNL     1      -1.460   5.581  13.464  1.00  0.00     0.036 C 
BRANCH   7  19
HETATM   19  O2  UNL     1       2.774   4.707   9.250  1.00  0.00    -0.363 OA
HETATM   20  H5  UNL     1       3.247   3.938   9.611  1.00  0.00     0.213 HD
ENDBRANCH   7  19
ENDBRANCH   1   2
BRANCH   1  21
HETATM   21  C8  UNL     1      -1.627   2.978  11.123  1.00  0.00     0.266 C 
HETATM   22  O5  UNL     1      -0.736   2.352  10.569  1.00  0.00    -0.265 OA
BRANCH  21  23
HETATM   23  C9  UNL     1      -2.894   2.368  11.684  1.00  0.00     0.114 C 
HETATM   24  C10 UNL     1      -2.728   0.851  11.782  1.00  0.00     0.023 C 
BRANCH  23  25
HETATM   25  C11 UNL     1      -4.129   2.840  10.892  1.00  0.00     0.159 C 
BRANCH  25  26
HETATM   26  O6  UNL     1      -3.840   4.117  10.304  1.00  0.00    -0.390 OA
HETATM   27  H13 UNL     1      -3.485   4.690  11.004  1.00  0.00     0.210 HD
ENDBRANCH  25  26
BRANCH  25  28
HETATM   28  C12 UNL     1      -5.441   2.922  11.668  1.00  0.00    -0.058 C 
HETATM   29  C13 UNL     1      -6.312   1.693  11.597  1.00  0.00     0.046 C 
HETATM   30  C14 UNL     1      -5.819   4.011  12.375  1.00  0.00    -0.015 C 
BRANCH  30  31
HETATM   31  C15 UNL     1      -7.067   4.152  13.236  1.00  0.00     0.032 C 
BRANCH  31  32
HETATM   32  C16 UNL     1      -8.234   4.725  12.410  1.00  0.00     0.172 C 
BRANCH  32  33
HETATM   33  O7  UNL     1      -9.130   5.491  13.209  1.00  0.00    -0.400 OA
HETATM   34  H21 UNL     1      -8.752   6.384  13.280  1.00  0.00     0.209 HD
ENDBRANCH  32  33
ENDBRANCH  31  32
BRANCH  31  35
HETATM   35  C17 UNL     1      -6.715   5.010  14.469  1.00  0.00     0.010 C 
BRANCH  35  36
HETATM   36  C18 UNL     1      -5.535   5.977  14.296  1.00  0.00     0.001 C 
BRANCH  36  37
HETATM   37  C19 UNL     1      -5.944   7.419  13.965  1.00  0.00     0.000 C 
BRANCH  37  38
HETATM   38  C20 UNL     1      -5.364   8.451  14.939  1.00  0.00    -0.000 C 
BRANCH  38  39
HETATM   39  C21 UNL     1      -4.258   9.274  14.277  1.00  0.00    -0.005 C 
HETATM   40  C22 UNL     1      -3.445  10.044  15.306  1.00  0.00     0.005 C 
ENDBRANCH  38  39
ENDBRANCH  37  38
ENDBRANCH  36  37
ENDBRANCH  35  36
ENDBRANCH  31  35
ENDBRANCH  30  31
ENDBRANCH  25  28
ENDBRANCH  23  25
ENDBRANCH  21  23
ENDBRANCH   1  21
TORSDOF 15
ENDMDL
MODEL 6
REMARK minimizedAffinity -7.85003185
REMARK CNNscore 0.342278898
REMARK CNNaffinity 6.66980219
REMARK  15 active torsions:
REMARK  status: ('A' for Active; 'I' for Inactive)
REMARK    1  A    between atoms: C4_5  and  O2_6 
REMARK    2  A    between atoms: C7_10  and  O4_11 
REMARK    3  A    between atoms: O4_11  and  C8_12 
REMARK    4  A    between atoms: C8_12  and  C9_14 
REMARK    5  A    between atoms: C9_14  and  C11_16 
REMARK    6  A    between atoms: C11_16  and  O6_17 
REMARK    7  A    between atoms: C11_16  and  C12_18 
REMARK    8  A    between atoms: C14_20  and  C15_21 
REMARK    9  A    between atoms: C15_21  and  C16_22 
REMARK   10  A    between atoms: C15_21  and  C17_24 
REMARK   11  A    between atoms: C16_22  and  O7_23 
REMARK   12  A    between atoms: C17_24  and  C18_25 
REMARK   13  A    between atoms: C18_25  and  C19_26 
REMARK   14  A    between atoms: C19_26  and  C20_27 
REMARK   15  A    between atoms: C20_27  and  C21_28 
ROOT
HETATM    1  O4  UNL     1      -0.013   7.131  12.090  1.00  0.00    -0.312 OA
ENDROOT
BRANCH   1   2
HETATM    2  C7  UNL     1       0.624   8.313  11.578  1.00  0.00     0.170 C 
HETATM    3  C6  UNL     1       2.122   8.077  11.535  1.00  0.00     0.127 A 
HETATM    4  C5  UNL     1       2.980   8.468  12.726  1.00  0.00     0.223 A 
HETATM    5  O3  UNL     1       2.854   9.318  11.572  1.00  0.00    -0.360 OA
HETATM    6  C27 UNL     1       2.662   7.071  10.512  1.00  0.00    -0.003 C 
HETATM    7  C4  UNL     1       4.354   7.911  12.952  1.00  0.00     0.199 C 
HETATM    8  O1  UNL     1       5.300   8.982  13.019  1.00  0.00    -0.348 OA
HETATM    9  C30 UNL     1       4.856   6.943  11.866  1.00  0.00     0.082 C 
HETATM   10  C3  UNL     1       6.586   8.440  12.694  1.00  0.00     0.205 C 
HETATM   11  C2  UNL     1       6.331   7.248  11.837  1.00  0.00    -0.056 C 
HETATM   12  C1  UNL     1       7.262   6.574  11.147  1.00  0.00     0.017 C 
HETATM   13  C29 UNL     1       4.218   7.155  10.481  1.00  0.00     0.027 C 
HETATM   14  C25 UNL     1       2.082   7.449   9.104  1.00  0.00    -0.007 C 
HETATM   15  C28 UNL     1       2.269   5.633  10.926  1.00  0.00     0.019 C 
HETATM   16  C24 UNL     1       0.547   7.625   9.132  1.00  0.00     0.007 C 
HETATM   17  C26 UNL     1       2.460   6.474   7.983  1.00  0.00     0.011 C 
HETATM   18  C23 UNL     1       0.115   8.656  10.173  1.00  0.00     0.036 C 
BRANCH   7  19
HETATM   19  O2  UNL     1       4.373   7.249  14.215  1.00  0.00    -0.363 OA
HETATM   20  H5  UNL     1       4.272   7.971  14.858  1.00  0.00     0.213 HD
ENDBRANCH   7  19
ENDBRANCH   1   2
BRANCH   1  21
HETATM   21  C8  UNL     1      -0.130   7.051  13.446  1.00  0.00     0.266 C 
HETATM   22  O5  UNL     1       0.112   6.054  14.109  1.00  0.00    -0.265 OA
BRANCH  21  23
HETATM   23  C9  UNL     1      -0.554   8.388  14.014  1.00  0.00     0.114 C 
HETATM   24  C10 UNL     1      -0.704   8.271  15.532  1.00  0.00     0.023 C 
BRANCH  23  25
HETATM   25  C11 UNL     1      -1.792   8.933  13.276  1.00  0.00     0.159 C 
BRANCH  25  26
HETATM   26  O6  UNL     1      -1.766  10.367  13.326  1.00  0.00    -0.390 OA
HETATM   27  H13 UNL     1      -1.620  10.626  14.251  1.00  0.00     0.210 HD
ENDBRANCH  25  26
BRANCH  25  28
HETATM   28  C12 UNL     1      -3.148   8.431  13.766  1.00  0.00    -0.058 C 
HETATM   29  C13 UNL     1      -4.058   9.488  14.341  1.00  0.00     0.046 C 
HETATM   30  C14 UNL     1      -3.529   7.135  13.702  1.00  0.00    -0.015 C 
BRANCH  30  31
HETATM   31  C15 UNL     1      -4.883   6.561  14.095  1.00  0.00     0.032 C 
BRANCH  31  32
HETATM   32  C16 UNL     1      -4.991   6.424  15.626  1.00  0.00     0.172 C 
BRANCH  32  33
HETATM   33  O7  UNL     1      -3.718   6.237  16.237  1.00  0.00    -0.400 OA
HETATM   34  H21 UNL     1      -3.328   7.121  16.352  1.00  0.00     0.209 HD
ENDBRANCH  32  33
ENDBRANCH  31  32
BRANCH  31  35
HETATM   35  C17 UNL     1      -5.082   5.225  13.349  1.00  0.00     0.010 C 
BRANCH  35  36
HETATM   36  C18 UNL     1      -3.997   4.863  12.325  1.00  0.00     0.001 C 
BRANCH  36  37
HETATM   37  C19 UNL     1      -3.301   3.521  12.590  1.00  0.00     0.000 C 
BRANCH  37  38
HETATM   38  C20 UNL     1      -3.819   2.384  11.702  1.00  0.00    -0.000 C 
BRANCH  38  39
HETATM   39  C21 UNL     1      -5.302   2.570  11.377  1.00  0.00    -0.005 C 
HETATM   40  C22 UNL     1      -6.002   1.232  11.190  1.00  0.00     0.005 C 
ENDBRANCH  38  39
ENDBRANCH  37  38
ENDBRANCH  36  37
ENDBRANCH  35  36
ENDBRANCH  31  35
ENDBRANCH  30  31
ENDBRANCH  25  28
ENDBRANCH  23  25
ENDBRANCH  21  23
ENDBRANCH   1  21
TORSDOF 15
ENDMDL
MODEL 7
REMARK minimizedAffinity -7.27999449
REMARK CNNscore 0.332752228
REMARK CNNaffinity 6.49903154
REMARK  15 active torsions:
REMARK  status: ('A' for Active; 'I' for Inactive)
REMARK    1  A    between atoms: C4_5  and  O2_6 
REMARK    2  A    between atoms: C7_10  and  O4_11 
REMARK    3  A    between atoms: O4_11  and  C8_12 
REMARK    4  A    between atoms: C8_12  and  C9_14 
REMARK    5  A    between atoms: C9_14  and  C11_16 
REMARK    6  A    between atoms: C11_16  and  O6_17 
REMARK    7  A    between atoms: C11_16  and  C12_18 
REMARK    8  A    between atoms: C14_20  and  C15_21 
REMARK    9  A    between atoms: C15_21  and  C16_22 
REMARK   10  A    between atoms: C15_21  and  C17_24 
REMARK   11  A    between atoms: C16_22  and  O7_23 
REMARK   12  A    between atoms: C17_24  and  C18_25 
REMARK   13  A    between atoms: C18_25  and  C19_26 
REMARK   14  A    between atoms: C19_26  and  C20_27 
REMARK   15  A    between atoms: C20_27  and  C21_28 
ROOT
HETATM    1  O4  UNL     1      -4.150   5.945  13.194  1.00  0.00    -0.312 OA
ENDROOT
BRANCH   1   2
HETATM    2  C7  UNL     1      -3.109   5.554  14.104  1.00  0.00     0.170 C 
HETATM    3  C6  UNL     1      -1.811   6.209  13.668  1.00  0.00     0.127 A 
HETATM    4  C5  UNL     1      -0.878   5.473  12.723  1.00  0.00     0.223 A 
HETATM    5  O3  UNL     1      -0.665   5.479  14.145  1.00  0.00    -0.360 OA
HETATM    6  C27 UNL     1      -1.686   7.729  13.823  1.00  0.00    -0.003 C 
HETATM    7  C4  UNL     1       0.181   6.173  11.923  1.00  0.00     0.199 C 
HETATM    8  O1  UNL     1       1.462   5.616  12.235  1.00  0.00    -0.348 OA
HETATM    9  C30 UNL     1       0.287   7.689  12.159  1.00  0.00     0.082 C 
HETATM   10  C3  UNL     1       2.449   6.602  11.908  1.00  0.00     0.205 C 
HETATM   11  C2  UNL     1       1.767   7.923  12.010  1.00  0.00    -0.056 C 
HETATM   12  C1  UNL     1       2.379   9.116  11.988  1.00  0.00     0.017 C 
HETATM   13  C29 UNL     1      -0.214   8.154  13.539  1.00  0.00     0.027 C 
HETATM   14  C25 UNL     1      -2.069   8.101  15.299  1.00  0.00    -0.007 C 
HETATM   15  C28 UNL     1      -2.597   8.443  12.797  1.00  0.00     0.019 C 
HETATM   16  C24 UNL     1      -3.423   7.489  15.723  1.00  0.00     0.007 C 
HETATM   17  C26 UNL     1      -2.081   9.606  15.587  1.00  0.00     0.011 C 
HETATM   18  C23 UNL     1      -3.440   5.972  15.541  1.00  0.00     0.036 C 
BRANCH   7  19
HETATM   19  O2  UNL     1      -0.061   5.929  10.538  1.00  0.00    -0.363 OA
HETATM   20  H5  UNL     1       0.114   4.978  10.434  1.00  0.00     0.213 HD
ENDBRANCH   7  19
ENDBRANCH   1   2
BRANCH   1  21
HETATM   21  C8  UNL     1      -5.263   5.159  13.182  1.00  0.00     0.266 C 
HETATM   22  O5  UNL     1      -5.255   3.938  13.148  1.00  0.00    -0.265 OA
BRANCH  21  23
HETATM   23  C9  UNL     1      -6.508   6.015  13.269  1.00  0.00     0.114 C 
HETATM   24  C10 UNL     1      -6.107   7.485  13.404  1.00  0.00     0.023 C 
BRANCH  23  25
HETATM   25  C11 UNL     1      -7.458   5.495  14.366  1.00  0.00     0.159 C 
BRANCH  25  26
HETATM   26  O6  UNL     1      -7.939   4.197  13.983  1.00  0.00    -0.390 OA
HETATM   27  H13 UNL     1      -8.267   4.263  13.071  1.00  0.00     0.210 HD
ENDBRANCH  25  26
BRANCH  25  28
HETATM   28  C12 UNL     1      -8.641   6.392  14.719  1.00  0.00    -0.058 C 
HETATM   29  C13 UNL     1      -8.638   6.942  16.124  1.00  0.00     0.046 C 
HETATM   30  C14 UNL     1      -9.636   6.686  13.852  1.00  0.00    -0.015 C 
BRANCH  30  31
HETATM   31  C15 UNL     1     -10.809   7.627  14.094  1.00  0.00     0.032 C 
BRANCH  31  32
HETATM   32  C16 UNL     1     -10.511   8.574  15.272  1.00  0.00     0.172 C 
BRANCH  32  33
HETATM   33  O7  UNL     1     -10.509   9.941  14.872  1.00  0.00    -0.400 OA
HETATM   34  H21 UNL     1     -11.435  10.238  14.877  1.00  0.00     0.209 HD
ENDBRANCH  32  33
ENDBRANCH  31  32
BRANCH  31  35
HETATM   35  C17 UNL     1     -12.080   6.778  14.303  1.00  0.00     0.010 C 
BRANCH  35  36
HETATM   36  C18 UNL     1     -13.372   7.348  13.699  1.00  0.00     0.001 C 
BRANCH  36  37
HETATM   37  C19 UNL     1     -14.621   6.494  13.960  1.00  0.00     0.000 C 
BRANCH  37  38
HETATM   38  C20 UNL     1     -14.302   5.133  14.590  1.00  0.00    -0.000 C 
BRANCH  38  39
HETATM   39  C21 UNL     1     -15.552   4.254  14.664  1.00  0.00    -0.005 C 
HETATM   40  C22 UNL     1     -15.190   2.789  14.856  1.00  0.00     0.005 C 
ENDBRANCH  38  39
ENDBRANCH  37  38
ENDBRANCH  36  37
ENDBRANCH  35  36
ENDBRANCH  31  35
ENDBRANCH  30  31
ENDBRANCH  25  28
ENDBRANCH  23  25
ENDBRANCH  21  23
ENDBRANCH   1  21
TORSDOF 15
ENDMDL
MODEL 8
REMARK minimizedAffinity -7.67657042
REMARK CNNscore 0.299060613
REMARK CNNaffinity 5.60928583
REMARK  15 active torsions:
REMARK  status: ('A' for Active; 'I' for Inactive)
REMARK    1  A    between atoms: C4_5  and  O2_6 
REMARK    2  A    between atoms: C7_10  and  O4_11 
REMARK    3  A    between atoms: O4_11  and  C8_12 
REMARK    4  A    between atoms: C8_12  and  C9_14 
REMARK    5  A    between atoms: C9_14  and  C11_16 
REMARK    6  A    between atoms: C11_16  and  O6_17 
REMARK    7  A    between atoms: C11_16  and  C12_18 
REMARK    8  A    between atoms: C14_20  and  C15_21 
REMARK    9  A    between atoms: C15_21  and  C16_22 
REMARK   10  A    between atoms: C15_21  and  C17_24 
REMARK   11  A    between atoms: C16_22  and  O7_23 
REMARK   12  A    between atoms: C17_24  and  C18_25 
REMARK   13  A    between atoms: C18_25  and  C19_26 
REMARK   14  A    between atoms: C19_26  and  C20_27 
REMARK   15  A    between atoms: C20_27  and  C21_28 
ROOT
HETATM    1  O4  UNL     1      -0.474   9.712  16.343  1.00  0.00    -0.312 OA
ENDROOT
BRANCH   1   2
HETATM    2  C7  UNL     1      -0.410  10.092  14.958  1.00  0.00     0.170 C 
HETATM    3  C6  UNL     1      -0.512   8.841  14.106  1.00  0.00     0.127 A 
HETATM    4  C5  UNL     1       0.753   8.117  13.678  1.00  0.00     0.223 A 
HETATM    5  O3  UNL     1       0.075   9.038  12.805  1.00  0.00    -0.360 OA
HETATM    6  C27 UNL     1      -1.854   8.101  14.074  1.00  0.00    -0.003 C 
HETATM    7  C4  UNL     1       0.752   6.690  13.214  1.00  0.00     0.199 C 
HETATM    8  O1  UNL     1       1.299   6.617  11.894  1.00  0.00    -0.348 OA
HETATM    9  C30 UNL     1      -0.631   6.019  13.159  1.00  0.00     0.082 C 
HETATM   10  C3  UNL     1       0.806   5.414  11.292  1.00  0.00     0.205 C 
HETATM   11  C2  UNL     1      -0.487   5.110  11.967  1.00  0.00    -0.056 C 
HETATM   12  C1  UNL     1      -1.376   4.190  11.565  1.00  0.00     0.017 C 
HETATM   13  C29 UNL     1      -1.806   6.997  12.974  1.00  0.00     0.027 C 
HETATM   14  C25 UNL     1      -2.977   9.142  13.731  1.00  0.00    -0.007 C 
HETATM   15  C28 UNL     1      -2.110   7.409  15.433  1.00  0.00     0.019 C 
HETATM   16  C24 UNL     1      -2.916  10.389  14.642  1.00  0.00     0.007 C 
HETATM   17  C26 UNL     1      -4.398   8.568  13.752  1.00  0.00     0.011 C 
HETATM   18  C23 UNL     1      -1.543  11.058  14.592  1.00  0.00     0.036 C 
BRANCH   7  19
HETATM   19  O2  UNL     1       1.607   5.935  14.069  1.00  0.00    -0.363 OA
HETATM   20  H5  UNL     1       2.496   6.276  13.873  1.00  0.00     0.213 HD
ENDBRANCH   7  19
ENDBRANCH   1   2
BRANCH   1  21
HETATM   21  C8  UNL     1       0.697   9.774  17.037  1.00  0.00     0.266 C 
HETATM   22  O5  UNL     1       1.547   8.897  17.050  1.00  0.00    -0.265 OA
BRANCH  21  23
HETATM   23  C9  UNL     1       0.814  11.106  17.747  1.00  0.00     0.114 C 
HETATM   24  C10 UNL     1       2.230  11.655  17.568  1.00  0.00     0.023 C 
BRANCH  23  25
HETATM   25  C11 UNL     1       0.338  10.994  19.209  1.00  0.00     0.159 C 
BRANCH  25  26
HETATM   26  O6  UNL     1      -0.580  12.064  19.479  1.00  0.00    -0.390 OA
HETATM   27  H13 UNL     1      -0.163  12.890  19.184  1.00  0.00     0.210 HD
ENDBRANCH  25  26
BRANCH  25  28
HETATM   28  C12 UNL     1       1.428  10.977  20.277  1.00  0.00    -0.058 C 
HETATM   29  C13 UNL     1       1.750  12.316  20.893  1.00  0.00     0.046 C 
HETATM   30  C14 UNL     1       2.077   9.853  20.660  1.00  0.00    -0.015 C 
BRANCH  30  31
HETATM   31  C15 UNL     1       3.118   9.732  21.764  1.00  0.00     0.032 C 
BRANCH  31  32
HETATM   32  C16 UNL     1       2.725   8.628  22.763  1.00  0.00     0.172 C 
BRANCH  32  33
HETATM   33  O7  UNL     1       1.626   7.852  22.297  1.00  0.00    -0.400 OA
HETATM   34  H21 UNL     1       1.990   7.174  21.703  1.00  0.00     0.209 HD
ENDBRANCH  32  33
ENDBRANCH  31  32
BRANCH  31  35
HETATM   35  C17 UNL     1       3.291  11.116  22.425  1.00  0.00     0.010 C 
BRANCH  35  36
HETATM   36  C18 UNL     1       4.559  11.300  23.270  1.00  0.00     0.001 C 
BRANCH  36  37
HETATM   37  C19 UNL     1       5.544  12.338  22.714  1.00  0.00     0.000 C 
BRANCH  37  38
HETATM   38  C20 UNL     1       7.004  12.037  23.068  1.00  0.00    -0.000 C 
BRANCH  38  39
HETATM   39  C21 UNL     1       7.847  13.313  23.066  1.00  0.00    -0.005 C 
HETATM   40  C22 UNL     1       9.156  13.115  22.317  1.00  0.00     0.005 C 
ENDBRANCH  38  39
ENDBRANCH  37  38
ENDBRANCH  36  37
ENDBRANCH  35  36
ENDBRANCH  31  35
ENDBRANCH  30  31
ENDBRANCH  25  28
ENDBRANCH  23  25
ENDBRANCH  21  23
ENDBRANCH   1  21
TORSDOF 15
ENDMDL
MODEL 9
REMARK minimizedAffinity -7.08338547
REMARK CNNscore 0.289029568
REMARK CNNaffinity 6.59776306
REMARK  15 active torsions:
REMARK  status: ('A' for Active; 'I' for Inactive)
REMARK    1  A    between atoms: C4_5  and  O2_6 
REMARK    2  A    between atoms: C7_10  and  O4_11 
REMARK    3  A    between atoms: O4_11  and  C8_12 
REMARK    4  A    between atoms: C8_12  and  C9_14 
REMARK    5  A    between atoms: C9_14  and  C11_16 
REMARK    6  A    between atoms: C11_16  and  O6_17 
REMARK    7  A    between atoms: C11_16  and  C12_18 
REMARK    8  A    between atoms: C14_20  and  C15_21 
REMARK    9  A    between atoms: C15_21  and  C16_22 
REMARK   10  A    between atoms: C15_21  and  C17_24 
REMARK   11  A    between atoms: C16_22  and  O7_23 
REMARK   12  A    between atoms: C17_24  and  C18_25 
REMARK   13  A    between atoms: C18_25  and  C19_26 
REMARK   14  A    between atoms: C19_26  and  C20_27 
REMARK   15  A    between atoms: C20_27  and  C21_28 
ROOT
HETATM    1  O4  UNL     1      -8.631   6.880  14.125  1.00  0.00    -0.312 OA
ENDROOT
BRANCH   1   2
HETATM    2  C7  UNL     1      -8.168   5.733  14.857  1.00  0.00     0.170 C 
HETATM    3  C6  UNL     1      -7.024   5.097  14.091  1.00  0.00     0.127 A 
HETATM    4  C5  UNL     1      -7.311   3.993  13.089  1.00  0.00     0.223 A 
HETATM    5  O3  UNL     1      -6.872   3.704  14.428  1.00  0.00    -0.360 OA
HETATM    6  C27 UNL     1      -5.698   5.863  14.013  1.00  0.00    -0.003 C 
HETATM    7  C4  UNL     1      -6.343   3.606  12.010  1.00  0.00     0.199 C 
HETATM    8  O1  UNL     1      -6.014   2.219  12.137  1.00  0.00    -0.348 OA
HETATM    9  C30 UNL     1      -5.013   4.379  12.015  1.00  0.00     0.082 C 
HETATM   10  C3  UNL     1      -4.750   2.017  11.494  1.00  0.00     0.205 C 
HETATM   11  C2  UNL     1      -4.041   3.326  11.549  1.00  0.00    -0.056 C 
HETATM   12  C1  UNL     1      -2.750   3.523  11.247  1.00  0.00     0.017 C 
HETATM   13  C29 UNL     1      -4.608   4.939  13.391  1.00  0.00     0.027 C 
HETATM   14  C25 UNL     1      -5.282   6.266  15.472  1.00  0.00    -0.007 C 
HETATM   15  C28 UNL     1      -5.855   7.100  13.099  1.00  0.00     0.019 C 
HETATM   16  C24 UNL     1      -6.426   6.974  16.232  1.00  0.00     0.007 C 
HETATM   17  C26 UNL     1      -4.014   7.123  15.552  1.00  0.00     0.011 C 
HETATM   18  C23 UNL     1      -7.695   6.124  16.262  1.00  0.00     0.036 C 
BRANCH   7  19
HETATM   19  O2  UNL     1      -6.980   3.776  10.746  1.00  0.00    -0.363 OA
HETATM   20  H5  UNL     1      -7.671   3.093  10.739  1.00  0.00     0.213 HD
ENDBRANCH   7  19
ENDBRANCH   1   2
BRANCH   1  21
HETATM   21  C8  UNL     1      -9.939   7.218  14.302  1.00  0.00     0.266 C 
HETATM   22  O5  UNL     1     -10.406   7.681  15.332  1.00  0.00    -0.265 OA
BRANCH  21  23
HETATM   23  C9  UNL     1     -10.718   6.985  13.025  1.00  0.00     0.114 C 
HETATM   24  C10 UNL     1      -9.758   6.555  11.915  1.00  0.00     0.023 C 
BRANCH  23  25
HETATM   25  C11 UNL     1     -11.600   8.204  12.689  1.00  0.00     0.159 C 
BRANCH  25  26
HETATM   26  O6  UNL     1     -11.048   9.364  13.330  1.00  0.00    -0.390 OA
HETATM   27  H13 UNL     1     -10.895   9.139  14.263  1.00  0.00     0.210 HD
ENDBRANCH  25  26
BRANCH  25  28
HETATM   28  C12 UNL     1     -13.081   8.085  13.039  1.00  0.00    -0.058 C 
HETATM   29  C13 UNL     1     -13.610   9.143  13.975  1.00  0.00     0.046 C 
HETATM   30  C14 UNL     1     -13.883   7.108  12.557  1.00  0.00    -0.015 C 
BRANCH  30  31
HETATM   31  C15 UNL     1     -15.380   6.958  12.792  1.00  0.00     0.032 C 
BRANCH  31  32
HETATM   32  C16 UNL     1     -16.133   8.213  12.311  1.00  0.00     0.172 C 
BRANCH  32  33
HETATM   33  O7  UNL     1     -16.034   8.390  10.902  1.00  0.00    -0.400 OA
HETATM   34  H21 UNL     1     -16.721   7.832  10.499  1.00  0.00     0.209 HD
ENDBRANCH  32  33
ENDBRANCH  31  32
BRANCH  31  35
HETATM   35  C17 UNL     1     -15.610   6.645  14.285  1.00  0.00     0.010 C 
BRANCH  35  36
HETATM   36  C18 UNL     1     -14.982   5.342  14.800  1.00  0.00     0.001 C 
BRANCH  36  37
HETATM   37  C19 UNL     1     -16.002   4.269  15.207  1.00  0.00     0.000 C 
BRANCH  37  38
HETATM   38  C20 UNL     1     -16.517   3.444  14.022  1.00  0.00    -0.000 C 
BRANCH  38  39
HETATM   39  C21 UNL     1     -16.265   1.951  14.238  1.00  0.00    -0.005 C 
HETATM   40  C22 UNL     1     -14.882   1.699  14.819  1.00  0.00     0.005 C 
ENDBRANCH  38  39
ENDBRANCH  37  38
ENDBRANCH  36  37
ENDBRANCH  35  36
ENDBRANCH  31  35
ENDBRANCH  30  31
ENDBRANCH  25  28
ENDBRANCH  23  25
ENDBRANCH  21  23
ENDBRANCH   1  21
TORSDOF 15
ENDMDL
