MODEL 1
REMARK minimizedAffinity -8.51531887
REMARK CNNscore 0.601929069
REMARK CNNaffinity 7.10354567
REMARK  12 active torsions:
REMARK  status: ('A' for Active; 'I' for Inactive)
REMARK    1  A    between atoms: C2_2  and  C3_3 
REMARK    2  A    between atoms: C2_2  and  C9_10 
REMARK    3  A    between atoms: C3_3  and  C4_4 
REMARK    4  A    between atoms: C5_5  and  C6_6 
REMARK    5  A    between atoms: C6_6  and  O1_9 
REMARK    6  A    between atoms: C27_29  and  O3_30 
REMARK    7  A    between atoms: O3_30  and  C28_31 
REMARK    8  A    between atoms: C29_33  and  C30_34 
REMARK    9  A    between atoms: C30_34  and  O5_35 
REMARK   10  A    between atoms: C31_36  and  O6_37 
REMARK   11  A    between atoms: C32_38  and  O7_39 
REMARK   12  A    between atoms: C33_40  and  O8_41 
ROOT
HETATM    1  C9  UNL     1       7.069  56.379  -6.001  1.00  0.00    -0.002 C 
HETATM    2  C10 UNL     1       7.470  54.889  -5.806  1.00  0.00     0.006 C 
HETATM    3  C11 UNL     1       6.440  54.042  -6.619  1.00  0.00     0.011 C 
HETATM    4  C12 UNL     1       5.620  55.085  -7.420  1.00  0.00    -0.029 C 
HETATM    5  C13 UNL     1       6.506  55.395  -8.692  1.00  0.00     0.016 C 
HETATM    6  C14 UNL     1       4.196  54.722  -7.988  1.00  0.00     0.028 C 
HETATM    7  C15 UNL     1       3.543  53.403  -7.697  1.00  0.00    -0.021 C 
HETATM    8  C16 UNL     1       2.226  53.267  -7.946  1.00  0.00     0.008 C 
HETATM    9  C17 UNL     1       1.350  54.433  -8.437  1.00  0.00     0.092 C 
HETATM   10  O2  UNL     1       0.938  55.051  -7.208  1.00  0.00    -0.374 OA
HETATM   11  C18 UNL     1       2.070  55.878  -6.796  1.00  0.00     0.179 C 
HETATM   12  C19 UNL     1       3.136  55.897  -7.960  1.00  0.00    -0.004 C 
HETATM   13  C20 UNL     1       3.832  57.263  -8.052  1.00  0.00     0.014 C 
HETATM   14  C21 UNL     1       4.946  57.520  -7.011  1.00  0.00     0.011 C 
HETATM   15  C22 UNL     1       5.560  56.258  -6.376  1.00  0.00    -0.032 C 
HETATM   16  C23 UNL     1       4.751  55.820  -5.117  1.00  0.00     0.016 C 
HETATM   17  C24 UNL     1       2.114  55.616  -9.081  1.00  0.00     0.036 C 
HETATM   18  C25 UNL     1       2.525  55.392 -10.533  1.00  0.00     0.011 C 
HETATM   19  C26 UNL     1       2.190  54.003 -11.081  1.00  0.00     0.033 C 
HETATM   20  C27 UNL     1       0.809  53.416 -10.687  1.00  0.00     0.136 C 
HETATM   21  C34 UNL     1       0.186  54.007  -9.374  1.00  0.00     0.014 C 
HETATM   22  C35 UNL     1      -0.758  55.205  -9.682  1.00  0.00     0.021 C 
HETATM   23  C36 UNL     1      -0.734  52.944  -8.721  1.00  0.00     0.021 C 
ENDROOT
BRANCH  20  24
HETATM   24  O3  UNL     1      -0.142  53.560 -11.752  1.00  0.00    -0.352 OA
BRANCH  24  25
HETATM   25  C28 UNL     1      -0.259  52.422 -12.614  1.00  0.00     0.292 C 
HETATM   26  O4  UNL     1       0.408  52.633 -13.850  1.00  0.00    -0.348 OA
HETATM   27  C29 UNL     1       0.464  51.437 -14.661  1.00  0.00     0.179 C 
HETATM   28  C31 UNL     1      -0.796  50.560 -14.537  1.00  0.00     0.180 C 
HETATM   29  C32 UNL     1      -2.016  51.407 -14.157  1.00  0.00     0.183 C 
HETATM   30  C33 UNL     1      -1.769  52.241 -12.888  1.00  0.00     0.204 C 
BRANCH  27  31
HETATM   31  C30 UNL     1       0.662  51.922 -16.101  1.00  0.00     0.198 C 
BRANCH  31  32
HETATM   32  O5  UNL     1       1.377  53.156 -16.102  1.00  0.00    -0.398 OA
HETATM   33  H46 UNL     1       0.955  53.702 -15.410  1.00  0.00     0.209 HD
ENDBRANCH  31  32
ENDBRANCH  27  31
BRANCH  28  34
HETATM   34  O6  UNL     1      -0.588  49.582 -13.499  1.00  0.00    -0.390 OA
HETATM   35  H48 UNL     1      -1.452  49.133 -13.397  1.00  0.00     0.210 HD
ENDBRANCH  28  34
BRANCH  29  36
HETATM   36  O7  UNL     1      -3.147  50.542 -13.974  1.00  0.00    -0.390 OA
HETATM   37  H50 UNL     1      -3.383  50.634 -13.023  1.00  0.00     0.210 HD
ENDBRANCH  29  36
BRANCH  30  38
HETATM   38  O8  UNL     1      -2.440  51.634 -11.763  1.00  0.00    -0.388 OA
HETATM   39  H52 UNL     1      -2.131  52.125 -10.979  1.00  0.00     0.210 HD
ENDBRANCH  30  38
ENDBRANCH  24  25
ENDBRANCH  20  24
BRANCH   1  40
HETATM   40  C2  UNL     1       7.604  57.426  -4.973  1.00  0.00    -0.010 C 
HETATM   41  C1  UNL     1       6.644  58.633  -4.959  1.00  0.00     0.010 C 
BRANCH  40  42
HETATM   42  C3  UNL     1       9.063  57.897  -5.132  1.00  0.00     0.031 C 
BRANCH  42  43
HETATM   43  C4  UNL     1       9.418  59.324  -4.781  1.00  0.00    -0.027 C 
HETATM   44  C5  UNL     1       9.412  60.398  -5.592  1.00  0.00     0.006 C 
BRANCH  44  45
HETATM   45  C6  UNL     1       9.744  61.826  -5.212  1.00  0.00     0.068 C 
HETATM   46  C7  UNL     1      10.028  62.656  -6.467  1.00  0.00     0.050 C 
HETATM   47  C8  UNL     1       8.591  62.444  -4.416  1.00  0.00     0.050 C 
BRANCH  45  48
HETATM   48  O1  UNL     1      10.905  61.868  -4.384  1.00  0.00    -0.387 OA
HETATM   49  H15 UNL     1      11.641  61.510  -4.908  1.00  0.00     0.211 HD
ENDBRANCH  45  48
ENDBRANCH  44  45
ENDBRANCH  42  43
ENDBRANCH  40  42
ENDBRANCH   1  40
TORSDOF 12
ENDMDL
MODEL 2
REMARK minimizedAffinity -8.10209942
REMARK CNNscore 0.43053022
REMARK CNNaffinity 6.37531042
REMARK  12 active torsions:
REMARK  status: ('A' for Active; 'I' for Inactive)
REMARK    1  A    between atoms: C2_2  and  C3_3 
REMARK    2  A    between atoms: C2_2  and  C9_10 
REMARK    3  A    between atoms: C3_3  and  C4_4 
REMARK    4  A    between atoms: C5_5  and  C6_6 
REMARK    5  A    between atoms: C6_6  and  O1_9 
REMARK    6  A    between atoms: C27_29  and  O3_30 
REMARK    7  A    between atoms: O3_30  and  C28_31 
REMARK    8  A    between atoms: C29_33  and  C30_34 
REMARK    9  A    between atoms: C30_34  and  O5_35 
REMARK   10  A    between atoms: C31_36  and  O6_37 
REMARK   11  A    between atoms: C32_38  and  O7_39 
REMARK   12  A    between atoms: C33_40  and  O8_41 
ROOT
HETATM    1  C9  UNL     1      -6.442  44.638 -19.194  1.00  0.00    -0.002 C 
HETATM    2  C10 UNL     1      -6.779  43.940 -20.544  1.00  0.00     0.006 C 
HETATM    3  C11 UNL     1      -6.178  44.840 -21.670  1.00  0.00     0.011 C 
HETATM    4  C12 UNL     1      -5.337  45.902 -20.918  1.00  0.00    -0.029 C 
HETATM    5  C13 UNL     1      -3.958  45.185 -20.629  1.00  0.00     0.016 C 
HETATM    6  C14 UNL     1      -4.956  47.264 -21.612  1.00  0.00     0.028 C 
HETATM    7  C15 UNL     1      -5.468  47.625 -22.976  1.00  0.00    -0.021 C 
HETATM    8  C16 UNL     1      -5.365  48.904 -23.385  1.00  0.00     0.008 C 
HETATM    9  C17 UNL     1      -4.820  50.023 -22.480  1.00  0.00     0.092 C 
HETATM   10  O2  UNL     1      -5.997  50.461 -21.784  1.00  0.00    -0.374 OA
HETATM   11  C18 UNL     1      -6.195  49.486 -20.714  1.00  0.00     0.179 C 
HETATM   12  C19 UNL     1      -4.941  48.529 -20.660  1.00  0.00    -0.004 C 
HETATM   13  C20 UNL     1      -4.617  48.121 -19.216  1.00  0.00     0.014 C 
HETATM   14  C21 UNL     1      -5.507  47.008 -18.616  1.00  0.00     0.011 C 
HETATM   15  C22 UNL     1      -6.230  46.116 -19.642  1.00  0.00    -0.032 C 
HETATM   16  C23 UNL     1      -7.605  46.734 -20.044  1.00  0.00     0.016 C 
HETATM   17  C24 UNL     1      -3.966  49.552 -21.278  1.00  0.00     0.036 C 
HETATM   18  C25 UNL     1      -2.519  49.208 -21.621  1.00  0.00     0.011 C 
HETATM   19  C26 UNL     1      -2.181  49.304 -23.110  1.00  0.00     0.033 C 
HETATM   20  C27 UNL     1      -2.774  50.512 -23.882  1.00  0.00     0.136 C 
HETATM   21  C34 UNL     1      -4.058  51.145 -23.239  1.00  0.00     0.014 C 
HETATM   22  C35 UNL     1      -3.697  52.323 -22.290  1.00  0.00     0.021 C 
HETATM   23  C36 UNL     1      -4.921  51.791 -24.352  1.00  0.00     0.021 C 
ENDROOT
BRANCH  20  24
HETATM   24  O3  UNL     1      -1.794  51.545 -24.064  1.00  0.00    -0.352 OA
BRANCH  24  25
HETATM   25  C28 UNL     1      -1.146  51.542 -25.341  1.00  0.00     0.292 C 
HETATM   26  O4  UNL     1       0.255  51.349 -25.214  1.00  0.00    -0.348 OA
HETATM   27  C29 UNL     1       0.906  51.156 -26.491  1.00  0.00     0.179 C 
HETATM   28  C31 UNL     1       0.283  51.996 -27.622  1.00  0.00     0.180 C 
HETATM   29  C32 UNL     1      -0.381  53.259 -27.063  1.00  0.00     0.183 C 
HETATM   30  C33 UNL     1      -1.402  52.935 -25.959  1.00  0.00     0.204 C 
BRANCH  27  31
HETATM   31  C30 UNL     1       2.375  51.531 -26.267  1.00  0.00     0.198 C 
BRANCH  31  32
HETATM   32  O5  UNL     1       3.114  51.329 -27.470  1.00  0.00    -0.398 OA
HETATM   33  H46 UNL     1       2.833  50.455 -27.805  1.00  0.00     0.209 HD
ENDBRANCH  31  32
ENDBRANCH  27  31
BRANCH  28  34
HETATM   34  O6  UNL     1      -0.728  51.213 -28.286  1.00  0.00    -0.390 OA
HETATM   35  H48 UNL     1      -1.154  51.830 -28.915  1.00  0.00     0.210 HD
ENDBRANCH  28  34
BRANCH  29  36
HETATM   36  O7  UNL     1      -1.016  53.969 -28.138  1.00  0.00    -0.390 OA
HETATM   37  H50 UNL     1      -1.976  53.944 -27.924  1.00  0.00     0.210 HD
ENDBRANCH  29  36
BRANCH  30  38
HETATM   38  O8  UNL     1      -2.743  53.041 -26.483  1.00  0.00    -0.388 OA
HETATM   39  H52 UNL     1      -3.325  52.692 -25.783  1.00  0.00     0.210 HD
ENDBRANCH  30  38
ENDBRANCH  24  25
ENDBRANCH  20  24
BRANCH   1  40
HETATM   40  C2  UNL     1      -7.278  44.246 -17.935  1.00  0.00    -0.010 C 
HETATM   41  C1  UNL     1      -7.285  45.443 -16.961  1.00  0.00     0.010 C 
BRANCH  40  42
HETATM   42  C3  UNL     1      -6.889  42.951 -17.197  1.00  0.00     0.031 C 
BRANCH  42  43
HETATM   43  C4  UNL     1      -7.893  41.824 -17.108  1.00  0.00    -0.027 C 
HETATM   44  C5  UNL     1      -9.134  41.782 -17.629  1.00  0.00     0.006 C 
BRANCH  44  45
HETATM   45  C6  UNL     1     -10.114  40.630 -17.552  1.00  0.00     0.068 C 
HETATM   46  C7  UNL     1     -10.089  40.005 -16.154  1.00  0.00     0.050 C 
HETATM   47  C8  UNL     1     -11.526  41.114 -17.894  1.00  0.00     0.050 C 
BRANCH  45  48
HETATM   48  O1  UNL     1      -9.770  39.615 -18.495  1.00  0.00    -0.387 OA
HETATM   49  H15 UNL     1      -8.889  39.287 -18.249  1.00  0.00     0.211 HD
ENDBRANCH  45  48
ENDBRANCH  44  45
ENDBRANCH  42  43
ENDBRANCH  40  42
ENDBRANCH   1  40
TORSDOF 12
ENDMDL
MODEL 3
REMARK minimizedAffinity -8.59030819
REMARK CNNscore 0.412759751
REMARK CNNaffinity 7.00953865
REMARK  12 active torsions:
REMARK  status: ('A' for Active; 'I' for Inactive)
REMARK    1  A    between atoms: C2_2  and  C3_3 
REMARK    2  A    between atoms: C2_2  and  C9_10 
REMARK    3  A    between atoms: C3_3  and  C4_4 
REMARK    4  A    between atoms: C5_5  and  C6_6 
REMARK    5  A    between atoms: C6_6  and  O1_9 
REMARK    6  A    between atoms: C27_29  and  O3_30 
REMARK    7  A    between atoms: O3_30  and  C28_31 
REMARK    8  A    between atoms: C29_33  and  C30_34 
REMARK    9  A    between atoms: C30_34  and  O5_35 
REMARK   10  A    between atoms: C31_36  and  O6_37 
REMARK   11  A    between atoms: C32_38  and  O7_39 
REMARK   12  A    between atoms: C33_40  and  O8_41 
ROOT
HETATM    1  C9  UNL     1      -0.427  51.481 -20.203  1.00  0.00    -0.002 C 
HETATM    2  C10 UNL     1      -1.182  52.203 -19.049  1.00  0.00     0.006 C 
HETATM    3  C11 UNL     1      -2.380  51.280 -18.658  1.00  0.00     0.011 C 
HETATM    4  C12 UNL     1      -2.142  49.970 -19.451  1.00  0.00    -0.029 C 
HETATM    5  C13 UNL     1      -1.110  49.156 -18.573  1.00  0.00     0.016 C 
HETATM    6  C14 UNL     1      -3.328  48.970 -19.725  1.00  0.00     0.028 C 
HETATM    7  C15 UNL     1      -4.738  49.288 -19.319  1.00  0.00    -0.021 C 
HETATM    8  C16 UNL     1      -5.739  48.554 -19.839  1.00  0.00     0.008 C 
HETATM    9  C17 UNL     1      -5.503  47.458 -20.894  1.00  0.00     0.092 C 
HETATM   10  O2  UNL     1      -5.558  48.195 -22.125  1.00  0.00    -0.374 OA
HETATM   11  C18 UNL     1      -4.242  48.817 -22.259  1.00  0.00     0.179 C 
HETATM   12  C19 UNL     1      -3.294  48.247 -21.132  1.00  0.00    -0.004 C 
HETATM   13  C20 UNL     1      -1.851  48.109 -21.640  1.00  0.00     0.014 C 
HETATM   14  C21 UNL     1      -1.028  49.416 -21.688  1.00  0.00     0.011 C 
HETATM   15  C22 UNL     1      -1.539  50.552 -20.780  1.00  0.00    -0.032 C 
HETATM   16  C23 UNL     1      -2.601  51.420 -21.521  1.00  0.00     0.016 C 
HETATM   17  C24 UNL     1      -4.056  46.915 -20.979  1.00  0.00     0.036 C 
HETATM   18  C25 UNL     1      -3.702  45.881 -19.913  1.00  0.00     0.011 C 
HETATM   19  C26 UNL     1      -4.808  45.621 -18.889  1.00  0.00     0.033 C 
HETATM   20  C27 UNL     1      -6.257  45.534 -19.437  1.00  0.00     0.136 C 
HETATM   21  C34 UNL     1      -6.493  46.263 -20.807  1.00  0.00     0.014 C 
HETATM   22  C35 UNL     1      -6.310  45.290 -22.007  1.00  0.00     0.021 C 
HETATM   23  C36 UNL     1      -7.972  46.718 -20.895  1.00  0.00     0.021 C 
ENDROOT
BRANCH  20  24
HETATM   24  O3  UNL     1      -6.686  44.170 -19.563  1.00  0.00    -0.352 OA
BRANCH  24  25
HETATM   25  C28 UNL     1      -7.652  43.935 -20.594  1.00  0.00     0.292 C 
HETATM   26  O4  UNL     1      -8.957  43.779 -20.060  1.00  0.00    -0.348 OA
HETATM   27  C29 UNL     1      -9.974  43.726 -21.087  1.00  0.00     0.179 C 
HETATM   28  C31 UNL     1      -9.508  43.004 -22.365  1.00  0.00     0.180 C 
HETATM   29  C32 UNL     1      -8.410  41.983 -22.047  1.00  0.00     0.183 C 
HETATM   30  C33 UNL     1      -7.234  42.617 -21.284  1.00  0.00     0.204 C 
BRANCH  27  31
HETATM   31  C30 UNL     1     -11.169  43.008 -20.450  1.00  0.00     0.198 C 
BRANCH  31  32
HETATM   32  O5  UNL     1     -11.839  42.221 -21.432  1.00  0.00    -0.398 OA
HETATM   33  H46 UNL     1     -11.922  42.798 -22.217  1.00  0.00     0.209 HD
ENDBRANCH  31  32
ENDBRANCH  27  31
BRANCH  28  34
HETATM   34  O6  UNL     1      -8.966  43.974 -23.282  1.00  0.00    -0.390 OA
HETATM   35  H48 UNL     1      -8.595  43.447 -24.019  1.00  0.00     0.210 HD
ENDBRANCH  28  34
BRANCH  29  36
HETATM   36  O7  UNL     1      -7.950  41.393 -23.273  1.00  0.00    -0.390 OA
HETATM   37  H50 UNL     1      -7.009  41.670 -23.348  1.00  0.00     0.210 HD
ENDBRANCH  29  36
BRANCH  30  38
HETATM   38  O8  UNL     1      -6.120  42.820 -22.179  1.00  0.00    -0.388 OA
HETATM   39  H52 UNL     1      -5.471  43.345 -21.674  1.00  0.00     0.210 HD
ENDBRANCH  30  38
ENDBRANCH  24  25
ENDBRANCH  20  24
BRANCH   1  40
HETATM   40  C2  UNL     1       0.519  52.331 -21.108  1.00  0.00    -0.010 C 
HETATM   41  C1  UNL     1       1.087  53.493 -20.266  1.00  0.00     0.010 C 
BRANCH  40  42
HETATM   42  C3  UNL     1      -0.051  52.856 -22.440  1.00  0.00     0.031 C 
BRANCH  42  43
HETATM   43  C4  UNL     1       0.507  52.323 -23.740  1.00  0.00    -0.027 C 
HETATM   44  C5  UNL     1       0.246  52.754 -24.988  1.00  0.00     0.006 C 
BRANCH  44  45
HETATM   45  C6  UNL     1       0.839  52.224 -26.276  1.00  0.00     0.068 C 
HETATM   46  C7  UNL     1       0.595  50.716 -26.391  1.00  0.00     0.050 C 
HETATM   47  C8  UNL     1       0.233  52.954 -27.478  1.00  0.00     0.050 C 
BRANCH  45  48
HETATM   48  O1  UNL     1       2.249  52.445 -26.309  1.00  0.00    -0.387 OA
HETATM   49  H15 UNL     1       2.631  51.949 -25.566  1.00  0.00     0.211 HD
ENDBRANCH  45  48
ENDBRANCH  44  45
ENDBRANCH  42  43
ENDBRANCH  40  42
ENDBRANCH   1  40
TORSDOF 12
ENDMDL
MODEL 4
REMARK minimizedAffinity -9.32434082
REMARK CNNscore 0.409897417
REMARK CNNaffinity 6.83287191
REMARK  12 active torsions:
REMARK  status: ('A' for Active; 'I' for Inactive)
REMARK    1  A    between atoms: C2_2  and  C3_3 
REMARK    2  A    between atoms: C2_2  and  C9_10 
REMARK    3  A    between atoms: C3_3  and  C4_4 
REMARK    4  A    between atoms: C5_5  and  C6_6 
REMARK    5  A    between atoms: C6_6  and  O1_9 
REMARK    6  A    between atoms: C27_29  and  O3_30 
REMARK    7  A    between atoms: O3_30  and  C28_31 
REMARK    8  A    between atoms: C29_33  and  C30_34 
REMARK    9  A    between atoms: C30_34  and  O5_35 
REMARK   10  A    between atoms: C31_36  and  O6_37 
REMARK   11  A    between atoms: C32_38  and  O7_39 
REMARK   12  A    between atoms: C33_40  and  O8_41 
ROOT
HETATM    1  C9  UNL     1      -9.250  45.862 -20.914  1.00  0.00    -0.002 C 
HETATM    2  C10 UNL     1     -10.064  46.367 -22.140  1.00  0.00     0.006 C 
HETATM    3  C11 UNL     1      -9.112  47.305 -22.947  1.00  0.00     0.011 C 
HETATM    4  C12 UNL     1      -7.727  47.133 -22.275  1.00  0.00    -0.029 C 
HETATM    5  C13 UNL     1      -7.131  45.820 -22.922  1.00  0.00     0.016 C 
HETATM    6  C14 UNL     1      -6.606  48.226 -22.452  1.00  0.00     0.028 C 
HETATM    7  C15 UNL     1      -6.863  49.507 -23.190  1.00  0.00    -0.021 C 
HETATM    8  C16 UNL     1      -5.984  50.518 -23.052  1.00  0.00     0.008 C 
HETATM    9  C17 UNL     1      -4.773  50.440 -22.105  1.00  0.00     0.092 C 
HETATM   10  O2  UNL     1      -5.322  50.900 -20.860  1.00  0.00    -0.374 OA
HETATM   11  C18 UNL     1      -6.023  49.746 -20.301  1.00  0.00     0.179 C 
HETATM   12  C19 UNL     1      -5.697  48.477 -21.182  1.00  0.00    -0.004 C 
HETATM   13  C20 UNL     1      -5.605  47.211 -20.317  1.00  0.00     0.014 C 
HETATM   14  C21 UNL     1      -6.955  46.586 -19.896  1.00  0.00     0.011 C 
HETATM   15  C22 UNL     1      -8.162  46.970 -20.773  1.00  0.00    -0.032 C 
HETATM   16  C23 UNL     1      -8.828  48.282 -20.259  1.00  0.00     0.016 C 
HETATM   17  C24 UNL     1      -4.342  49.013 -21.689  1.00  0.00     0.036 C 
HETATM   18  C25 UNL     1      -3.501  48.275 -22.727  1.00  0.00     0.011 C 
HETATM   19  C26 UNL     1      -3.299  49.038 -24.038  1.00  0.00     0.033 C 
HETATM   20  C27 UNL     1      -3.019  50.558 -23.922  1.00  0.00     0.136 C 
HETATM   21  C34 UNL     1      -3.526  51.227 -22.596  1.00  0.00     0.014 C 
HETATM   22  C35 UNL     1      -2.412  51.253 -21.511  1.00  0.00     0.021 C 
HETATM   23  C36 UNL     1      -3.843  52.720 -22.865  1.00  0.00     0.021 C 
ENDROOT
BRANCH  20  24
HETATM   24  O3  UNL     1      -1.621  50.845 -24.075  1.00  0.00    -0.352 OA
BRANCH  24  25
HETATM   25  C28 UNL     1      -1.200  51.083 -25.424  1.00  0.00     0.292 C 
HETATM   26  O4  UNL     1       0.216  51.122 -25.528  1.00  0.00    -0.348 OA
HETATM   27  C29 UNL     1       0.669  51.176 -26.900  1.00  0.00     0.179 C 
HETATM   28  C31 UNL     1      -0.254  52.006 -27.812  1.00  0.00     0.180 C 
HETATM   29  C32 UNL     1      -1.003  53.072 -27.005  1.00  0.00     0.183 C 
HETATM   30  C33 UNL     1      -1.766  52.467 -25.815  1.00  0.00     0.204 C 
BRANCH  27  31
HETATM   31  C30 UNL     1       2.079  51.773 -26.847  1.00  0.00     0.198 C 
BRANCH  31  32
HETATM   32  O5  UNL     1       2.973  50.850 -26.230  1.00  0.00    -0.398 OA
HETATM   33  H46 UNL     1       2.504  50.523 -25.438  1.00  0.00     0.209 HD
ENDBRANCH  31  32
ENDBRANCH  27  31
BRANCH  28  34
HETATM   34  O6  UNL     1      -1.228  51.133 -28.416  1.00  0.00    -0.390 OA
HETATM   35  H48 UNL     1      -1.842  51.728 -28.892  1.00  0.00     0.210 HD
ENDBRANCH  28  34
BRANCH  29  36
HETATM   36  O7  UNL     1      -1.908  53.768 -27.877  1.00  0.00    -0.390 OA
HETATM   37  H50 UNL     1      -2.805  53.556 -27.530  1.00  0.00     0.210 HD
ENDBRANCH  29  36
BRANCH  30  38
HETATM   38  O8  UNL     1      -3.175  52.393 -26.120  1.00  0.00    -0.388 OA
HETATM   39  H52 UNL     1      -3.573  51.879 -25.393  1.00  0.00     0.210 HD
ENDBRANCH  30  38
ENDBRANCH  24  25
ENDBRANCH  20  24
BRANCH   1  40
HETATM   40  C2  UNL     1     -10.038  45.289 -19.693  1.00  0.00    -0.010 C 
HETATM   41  C1  UNL     1      -9.224  44.127 -19.087  1.00  0.00     0.010 C 
BRANCH  40  42
HETATM   42  C3  UNL     1     -11.500  44.862 -19.927  1.00  0.00     0.031 C 
BRANCH  42  43
HETATM   43  C4  UNL     1     -12.529  45.916 -20.268  1.00  0.00    -0.027 C 
HETATM   44  C5  UNL     1     -12.961  46.928 -19.494  1.00  0.00     0.006 C 
BRANCH  44  45
HETATM   45  C6  UNL     1     -13.973  47.991 -19.867  1.00  0.00     0.068 C 
HETATM   46  C7  UNL     1     -14.699  47.602 -21.158  1.00  0.00     0.050 C 
HETATM   47  C8  UNL     1     -14.979  48.187 -18.729  1.00  0.00     0.050 C 
BRANCH  45  48
HETATM   48  O1  UNL     1     -13.327  49.245 -20.086  1.00  0.00    -0.387 OA
HETATM   49  H15 UNL     1     -12.717  49.123 -20.833  1.00  0.00     0.211 HD
ENDBRANCH  45  48
ENDBRANCH  44  45
ENDBRANCH  42  43
ENDBRANCH  40  42
ENDBRANCH   1  40
TORSDOF 12
ENDMDL
MODEL 5
REMARK minimizedAffinity -9.19758511
REMARK CNNscore 0.399558783
REMARK CNNaffinity 6.94945669
REMARK  12 active torsions:
REMARK  status: ('A' for Active; 'I' for Inactive)
REMARK    1  A    between atoms: C2_2  and  C3_3 
REMARK    2  A    between atoms: C2_2  and  C9_10 
REMARK    3  A    between atoms: C3_3  and  C4_4 
REMARK    4  A    between atoms: C5_5  and  C6_6 
REMARK    5  A    between atoms: C6_6  and  O1_9 
REMARK    6  A    between atoms: C27_29  and  O3_30 
REMARK    7  A    between atoms: O3_30  and  C28_31 
REMARK    8  A    between atoms: C29_33  and  C30_34 
REMARK    9  A    between atoms: C30_34  and  O5_35 
REMARK   10  A    between atoms: C31_36  and  O6_37 
REMARK   11  A    between atoms: C32_38  and  O7_39 
REMARK   12  A    between atoms: C33_40  and  O8_41 
ROOT
HETATM    1  C9  UNL     1      -0.096  50.809 -20.871  1.00  0.00    -0.002 C 
HETATM    2  C10 UNL     1      -0.075  50.745 -19.316  1.00  0.00     0.006 C 
HETATM    3  C11 UNL     1      -1.333  49.924 -18.889  1.00  0.00     0.011 C 
HETATM    4  C12 UNL     1      -1.907  49.365 -20.215  1.00  0.00    -0.029 C 
HETATM    5  C13 UNL     1      -1.048  48.071 -20.507  1.00  0.00     0.016 C 
HETATM    6  C14 UNL     1      -3.407  48.893 -20.306  1.00  0.00     0.028 C 
HETATM    7  C15 UNL     1      -4.356  49.053 -19.154  1.00  0.00    -0.021 C 
HETATM    8  C16 UNL     1      -5.676  48.917 -19.382  1.00  0.00     0.008 C 
HETATM    9  C17 UNL     1      -6.254  48.688 -20.790  1.00  0.00     0.092 C 
HETATM   10  O2  UNL     1      -6.424  50.027 -21.278  1.00  0.00    -0.374 OA
HETATM   11  C18 UNL     1      -5.097  50.442 -21.728  1.00  0.00     0.179 C 
HETATM   12  C19 UNL     1      -4.131  49.195 -21.680  1.00  0.00    -0.004 C 
HETATM   13  C20 UNL     1      -3.118  49.233 -22.834  1.00  0.00     0.014 C 
HETATM   14  C21 UNL     1      -1.916  50.186 -22.640  1.00  0.00     0.011 C 
HETATM   15  C22 UNL     1      -1.606  50.569 -21.180  1.00  0.00    -0.032 C 
HETATM   16  C23 UNL     1      -2.424  51.825 -20.749  1.00  0.00     0.016 C 
HETATM   17  C24 UNL     1      -5.255  48.150 -21.842  1.00  0.00     0.036 C 
HETATM   18  C25 UNL     1      -5.000  46.647 -21.768  1.00  0.00     0.011 C 
HETATM   19  C26 UNL     1      -5.709  45.941 -20.610  1.00  0.00     0.033 C 
HETATM   20  C27 UNL     1      -7.167  46.378 -20.317  1.00  0.00     0.136 C 
HETATM   21  C34 UNL     1      -7.542  47.818 -20.817  1.00  0.00     0.014 C 
HETATM   22  C35 UNL     1      -8.167  47.780 -22.241  1.00  0.00     0.021 C 
HETATM   23  C36 UNL     1      -8.661  48.397 -19.915  1.00  0.00     0.021 C 
ENDROOT
BRANCH  20  24
HETATM   24  O3  UNL     1      -8.111  45.443 -20.860  1.00  0.00    -0.352 OA
BRANCH  24  25
HETATM   25  C28 UNL     1      -7.572  44.152 -21.167  1.00  0.00     0.292 C 
HETATM   26  O4  UNL     1      -7.785  43.809 -22.528  1.00  0.00    -0.348 OA
HETATM   27  C29 UNL     1      -7.091  42.598 -22.910  1.00  0.00     0.179 C 
HETATM   28  C31 UNL     1      -7.044  41.546 -21.785  1.00  0.00     0.180 C 
HETATM   29  C32 UNL     1      -8.231  41.713 -20.830  1.00  0.00     0.183 C 
HETATM   30  C33 UNL     1      -8.330  43.144 -20.275  1.00  0.00     0.204 C 
BRANCH  27  31
HETATM   31  C30 UNL     1      -7.836  42.063 -24.137  1.00  0.00     0.198 C 
BRANCH  31  32
HETATM   32  O5  UNL     1      -7.424  42.777 -25.301  1.00  0.00    -0.398 OA
HETATM   33  H46 UNL     1      -7.430  43.720 -25.044  1.00  0.00     0.209 HD
ENDBRANCH  31  32
ENDBRANCH  27  31
BRANCH  28  34
HETATM   34  O6  UNL     1      -5.831  41.722 -21.027  1.00  0.00    -0.390 OA
HETATM   35  H48 UNL     1      -5.911  41.103 -20.273  1.00  0.00     0.210 HD
ENDBRANCH  28  34
BRANCH  29  36
HETATM   36  O7  UNL     1      -8.105  40.768 -19.757  1.00  0.00    -0.390 OA
HETATM   37  H50 UNL     1      -7.990  41.318 -18.949  1.00  0.00     0.210 HD
ENDBRANCH  29  36
BRANCH  30  38
HETATM   38  O8  UNL     1      -7.848  43.177 -18.914  1.00  0.00    -0.388 OA
HETATM   39  H52 UNL     1      -7.807  44.122 -18.675  1.00  0.00     0.210 HD
ENDBRANCH  30  38
ENDBRANCH  24  25
ENDBRANCH  20  24
BRANCH   1  40
HETATM   40  C2  UNL     1       0.746  51.919 -21.573  1.00  0.00    -0.010 C 
HETATM   41  C1  UNL     1       1.261  52.897 -20.497  1.00  0.00     0.010 C 
BRANCH  40  42
HETATM   42  C3  UNL     1       0.083  52.689 -22.732  1.00  0.00     0.031 C 
BRANCH  42  43
HETATM   43  C4  UNL     1       0.539  52.423 -24.149  1.00  0.00    -0.027 C 
HETATM   44  C5  UNL     1      -0.106  52.719 -25.292  1.00  0.00     0.006 C 
BRANCH  44  45
HETATM   45  C6  UNL     1       0.382  52.468 -26.703  1.00  0.00     0.068 C 
HETATM   46  C7  UNL     1      -0.098  51.100 -27.196  1.00  0.00     0.050 C 
HETATM   47  C8  UNL     1      -0.113  53.575 -27.639  1.00  0.00     0.050 C 
BRANCH  45  48
HETATM   48  O1  UNL     1       1.809  52.477 -26.749  1.00  0.00    -0.387 OA
HETATM   49  H15 UNL     1       2.116  51.749 -26.183  1.00  0.00     0.211 HD
ENDBRANCH  45  48
ENDBRANCH  44  45
ENDBRANCH  42  43
ENDBRANCH  40  42
ENDBRANCH   1  40
TORSDOF 12
ENDMDL
MODEL 6
REMARK minimizedAffinity -8.7510128
REMARK CNNscore 0.39404723
REMARK CNNaffinity 6.5819602
REMARK  12 active torsions:
REMARK  status: ('A' for Active; 'I' for Inactive)
REMARK    1  A    between atoms: C2_2  and  C3_3 
REMARK    2  A    between atoms: C2_2  and  C9_10 
REMARK    3  A    between atoms: C3_3  and  C4_4 
REMARK    4  A    between atoms: C5_5  and  C6_6 
REMARK    5  A    between atoms: C6_6  and  O1_9 
REMARK    6  A    between atoms: C27_29  and  O3_30 
REMARK    7  A    between atoms: O3_30  and  C28_31 
REMARK    8  A    between atoms: C29_33  and  C30_34 
REMARK    9  A    between atoms: C30_34  and  O5_35 
REMARK   10  A    between atoms: C31_36  and  O6_37 
REMARK   11  A    between atoms: C32_38  and  O7_39 
REMARK   12  A    between atoms: C33_40  and  O8_41 
ROOT
HETATM    1  C9  UNL     1      -6.418  44.590 -19.139  1.00  0.00    -0.002 C 
HETATM    2  C10 UNL     1      -6.801  43.928 -20.494  1.00  0.00     0.006 C 
HETATM    3  C11 UNL     1      -6.214  44.841 -21.616  1.00  0.00     0.011 C 
HETATM    4  C12 UNL     1      -5.335  45.872 -20.863  1.00  0.00    -0.029 C 
HETATM    5  C13 UNL     1      -3.962  45.126 -20.626  1.00  0.00     0.016 C 
HETATM    6  C14 UNL     1      -4.948  47.242 -21.538  1.00  0.00     0.028 C 
HETATM    7  C15 UNL     1      -5.488  47.641 -22.880  1.00  0.00    -0.021 C 
HETATM    8  C16 UNL     1      -5.372  48.926 -23.265  1.00  0.00     0.008 C 
HETATM    9  C17 UNL     1      -4.785  50.016 -22.350  1.00  0.00     0.092 C 
HETATM   10  O2  UNL     1      -5.937  50.459 -21.616  1.00  0.00    -0.374 OA
HETATM   11  C18 UNL     1      -6.124  49.465 -20.561  1.00  0.00     0.179 C 
HETATM   12  C19 UNL     1      -4.887  48.485 -20.561  1.00  0.00    -0.004 C 
HETATM   13  C20 UNL     1      -4.533  48.041 -19.134  1.00  0.00     0.014 C 
HETATM   14  C21 UNL     1      -5.426  46.931 -18.535  1.00  0.00     0.011 C 
HETATM   15  C22 UNL     1      -6.192  46.074 -19.561  1.00  0.00    -0.032 C 
HETATM   16  C23 UNL     1      -7.565  46.723 -19.914  1.00  0.00     0.016 C 
HETATM   17  C24 UNL     1      -3.910  49.505 -21.181  1.00  0.00     0.036 C 
HETATM   18  C25 UNL     1      -2.478  49.144 -21.569  1.00  0.00     0.011 C 
HETATM   19  C26 UNL     1      -2.177  49.266 -23.064  1.00  0.00     0.033 C 
HETATM   20  C27 UNL     1      -2.767  50.500 -23.794  1.00  0.00     0.136 C 
HETATM   21  C34 UNL     1      -4.023  51.141 -23.106  1.00  0.00     0.014 C 
HETATM   22  C35 UNL     1      -3.617  52.292 -22.141  1.00  0.00     0.021 C 
HETATM   23  C36 UNL     1      -4.902  51.826 -24.182  1.00  0.00     0.021 C 
ENDROOT
BRANCH  20  24
HETATM   24  O3  UNL     1      -1.775  51.520 -23.980  1.00  0.00    -0.352 OA
BRANCH  24  25
HETATM   25  C28 UNL     1      -1.156  51.531 -25.272  1.00  0.00     0.292 C 
HETATM   26  O4  UNL     1       0.256  51.413 -25.174  1.00  0.00    -0.348 OA
HETATM   27  C29 UNL     1       0.888  51.235 -26.463  1.00  0.00     0.179 C 
HETATM   28  C31 UNL     1       0.196  52.022 -27.592  1.00  0.00     0.180 C 
HETATM   29  C32 UNL     1      -0.522  53.258 -27.036  1.00  0.00     0.183 C 
HETATM   30  C33 UNL     1      -1.499  52.898 -25.904  1.00  0.00     0.204 C 
BRANCH  27  31
HETATM   31  C30 UNL     1       2.339  51.690 -26.280  1.00  0.00     0.198 C 
BRANCH  31  32
HETATM   32  O5  UNL     1       3.101  51.353 -27.436  1.00  0.00    -0.398 OA
HETATM   33  H46 UNL     1       2.856  50.431 -27.651  1.00  0.00     0.209 HD
ENDBRANCH  31  32
ENDBRANCH  27  31
BRANCH  28  34
HETATM   34  O6  UNL     1      -0.787  51.177 -28.221  1.00  0.00    -0.390 OA
HETATM   35  H48 UNL     1      -1.260  51.761 -28.849  1.00  0.00     0.210 HD
ENDBRANCH  28  34
BRANCH  29  36
HETATM   36  O7  UNL     1      -1.217  53.915 -28.107  1.00  0.00    -0.390 OA
HETATM   37  H50 UNL     1      -2.170  53.843 -27.870  1.00  0.00     0.210 HD
ENDBRANCH  29  36
BRANCH  30  38
HETATM   38  O8  UNL     1      -2.855  52.925 -26.398  1.00  0.00    -0.388 OA
HETATM   39  H52 UNL     1      -3.403  52.557 -25.680  1.00  0.00     0.210 HD
ENDBRANCH  30  38
ENDBRANCH  24  25
ENDBRANCH  20  24
BRANCH   1  40
HETATM   40  C2  UNL     1      -7.228  44.186 -17.867  1.00  0.00    -0.010 C 
HETATM   41  C1  UNL     1      -8.180  43.030 -18.240  1.00  0.00     0.010 C 
BRANCH  40  42
HETATM   42  C3  UNL     1      -7.994  45.300 -17.127  1.00  0.00     0.031 C 
BRANCH  42  43
HETATM   43  C4  UNL     1      -7.684  45.564 -15.671  1.00  0.00    -0.027 C 
HETATM   44  C5  UNL     1      -8.474  46.150 -14.752  1.00  0.00     0.006 C 
BRANCH  44  45
HETATM   45  C6  UNL     1      -8.154  46.379 -13.290  1.00  0.00     0.068 C 
HETATM   46  C7  UNL     1      -9.298  47.135 -12.609  1.00  0.00     0.050 C 
HETATM   47  C8  UNL     1      -7.908  45.041 -12.587  1.00  0.00     0.050 C 
BRANCH  45  48
HETATM   48  O1  UNL     1      -6.966  47.158 -13.152  1.00  0.00    -0.387 OA
HETATM   49  H15 UNL     1      -7.142  48.019 -13.567  1.00  0.00     0.211 HD
ENDBRANCH  45  48
ENDBRANCH  44  45
ENDBRANCH  42  43
ENDBRANCH  40  42
ENDBRANCH   1  40
TORSDOF 12
ENDMDL
MODEL 7
REMARK minimizedAffinity -10.3387032
REMARK CNNscore 0.358083159
REMARK CNNaffinity 6.68232965
REMARK  12 active torsions:
REMARK  status: ('A' for Active; 'I' for Inactive)
REMARK    1  A    between atoms: C2_2  and  C3_3 
REMARK    2  A    between atoms: C2_2  and  C9_10 
REMARK    3  A    between atoms: C3_3  and  C4_4 
REMARK    4  A    between atoms: C5_5  and  C6_6 
REMARK    5  A    between atoms: C6_6  and  O1_9 
REMARK    6  A    between atoms: C27_29  and  O3_30 
REMARK    7  A    between atoms: O3_30  and  C28_31 
REMARK    8  A    between atoms: C29_33  and  C30_34 
REMARK    9  A    between atoms: C30_34  and  O5_35 
REMARK   10  A    between atoms: C31_36  and  O6_37 
REMARK   11  A    between atoms: C32_38  and  O7_39 
REMARK   12  A    between atoms: C33_40  and  O8_41 
ROOT
HETATM    1  C9  UNL     1      -1.087  52.039 -21.439  1.00  0.00    -0.002 C 
HETATM    2  C10 UNL     1      -0.460  51.551 -22.776  1.00  0.00     0.006 C 
HETATM    3  C11 UNL     1      -1.578  50.761 -23.528  1.00  0.00     0.011 C 
HETATM    4  C12 UNL     1      -2.861  51.010 -22.697  1.00  0.00    -0.029 C 
HETATM    5  C13 UNL     1      -3.391  52.414 -23.194  1.00  0.00     0.016 C 
HETATM    6  C14 UNL     1      -4.096  50.039 -22.815  1.00  0.00     0.028 C 
HETATM    7  C15 UNL     1      -4.044  48.794 -23.652  1.00  0.00    -0.021 C 
HETATM    8  C16 UNL     1      -4.998  47.860 -23.479  1.00  0.00     0.008 C 
HETATM    9  C17 UNL     1      -6.089  47.980 -22.400  1.00  0.00     0.092 C 
HETATM   10  O2  UNL     1      -5.461  47.386 -21.254  1.00  0.00    -0.374 OA
HETATM   11  C18 UNL     1      -4.596  48.430 -20.708  1.00  0.00     0.179 C 
HETATM   12  C19 UNL     1      -4.888  49.782 -21.469  1.00  0.00    -0.004 C 
HETATM   13  C20 UNL     1      -4.764  50.987 -20.525  1.00  0.00     0.014 C 
HETATM   14  C21 UNL     1      -3.323  51.456 -20.219  1.00  0.00     0.011 C 
HETATM   15  C22 UNL     1      -2.258  51.027 -21.246  1.00  0.00    -0.032 C 
HETATM   16  C23 UNL     1      -1.672  49.627 -20.888  1.00  0.00     0.016 C 
HETATM   17  C24 UNL     1      -6.334  49.408 -21.854  1.00  0.00     0.036 C 
HETATM   18  C25 UNL     1      -7.202  50.290 -22.747  1.00  0.00     0.011 C 
HETATM   19  C26 UNL     1      -7.613  49.643 -24.071  1.00  0.00     0.033 C 
HETATM   20  C27 UNL     1      -8.027  48.149 -24.016  1.00  0.00     0.136 C 
HETATM   21  C34 UNL     1      -7.452  47.345 -22.797  1.00  0.00     0.014 C 
HETATM   22  C35 UNL     1      -8.444  47.344 -21.599  1.00  0.00     0.021 C 
HETATM   23  C36 UNL     1      -7.312  45.853 -23.190  1.00  0.00     0.021 C 
ENDROOT
BRANCH  20  24
HETATM   24  O3  UNL     1      -9.454  48.002 -24.031  1.00  0.00    -0.352 OA
BRANCH  24  25
HETATM   25  C28 UNL     1     -10.019  47.735 -25.320  1.00  0.00     0.292 C 
HETATM   26  O4  UNL     1      -9.947  46.355 -25.644  1.00  0.00    -0.348 OA
HETATM   27  C29 UNL     1     -10.674  46.031 -26.853  1.00  0.00     0.179 C 
HETATM   28  C31 UNL     1     -10.602  47.140 -27.919  1.00  0.00     0.180 C 
HETATM   29  C32 UNL     1      -9.322  47.969 -27.761  1.00  0.00     0.183 C 
HETATM   30  C33 UNL     1      -9.170  48.530 -26.337  1.00  0.00     0.204 C 
BRANCH  27  31
HETATM   31  C30 UNL     1     -10.059  44.726 -27.368  1.00  0.00     0.198 C 
BRANCH  31  32
HETATM   32  O5  UNL     1     -10.936  44.119 -28.314  1.00  0.00    -0.398 OA
HETATM   33  H46 UNL     1     -11.826  44.165 -27.912  1.00  0.00     0.209 HD
ENDBRANCH  31  32
ENDBRANCH  27  31
BRANCH  28  34
HETATM   34  O6  UNL     1     -11.730  48.021 -27.759  1.00  0.00    -0.390 OA
HETATM   35  H48 UNL     1     -11.572  48.754 -28.387  1.00  0.00     0.210 HD
ENDBRANCH  28  34
BRANCH  29  36
HETATM   36  O7  UNL     1      -9.335  49.036 -28.721  1.00  0.00    -0.390 OA
HETATM   37  H50 UNL     1      -9.367  49.859 -28.182  1.00  0.00     0.210 HD
ENDBRANCH  29  36
BRANCH  30  38
HETATM   38  O8  UNL     1      -9.509  49.934 -26.323  1.00  0.00    -0.388 OA
HETATM   39  H52 UNL     1      -9.528  50.189 -25.382  1.00  0.00     0.210 HD
ENDBRANCH  30  38
ENDBRANCH  24  25
ENDBRANCH  20  24
BRANCH   1  40
HETATM   40  C2  UNL     1      -0.124  52.451 -20.281  1.00  0.00    -0.010 C 
HETATM   41  C1  UNL     1       1.290  52.644 -20.866  1.00  0.00     0.010 C 
BRANCH  40  42
HETATM   42  C3  UNL     1      -0.076  51.541 -19.038  1.00  0.00     0.031 C 
BRANCH  42  43
HETATM   43  C4  UNL     1       0.724  51.982 -17.833  1.00  0.00    -0.027 C 
HETATM   44  C5  UNL     1       0.872  51.339 -16.661  1.00  0.00     0.006 C 
BRANCH  44  45
HETATM   45  C6  UNL     1       1.703  51.786 -15.476  1.00  0.00     0.068 C 
HETATM   46  C7  UNL     1       1.984  50.601 -14.548  1.00  0.00     0.050 C 
HETATM   47  C8  UNL     1       3.016  52.410 -15.956  1.00  0.00     0.050 C 
BRANCH  45  48
HETATM   48  O1  UNL     1       1.009  52.780 -14.723  1.00  0.00    -0.387 OA
HETATM   49  H15 UNL     1       0.194  52.366 -14.390  1.00  0.00     0.211 HD
ENDBRANCH  45  48
ENDBRANCH  44  45
ENDBRANCH  42  43
ENDBRANCH  40  42
ENDBRANCH   1  40
TORSDOF 12
ENDMDL
MODEL 8
REMARK minimizedAffinity -9.12855148
REMARK CNNscore 0.356764019
REMARK CNNaffinity 6.53621531
REMARK  12 active torsions:
REMARK  status: ('A' for Active; 'I' for Inactive)
REMARK    1  A    between atoms: C2_2  and  C3_3 
REMARK    2  A    between atoms: C2_2  and  C9_10 
REMARK    3  A    between atoms: C3_3  and  C4_4 
REMARK    4  A    between atoms: C5_5  and  C6_6 
REMARK    5  A    between atoms: C6_6  and  O1_9 
REMARK    6  A    between atoms: C27_29  and  O3_30 
REMARK    7  A    between atoms: O3_30  and  C28_31 
REMARK    8  A    between atoms: C29_33  and  C30_34 
REMARK    9  A    between atoms: C30_34  and  O5_35 
REMARK   10  A    between atoms: C31_36  and  O6_37 
REMARK   11  A    between atoms: C32_38  and  O7_39 
REMARK   12  A    between atoms: C33_40  and  O8_41 
ROOT
HETATM    1  C9  UNL     1      -6.483  44.806 -19.165  1.00  0.00    -0.002 C 
HETATM    2  C10 UNL     1      -6.784  44.074 -20.504  1.00  0.00     0.006 C 
HETATM    3  C11 UNL     1      -6.144  44.939 -21.636  1.00  0.00     0.011 C 
HETATM    4  C12 UNL     1      -5.318  46.015 -20.888  1.00  0.00    -0.029 C 
HETATM    5  C13 UNL     1      -3.954  45.298 -20.539  1.00  0.00     0.016 C 
HETATM    6  C14 UNL     1      -4.907  47.355 -21.608  1.00  0.00     0.028 C 
HETATM    7  C15 UNL     1      -5.375  47.682 -22.996  1.00  0.00    -0.021 C 
HETATM    8  C16 UNL     1      -5.251  48.948 -23.437  1.00  0.00     0.008 C 
HETATM    9  C17 UNL     1      -4.726  50.088 -22.546  1.00  0.00     0.092 C 
HETATM   10  O2  UNL     1      -5.920  50.552 -21.899  1.00  0.00    -0.374 OA
HETATM   11  C18 UNL     1      -6.157  49.609 -20.808  1.00  0.00     0.179 C 
HETATM   12  C19 UNL     1      -4.912  48.646 -20.691  1.00  0.00    -0.004 C 
HETATM   13  C20 UNL     1      -4.633  48.276 -19.227  1.00  0.00     0.014 C 
HETATM   14  C21 UNL     1      -5.549  47.186 -18.624  1.00  0.00     0.011 C 
HETATM   15  C22 UNL     1      -6.248  46.270 -19.647  1.00  0.00    -0.032 C 
HETATM   16  C23 UNL     1      -7.605  46.885 -20.106  1.00  0.00     0.016 C 
HETATM   17  C24 UNL     1      -3.912  49.646 -21.307  1.00  0.00     0.036 C 
HETATM   18  C25 UNL     1      -2.458  49.283 -21.597  1.00  0.00     0.011 C 
HETATM   19  C26 UNL     1      -2.074  49.336 -23.077  1.00  0.00     0.033 C 
HETATM   20  C27 UNL     1      -2.635  50.526 -23.899  1.00  0.00     0.136 C 
HETATM   21  C34 UNL     1      -3.933  51.184 -23.313  1.00  0.00     0.014 C 
HETATM   22  C35 UNL     1      -3.592  52.386 -22.386  1.00  0.00     0.021 C 
HETATM   23  C36 UNL     1      -4.758  51.804 -24.469  1.00  0.00     0.021 C 
ENDROOT
BRANCH  20  24
HETATM   24  O3  UNL     1      -1.643  51.547 -24.080  1.00  0.00    -0.352 OA
BRANCH  24  25
HETATM   25  C28 UNL     1      -1.045  51.583 -25.381  1.00  0.00     0.292 C 
HETATM   26  O4  UNL     1       0.366  51.443 -25.310  1.00  0.00    -0.348 OA
HETATM   27  C29 UNL     1       0.974  51.289 -26.613  1.00  0.00     0.179 C 
HETATM   28  C31 UNL     1       0.275  52.116 -27.710  1.00  0.00     0.180 C 
HETATM   29  C32 UNL     1      -0.415  53.346 -27.110  1.00  0.00     0.183 C 
HETATM   30  C33 UNL     1      -1.379  52.971 -25.972  1.00  0.00     0.204 C 
BRANCH  27  31
HETATM   31  C30 UNL     1       2.435  51.719 -26.442  1.00  0.00     0.198 C 
BRANCH  31  32
HETATM   32  O5  UNL     1       3.207  51.255 -27.547  1.00  0.00    -0.398 OA
HETATM   33  H46 UNL     1       2.938  50.325 -27.681  1.00  0.00     0.209 HD
ENDBRANCH  31  32
ENDBRANCH  27  31
BRANCH  28  34
HETATM   34  O6  UNL     1      -0.730  51.302 -28.344  1.00  0.00    -0.390 OA
HETATM   35  H48 UNL     1      -1.204  51.908 -28.948  1.00  0.00     0.210 HD
ENDBRANCH  28  34
BRANCH  29  36
HETATM   36  O7  UNL     1      -1.118  54.042 -28.152  1.00  0.00    -0.390 OA
HETATM   37  H50 UNL     1      -2.067  53.977 -27.901  1.00  0.00     0.210 HD
ENDBRANCH  29  36
BRANCH  30  38
HETATM   38  O8  UNL     1      -2.742  53.031 -26.442  1.00  0.00    -0.388 OA
HETATM   39  H52 UNL     1      -3.283  52.651 -25.725  1.00  0.00     0.210 HD
ENDBRANCH  30  38
ENDBRANCH  24  25
ENDBRANCH  20  24
BRANCH   1  40
HETATM   40  C2  UNL     1      -7.359  44.455 -17.921  1.00  0.00    -0.010 C 
HETATM   41  C1  UNL     1      -8.286  43.279 -18.292  1.00  0.00     0.010 C 
BRANCH  40  42
HETATM   42  C3  UNL     1      -8.166  45.597 -17.273  1.00  0.00     0.031 C 
BRANCH  42  43
HETATM   43  C4  UNL     1      -9.651  45.692 -17.541  1.00  0.00    -0.027 C 
HETATM   44  C5  UNL     1     -10.467  46.736 -17.304  1.00  0.00     0.006 C 
BRANCH  44  45
HETATM   45  C6  UNL     1     -11.948  46.821 -17.607  1.00  0.00     0.068 C 
HETATM   46  C7  UNL     1     -12.172  47.449 -18.985  1.00  0.00     0.050 C 
HETATM   47  C8  UNL     1     -12.581  45.428 -17.548  1.00  0.00     0.050 C 
BRANCH  45  48
HETATM   48  O1  UNL     1     -12.613  47.633 -16.639  1.00  0.00    -0.387 OA
HETATM   49  H15 UNL     1     -12.232  48.525 -16.708  1.00  0.00     0.211 HD
ENDBRANCH  45  48
ENDBRANCH  44  45
ENDBRANCH  42  43
ENDBRANCH  40  42
ENDBRANCH   1  40
TORSDOF 12
ENDMDL
MODEL 9
REMARK minimizedAffinity -8.82113743
REMARK CNNscore 0.347038686
REMARK CNNaffinity 6.47640419
REMARK  12 active torsions:
REMARK  status: ('A' for Active; 'I' for Inactive)
REMARK    1  A    between atoms: C2_2  and  C3_3 
REMARK    2  A    between atoms: C2_2  and  C9_10 
REMARK    3  A    between atoms: C3_3  and  C4_4 
REMARK    4  A    between atoms: C5_5  and  C6_6 
REMARK    5  A    between atoms: C6_6  and  O1_9 
REMARK    6  A    between atoms: C27_29  and  O3_30 
REMARK    7  A    between atoms: O3_30  and  C28_31 
REMARK    8  A    between atoms: C29_33  and  C30_34 
REMARK    9  A    between atoms: C30_34  and  O5_35 
REMARK   10  A    between atoms: C31_36  and  O6_37 
REMARK   11  A    between atoms: C32_38  and  O7_39 
REMARK   12  A    between atoms: C33_40  and  O8_41 
ROOT
HETATM    1  C9  UNL     1      -6.397  44.460 -19.228  1.00  0.00    -0.002 C 
HETATM    2  C10 UNL     1      -6.837  43.843 -20.587  1.00  0.00     0.006 C 
HETATM    3  C11 UNL     1      -6.277  44.781 -21.702  1.00  0.00     0.011 C 
HETATM    4  C12 UNL     1      -5.358  45.778 -20.952  1.00  0.00    -0.029 C 
HETATM    5  C13 UNL     1      -3.988  45.007 -20.786  1.00  0.00     0.016 C 
HETATM    6  C14 UNL     1      -4.975  47.162 -21.600  1.00  0.00     0.028 C 
HETATM    7  C15 UNL     1      -5.557  47.607 -22.910  1.00  0.00    -0.021 C 
HETATM    8  C16 UNL     1      -5.436  48.901 -23.262  1.00  0.00     0.008 C 
HETATM    9  C17 UNL     1      -4.802  49.956 -22.338  1.00  0.00     0.092 C 
HETATM   10  O2  UNL     1      -5.920  50.392 -21.550  1.00  0.00    -0.374 OA
HETATM   11  C18 UNL     1      -6.084  49.370 -20.518  1.00  0.00     0.179 C 
HETATM   12  C19 UNL     1      -4.861  48.375 -20.590  1.00  0.00    -0.004 C 
HETATM   13  C20 UNL     1      -4.463  47.884 -19.191  1.00  0.00     0.014 C 
HETATM   14  C21 UNL     1      -5.351  46.769 -18.592  1.00  0.00     0.011 C 
HETATM   15  C22 UNL     1      -6.164  45.953 -19.615  1.00  0.00    -0.032 C 
HETATM   16  C23 UNL     1      -7.540  46.630 -19.899  1.00  0.00     0.016 C 
HETATM   17  C24 UNL     1      -3.893  49.399 -21.216  1.00  0.00     0.036 C 
HETATM   18  C25 UNL     1      -2.481  49.031 -21.665  1.00  0.00     0.011 C 
HETATM   19  C26 UNL     1      -2.231  49.193 -23.166  1.00  0.00     0.033 C 
HETATM   20  C27 UNL     1      -2.829  50.456 -23.838  1.00  0.00     0.136 C 
HETATM   21  C34 UNL     1      -4.051  51.093 -23.087  1.00  0.00     0.014 C 
HETATM   22  C35 UNL     1      -3.594  52.210 -22.105  1.00  0.00     0.021 C 
HETATM   23  C36 UNL     1      -4.958  51.820 -24.111  1.00  0.00     0.021 C 
ENDROOT
BRANCH  20  24
HETATM   24  O3  UNL     1      -1.830  51.468 -24.030  1.00  0.00    -0.352 OA
BRANCH  24  25
HETATM   25  C28 UNL     1      -1.279  51.528 -25.351  1.00  0.00     0.292 C 
HETATM   26  O4  UNL     1       0.141  51.512 -25.325  1.00  0.00    -0.348 OA
HETATM   27  C29 UNL     1       0.718  51.385 -26.645  1.00  0.00     0.179 C 
HETATM   28  C31 UNL     1      -0.085  52.125 -27.732  1.00  0.00     0.180 C 
HETATM   29  C32 UNL     1      -0.860  53.304 -27.131  1.00  0.00     0.183 C 
HETATM   30  C33 UNL     1      -1.750  52.870 -25.954  1.00  0.00     0.204 C 
BRANCH  27  31
HETATM   31  C30 UNL     1       2.140  51.943 -26.531  1.00  0.00     0.198 C 
BRANCH  31  32
HETATM   32  O5  UNL     1       3.065  50.874 -26.341  1.00  0.00    -0.398 OA
HETATM   33  H46 UNL     1       2.663  50.299 -25.660  1.00  0.00     0.209 HD
ENDBRANCH  31  32
ENDBRANCH  27  31
BRANCH  28  34
HETATM   34  O6  UNL     1      -1.035  51.215 -28.317  1.00  0.00    -0.390 OA
HETATM   35  H48 UNL     1      -1.579  51.765 -28.916  1.00  0.00     0.210 HD
ENDBRANCH  28  34
BRANCH  29  36
HETATM   36  O7  UNL     1      -1.654  53.914 -28.160  1.00  0.00    -0.390 OA
HETATM   37  H50 UNL     1      -2.586  53.773 -27.876  1.00  0.00     0.210 HD
ENDBRANCH  29  36
BRANCH  30  38
HETATM   38  O8  UNL     1      -3.129  52.801 -26.380  1.00  0.00    -0.388 OA
HETATM   39  H52 UNL     1      -3.611  52.391 -25.638  1.00  0.00     0.210 HD
ENDBRANCH  30  38
ENDBRANCH  24  25
ENDBRANCH  20  24
BRANCH   1  40
HETATM   40  C2  UNL     1      -7.167  44.029 -17.940  1.00  0.00    -0.010 C 
HETATM   41  C1  UNL     1      -6.635  44.858 -16.752  1.00  0.00     0.010 C 
BRANCH  40  42
HETATM   42  C3  UNL     1      -7.183  42.529 -17.589  1.00  0.00     0.031 C 
BRANCH  42  43
HETATM   43  C4  UNL     1      -6.163  41.613 -18.226  1.00  0.00    -0.027 C 
HETATM   44  C5  UNL     1      -4.851  41.514 -17.942  1.00  0.00     0.006 C 
BRANCH  44  45
HETATM   45  C6  UNL     1      -3.852  40.568 -18.573  1.00  0.00     0.068 C 
HETATM   46  C7  UNL     1      -3.131  39.758 -17.491  1.00  0.00     0.050 C 
HETATM   47  C8  UNL     1      -4.559  39.631 -19.557  1.00  0.00     0.050 C 
BRANCH  45  48
HETATM   48  O1  UNL     1      -2.868  41.295 -19.309  1.00  0.00    -0.387 OA
HETATM   49  H15 UNL     1      -2.398  41.860 -18.672  1.00  0.00     0.211 HD
ENDBRANCH  45  48
ENDBRANCH  44  45
ENDBRANCH  42  43
ENDBRANCH  40  42
ENDBRANCH   1  40
TORSDOF 12
ENDMDL
