MODEL 1
REMARK minimizedAffinity -8.86965561
REMARK CNNscore 0.666886687
REMARK CNNaffinity 6.73453856
REMARK  12 active torsions:
REMARK  status: ('A' for Active; 'I' for Inactive)
REMARK    1  A    between atoms: O1_2  and  C2_3 
REMARK    2  A    between atoms: C4_5  and  O2_6 
REMARK    3  A    between atoms: O2_6  and  C5_7 
REMARK    4  A    between atoms: C8_10  and  C9_11 
REMARK    5  A    between atoms: N1_12  and  C10_14 
REMARK    6  A    between atoms: C10_14  and  C11_15 
REMARK    7  A    between atoms: C11_15  and  C12_16 
REMARK    8  A    between atoms: C12_16  and  O3_17 
REMARK    9  A    between atoms: C18_23  and  C19_24 
REMARK   10  A    between atoms: C25_32  and  O6_33 
REMARK   11  A    between atoms: C29_37  and  O7_38 
REMARK   12  A    between atoms: C33_43  and  O9_44 
ROOT
HETATM    1  C5  UNL     1      -0.633  11.341  18.769  1.00  0.00     0.127 C 
HETATM    2  C6  UNL     1      -1.658  10.229  18.987  1.00  0.00     0.033 C 
HETATM    3  C7  UNL     1      -2.950  10.507  18.227  1.00  0.00     0.021 C 
HETATM    4  C8  UNL     1      -2.768  10.602  16.671  1.00  0.00     0.026 C 
HETATM    5  C13 UNL     1      -3.108   9.191  16.031  1.00  0.00     0.009 C 
HETATM    6  C14 UNL     1      -4.634   8.963  15.895  1.00  0.00     0.007 C 
HETATM    7  C15 UNL     1      -4.992   7.625  15.253  1.00  0.00     0.013 C 
HETATM    8  C16 UNL     1      -4.335   7.428  13.864  1.00  0.00    -0.005 C 
HETATM    9  C17 UNL     1      -4.987   8.371  12.835  1.00  0.00     0.019 C 
HETATM   10  C18 UNL     1      -4.399   5.938  13.395  1.00  0.00     0.028 C 
HETATM   11  C23 UNL     1      -3.316   5.248  14.253  1.00  0.00     0.013 C 
HETATM   12  C24 UNL     1      -2.307   6.339  14.638  1.00  0.00     0.040 C 
HETATM   13  C25 UNL     1      -2.798   7.640  13.965  1.00  0.00     0.070 C 
HETATM   14  C26 UNL     1      -2.381   8.954  14.686  1.00  0.00     0.026 C 
HETATM   15  C27 UNL     1      -0.846   9.047  14.831  1.00  0.00     0.011 C 
HETATM   16  C28 UNL     1      -0.370   9.913  15.995  1.00  0.00     0.039 C 
HETATM   17  C29 UNL     1      -1.316  11.085  16.295  1.00  0.00     0.073 C 
HETATM   18  C30 UNL     1      -0.751  12.006  17.393  1.00  0.00     0.071 C 
ENDROOT
BRANCH   1  19
HETATM   19  O2  UNL     1       0.699  10.827  18.869  1.00  0.00    -0.356 OA
BRANCH  19  20
HETATM   20  C4  UNL     1       1.291  10.996  20.156  1.00  0.00     0.263 C 
HETATM   21  C3  UNL     1       2.494  11.920  19.975  1.00  0.00     0.095 C 
HETATM   22  C2  UNL     1       3.247  12.101  21.294  1.00  0.00     0.156 C 
HETATM   23  C33 UNL     1       3.565  10.728  21.912  1.00  0.00     0.175 C 
HETATM   24  C31 UNL     1       2.282   9.873  21.993  1.00  0.00     0.151 C 
HETATM   25  O8  UNL     1       1.719   9.736  20.676  1.00  0.00    -0.354 OA
HETATM   26  C32 UNL     1       2.572   8.471  22.521  1.00  0.00     0.042 C 
BRANCH  22  27
HETATM   27  O1  UNL     1       2.403  12.871  22.164  1.00  0.00    -0.388 OA
HETATM   28  C1  UNL     1       3.090  13.361  23.310  1.00  0.00     0.202 C 
ENDBRANCH  22  27
BRANCH  23  29
HETATM   29  O9  UNL     1       4.558  10.080  21.103  1.00  0.00    -0.390 OA
HETATM   30  H51 UNL     1       4.078   9.552  20.434  1.00  0.00     0.210 HD
ENDBRANCH  23  29
ENDBRANCH  19  20
ENDBRANCH   1  19
BRANCH  17  31
HETATM   31  O7  UNL     1      -1.348  11.854  15.068  1.00  0.00    -0.389 OA
HETATM   32  H43 UNL     1      -0.538  12.393  15.036  1.00  0.00     0.210 HD
ENDBRANCH  17  31
BRANCH   4  33
HETATM   33  C9  UNL     1      -3.731  11.664  16.097  1.00  0.00     0.068 C 
HETATM   34  N1  UNL     1      -4.387  12.485  16.845  1.00  0.00    -0.401 N 
ATOM     35  H1  UNL     1      -4.324  12.471  17.863  1.00  0.00     0.158 HD
BRANCH  34  36
HETATM   36  C10 UNL     1      -5.228  13.440  16.121  1.00  0.00     0.121 C 
BRANCH  36  37
HETATM   37  C11 UNL     1      -4.360  14.576  15.587  1.00  0.00     0.045 C 
BRANCH  37  38
HETATM   38  C12 UNL     1      -4.545  14.789  14.092  1.00  0.00     0.165 C 
BRANCH  38  39
HETATM   39  O3  UNL     1      -3.265  14.847  13.472  1.00  0.00    -0.401 OA
HETATM   40  H20 UNL     1      -3.421  14.961  12.518  1.00  0.00     0.209 HD
ENDBRANCH  38  39
ENDBRANCH  37  38
ENDBRANCH  36  37
ENDBRANCH  34  36
ENDBRANCH   4  33
BRANCH  13  41
HETATM   41  O6  UNL     1      -2.223   7.643  12.648  1.00  0.00    -0.389 OA
HETATM   42  H37 UNL     1      -2.306   8.540  12.276  1.00  0.00     0.210 HD
ENDBRANCH  13  41
BRANCH  10  43
HETATM   43  C19 UNL     1      -5.751   5.277  13.382  1.00  0.00    -0.045 A 
HETATM   44  C20 UNL     1      -6.069   3.990  13.223  1.00  0.00     0.087 A 
HETATM   45  C21 UNL     1      -7.530   3.905  13.213  1.00  0.00     0.283 A 
HETATM   46  O4  UNL     1      -8.162   2.869  13.102  1.00  0.00    -0.260 OA
HETATM   47  O5  UNL     1      -8.056   5.152  13.349  1.00  0.00    -0.314 OA
HETATM   48  C22 UNL     1      -6.992   6.092  13.463  1.00  0.00     0.213 A 
ENDBRANCH  10  43
TORSDOF 12
ENDMDL
MODEL 2
REMARK minimizedAffinity -8.16989994
REMARK CNNscore 0.663612545
REMARK CNNaffinity 7.03092146
REMARK  12 active torsions:
REMARK  status: ('A' for Active; 'I' for Inactive)
REMARK    1  A    between atoms: O1_2  and  C2_3 
REMARK    2  A    between atoms: C4_5  and  O2_6 
REMARK    3  A    between atoms: O2_6  and  C5_7 
REMARK    4  A    between atoms: C8_10  and  C9_11 
REMARK    5  A    between atoms: N1_12  and  C10_14 
REMARK    6  A    between atoms: C10_14  and  C11_15 
REMARK    7  A    between atoms: C11_15  and  C12_16 
REMARK    8  A    between atoms: C12_16  and  O3_17 
REMARK    9  A    between atoms: C18_23  and  C19_24 
REMARK   10  A    between atoms: C25_32  and  O6_33 
REMARK   11  A    between atoms: C29_37  and  O7_38 
REMARK   12  A    between atoms: C33_43  and  O9_44 
ROOT
HETATM    1  C5  UNL     1      -0.121  11.306  18.575  1.00  0.00     0.127 C 
HETATM    2  C6  UNL     1      -1.576  10.916  18.833  1.00  0.00     0.033 C 
HETATM    3  C7  UNL     1      -2.491  11.410  17.719  1.00  0.00     0.021 C 
HETATM    4  C8  UNL     1      -2.151  10.820  16.304  1.00  0.00     0.026 C 
HETATM    5  C13 UNL     1      -3.085   9.567  16.037  1.00  0.00     0.009 C 
HETATM    6  C14 UNL     1      -4.506   9.983  15.583  1.00  0.00     0.007 C 
HETATM    7  C15 UNL     1      -5.421   8.796  15.289  1.00  0.00     0.013 C 
HETATM    8  C16 UNL     1      -4.828   7.826  14.236  1.00  0.00    -0.005 C 
HETATM    9  C17 UNL     1      -4.837   8.488  12.845  1.00  0.00     0.019 C 
HETATM   10  C18 UNL     1      -5.578   6.454  14.221  1.00  0.00     0.028 C 
HETATM   11  C23 UNL     1      -5.056   5.749  15.492  1.00  0.00     0.013 C 
HETATM   12  C24 UNL     1      -3.678   6.356  15.791  1.00  0.00     0.040 C 
HETATM   13  C25 UNL     1      -3.402   7.378  14.666  1.00  0.00     0.070 C 
HETATM   14  C26 UNL     1      -2.456   8.550  15.056  1.00  0.00     0.026 C 
HETATM   15  C27 UNL     1      -1.095   8.022  15.559  1.00  0.00     0.011 C 
HETATM   16  C28 UNL     1      -0.357   8.970  16.503  1.00  0.00     0.039 C 
HETATM   17  C29 UNL     1      -0.623  10.449  16.193  1.00  0.00     0.073 C 
HETATM   18  C30 UNL     1       0.225  11.378  17.083  1.00  0.00     0.071 C 
ENDROOT
BRANCH   1  19
HETATM   19  O2  UNL     1       0.768  10.351  19.161  1.00  0.00    -0.356 OA
BRANCH  19  20
HETATM   20  C4  UNL     1       1.356  10.781  20.388  1.00  0.00     0.263 C 
HETATM   21  C3  UNL     1       2.370  11.868  20.039  1.00  0.00     0.095 C 
HETATM   22  C2  UNL     1       3.114  12.342  21.289  1.00  0.00     0.156 C 
HETATM   23  C33 UNL     1       3.687  11.134  22.051  1.00  0.00     0.175 C 
HETATM   24  C31 UNL     1       2.578  10.088  22.296  1.00  0.00     0.151 C 
HETATM   25  O8  UNL     1       2.013   9.690  21.034  1.00  0.00    -0.354 OA
HETATM   26  C32 UNL     1       3.125   8.835  22.974  1.00  0.00     0.042 C 
BRANCH  22  27
HETATM   27  O1  UNL     1       2.170  13.059  22.100  1.00  0.00    -0.388 OA
HETATM   28  C1  UNL     1       2.346  14.469  22.037  1.00  0.00     0.202 C 
ENDBRANCH  22  27
BRANCH  23  29
HETATM   29  O9  UNL     1       4.756  10.570  21.279  1.00  0.00    -0.390 OA
HETATM   30  H51 UNL     1       4.360   9.887  20.702  1.00  0.00     0.210 HD
ENDBRANCH  23  29
ENDBRANCH  19  20
ENDBRANCH   1  19
BRANCH  17  31
HETATM   31  O7  UNL     1      -0.163  10.628  14.831  1.00  0.00    -0.389 OA
HETATM   32  H43 UNL     1       0.806  10.711  14.855  1.00  0.00     0.210 HD
ENDBRANCH  17  31
BRANCH   4  33
HETATM   33  C9  UNL     1      -2.410  11.886  15.218  1.00  0.00     0.068 C 
HETATM   34  N1  UNL     1      -2.661  13.119  15.499  1.00  0.00    -0.401 N 
ATOM     35  H1  UNL     1      -2.724  13.462  16.457  1.00  0.00     0.158 HD
BRANCH  34  36
HETATM   36  C10 UNL     1      -2.851  13.989  14.337  1.00  0.00     0.121 C 
BRANCH  36  37
HETATM   37  C11 UNL     1      -1.804  15.100  14.361  1.00  0.00     0.045 C 
BRANCH  37  38
HETATM   38  C12 UNL     1      -1.051  15.211  13.043  1.00  0.00     0.165 C 
BRANCH  38  39
HETATM   39  O3  UNL     1       0.116  14.399  13.110  1.00  0.00    -0.401 OA
HETATM   40  H20 UNL     1       0.560  14.475  12.248  1.00  0.00     0.209 HD
ENDBRANCH  38  39
ENDBRANCH  37  38
ENDBRANCH  36  37
ENDBRANCH  34  36
ENDBRANCH   4  33
BRANCH  13  41
HETATM   41  O6  UNL     1      -2.788   6.634  13.601  1.00  0.00    -0.389 OA
HETATM   42  H37 UNL     1      -2.385   7.264  12.976  1.00  0.00     0.210 HD
ENDBRANCH  13  41
BRANCH  10  43
HETATM   43  C19 UNL     1      -7.073   6.488  14.052  1.00  0.00    -0.045 A 
HETATM   44  C20 UNL     1      -8.012   6.972  14.868  1.00  0.00     0.087 A 
HETATM   45  C21 UNL     1      -9.309   6.677  14.256  1.00  0.00     0.283 A 
HETATM   46  O4  UNL     1     -10.386   6.996  14.729  1.00  0.00    -0.260 OA
HETATM   47  O5  UNL     1      -9.115   6.004  13.090  1.00  0.00    -0.314 OA
HETATM   48  C22 UNL     1      -7.716   5.837  12.880  1.00  0.00     0.213 A 
ENDBRANCH  10  43
TORSDOF 12
ENDMDL
MODEL 3
REMARK minimizedAffinity -7.13632154
REMARK CNNscore 0.603117108
REMARK CNNaffinity 6.7334199
REMARK  12 active torsions:
REMARK  status: ('A' for Active; 'I' for Inactive)
REMARK    1  A    between atoms: O1_2  and  C2_3 
REMARK    2  A    between atoms: C4_5  and  O2_6 
REMARK    3  A    between atoms: O2_6  and  C5_7 
REMARK    4  A    between atoms: C8_10  and  C9_11 
REMARK    5  A    between atoms: N1_12  and  C10_14 
REMARK    6  A    between atoms: C10_14  and  C11_15 
REMARK    7  A    between atoms: C11_15  and  C12_16 
REMARK    8  A    between atoms: C12_16  and  O3_17 
REMARK    9  A    between atoms: C18_23  and  C19_24 
REMARK   10  A    between atoms: C25_32  and  O6_33 
REMARK   11  A    between atoms: C29_37  and  O7_38 
REMARK   12  A    between atoms: C33_43  and  O9_44 
ROOT
HETATM    1  C5  UNL     1      -2.293  14.009  18.194  1.00  0.00     0.127 C 
HETATM    2  C6  UNL     1      -1.726  13.900  16.778  1.00  0.00     0.033 C 
HETATM    3  C7  UNL     1      -0.544  12.940  16.726  1.00  0.00     0.021 C 
HETATM    4  C8  UNL     1      -0.896  11.468  17.145  1.00  0.00     0.026 C 
HETATM    5  C13 UNL     1      -1.190  10.623  15.835  1.00  0.00     0.009 C 
HETATM    6  C14 UNL     1       0.112  10.169  15.128  1.00  0.00     0.007 C 
HETATM    7  C15 UNL     1      -0.139   9.326  13.880  1.00  0.00     0.013 C 
HETATM    8  C16 UNL     1      -1.012   8.078  14.161  1.00  0.00    -0.005 C 
HETATM    9  C17 UNL     1      -0.213   7.052  14.988  1.00  0.00     0.019 C 
HETATM   10  C18 UNL     1      -1.564   7.444  12.843  1.00  0.00     0.028 C 
HETATM   11  C23 UNL     1      -2.691   8.413  12.427  1.00  0.00     0.013 C 
HETATM   12  C24 UNL     1      -3.167   9.105  13.713  1.00  0.00     0.040 C 
HETATM   13  C25 UNL     1      -2.334   8.498  14.864  1.00  0.00     0.070 C 
HETATM   14  C26 UNL     1      -2.136   9.426  16.096  1.00  0.00     0.026 C 
HETATM   15  C27 UNL     1      -3.493   9.875  16.679  1.00  0.00     0.011 C 
HETATM   16  C28 UNL     1      -3.449  11.198  17.442  1.00  0.00     0.039 C 
HETATM   17  C29 UNL     1      -2.109  11.437  18.150  1.00  0.00     0.073 C 
HETATM   18  C30 UNL     1      -2.136  12.718  19.004  1.00  0.00     0.071 C 
ENDROOT
BRANCH   1  19
HETATM   19  O2  UNL     1      -3.692  14.308  18.155  1.00  0.00    -0.356 OA
BRANCH  19  20
HETATM   20  C4  UNL     1      -4.295  14.434  19.442  1.00  0.00     0.263 C 
HETATM   21  C3  UNL     1      -5.721  13.901  19.319  1.00  0.00     0.095 C 
HETATM   22  C2  UNL     1      -6.480  14.066  20.636  1.00  0.00     0.156 C 
HETATM   23  C33 UNL     1      -6.365  15.519  21.133  1.00  0.00     0.175 C 
HETATM   24  C31 UNL     1      -4.884  15.952  21.162  1.00  0.00     0.151 C 
HETATM   25  O8  UNL     1      -4.319  15.803  19.848  1.00  0.00    -0.354 OA
HETATM   26  C32 UNL     1      -4.734  17.416  21.567  1.00  0.00     0.042 C 
BRANCH  22  27
HETATM   27  O1  UNL     1      -5.898  13.155  21.581  1.00  0.00    -0.388 OA
HETATM   28  C1  UNL     1      -6.662  13.032  22.775  1.00  0.00     0.202 C 
ENDBRANCH  22  27
BRANCH  23  29
HETATM   29  O9  UNL     1      -7.126  16.364  20.258  1.00  0.00    -0.390 OA
HETATM   30  H51 UNL     1      -6.517  16.665  19.554  1.00  0.00     0.210 HD
ENDBRANCH  23  29
ENDBRANCH  19  20
ENDBRANCH   1  19
BRANCH  17  31
HETATM   31  O7  UNL     1      -1.972  10.319  19.062  1.00  0.00    -0.389 OA
HETATM   32  H43 UNL     1      -2.524  10.505  19.842  1.00  0.00     0.210 HD
ENDBRANCH  17  31
BRANCH   4  33
HETATM   33  C9  UNL     1       0.297  10.840  17.897  1.00  0.00     0.068 C 
HETATM   34  N1  UNL     1       0.779  11.343  18.982  1.00  0.00    -0.401 N 
ATOM     35  H1  UNL     1       0.414  12.199  19.400  1.00  0.00     0.158 HD
BRANCH  34  36
HETATM   36  C10 UNL     1       1.890  10.593  19.569  1.00  0.00     0.121 C 
BRANCH  36  37
HETATM   37  C11 UNL     1       1.630  10.386  21.059  1.00  0.00     0.045 C 
BRANCH  37  38
HETATM   38  C12 UNL     1       2.593   9.383  21.677  1.00  0.00     0.165 C 
BRANCH  38  39
HETATM   39  O3  UNL     1       1.859   8.236  22.093  1.00  0.00    -0.401 OA
HETATM   40  H20 UNL     1       2.505   7.609  22.462  1.00  0.00     0.209 HD
ENDBRANCH  38  39
ENDBRANCH  37  38
ENDBRANCH  36  37
ENDBRANCH  34  36
ENDBRANCH   4  33
BRANCH  13  41
HETATM   41  O6  UNL     1      -3.049   7.326  15.289  1.00  0.00    -0.389 OA
HETATM   42  H37 UNL     1      -2.697   7.046  16.154  1.00  0.00     0.210 HD
ENDBRANCH  13  41
BRANCH  10  43
HETATM   43  C19 UNL     1      -0.564   7.096  11.774  1.00  0.00    -0.045 A 
HETATM   44  C20 UNL     1       0.119   5.964  11.581  1.00  0.00     0.087 A 
HETATM   45  C21 UNL     1       1.014   6.189  10.445  1.00  0.00     0.283 A 
HETATM   46  O4  UNL     1       1.772   5.352   9.986  1.00  0.00    -0.260 OA
HETATM   47  O5  UNL     1       0.858   7.462   9.992  1.00  0.00    -0.314 OA
HETATM   48  C22 UNL     1      -0.129   8.116  10.784  1.00  0.00     0.213 A 
ENDBRANCH  10  43
TORSDOF 12
ENDMDL
MODEL 4
REMARK minimizedAffinity -9.63521862
REMARK CNNscore 0.600610495
REMARK CNNaffinity 7.4259491
REMARK  12 active torsions:
REMARK  status: ('A' for Active; 'I' for Inactive)
REMARK    1  A    between atoms: O1_2  and  C2_3 
REMARK    2  A    between atoms: C4_5  and  O2_6 
REMARK    3  A    between atoms: O2_6  and  C5_7 
REMARK    4  A    between atoms: C8_10  and  C9_11 
REMARK    5  A    between atoms: N1_12  and  C10_14 
REMARK    6  A    between atoms: C10_14  and  C11_15 
REMARK    7  A    between atoms: C11_15  and  C12_16 
REMARK    8  A    between atoms: C12_16  and  O3_17 
REMARK    9  A    between atoms: C18_23  and  C19_24 
REMARK   10  A    between atoms: C25_32  and  O6_33 
REMARK   11  A    between atoms: C29_37  and  O7_38 
REMARK   12  A    between atoms: C33_43  and  O9_44 
ROOT
HETATM    1  C5  UNL     1      -6.097   7.374  14.907  1.00  0.00     0.127 C 
HETATM    2  C6  UNL     1      -5.627   7.386  13.452  1.00  0.00     0.033 C 
HETATM    3  C7  UNL     1      -4.603   8.487  13.207  1.00  0.00     0.021 C 
HETATM    4  C8  UNL     1      -3.294   8.344  14.061  1.00  0.00     0.026 C 
HETATM    5  C13 UNL     1      -2.193   7.609  13.187  1.00  0.00     0.009 C 
HETATM    6  C14 UNL     1      -1.502   8.571  12.188  1.00  0.00     0.007 C 
HETATM    7  C15 UNL     1      -0.415   7.898  11.353  1.00  0.00     0.013 C 
HETATM    8  C16 UNL     1       0.674   7.216  12.218  1.00  0.00    -0.005 C 
HETATM    9  C17 UNL     1       1.534   8.284  12.920  1.00  0.00     0.019 C 
HETATM   10  C18 UNL     1       1.553   6.233  11.379  1.00  0.00     0.028 C 
HETATM   11  C23 UNL     1       0.631   5.011  11.180  1.00  0.00     0.013 C 
HETATM   12  C24 UNL     1      -0.367   5.025  12.346  1.00  0.00     0.040 C 
HETATM   13  C25 UNL     1       0.015   6.234  13.229  1.00  0.00     0.070 C 
HETATM   14  C26 UNL     1      -1.155   6.850  14.047  1.00  0.00     0.026 C 
HETATM   15  C27 UNL     1      -1.817   5.792  14.957  1.00  0.00     0.011 C 
HETATM   16  C28 UNL     1      -3.273   6.083  15.314  1.00  0.00     0.039 C 
HETATM   17  C29 UNL     1      -3.576   7.585  15.413  1.00  0.00     0.073 C 
HETATM   18  C30 UNL     1      -5.018   7.844  15.889  1.00  0.00     0.071 C 
ENDROOT
BRANCH   1  19
HETATM   19  O2  UNL     1      -6.473   6.052  15.305  1.00  0.00    -0.356 OA
BRANCH  19  20
HETATM   20  C4  UNL     1      -7.541   5.497  14.539  1.00  0.00     0.263 C 
HETATM   21  C3  UNL     1      -6.930   4.966  13.243  1.00  0.00     0.095 C 
HETATM   22  C2  UNL     1      -8.015   4.417  12.314  1.00  0.00     0.156 C 
HETATM   23  C33 UNL     1      -9.132   5.461  12.132  1.00  0.00     0.175 C 
HETATM   24  C31 UNL     1      -9.625   5.953  13.510  1.00  0.00     0.151 C 
HETATM   25  O8  UNL     1      -8.515   6.498  14.245  1.00  0.00    -0.354 OA
HETATM   26  C32 UNL     1     -10.674   7.053  13.371  1.00  0.00     0.042 C 
BRANCH  22  27
HETATM   27  O1  UNL     1      -8.527   3.219  12.919  1.00  0.00    -0.388 OA
HETATM   28  C1  UNL     1      -7.597   2.142  12.887  1.00  0.00     0.202 C 
ENDBRANCH  22  27
BRANCH  23  29
HETATM   29  O9  UNL     1      -8.617   6.552  11.356  1.00  0.00    -0.390 OA
HETATM   30  H51 UNL     1      -8.253   7.203  11.988  1.00  0.00     0.210 HD
ENDBRANCH  23  29
ENDBRANCH  19  20
ENDBRANCH   1  19
BRANCH  17  31
HETATM   31  O7  UNL     1      -2.690   8.070  16.452  1.00  0.00    -0.389 OA
HETATM   32  H43 UNL     1      -3.086   7.838  17.310  1.00  0.00     0.210 HD
ENDBRANCH  17  31
BRANCH   4  33
HETATM   33  C9  UNL     1      -2.775   9.743  14.459  1.00  0.00     0.068 C 
HETATM   34  N1  UNL     1      -3.544  10.660  14.940  1.00  0.00    -0.401 N 
ATOM     35  H1  UNL     1      -4.547  10.524  15.068  1.00  0.00     0.158 HD
BRANCH  34  36
HETATM   36  C10 UNL     1      -2.868  11.911  15.286  1.00  0.00     0.121 C 
BRANCH  36  37
HETATM   37  C11 UNL     1      -3.272  12.330  16.698  1.00  0.00     0.045 C 
BRANCH  37  38
HETATM   38  C12 UNL     1      -4.653  12.968  16.736  1.00  0.00     0.165 C 
BRANCH  38  39
HETATM   39  O3  UNL     1      -5.132  13.111  15.403  1.00  0.00    -0.401 OA
HETATM   40  H20 UNL     1      -6.022  13.500  15.466  1.00  0.00     0.209 HD
ENDBRANCH  38  39
ENDBRANCH  37  38
ENDBRANCH  36  37
ENDBRANCH  34  36
ENDBRANCH   4  33
BRANCH  13  41
HETATM   41  O6  UNL     1       1.007   5.750  14.149  1.00  0.00    -0.389 OA
HETATM   42  H37 UNL     1       1.105   6.400  14.868  1.00  0.00     0.210 HD
ENDBRANCH  13  41
BRANCH  10  43
HETATM   43  C19 UNL     1       2.204   6.780  10.137  1.00  0.00    -0.045 A 
HETATM   44  C20 UNL     1       2.270   8.038   9.693  1.00  0.00     0.087 A 
HETATM   45  C21 UNL     1       2.948   8.002   8.397  1.00  0.00     0.283 A 
HETATM   46  O4  UNL     1       3.193   8.983   7.716  1.00  0.00    -0.260 OA
HETATM   47  O5  UNL     1       3.258   6.714   8.084  1.00  0.00    -0.314 OA
HETATM   48  C22 UNL     1       2.818   5.865   9.139  1.00  0.00     0.213 A 
ENDBRANCH  10  43
TORSDOF 12
ENDMDL
MODEL 5
REMARK minimizedAffinity -9.85379314
REMARK CNNscore 0.597778022
REMARK CNNaffinity 7.46117353
REMARK  12 active torsions:
REMARK  status: ('A' for Active; 'I' for Inactive)
REMARK    1  A    between atoms: O1_2  and  C2_3 
REMARK    2  A    between atoms: C4_5  and  O2_6 
REMARK    3  A    between atoms: O2_6  and  C5_7 
REMARK    4  A    between atoms: C8_10  and  C9_11 
REMARK    5  A    between atoms: N1_12  and  C10_14 
REMARK    6  A    between atoms: C10_14  and  C11_15 
REMARK    7  A    between atoms: C11_15  and  C12_16 
REMARK    8  A    between atoms: C12_16  and  O3_17 
REMARK    9  A    between atoms: C18_23  and  C19_24 
REMARK   10  A    between atoms: C25_32  and  O6_33 
REMARK   11  A    between atoms: C29_37  and  O7_38 
REMARK   12  A    between atoms: C33_43  and  O9_44 
ROOT
HETATM    1  C5  UNL     1      -5.997   7.689  14.970  1.00  0.00     0.127 C 
HETATM    2  C6  UNL     1      -5.452   7.988  13.573  1.00  0.00     0.033 C 
HETATM    3  C7  UNL     1      -4.297   8.980  13.627  1.00  0.00     0.021 C 
HETATM    4  C8  UNL     1      -3.060   8.478  14.454  1.00  0.00     0.026 C 
HETATM    5  C13 UNL     1      -2.005   7.841  13.455  1.00  0.00     0.009 C 
HETATM    6  C14 UNL     1      -1.157   8.919  12.736  1.00  0.00     0.007 C 
HETATM    7  C15 UNL     1      -0.110   8.335  11.790  1.00  0.00     0.013 C 
HETATM    8  C16 UNL     1       0.846   7.338  12.491  1.00  0.00    -0.005 C 
HETATM    9  C17 UNL     1       1.784   8.093  13.452  1.00  0.00     0.019 C 
HETATM   10  C18 UNL     1       1.651   6.481  11.461  1.00  0.00     0.028 C 
HETATM   11  C23 UNL     1       0.608   5.466  10.949  1.00  0.00     0.013 C 
HETATM   12  C24 UNL     1      -0.444   5.325  12.059  1.00  0.00     0.040 C 
HETATM   13  C25 UNL     1       0.026   6.233  13.217  1.00  0.00     0.070 C 
HETATM   14  C26 UNL     1      -1.108   6.777  14.132  1.00  0.00     0.026 C 
HETATM   15  C27 UNL     1      -1.934   5.623  14.741  1.00  0.00     0.011 C 
HETATM   16  C28 UNL     1      -3.365   6.000  15.122  1.00  0.00     0.039 C 
HETATM   17  C29 UNL     1      -3.499   7.460  15.574  1.00  0.00     0.073 C 
HETATM   18  C30 UNL     1      -4.925   7.776  16.063  1.00  0.00     0.071 C 
ENDROOT
BRANCH   1  19
HETATM   19  O2  UNL     1      -6.542   6.368  15.026  1.00  0.00    -0.356 OA
BRANCH  19  20
HETATM   20  C4  UNL     1      -6.804   5.792  13.747  1.00  0.00     0.263 C 
HETATM   21  C3  UNL     1      -8.287   5.428  13.719  1.00  0.00     0.095 C 
HETATM   22  C2  UNL     1      -8.651   4.729  12.408  1.00  0.00     0.156 C 
HETATM   23  C33 UNL     1      -7.686   3.559  12.148  1.00  0.00     0.175 C 
HETATM   24  C31 UNL     1      -6.225   4.045  12.256  1.00  0.00     0.151 C 
HETATM   25  O8  UNL     1      -6.010   4.620  13.557  1.00  0.00    -0.354 OA
HETATM   26  C32 UNL     1      -5.235   2.895  12.090  1.00  0.00     0.042 C 
BRANCH  22  27
HETATM   27  O1  UNL     1      -8.562   5.709  11.362  1.00  0.00    -0.388 OA
HETATM   28  C1  UNL     1      -9.765   6.450  11.193  1.00  0.00     0.202 C 
ENDBRANCH  22  27
BRANCH  23  29
HETATM   29  O9  UNL     1      -7.950   2.524  13.106  1.00  0.00    -0.390 OA
HETATM   30  H51 UNL     1      -7.372   2.696  13.876  1.00  0.00     0.210 HD
ENDBRANCH  23  29
ENDBRANCH  19  20
ENDBRANCH   1  19
BRANCH  17  31
HETATM   31  O7  UNL     1      -2.621   7.571  16.721  1.00  0.00    -0.389 OA
HETATM   32  H43 UNL     1      -3.087   7.193  17.487  1.00  0.00     0.210 HD
ENDBRANCH  17  31
BRANCH   4  33
HETATM   33  C9  UNL     1      -2.407   9.667  15.191  1.00  0.00     0.068 C 
HETATM   34  N1  UNL     1      -1.577   9.510  16.166  1.00  0.00    -0.401 N 
ATOM     35  H1  UNL     1      -1.316   8.590  16.522  1.00  0.00     0.158 HD
BRANCH  34  36
HETATM   36  C10 UNL     1      -1.038  10.752  16.722  1.00  0.00     0.121 C 
BRANCH  36  37
HETATM   37  C11 UNL     1      -1.320  10.799  18.221  1.00  0.00     0.045 C 
BRANCH  37  38
HETATM   38  C12 UNL     1      -2.804  10.671  18.533  1.00  0.00     0.165 C 
BRANCH  38  39
HETATM   39  O3  UNL     1      -3.045   9.392  19.110  1.00  0.00    -0.401 OA
HETATM   40  H20 UNL     1      -3.995   9.352  19.316  1.00  0.00     0.209 HD
ENDBRANCH  38  39
ENDBRANCH  37  38
ENDBRANCH  36  37
ENDBRANCH  34  36
ENDBRANCH   4  33
BRANCH  13  41
HETATM   41  O6  UNL     1       0.906   5.426  14.017  1.00  0.00    -0.389 OA
HETATM   42  H37 UNL     1       1.038   5.869  14.874  1.00  0.00     0.210 HD
ENDBRANCH  13  41
BRANCH  10  43
HETATM   43  C19 UNL     1       2.426   7.222  10.405  1.00  0.00    -0.045 A 
HETATM   44  C20 UNL     1       1.994   7.806   9.284  1.00  0.00     0.087 A 
HETATM   45  C21 UNL     1       3.173   8.312   8.580  1.00  0.00     0.283 A 
HETATM   46  O4  UNL     1       3.141   8.918   7.523  1.00  0.00    -0.260 OA
HETATM   47  O5  UNL     1       4.291   8.003   9.291  1.00  0.00    -0.314 OA
HETATM   48  C22 UNL     1       3.909   7.304  10.471  1.00  0.00     0.213 A 
ENDBRANCH  10  43
TORSDOF 12
ENDMDL
MODEL 6
REMARK minimizedAffinity -8.24482346
REMARK CNNscore 0.449630052
REMARK CNNaffinity 6.81044769
REMARK  12 active torsions:
REMARK  status: ('A' for Active; 'I' for Inactive)
REMARK    1  A    between atoms: O1_2  and  C2_3 
REMARK    2  A    between atoms: C4_5  and  O2_6 
REMARK    3  A    between atoms: O2_6  and  C5_7 
REMARK    4  A    between atoms: C8_10  and  C9_11 
REMARK    5  A    between atoms: N1_12  and  C10_14 
REMARK    6  A    between atoms: C10_14  and  C11_15 
REMARK    7  A    between atoms: C11_15  and  C12_16 
REMARK    8  A    between atoms: C12_16  and  O3_17 
REMARK    9  A    between atoms: C18_23  and  C19_24 
REMARK   10  A    between atoms: C25_32  and  O6_33 
REMARK   11  A    between atoms: C29_37  and  O7_38 
REMARK   12  A    between atoms: C33_43  and  O9_44 
ROOT
HETATM    1  C5  UNL     1      -4.550   8.274  14.255  1.00  0.00     0.127 C 
HETATM    2  C6  UNL     1      -3.592   9.033  13.337  1.00  0.00     0.033 C 
HETATM    3  C7  UNL     1      -2.675   9.956  14.131  1.00  0.00     0.021 C 
HETATM    4  C8  UNL     1      -1.755   9.210  15.162  1.00  0.00     0.026 C 
HETATM    5  C13 UNL     1      -0.339   8.957  14.491  1.00  0.00     0.009 C 
HETATM    6  C14 UNL     1       0.556  10.221  14.523  1.00  0.00     0.007 C 
HETATM    7  C15 UNL     1       1.937  10.000  13.911  1.00  0.00     0.013 C 
HETATM    8  C16 UNL     1       2.708   8.830  14.571  1.00  0.00    -0.005 C 
HETATM    9  C17 UNL     1       3.136   9.219  15.999  1.00  0.00     0.019 C 
HETATM   10  C18 UNL     1       3.933   8.380  13.709  1.00  0.00     0.028 C 
HETATM   11  C23 UNL     1       3.284   7.593  12.551  1.00  0.00     0.013 C 
HETATM   12  C24 UNL     1       1.937   7.077  13.077  1.00  0.00     0.040 C 
HETATM   13  C25 UNL     1       1.841   7.539  14.548  1.00  0.00     0.070 C 
HETATM   14  C26 UNL     1       0.395   7.732  15.086  1.00  0.00     0.026 C 
HETATM   15  C27 UNL     1      -0.431   6.435  14.944  1.00  0.00     0.011 C 
HETATM   16  C28 UNL     1      -1.940   6.650  14.853  1.00  0.00     0.039 C 
HETATM   17  C29 UNL     1      -2.420   7.868  15.653  1.00  0.00     0.073 C 
HETATM   18  C30 UNL     1      -3.956   7.990  15.639  1.00  0.00     0.071 C 
ENDROOT
BRANCH   1  19
HETATM   19  O2  UNL     1      -4.897   7.009  13.684  1.00  0.00    -0.356 OA
BRANCH  19  20
HETATM   20  C4  UNL     1      -6.292   6.711  13.737  1.00  0.00     0.263 C 
HETATM   21  C3  UNL     1      -6.768   7.058  15.146  1.00  0.00     0.095 C 
HETATM   22  C2  UNL     1      -8.244   6.699  15.326  1.00  0.00     0.156 C 
HETATM   23  C33 UNL     1      -8.490   5.243  14.893  1.00  0.00     0.175 C 
HETATM   24  C31 UNL     1      -7.918   5.008  13.478  1.00  0.00     0.151 C 
HETATM   25  O8  UNL     1      -6.515   5.325  13.474  1.00  0.00    -0.354 OA
HETATM   26  C32 UNL     1      -8.065   3.552  13.047  1.00  0.00     0.042 C 
BRANCH  22  27
HETATM   27  O1  UNL     1      -9.006   7.609  14.518  1.00  0.00    -0.388 OA
HETATM   28  C1  UNL     1     -10.409   7.498  14.731  1.00  0.00     0.202 C 
ENDBRANCH  22  27
BRANCH  23  29
HETATM   29  O9  UNL     1      -7.865   4.370  15.845  1.00  0.00    -0.390 OA
HETATM   30  H51 UNL     1      -6.956   4.204  15.525  1.00  0.00     0.210 HD
ENDBRANCH  23  29
ENDBRANCH  19  20
ENDBRANCH   1  19
BRANCH  17  31
HETATM   31  O7  UNL     1      -2.027   7.588  17.020  1.00  0.00    -0.389 OA
HETATM   32  H43 UNL     1      -2.679   6.969  17.393  1.00  0.00     0.210 HD
ENDBRANCH  17  31
BRANCH   4  33
HETATM   33  C9  UNL     1      -1.570  10.080  16.423  1.00  0.00     0.068 C 
HETATM   34  N1  UNL     1      -2.255  11.152  16.635  1.00  0.00    -0.401 N 
ATOM     35  H1  UNL     1      -2.947  11.501  15.973  1.00  0.00     0.158 HD
BRANCH  34  36
HETATM   36  C10 UNL     1      -1.962  11.830  17.899  1.00  0.00     0.121 C 
BRANCH  36  37
HETATM   37  C11 UNL     1      -1.178  10.888  18.809  1.00  0.00     0.045 C 
BRANCH  37  38
HETATM   38  C12 UNL     1      -0.040  11.598  19.529  1.00  0.00     0.165 C 
BRANCH  38  39
HETATM   39  O3  UNL     1       0.597  10.674  20.406  1.00  0.00    -0.401 OA
HETATM   40  H20 UNL     1       1.330  11.153  20.831  1.00  0.00     0.209 HD
ENDBRANCH  38  39
ENDBRANCH  37  38
ENDBRANCH  36  37
ENDBRANCH  34  36
ENDBRANCH   4  33
BRANCH  13  41
HETATM   41  O6  UNL     1       2.481   6.513  15.325  1.00  0.00    -0.389 OA
HETATM   42  H37 UNL     1       2.241   6.639  16.261  1.00  0.00     0.210 HD
ENDBRANCH  13  41
BRANCH  10  43
HETATM   43  C19 UNL     1       4.924   9.441  13.314  1.00  0.00    -0.045 A 
HETATM   44  C20 UNL     1       4.925  10.253  12.254  1.00  0.00     0.087 A 
HETATM   45  C21 UNL     1       6.161  11.036  12.311  1.00  0.00     0.283 A 
HETATM   46  O4  UNL     1       6.476  11.891  11.501  1.00  0.00    -0.260 OA
HETATM   47  O5  UNL     1       6.884  10.659  13.400  1.00  0.00    -0.314 OA
HETATM   48  C22 UNL     1       6.170   9.643  14.098  1.00  0.00     0.213 A 
ENDBRANCH  10  43
TORSDOF 12
ENDMDL
MODEL 7
REMARK minimizedAffinity -8.21600914
REMARK CNNscore 0.430545419
REMARK CNNaffinity 6.83104134
REMARK  12 active torsions:
REMARK  status: ('A' for Active; 'I' for Inactive)
REMARK    1  A    between atoms: O1_2  and  C2_3 
REMARK    2  A    between atoms: C4_5  and  O2_6 
REMARK    3  A    between atoms: O2_6  and  C5_7 
REMARK    4  A    between atoms: C8_10  and  C9_11 
REMARK    5  A    between atoms: N1_12  and  C10_14 
REMARK    6  A    between atoms: C10_14  and  C11_15 
REMARK    7  A    between atoms: C11_15  and  C12_16 
REMARK    8  A    between atoms: C12_16  and  O3_17 
REMARK    9  A    between atoms: C18_23  and  C19_24 
REMARK   10  A    between atoms: C25_32  and  O6_33 
REMARK   11  A    between atoms: C29_37  and  O7_38 
REMARK   12  A    between atoms: C33_43  and  O9_44 
ROOT
HETATM    1  C5  UNL     1      -4.926   7.462  13.913  1.00  0.00     0.127 C 
HETATM    2  C6  UNL     1      -4.020   8.345  13.056  1.00  0.00     0.033 C 
HETATM    3  C7  UNL     1      -3.257   9.353  13.909  1.00  0.00     0.021 C 
HETATM    4  C8  UNL     1      -2.309   8.700  14.975  1.00  0.00     0.026 C 
HETATM    5  C13 UNL     1      -0.842   8.627  14.375  1.00  0.00     0.009 C 
HETATM    6  C14 UNL     1      -0.104   9.985  14.469  1.00  0.00     0.007 C 
HETATM    7  C15 UNL     1       1.323   9.938  13.927  1.00  0.00     0.013 C 
HETATM    8  C16 UNL     1       2.192   8.854  14.610  1.00  0.00    -0.005 C 
HETATM    9  C17 UNL     1       2.499   9.263  16.063  1.00  0.00     0.019 C 
HETATM   10  C18 UNL     1       3.502   8.565  13.808  1.00  0.00     0.028 C 
HETATM   11  C23 UNL     1       3.008   7.730  12.607  1.00  0.00     0.013 C 
HETATM   12  C24 UNL     1       1.707   7.051  13.056  1.00  0.00     0.040 C 
HETATM   13  C25 UNL     1       1.484   7.471  14.526  1.00  0.00     0.070 C 
HETATM   14  C26 UNL     1      -0.000   7.484  14.992  1.00  0.00     0.026 C 
HETATM   15  C27 UNL     1      -0.659   6.102  14.790  1.00  0.00     0.011 C 
HETATM   16  C28 UNL     1      -2.177   6.142  14.624  1.00  0.00     0.039 C 
HETATM   17  C29 UNL     1      -2.836   7.281  15.415  1.00  0.00     0.073 C 
HETATM   18  C30 UNL     1      -4.372   7.223  15.323  1.00  0.00     0.071 C 
ENDROOT
BRANCH   1  19
HETATM   19  O2  UNL     1      -5.094   6.176  13.310  1.00  0.00    -0.356 OA
BRANCH  19  20
HETATM   20  C4  UNL     1      -6.389   5.608  13.503  1.00  0.00     0.263 C 
HETATM   21  C3  UNL     1      -6.733   4.840  12.228  1.00  0.00     0.095 C 
HETATM   22  C2  UNL     1      -8.144   4.256  12.308  1.00  0.00     0.156 C 
HETATM   23  C33 UNL     1      -9.149   5.354  12.702  1.00  0.00     0.175 C 
HETATM   24  C31 UNL     1      -8.662   6.087  13.971  1.00  0.00     0.151 C 
HETATM   25  O8  UNL     1      -7.354   6.636  13.729  1.00  0.00    -0.354 OA
HETATM   26  C32 UNL     1      -9.587   7.241  14.344  1.00  0.00     0.042 C 
BRANCH  22  27
HETATM   27  O1  UNL     1      -8.118   3.210  13.292  1.00  0.00    -0.388 OA
HETATM   28  C1  UNL     1      -7.365   2.077  12.875  1.00  0.00     0.202 C 
ENDBRANCH  22  27
BRANCH  23  29
HETATM   29  O9  UNL     1      -9.281   6.270  11.605  1.00  0.00    -0.390 OA
HETATM   30  H51 UNL     1      -8.615   6.973  11.741  1.00  0.00     0.210 HD
ENDBRANCH  23  29
ENDBRANCH  19  20
ENDBRANCH   1  19
BRANCH  17  31
HETATM   31  O7  UNL     1      -2.482   7.023  16.796  1.00  0.00    -0.389 OA
HETATM   32  H43 UNL     1      -3.073   6.325  17.127  1.00  0.00     0.210 HD
ENDBRANCH  17  31
BRANCH   4  33
HETATM   33  C9  UNL     1      -2.290   9.562  16.256  1.00  0.00     0.068 C 
HETATM   34  N1  UNL     1      -3.359   9.848  16.917  1.00  0.00    -0.401 N 
ATOM     35  H1  UNL     1      -4.286   9.539  16.625  1.00  0.00     0.158 HD
BRANCH  34  36
HETATM   36  C10 UNL     1      -3.142  10.652  18.121  1.00  0.00     0.121 C 
BRANCH  36  37
HETATM   37  C11 UNL     1      -1.698  11.145  18.147  1.00  0.00     0.045 C 
BRANCH  37  38
HETATM   38  C12 UNL     1      -1.600  12.654  17.979  1.00  0.00     0.165 C 
BRANCH  38  39
HETATM   39  O3  UNL     1      -2.371  13.042  16.846  1.00  0.00    -0.401 OA
HETATM   40  H20 UNL     1      -2.305  14.011  16.781  1.00  0.00     0.209 HD
ENDBRANCH  38  39
ENDBRANCH  37  38
ENDBRANCH  36  37
ENDBRANCH  34  36
ENDBRANCH   4  33
BRANCH  13  41
HETATM   41  O6  UNL     1       2.201   6.512  15.322  1.00  0.00    -0.389 OA
HETATM   42  H37 UNL     1       1.901   6.592  16.245  1.00  0.00     0.210 HD
ENDBRANCH  13  41
BRANCH  10  43
HETATM   43  C19 UNL     1       4.380   9.742  13.477  1.00  0.00    -0.045 A 
HETATM   44  C20 UNL     1       4.507  10.416  12.331  1.00  0.00     0.087 A 
HETATM   45  C21 UNL     1       5.555  11.417  12.532  1.00  0.00     0.283 A 
HETATM   46  O4  UNL     1       5.917  12.219  11.690  1.00  0.00    -0.260 OA
HETATM   47  O5  UNL     1       6.047  11.307  13.796  1.00  0.00    -0.314 OA
HETATM   48  C22 UNL     1       5.356  10.261  14.472  1.00  0.00     0.213 A 
ENDBRANCH  10  43
TORSDOF 12
ENDMDL
MODEL 8
REMARK minimizedAffinity -7.22773027
REMARK CNNscore 0.423700184
REMARK CNNaffinity 6.19118929
REMARK  12 active torsions:
REMARK  status: ('A' for Active; 'I' for Inactive)
REMARK    1  A    between atoms: O1_2  and  C2_3 
REMARK    2  A    between atoms: C4_5  and  O2_6 
REMARK    3  A    between atoms: O2_6  and  C5_7 
REMARK    4  A    between atoms: C8_10  and  C9_11 
REMARK    5  A    between atoms: N1_12  and  C10_14 
REMARK    6  A    between atoms: C10_14  and  C11_15 
REMARK    7  A    between atoms: C11_15  and  C12_16 
REMARK    8  A    between atoms: C12_16  and  O3_17 
REMARK    9  A    between atoms: C18_23  and  C19_24 
REMARK   10  A    between atoms: C25_32  and  O6_33 
REMARK   11  A    between atoms: C29_37  and  O7_38 
REMARK   12  A    between atoms: C33_43  and  O9_44 
ROOT
HETATM    1  C5  UNL     1      -1.664  13.296  15.928  1.00  0.00     0.127 C 
HETATM    2  C6  UNL     1      -2.326  12.706  14.682  1.00  0.00     0.033 C 
HETATM    3  C7  UNL     1      -1.455  11.629  14.047  1.00  0.00     0.021 C 
HETATM    4  C8  UNL     1      -1.172  10.401  14.984  1.00  0.00     0.026 C 
HETATM    5  C13 UNL     1      -2.219   9.256  14.654  1.00  0.00     0.009 C 
HETATM    6  C14 UNL     1      -1.826   8.452  13.389  1.00  0.00     0.007 C 
HETATM    7  C15 UNL     1      -2.800   7.322  13.063  1.00  0.00     0.013 C 
HETATM    8  C16 UNL     1      -2.991   6.333  14.239  1.00  0.00    -0.005 C 
HETATM    9  C17 UNL     1      -1.711   5.499  14.440  1.00  0.00     0.019 C 
HETATM   10  C18 UNL     1      -4.243   5.420  14.035  1.00  0.00     0.028 C 
HETATM   11  C23 UNL     1      -5.426   6.363  14.343  1.00  0.00     0.013 C 
HETATM   12  C24 UNL     1      -4.880   7.454  15.275  1.00  0.00     0.040 C 
HETATM   13  C25 UNL     1      -3.396   7.106  15.527  1.00  0.00     0.070 C 
HETATM   14  C26 UNL     1      -2.481   8.320  15.857  1.00  0.00     0.026 C 
HETATM   15  C27 UNL     1      -3.002   9.090  17.090  1.00  0.00     0.011 C 
HETATM   16  C28 UNL     1      -2.591  10.561  17.139  1.00  0.00     0.039 C 
HETATM   17  C29 UNL     1      -1.219  10.820  16.503  1.00  0.00     0.073 C 
HETATM   18  C30 UNL     1      -0.781  12.287  16.672  1.00  0.00     0.071 C 
ENDROOT
BRANCH   1  19
HETATM   19  O2  UNL     1      -2.653  13.748  16.858  1.00  0.00    -0.356 OA
BRANCH  19  20
HETATM   20  C4  UNL     1      -3.790  14.356  16.247  1.00  0.00     0.263 C 
HETATM   21  C3  UNL     1      -3.716  15.850  16.560  1.00  0.00     0.095 C 
HETATM   22  C2  UNL     1      -4.941  16.582  16.010  1.00  0.00     0.156 C 
HETATM   23  C33 UNL     1      -6.229  15.880  16.475  1.00  0.00     0.175 C 
HETATM   24  C31 UNL     1      -6.157  14.372  16.149  1.00  0.00     0.151 C 
HETATM   25  O8  UNL     1      -4.995  13.805  16.780  1.00  0.00    -0.354 OA
HETATM   26  C32 UNL     1      -7.379  13.624  16.672  1.00  0.00     0.042 C 
BRANCH  22  27
HETATM   27  O1  UNL     1      -4.839  16.569  14.578  1.00  0.00    -0.388 OA
HETATM   28  C1  UNL     1      -5.764  17.447  13.948  1.00  0.00     0.202 C 
ENDBRANCH  22  27
BRANCH  23  29
HETATM   29  O9  UNL     1      -6.381  16.088  17.886  1.00  0.00    -0.390 OA
HETATM   30  H51 UNL     1      -5.935  15.342  18.333  1.00  0.00     0.210 HD
ENDBRANCH  23  29
ENDBRANCH  19  20
ENDBRANCH   1  19
BRANCH  17  31
HETATM   31  O7  UNL     1      -0.297  10.009  17.272  1.00  0.00    -0.389 OA
HETATM   32  H43 UNL     1      -0.108  10.483  18.100  1.00  0.00     0.210 HD
ENDBRANCH  17  31
BRANCH   4  33
HETATM   33  C9  UNL     1       0.256   9.871  14.732  1.00  0.00     0.068 C 
HETATM   34  N1  UNL     1       1.238  10.642  14.412  1.00  0.00    -0.401 N 
ATOM     35  H1  UNL     1       1.128  11.648  14.286  1.00  0.00     0.158 HD
BRANCH  34  36
HETATM   36  C10 UNL     1       2.524   9.964  14.242  1.00  0.00     0.121 C 
BRANCH  36  37
HETATM   37  C11 UNL     1       2.548   9.256  12.890  1.00  0.00     0.045 C 
BRANCH  37  38
HETATM   38  C12 UNL     1       2.796   7.760  13.027  1.00  0.00     0.165 C 
BRANCH  38  39
HETATM   39  O3  UNL     1       3.422   7.510  14.282  1.00  0.00    -0.401 OA
HETATM   40  H20 UNL     1       3.545   6.547  14.345  1.00  0.00     0.209 HD
ENDBRANCH  38  39
ENDBRANCH  37  38
ENDBRANCH  36  37
ENDBRANCH  34  36
ENDBRANCH   4  33
BRANCH  13  41
HETATM   41  O6  UNL     1      -3.387   6.211  16.651  1.00  0.00    -0.389 OA
HETATM   42  H37 UNL     1      -2.476   6.153  16.992  1.00  0.00     0.210 HD
ENDBRANCH  13  41
BRANCH  10  43
HETATM   43  C19 UNL     1      -4.331   4.649  12.745  1.00  0.00    -0.045 A 
HETATM   44  C20 UNL     1      -5.387   4.072  12.167  1.00  0.00     0.087 A 
HETATM   45  C21 UNL     1      -4.903   3.389  10.967  1.00  0.00     0.283 A 
HETATM   46  O4  UNL     1      -5.609   2.771  10.190  1.00  0.00    -0.260 OA
HETATM   47  O5  UNL     1      -3.557   3.559  10.863  1.00  0.00    -0.314 OA
HETATM   48  C22 UNL     1      -3.106   4.350  11.958  1.00  0.00     0.213 A 
ENDBRANCH  10  43
TORSDOF 12
ENDMDL
MODEL 9
REMARK minimizedAffinity -8.26166534
REMARK CNNscore 0.375045061
REMARK CNNaffinity 6.50098801
REMARK  12 active torsions:
REMARK  status: ('A' for Active; 'I' for Inactive)
REMARK    1  A    between atoms: O1_2  and  C2_3 
REMARK    2  A    between atoms: C4_5  and  O2_6 
REMARK    3  A    between atoms: O2_6  and  C5_7 
REMARK    4  A    between atoms: C8_10  and  C9_11 
REMARK    5  A    between atoms: N1_12  and  C10_14 
REMARK    6  A    between atoms: C10_14  and  C11_15 
REMARK    7  A    between atoms: C11_15  and  C12_16 
REMARK    8  A    between atoms: C12_16  and  O3_17 
REMARK    9  A    between atoms: C18_23  and  C19_24 
REMARK   10  A    between atoms: C25_32  and  O6_33 
REMARK   11  A    between atoms: C29_37  and  O7_38 
REMARK   12  A    between atoms: C33_43  and  O9_44 
ROOT
HETATM    1  C5  UNL     1      -0.353  12.116  15.908  1.00  0.00     0.127 C 
HETATM    2  C6  UNL     1      -1.685  12.110  15.159  1.00  0.00     0.033 C 
HETATM    3  C7  UNL     1      -1.655  11.148  13.977  1.00  0.00     0.021 C 
HETATM    4  C8  UNL     1      -1.400   9.652  14.377  1.00  0.00     0.026 C 
HETATM    5  C13 UNL     1      -2.798   8.911  14.493  1.00  0.00     0.009 C 
HETATM    6  C14 UNL     1      -3.360   8.503  13.108  1.00  0.00     0.007 C 
HETATM    7  C15 UNL     1      -4.692   7.760  13.190  1.00  0.00     0.013 C 
HETATM    8  C16 UNL     1      -4.624   6.500  14.088  1.00  0.00    -0.005 C 
HETATM    9  C17 UNL     1      -3.781   5.409  13.402  1.00  0.00     0.019 C 
HETATM   10  C18 UNL     1      -6.049   5.973  14.460  1.00  0.00     0.028 C 
HETATM   11  C23 UNL     1      -6.534   6.979  15.525  1.00  0.00     0.013 C 
HETATM   12  C24 UNL     1      -5.273   7.574  16.168  1.00  0.00     0.040 C 
HETATM   13  C25 UNL     1      -4.072   6.875  15.493  1.00  0.00     0.070 C 
HETATM   14  C26 UNL     1      -2.757   7.705  15.461  1.00  0.00     0.026 C 
HETATM   15  C27 UNL     1      -2.325   8.118  16.885  1.00  0.00     0.011 C 
HETATM   16  C28 UNL     1      -1.464   9.378  16.946  1.00  0.00     0.039 C 
HETATM   17  C29 UNL     1      -0.569   9.552  15.712  1.00  0.00     0.073 C 
HETATM   18  C30 UNL     1       0.370  10.765  15.856  1.00  0.00     0.071 C 
ENDROOT
BRANCH   1  19
HETATM   19  O2  UNL     1      -0.553  12.426  17.290  1.00  0.00    -0.356 OA
BRANCH  19  20
HETATM   20  C4  UNL     1       0.582  12.164  18.114  1.00  0.00     0.263 C 
HETATM   21  C3  UNL     1       0.051  11.690  19.466  1.00  0.00     0.095 C 
HETATM   22  C2  UNL     1       1.198  11.456  20.450  1.00  0.00     0.156 C 
HETATM   23  C33 UNL     1       2.108  12.697  20.505  1.00  0.00     0.175 C 
HETATM   24  C31 UNL     1       2.532  13.104  19.077  1.00  0.00     0.151 C 
HETATM   25  O8  UNL     1       1.357  13.352  18.285  1.00  0.00    -0.354 OA
HETATM   26  C32 UNL     1       3.366  14.382  19.082  1.00  0.00     0.042 C 
BRANCH  22  27
HETATM   27  O1  UNL     1       1.926  10.307  19.992  1.00  0.00    -0.388 OA
HETATM   28  C1  UNL     1       2.761   9.744  20.997  1.00  0.00     0.202 C 
ENDBRANCH  22  27
BRANCH  23  29
HETATM   29  O9  UNL     1       1.393  13.762  21.146  1.00  0.00    -0.390 OA
HETATM   30  H51 UNL     1       0.931  14.259  20.442  1.00  0.00     0.210 HD
ENDBRANCH  23  29
ENDBRANCH  19  20
ENDBRANCH   1  19
BRANCH  17  31
HETATM   31  O7  UNL     1       0.265   8.367  15.693  1.00  0.00    -0.389 OA
HETATM   32  H43 UNL     1       0.977   8.497  16.343  1.00  0.00     0.210 HD
ENDBRANCH  17  31
BRANCH   4  33
HETATM   33  C9  UNL     1      -0.548   8.959  13.292  1.00  0.00     0.068 C 
HETATM   34  N1  UNL     1       0.512   9.497  12.791  1.00  0.00    -0.401 N 
ATOM     35  H1  UNL     1       0.841  10.422  13.067  1.00  0.00     0.158 HD
BRANCH  34  36
HETATM   36  C10 UNL     1       1.206   8.679  11.795  1.00  0.00     0.121 C 
BRANCH  36  37
HETATM   37  C11 UNL     1       0.190   8.123  10.800  1.00  0.00     0.045 C 
BRANCH  37  38
HETATM   38  C12 UNL     1       0.607   8.365   9.356  1.00  0.00     0.165 C 
BRANCH  38  39
HETATM   39  O3  UNL     1      -0.392   9.149   8.713  1.00  0.00    -0.401 OA
HETATM   40  H20 UNL     1      -0.084   9.303   7.803  1.00  0.00     0.209 HD
ENDBRANCH  38  39
ENDBRANCH  37  38
ENDBRANCH  36  37
ENDBRANCH  34  36
ENDBRANCH   4  33
BRANCH  13  41
HETATM   41  O6  UNL     1      -3.835   5.679  16.254  1.00  0.00    -0.389 OA
HETATM   42  H37 UNL     1      -2.956   5.331  16.018  1.00  0.00     0.210 HD
ENDBRANCH  13  41
BRANCH  10  43
HETATM   43  C19 UNL     1      -7.000   5.701  13.326  1.00  0.00    -0.045 A 
HETATM   44  C20 UNL     1      -7.927   6.493  12.783  1.00  0.00     0.087 A 
HETATM   45  C21 UNL     1      -8.625   5.706  11.765  1.00  0.00     0.283 A 
HETATM   46  O4  UNL     1      -9.525   6.128  11.060  1.00  0.00    -0.260 OA
HETATM   47  O5  UNL     1      -8.108   4.448  11.734  1.00  0.00    -0.314 OA
HETATM   48  C22 UNL     1      -7.065   4.354  12.700  1.00  0.00     0.213 A 
ENDBRANCH  10  43
TORSDOF 12
ENDMDL
