MODEL 1
REMARK minimizedAffinity -7.83613014
REMARK CNNscore 0.630218029
REMARK CNNaffinity 6.26163149
REMARK  8 active torsions:
REMARK  status: ('A' for Active; 'I' for Inactive)
REMARK    1  A    between atoms: O1_2  and  C2_3 
REMARK    2  A    between atoms: C2_3  and  C3_4 
REMARK    3  A    between atoms: C7_8  and  C8_9 
REMARK    4  A    between atoms: C8_9  and  C9_10 
REMARK    5  A    between atoms: C8_9  and  C10_12 
REMARK    6  A    between atoms: C9_10  and  O2_11 
REMARK    7  A    between atoms: C19_21  and  S1_22 
REMARK    8  A    between atoms: S1_22  and  O5_25 
ROOT
HETATM    1  C10 UNL     1     -10.234  46.596 -28.425  1.00  0.00     0.003 C 
HETATM    2  C11 UNL     1     -10.610  48.077 -28.322  1.00  0.00     0.006 C 
HETATM    3  C12 UNL     1     -12.121  48.097 -28.588  1.00  0.00     0.006 C 
HETATM    4  C13 UNL     1     -12.604  46.626 -28.501  1.00  0.00    -0.001 C 
HETATM    5  C14 UNL     1     -14.030  46.489 -27.934  1.00  0.00    -0.001 C 
HETATM    6  C15 UNL     1     -14.754  45.271 -28.534  1.00  0.00     0.033 C 
HETATM    7  C16 UNL     1     -16.058  44.982 -27.867  1.00  0.00    -0.022 C 
HETATM    8  C17 UNL     1     -16.209  45.115 -26.542  1.00  0.00    -0.066 C 
HETATM    9  C18 UNL     1     -17.500  44.766 -25.846  1.00  0.00     0.057 C 
HETATM   10  C19 UNL     1     -18.084  45.986 -25.128  1.00  0.00     0.132 C 
HETATM   11  C20 UNL     1     -17.025  46.973 -24.641  1.00  0.00     0.101 C 
HETATM   12  C21 UNL     1     -15.690  46.289 -24.427  1.00  0.00     0.141 C 
HETATM   13  O6  UNL     1     -15.115  46.374 -23.341  1.00  0.00    -0.297 OA
HETATM   14  C22 UNL     1     -15.053  45.580 -25.654  1.00  0.00     0.044 C 
HETATM   15  C23 UNL     1     -14.299  44.335 -25.160  1.00  0.00     0.029 C 
HETATM   16  C24 UNL     1     -14.142  46.630 -26.391  1.00  0.00     0.010 C 
HETATM   17  C25 UNL     1     -12.792  46.909 -25.715  1.00  0.00     0.007 C 
HETATM   18  C26 UNL     1     -11.596  46.097 -26.213  1.00  0.00     0.010 C 
HETATM   19  C27 UNL     1     -11.461  45.891 -27.746  1.00  0.00    -0.036 C 
HETATM   20  C28 UNL     1     -11.409  44.388 -28.062  1.00  0.00     0.016 C 
ENDROOT
BRANCH   1  21
HETATM   21  C8  UNL     1      -8.748  46.202 -28.110  1.00  0.00     0.044 C 
BRANCH  21  22
HETATM   22  C7  UNL     1      -7.839  46.474 -29.358  1.00  0.00     0.142 C 
HETATM   23  C6  UNL     1      -8.500  47.219 -30.517  1.00  0.00     0.067 C 
HETATM   24  C4  UNL     1      -7.469  47.598 -31.551  1.00  0.00    -0.067 C 
HETATM   25  C3  UNL     1      -6.171  47.753 -31.206  1.00  0.00     0.043 C 
HETATM   26  C5  UNL     1      -8.015  47.782 -32.939  1.00  0.00     0.044 C 
HETATM   27  C29 UNL     1      -5.790  47.720 -29.769  1.00  0.00     0.292 C 
HETATM   28  O7  UNL     1      -6.710  47.253 -28.893  1.00  0.00    -0.311 OA
HETATM   29  O8  UNL     1      -4.705  48.140 -29.383  1.00  0.00    -0.260 OA
BRANCH  25  30
HETATM   30  C2  UNL     1      -5.008  48.036 -32.123  1.00  0.00     0.212 C 
BRANCH  30  31
HETATM   31  O1  UNL     1      -4.061  46.963 -32.092  1.00  0.00    -0.391 OA
HETATM   32  C1  UNL     1      -4.616  45.764 -32.615  1.00  0.00     0.201 C 
ENDBRANCH  30  31
ENDBRANCH  25  30
ENDBRANCH  21  22
BRANCH  21  33
HETATM   33  C9  UNL     1      -8.169  46.790 -26.821  1.00  0.00     0.171 C 
BRANCH  33  34
HETATM   34  O2  UNL     1      -8.174  48.213 -26.845  1.00  0.00    -0.400 OA
HETATM   35  H15 UNL     1      -7.506  48.499 -27.496  1.00  0.00     0.209 HD
ENDBRANCH  33  34
ENDBRANCH  21  33
ENDBRANCH   1  21
BRANCH  10  36
HETATM   36  S1  UNL     1     -19.132  45.414 -23.784  1.00  0.00     0.099 S 
HETATM   37  O3  UNL     1     -18.677  45.984 -22.538  1.00  0.00    -0.601 OA
HETATM   38  O4  UNL     1     -20.520  45.447 -24.176  1.00  0.00    -0.601 OA
BRANCH  36  39
HETATM   39  O5  UNL     1     -18.685  43.863 -23.773  1.00  0.00    -0.295 OA
HETATM   40  H29 UNL     1     -19.321  43.359 -23.220  1.00  0.00     0.232 HD
ENDBRANCH  36  39
ENDBRANCH  10  36
TORSDOF 8
ENDMDL
MODEL 2
REMARK minimizedAffinity -9.33612442
REMARK CNNscore 0.589773417
REMARK CNNaffinity 6.64698267
REMARK  8 active torsions:
REMARK  status: ('A' for Active; 'I' for Inactive)
REMARK    1  A    between atoms: O1_2  and  C2_3 
REMARK    2  A    between atoms: C2_3  and  C3_4 
REMARK    3  A    between atoms: C7_8  and  C8_9 
REMARK    4  A    between atoms: C8_9  and  C9_10 
REMARK    5  A    between atoms: C8_9  and  C10_12 
REMARK    6  A    between atoms: C9_10  and  O2_11 
REMARK    7  A    between atoms: C19_21  and  S1_22 
REMARK    8  A    between atoms: S1_22  and  O5_25 
ROOT
HETATM    1  C10 UNL     1      -4.326  49.794 -24.455  1.00  0.00     0.003 C 
HETATM    2  C11 UNL     1      -5.238  50.862 -23.845  1.00  0.00     0.006 C 
HETATM    3  C12 UNL     1      -5.372  50.442 -22.376  1.00  0.00     0.006 C 
HETATM    4  C13 UNL     1      -4.287  49.363 -22.123  1.00  0.00    -0.001 C 
HETATM    5  C14 UNL     1      -3.709  49.408 -20.695  1.00  0.00    -0.001 C 
HETATM    6  C15 UNL     1      -3.288  48.006 -20.222  1.00  0.00     0.033 C 
HETATM    7  C16 UNL     1      -2.539  48.030 -18.930  1.00  0.00    -0.022 C 
HETATM    8  C17 UNL     1      -1.651  48.995 -18.654  1.00  0.00    -0.066 C 
HETATM    9  C18 UNL     1      -0.842  48.997 -17.383  1.00  0.00     0.057 C 
HETATM   10  C19 UNL     1      -1.115  50.259 -16.560  1.00  0.00     0.132 C 
HETATM   11  C20 UNL     1      -1.479  51.475 -17.409  1.00  0.00     0.101 C 
HETATM   12  C21 UNL     1      -0.924  51.354 -18.814  1.00  0.00     0.141 C 
HETATM   13  O6  UNL     1      -0.213  52.246 -19.279  1.00  0.00    -0.297 OA
HETATM   14  C22 UNL     1      -1.372  50.124 -19.649  1.00  0.00     0.044 C 
HETATM   15  C23 UNL     1      -0.202  49.691 -20.547  1.00  0.00     0.029 C 
HETATM   16  C24 UNL     1      -2.669  50.533 -20.440  1.00  0.00     0.010 C 
HETATM   17  C25 UNL     1      -2.429  51.418 -21.672  1.00  0.00     0.007 C 
HETATM   18  C26 UNL     1      -2.301  50.701 -23.016  1.00  0.00     0.010 C 
HETATM   19  C27 UNL     1      -3.291  49.539 -23.304  1.00  0.00    -0.036 C 
HETATM   20  C28 UNL     1      -2.504  48.256 -23.616  1.00  0.00     0.016 C 
ENDROOT
BRANCH   1  21
HETATM   21  C8  UNL     1      -3.900  49.975 -25.955  1.00  0.00     0.044 C 
BRANCH  21  22
HETATM   22  C7  UNL     1      -2.651  50.918 -26.053  1.00  0.00     0.142 C 
HETATM   23  C6  UNL     1      -1.325  50.236 -26.389  1.00  0.00     0.067 C 
HETATM   24  C4  UNL     1      -0.260  51.270 -26.660  1.00  0.00    -0.067 C 
HETATM   25  C3  UNL     1      -0.593  52.508 -27.088  1.00  0.00     0.043 C 
HETATM   26  C5  UNL     1       1.147  50.796 -26.420  1.00  0.00     0.044 C 
HETATM   27  C29 UNL     1      -2.004  52.795 -27.459  1.00  0.00     0.292 C 
HETATM   28  O7  UNL     1      -2.941  51.894 -27.082  1.00  0.00    -0.311 OA
HETATM   29  O8  UNL     1      -2.307  53.783 -28.119  1.00  0.00    -0.260 OA
BRANCH  25  30
HETATM   30  C2  UNL     1       0.330  53.678 -27.315  1.00  0.00     0.212 C 
BRANCH  30  31
HETATM   31  O1  UNL     1       0.153  54.673 -26.302  1.00  0.00    -0.391 OA
HETATM   32  C1  UNL     1       0.228  54.109 -24.999  1.00  0.00     0.201 C 
ENDBRANCH  30  31
ENDBRANCH  25  30
ENDBRANCH  21  22
BRANCH  21  33
HETATM   33  C9  UNL     1      -3.725  48.681 -26.753  1.00  0.00     0.171 C 
BRANCH  33  34
HETATM   34  O2  UNL     1      -3.849  48.907 -28.152  1.00  0.00    -0.400 OA
HETATM   35  H15 UNL     1      -4.785  49.113 -28.336  1.00  0.00     0.209 HD
ENDBRANCH  33  34
ENDBRANCH  21  33
ENDBRANCH   1  21
BRANCH  10  36
HETATM   36  S1  UNL     1       0.308  50.579 -15.511  1.00  0.00     0.099 S 
HETATM   37  O3  UNL     1      -0.004  51.637 -14.578  1.00  0.00    -0.601 OA
HETATM   38  O4  UNL     1       0.911  49.340 -15.084  1.00  0.00    -0.601 OA
BRANCH  36  39
HETATM   39  O5  UNL     1       1.289  51.218 -16.622  1.00  0.00    -0.295 OA
HETATM   40  H29 UNL     1       2.196  51.264 -16.249  1.00  0.00     0.232 HD
ENDBRANCH  36  39
ENDBRANCH  10  36
TORSDOF 8
ENDMDL
MODEL 3
REMARK minimizedAffinity -7.5092454
REMARK CNNscore 0.537276328
REMARK CNNaffinity 6.10000181
REMARK  8 active torsions:
REMARK  status: ('A' for Active; 'I' for Inactive)
REMARK    1  A    between atoms: O1_2  and  C2_3 
REMARK    2  A    between atoms: C2_3  and  C3_4 
REMARK    3  A    between atoms: C7_8  and  C8_9 
REMARK    4  A    between atoms: C8_9  and  C9_10 
REMARK    5  A    between atoms: C8_9  and  C10_12 
REMARK    6  A    between atoms: C9_10  and  O2_11 
REMARK    7  A    between atoms: C19_21  and  S1_22 
REMARK    8  A    between atoms: S1_22  and  O5_25 
ROOT
HETATM    1  C10 UNL     1       6.592  56.392  -6.425  1.00  0.00     0.003 C 
HETATM    2  C11 UNL     1       5.584  57.119  -5.530  1.00  0.00     0.006 C 
HETATM    3  C12 UNL     1       4.482  57.569  -6.498  1.00  0.00     0.006 C 
HETATM    4  C13 UNL     1       4.726  56.809  -7.829  1.00  0.00    -0.001 C 
HETATM    5  C14 UNL     1       3.423  56.463  -8.575  1.00  0.00    -0.001 C 
HETATM    6  C15 UNL     1       3.641  56.449 -10.098  1.00  0.00     0.033 C 
HETATM    7  C16 UNL     1       2.463  55.922 -10.849  1.00  0.00    -0.022 C 
HETATM    8  C17 UNL     1       1.743  54.890 -10.386  1.00  0.00    -0.066 C 
HETATM    9  C18 UNL     1       0.591  54.307 -11.163  1.00  0.00     0.057 C 
HETATM   10  C19 UNL     1      -0.715  54.409 -10.369  1.00  0.00     0.132 C 
HETATM   11  C20 UNL     1      -0.516  54.352  -8.856  1.00  0.00     0.101 C 
HETATM   12  C21 UNL     1       0.766  53.630  -8.494  1.00  0.00     0.141 C 
HETATM   13  O6  UNL     1       0.742  52.673  -7.720  1.00  0.00    -0.297 OA
HETATM   14  C22 UNL     1       2.091  54.213  -9.059  1.00  0.00     0.044 C 
HETATM   15  C23 UNL     1       3.050  53.048  -9.354  1.00  0.00     0.029 C 
HETATM   16  C24 UNL     1       2.642  55.246  -8.008  1.00  0.00     0.010 C 
HETATM   17  C25 UNL     1       3.314  54.624  -6.775  1.00  0.00     0.007 C 
HETATM   18  C26 UNL     1       4.833  54.458  -6.833  1.00  0.00     0.010 C 
HETATM   19  C27 UNL     1       5.658  55.630  -7.431  1.00  0.00    -0.036 C 
HETATM   20  C28 UNL     1       6.504  55.118  -8.607  1.00  0.00     0.016 C 
ENDROOT
BRANCH   1  21
HETATM   21  C8  UNL     1       7.821  55.710  -5.728  1.00  0.00     0.044 C 
BRANCH  21  22
HETATM   22  C7  UNL     1       8.675  56.783  -4.966  1.00  0.00     0.142 C 
HETATM   23  C6  UNL     1      10.170  56.796  -5.285  1.00  0.00     0.067 C 
HETATM   24  C4  UNL     1      10.828  57.998  -4.655  1.00  0.00    -0.067 C 
HETATM   25  C3  UNL     1      10.112  59.112  -4.381  1.00  0.00     0.043 C 
HETATM   26  C5  UNL     1      12.298  57.835  -4.383  1.00  0.00     0.044 C 
HETATM   27  C29 UNL     1       8.710  59.213  -4.863  1.00  0.00     0.292 C 
HETATM   28  O7  UNL     1       8.121  58.077  -5.304  1.00  0.00    -0.311 OA
HETATM   29  O8  UNL     1       8.121  60.288  -4.906  1.00  0.00    -0.260 OA
BRANCH  25  30
HETATM   30  C2  UNL     1      10.589  60.356  -3.675  1.00  0.00     0.212 C 
BRANCH  30  31
HETATM   31  O1  UNL     1      11.323  61.201  -4.569  1.00  0.00    -0.391 OA
HETATM   32  C1  UNL     1      10.864  62.545  -4.510  1.00  0.00     0.201 C 
ENDBRANCH  30  31
ENDBRANCH  25  30
ENDBRANCH  21  22
BRANCH  21  33
HETATM   33  C9  UNL     1       7.496  54.492  -4.860  1.00  0.00     0.171 C 
BRANCH  33  34
HETATM   34  O2  UNL     1       8.563  54.183  -3.970  1.00  0.00    -0.400 OA
HETATM   35  H15 UNL     1       9.302  53.839  -4.505  1.00  0.00     0.209 HD
ENDBRANCH  33  34
ENDBRANCH  21  33
ENDBRANCH   1  21
BRANCH  10  36
HETATM   36  S1  UNL     1      -1.837  53.128 -10.944  1.00  0.00     0.099 S 
HETATM   37  O3  UNL     1      -1.320  52.538 -12.157  1.00  0.00    -0.601 OA
HETATM   38  O4  UNL     1      -2.292  52.321  -9.838  1.00  0.00    -0.601 OA
BRANCH  36  39
HETATM   39  O5  UNL     1      -3.074  54.068 -11.378  1.00  0.00    -0.295 OA
HETATM   40  H29 UNL     1      -3.861  53.499 -11.530  1.00  0.00     0.232 HD
ENDBRANCH  36  39
ENDBRANCH  10  36
TORSDOF 8
ENDMDL
MODEL 4
REMARK minimizedAffinity -8.38318634
REMARK CNNscore 0.465012968
REMARK CNNaffinity 6.0074935
REMARK  8 active torsions:
REMARK  status: ('A' for Active; 'I' for Inactive)
REMARK    1  A    between atoms: O1_2  and  C2_3 
REMARK    2  A    between atoms: C2_3  and  C3_4 
REMARK    3  A    between atoms: C7_8  and  C8_9 
REMARK    4  A    between atoms: C8_9  and  C9_10 
REMARK    5  A    between atoms: C8_9  and  C10_12 
REMARK    6  A    between atoms: C9_10  and  O2_11 
REMARK    7  A    between atoms: C19_21  and  S1_22 
REMARK    8  A    between atoms: S1_22  and  O5_25 
ROOT
HETATM    1  C10 UNL     1     -10.387  46.176 -29.987  1.00  0.00     0.003 C 
HETATM    2  C11 UNL     1     -10.594  47.691 -29.900  1.00  0.00     0.006 C 
HETATM    3  C12 UNL     1     -12.105  47.849 -29.685  1.00  0.00     0.006 C 
HETATM    4  C13 UNL     1     -12.650  46.441 -29.328  1.00  0.00    -0.001 C 
HETATM    5  C14 UNL     1     -13.830  46.482 -28.337  1.00  0.00    -0.001 C 
HETATM    6  C15 UNL     1     -14.799  45.312 -28.579  1.00  0.00     0.033 C 
HETATM    7  C16 UNL     1     -15.844  45.195 -27.518  1.00  0.00    -0.022 C 
HETATM    8  C17 UNL     1     -15.558  45.417 -26.227  1.00  0.00    -0.066 C 
HETATM    9  C18 UNL     1     -16.586  45.241 -25.140  1.00  0.00     0.057 C 
HETATM   10  C19 UNL     1     -16.815  46.553 -24.383  1.00  0.00     0.132 C 
HETATM   11  C20 UNL     1     -15.583  47.453 -24.334  1.00  0.00     0.101 C 
HETATM   12  C21 UNL     1     -14.306  46.651 -24.486  1.00  0.00     0.141 C 
HETATM   13  O6  UNL     1     -13.413  46.738 -23.643  1.00  0.00    -0.297 OA
HETATM   14  C22 UNL     1     -14.148  45.813 -25.784  1.00  0.00     0.044 C 
HETATM   15  C23 UNL     1     -13.377  44.527 -25.444  1.00  0.00     0.029 C 
HETATM   16  C24 UNL     1     -13.437  46.721 -26.854  1.00  0.00     0.010 C 
HETATM   17  C25 UNL     1     -11.925  46.900 -26.656  1.00  0.00     0.007 C 
HETATM   18  C26 UNL     1     -11.015  45.944 -27.428  1.00  0.00     0.010 C 
HETATM   19  C27 UNL     1     -11.388  45.638 -28.904  1.00  0.00    -0.036 C 
HETATM   20  C28 UNL     1     -11.556  44.122 -29.090  1.00  0.00     0.016 C 
ENDROOT
BRANCH   1  21
HETATM   21  C8  UNL     1      -8.913  45.652 -30.114  1.00  0.00     0.044 C 
BRANCH  21  22
HETATM   22  C7  UNL     1      -7.916  46.681 -29.478  1.00  0.00     0.142 C 
HETATM   23  C6  UNL     1      -7.605  46.480 -27.995  1.00  0.00     0.067 C 
HETATM   24  C4  UNL     1      -6.484  47.394 -27.567  1.00  0.00    -0.067 C 
HETATM   25  C3  UNL     1      -5.579  47.843 -28.466  1.00  0.00     0.043 C 
HETATM   26  C5  UNL     1      -6.477  47.732 -26.102  1.00  0.00     0.044 C 
HETATM   27  C29 UNL     1      -5.590  47.293 -29.847  1.00  0.00     0.292 C 
HETATM   28  O7  UNL     1      -6.679  46.583 -30.224  1.00  0.00    -0.311 OA
HETATM   29  O8  UNL     1      -4.635  47.435 -30.602  1.00  0.00    -0.260 OA
BRANCH  25  30
HETATM   30  C2  UNL     1      -4.461  48.827 -28.227  1.00  0.00     0.212 C 
BRANCH  30  31
HETATM   31  O1  UNL     1      -3.297  48.163 -27.725  1.00  0.00    -0.391 OA
HETATM   32  C1  UNL     1      -2.923  48.662 -26.447  1.00  0.00     0.201 C 
ENDBRANCH  30  31
ENDBRANCH  25  30
ENDBRANCH  21  22
BRANCH  21  33
HETATM   33  C9  UNL     1      -8.677  44.222 -29.624  1.00  0.00     0.171 C 
BRANCH  33  34
HETATM   34  O2  UNL     1      -7.379  43.755 -29.975  1.00  0.00    -0.400 OA
HETATM   35  H15 UNL     1      -7.364  43.626 -30.942  1.00  0.00     0.209 HD
ENDBRANCH  33  34
ENDBRANCH  21  33
ENDBRANCH   1  21
BRANCH  10  36
HETATM   36  S1  UNL     1     -17.426  46.167 -22.737  1.00  0.00     0.099 S 
HETATM   37  O3  UNL     1     -16.488  46.641 -21.748  1.00  0.00    -0.601 OA
HETATM   38  O4  UNL     1     -18.839  46.446 -22.644  1.00  0.00    -0.601 OA
BRANCH  36  39
HETATM   39  O5  UNL     1     -17.269  44.562 -22.792  1.00  0.00    -0.295 OA
HETATM   40  H29 UNL     1     -17.756  44.174 -22.032  1.00  0.00     0.232 HD
ENDBRANCH  36  39
ENDBRANCH  10  36
TORSDOF 8
ENDMDL
MODEL 5
REMARK minimizedAffinity -9.77900982
REMARK CNNscore 0.453191042
REMARK CNNaffinity 6.5086627
REMARK  8 active torsions:
REMARK  status: ('A' for Active; 'I' for Inactive)
REMARK    1  A    between atoms: O1_2  and  C2_3 
REMARK    2  A    between atoms: C2_3  and  C3_4 
REMARK    3  A    between atoms: C7_8  and  C8_9 
REMARK    4  A    between atoms: C8_9  and  C9_10 
REMARK    5  A    between atoms: C8_9  and  C10_12 
REMARK    6  A    between atoms: C9_10  and  O2_11 
REMARK    7  A    between atoms: C19_21  and  S1_22 
REMARK    8  A    between atoms: S1_22  and  O5_25 
ROOT
HETATM    1  C10 UNL     1      -3.727  47.902 -20.001  1.00  0.00     0.003 C 
HETATM    2  C11 UNL     1      -2.320  47.305 -20.091  1.00  0.00     0.006 C 
HETATM    3  C12 UNL     1      -2.043  47.229 -21.598  1.00  0.00     0.006 C 
HETATM    4  C13 UNL     1      -3.139  48.079 -22.292  1.00  0.00    -0.001 C 
HETATM    5  C14 UNL     1      -2.640  48.792 -23.563  1.00  0.00    -0.001 C 
HETATM    6  C15 UNL     1      -3.771  48.949 -24.594  1.00  0.00     0.033 C 
HETATM    7  C16 UNL     1      -3.386  49.809 -25.752  1.00  0.00    -0.022 C 
HETATM    8  C17 UNL     1      -2.633  50.906 -25.588  1.00  0.00    -0.066 C 
HETATM    9  C18 UNL     1      -2.291  51.819 -26.738  1.00  0.00     0.057 C 
HETATM   10  C19 UNL     1      -0.775  51.904 -26.938  1.00  0.00     0.132 C 
HETATM   11  C20 UNL     1       0.023  51.726 -25.648  1.00  0.00     0.101 C 
HETATM   12  C21 UNL     1      -0.801  52.100 -24.433  1.00  0.00     0.141 C 
HETATM   13  O6  UNL     1      -0.380  52.935 -23.631  1.00  0.00    -0.297 OA
HETATM   14  C22 UNL     1      -2.124  51.319 -24.206  1.00  0.00     0.044 C 
HETATM   15  C23 UNL     1      -3.155  52.275 -23.584  1.00  0.00     0.029 C 
HETATM   16  C24 UNL     1      -1.791  50.068 -23.313  1.00  0.00     0.010 C 
HETATM   17  C25 UNL     1      -1.585  50.368 -21.821  1.00  0.00     0.007 C 
HETATM   18  C26 UNL     1      -2.806  50.207 -20.915  1.00  0.00     0.010 C 
HETATM   19  C27 UNL     1      -3.713  48.968 -21.153  1.00  0.00    -0.036 C 
HETATM   20  C28 UNL     1      -5.154  49.428 -21.423  1.00  0.00     0.016 C 
ENDROOT
BRANCH   1  21
HETATM   21  C8  UNL     1      -4.295  48.206 -18.569  1.00  0.00     0.044 C 
BRANCH  21  22
HETATM   22  C7  UNL     1      -3.217  48.949 -17.706  1.00  0.00     0.142 C 
HETATM   23  C6  UNL     1      -1.889  48.216 -17.521  1.00  0.00     0.067 C 
HETATM   24  C4  UNL     1      -0.880  49.122 -16.859  1.00  0.00    -0.067 C 
HETATM   25  C3  UNL     1      -0.984  50.466 -16.968  1.00  0.00     0.043 C 
HETATM   26  C5  UNL     1       0.206  48.404 -16.106  1.00  0.00     0.044 C 
HETATM   27  C29 UNL     1      -1.997  51.046 -17.888  1.00  0.00     0.292 C 
HETATM   28  O7  UNL     1      -2.957  50.216 -18.357  1.00  0.00    -0.311 OA
HETATM   29  O8  UNL     1      -1.943  52.217 -18.247  1.00  0.00    -0.260 OA
BRANCH  25  30
HETATM   30  C2  UNL     1      -0.123  51.508 -16.299  1.00  0.00     0.212 C 
BRANCH  30  31
HETATM   31  O1  UNL     1       1.007  51.836 -17.114  1.00  0.00    -0.391 OA
HETATM   32  C1  UNL     1       2.060  52.399 -16.343  1.00  0.00     0.201 C 
ENDBRANCH  30  31
ENDBRANCH  25  30
ENDBRANCH  21  22
BRANCH  21  33
HETATM   33  C9  UNL     1      -5.658  48.901 -18.534  1.00  0.00     0.171 C 
BRANCH  33  34
HETATM   34  O2  UNL     1      -6.523  48.309 -17.572  1.00  0.00    -0.400 OA
HETATM   35  H15 UNL     1      -6.773  47.426 -17.904  1.00  0.00     0.209 HD
ENDBRANCH  33  34
ENDBRANCH  21  33
ENDBRANCH   1  21
BRANCH  10  36
HETATM   36  S1  UNL     1      -0.390  53.460 -27.752  1.00  0.00     0.099 S 
HETATM   37  O3  UNL     1       0.037  54.428 -26.769  1.00  0.00    -0.601 OA
HETATM   38  O4  UNL     1       0.354  53.226 -28.965  1.00  0.00    -0.601 OA
BRANCH  36  39
HETATM   39  O5  UNL     1      -1.885  53.878 -28.193  1.00  0.00    -0.295 OA
HETATM   40  H29 UNL     1      -1.826  54.619 -28.835  1.00  0.00     0.232 HD
ENDBRANCH  36  39
ENDBRANCH  10  36
TORSDOF 8
ENDMDL
MODEL 6
REMARK minimizedAffinity -7.34630775
REMARK CNNscore 0.370457858
REMARK CNNaffinity 6.36043549
REMARK  8 active torsions:
REMARK  status: ('A' for Active; 'I' for Inactive)
REMARK    1  A    between atoms: O1_2  and  C2_3 
REMARK    2  A    between atoms: C2_3  and  C3_4 
REMARK    3  A    between atoms: C7_8  and  C8_9 
REMARK    4  A    between atoms: C8_9  and  C9_10 
REMARK    5  A    between atoms: C8_9  and  C10_12 
REMARK    6  A    between atoms: C9_10  and  O2_11 
REMARK    7  A    between atoms: C19_21  and  S1_22 
REMARK    8  A    between atoms: S1_22  and  O5_25 
ROOT
HETATM    1  C10 UNL     1      -4.433  48.454 -21.220  1.00  0.00     0.003 C 
HETATM    2  C11 UNL     1      -4.672  49.791 -20.513  1.00  0.00     0.006 C 
HETATM    3  C12 UNL     1      -6.192  49.984 -20.584  1.00  0.00     0.006 C 
HETATM    4  C13 UNL     1      -6.790  48.622 -21.021  1.00  0.00    -0.001 C 
HETATM    5  C14 UNL     1      -8.172  48.339 -20.400  1.00  0.00    -0.001 C 
HETATM    6  C15 UNL     1      -9.043  47.491 -21.343  1.00  0.00     0.033 C 
HETATM    7  C16 UNL     1     -10.308  47.024 -20.702  1.00  0.00    -0.022 C 
HETATM    8  C17 UNL     1     -10.339  46.632 -19.420  1.00  0.00    -0.066 C 
HETATM    9  C18 UNL     1     -11.594  46.098 -18.778  1.00  0.00     0.057 C 
HETATM   10  C19 UNL     1     -12.011  46.963 -17.585  1.00  0.00     0.132 C 
HETATM   11  C20 UNL     1     -10.836  47.629 -16.873  1.00  0.00     0.101 C 
HETATM   12  C21 UNL     1      -9.551  46.855 -17.086  1.00  0.00     0.141 C 
HETATM   13  O6  UNL     1      -8.885  46.480 -16.121  1.00  0.00    -0.297 OA
HETATM   14  C22 UNL     1      -9.079  46.656 -18.553  1.00  0.00     0.044 C 
HETATM   15  C23 UNL     1      -8.396  45.284 -18.664  1.00  0.00     0.029 C 
HETATM   16  C24 UNL     1      -8.145  47.868 -18.921  1.00  0.00     0.010 C 
HETATM   17  C25 UNL     1      -6.725  47.796 -18.340  1.00  0.00     0.007 C 
HETATM   18  C26 UNL     1      -5.647  47.190 -19.239  1.00  0.00     0.010 C 
HETATM   19  C27 UNL     1      -5.656  47.597 -20.738  1.00  0.00    -0.036 C 
HETATM   20  C28 UNL     1      -5.757  46.338 -21.613  1.00  0.00     0.016 C 
ENDROOT
BRANCH   1  21
HETATM   21  C8  UNL     1      -2.965  47.900 -21.244  1.00  0.00     0.044 C 
BRANCH  21  22
HETATM   22  C7  UNL     1      -1.977  49.003 -21.759  1.00  0.00     0.142 C 
HETATM   23  C6  UNL     1      -2.261  49.554 -23.156  1.00  0.00     0.067 C 
HETATM   24  C4  UNL     1      -1.377  50.743 -23.439  1.00  0.00    -0.067 C 
HETATM   25  C3  UNL     1      -0.882  51.491 -22.427  1.00  0.00     0.043 C 
HETATM   26  C5  UNL     1      -1.122  51.000 -24.898  1.00  0.00     0.044 C 
HETATM   27  C29 UNL     1      -1.354  51.242 -21.039  1.00  0.00     0.292 C 
HETATM   28  O7  UNL     1      -2.038  50.097 -20.812  1.00  0.00    -0.311 OA
HETATM   29  O8  UNL     1      -1.174  52.060 -20.143  1.00  0.00    -0.260 OA
BRANCH  25  30
HETATM   30  C2  UNL     1       0.083  52.646 -22.528  1.00  0.00     0.212 C 
BRANCH  30  31
HETATM   31  O1  UNL     1       1.291  52.366 -21.813  1.00  0.00    -0.391 OA
HETATM   32  C1  UNL     1       1.735  53.498 -21.077  1.00  0.00     0.201 C 
ENDBRANCH  30  31
ENDBRANCH  25  30
ENDBRANCH  21  22
BRANCH  21  33
HETATM   33  C9  UNL     1      -2.487  47.241 -19.948  1.00  0.00     0.171 C 
BRANCH  33  34
HETATM   34  O2  UNL     1      -1.197  47.706 -19.568  1.00  0.00    -0.400 OA
HETATM   35  H15 UNL     1      -0.554  47.348 -20.207  1.00  0.00     0.209 HD
ENDBRANCH  33  34
ENDBRANCH  21  33
ENDBRANCH   1  21
BRANCH  10  36
HETATM   36  S1  UNL     1     -12.991  45.959 -16.463  1.00  0.00     0.099 S 
HETATM   37  O3  UNL     1     -13.570  44.850 -17.184  1.00  0.00    -0.601 OA
HETATM   38  O4  UNL     1     -12.297  45.775 -15.212  1.00  0.00    -0.601 OA
BRANCH  36  39
HETATM   39  O5  UNL     1     -14.188  47.005 -16.184  1.00  0.00    -0.295 OA
HETATM   40  H29 UNL     1     -14.714  46.681 -15.421  1.00  0.00     0.232 HD
ENDBRANCH  36  39
ENDBRANCH  10  36
TORSDOF 8
ENDMDL
MODEL 7
REMARK minimizedAffinity -8.96823311
REMARK CNNscore 0.364052713
REMARK CNNaffinity 6.3414402
REMARK  8 active torsions:
REMARK  status: ('A' for Active; 'I' for Inactive)
REMARK    1  A    between atoms: O1_2  and  C2_3 
REMARK    2  A    between atoms: C2_3  and  C3_4 
REMARK    3  A    between atoms: C7_8  and  C8_9 
REMARK    4  A    between atoms: C8_9  and  C9_10 
REMARK    5  A    between atoms: C8_9  and  C10_12 
REMARK    6  A    between atoms: C9_10  and  O2_11 
REMARK    7  A    between atoms: C19_21  and  S1_22 
REMARK    8  A    between atoms: S1_22  and  O5_25 
ROOT
HETATM    1  C10 UNL     1      -1.722  48.940 -20.053  1.00  0.00     0.003 C 
HETATM    2  C11 UNL     1      -1.137  48.322 -21.326  1.00  0.00     0.006 C 
HETATM    3  C12 UNL     1      -2.076  47.150 -21.637  1.00  0.00     0.006 C 
HETATM    4  C13 UNL     1      -3.330  47.339 -20.744  1.00  0.00    -0.001 C 
HETATM    5  C14 UNL     1      -4.630  46.852 -21.414  1.00  0.00    -0.001 C 
HETATM    6  C15 UNL     1      -5.631  46.329 -20.369  1.00  0.00     0.033 C 
HETATM    7  C16 UNL     1      -6.976  46.036 -20.949  1.00  0.00    -0.022 C 
HETATM    8  C17 UNL     1      -7.519  46.824 -21.887  1.00  0.00    -0.066 C 
HETATM    9  C18 UNL     1      -8.901  46.578 -22.435  1.00  0.00     0.057 C 
HETATM   10  C19 UNL     1      -8.857  46.334 -23.947  1.00  0.00     0.132 C 
HETATM   11  C20 UNL     1      -7.716  47.064 -24.650  1.00  0.00     0.101 C 
HETATM   12  C21 UNL     1      -7.276  48.285 -23.869  1.00  0.00     0.141 C 
HETATM   13  O6  UNL     1      -7.248  49.392 -24.409  1.00  0.00    -0.297 OA
HETATM   14  C22 UNL     1      -6.779  48.055 -22.416  1.00  0.00     0.044 C 
HETATM   15  C23 UNL     1      -7.192  49.264 -21.560  1.00  0.00     0.029 C 
HETATM   16  C24 UNL     1      -5.225  47.815 -22.477  1.00  0.00     0.010 C 
HETATM   17  C25 UNL     1      -4.378  49.079 -22.681  1.00  0.00     0.007 C 
HETATM   18  C26 UNL     1      -3.836  49.752 -21.420  1.00  0.00     0.010 C 
HETATM   19  C27 UNL     1      -3.267  48.830 -20.307  1.00  0.00    -0.036 C 
HETATM   20  C28 UNL     1      -4.009  49.096 -18.988  1.00  0.00     0.016 C 
ENDROOT
BRANCH   1  21
HETATM   21  C8  UNL     1      -1.043  50.243 -19.501  1.00  0.00     0.044 C 
BRANCH  21  22
HETATM   22  C7  UNL     1      -0.873  51.294 -20.652  1.00  0.00     0.142 C 
HETATM   23  C6  UNL     1       0.417  52.113 -20.624  1.00  0.00     0.067 C 
HETATM   24  C4  UNL     1       0.549  52.924 -21.889  1.00  0.00    -0.067 C 
HETATM   25  C3  UNL     1      -0.060  52.527 -23.030  1.00  0.00     0.043 C 
HETATM   26  C5  UNL     1       1.395  54.159 -21.755  1.00  0.00     0.044 C 
HETATM   27  C29 UNL     1      -0.718  51.195 -23.078  1.00  0.00     0.292 C 
HETATM   28  O7  UNL     1      -0.927  50.562 -21.901  1.00  0.00    -0.311 OA
HETATM   29  O8  UNL     1      -1.020  50.666 -24.142  1.00  0.00    -0.260 OA
BRANCH  25  30
HETATM   30  C2  UNL     1      -0.107  53.261 -24.346  1.00  0.00     0.212 C 
BRANCH  30  31
HETATM   31  O1  UNL     1       1.088  53.032 -25.101  1.00  0.00    -0.391 OA
HETATM   32  C1  UNL     1       0.794  52.598 -26.422  1.00  0.00     0.201 C 
ENDBRANCH  30  31
ENDBRANCH  25  30
ENDBRANCH  21  22
BRANCH  21  33
HETATM   33  C9  UNL     1      -1.685  50.841 -18.248  1.00  0.00     0.171 C 
BRANCH  33  34
HETATM   34  O2  UNL     1      -2.436  52.011 -18.550  1.00  0.00    -0.400 OA
HETATM   35  H15 UNL     1      -1.803  52.714 -18.789  1.00  0.00     0.209 HD
ENDBRANCH  33  34
ENDBRANCH  21  33
ENDBRANCH   1  21
BRANCH  10  36
HETATM   36  S1  UNL     1     -10.457  46.765 -24.644  1.00  0.00     0.099 S 
HETATM   37  O3  UNL     1     -10.736  45.915 -25.778  1.00  0.00    -0.601 OA
HETATM   38  O4  UNL     1     -11.424  46.980 -23.596  1.00  0.00    -0.601 OA
BRANCH  36  39
HETATM   39  O5  UNL     1     -10.078  48.217 -25.237  1.00  0.00    -0.295 OA
HETATM   40  H29 UNL     1     -10.909  48.682 -25.479  1.00  0.00     0.232 HD
ENDBRANCH  36  39
ENDBRANCH  10  36
TORSDOF 8
ENDMDL
MODEL 8
REMARK minimizedAffinity -10.0905781
REMARK CNNscore 0.338001877
REMARK CNNaffinity 6.69037962
REMARK  8 active torsions:
REMARK  status: ('A' for Active; 'I' for Inactive)
REMARK    1  A    between atoms: O1_2  and  C2_3 
REMARK    2  A    between atoms: C2_3  and  C3_4 
REMARK    3  A    between atoms: C7_8  and  C8_9 
REMARK    4  A    between atoms: C8_9  and  C9_10 
REMARK    5  A    between atoms: C8_9  and  C10_12 
REMARK    6  A    between atoms: C9_10  and  O2_11 
REMARK    7  A    between atoms: C19_21  and  S1_22 
REMARK    8  A    between atoms: S1_22  and  O5_25 
ROOT
HETATM    1  C10 UNL     1      -1.183  50.810 -20.148  1.00  0.00     0.003 C 
HETATM    2  C11 UNL     1      -0.050  49.895 -20.621  1.00  0.00     0.006 C 
HETATM    3  C12 UNL     1      -0.772  48.747 -21.338  1.00  0.00     0.006 C 
HETATM    4  C13 UNL     1      -2.239  49.207 -21.539  1.00  0.00    -0.001 C 
HETATM    5  C14 UNL     1      -2.868  48.672 -22.841  1.00  0.00    -0.001 C 
HETATM    6  C15 UNL     1      -4.382  48.453 -22.678  1.00  0.00     0.033 C 
HETATM    7  C16 UNL     1      -5.065  48.130 -23.966  1.00  0.00    -0.022 C 
HETATM    8  C17 UNL     1      -4.714  48.731 -25.112  1.00  0.00    -0.066 C 
HETATM    9  C18 UNL     1      -5.436  48.462 -26.408  1.00  0.00     0.057 C 
HETATM   10  C19 UNL     1      -4.480  47.895 -27.462  1.00  0.00     0.132 C 
HETATM   11  C20 UNL     1      -3.041  48.381 -27.305  1.00  0.00     0.101 C 
HETATM   12  C21 UNL     1      -2.982  49.711 -26.581  1.00  0.00     0.141 C 
HETATM   13  O6  UNL     1      -2.402  50.670 -27.091  1.00  0.00    -0.297 OA
HETATM   14  C22 UNL     1      -3.590  49.767 -25.153  1.00  0.00     0.044 C 
HETATM   15  C23 UNL     1      -4.214  51.157 -24.942  1.00  0.00     0.029 C 
HETATM   16  C24 UNL     1      -2.443  49.419 -24.134  1.00  0.00     0.010 C 
HETATM   17  C25 UNL     1      -1.440  50.552 -23.869  1.00  0.00     0.007 C 
HETATM   18  C26 UNL     1      -1.718  51.444 -22.659  1.00  0.00     0.010 C 
HETATM   19  C27 UNL     1      -2.187  50.749 -21.352  1.00  0.00    -0.036 C 
HETATM   20  C28 UNL     1      -3.534  51.341 -20.908  1.00  0.00     0.016 C 
ENDROOT
BRANCH   1  21
HETATM   21  C8  UNL     1      -0.783  52.155 -19.444  1.00  0.00     0.044 C 
BRANCH  21  22
HETATM   22  C7  UNL     1      -0.248  51.871 -17.997  1.00  0.00     0.142 C 
HETATM   23  C6  UNL     1      -0.108  50.399 -17.614  1.00  0.00     0.067 C 
HETATM   24  C4  UNL     1       0.608  50.268 -16.292  1.00  0.00    -0.067 C 
HETATM   25  C3  UNL     1       1.452  51.235 -15.867  1.00  0.00     0.043 C 
HETATM   26  C5  UNL     1       0.302  49.005 -15.537  1.00  0.00     0.044 C 
HETATM   27  C29 UNL     1       1.808  52.348 -16.786  1.00  0.00     0.292 C 
HETATM   28  O7  UNL     1       1.053  52.499 -17.900  1.00  0.00    -0.311 OA
HETATM   29  O8  UNL     1       2.772  53.074 -16.574  1.00  0.00    -0.260 OA
BRANCH  25  30
HETATM   30  C2  UNL     1       2.170  51.306 -14.543  1.00  0.00     0.212 C 
BRANCH  30  31
HETATM   31  O1  UNL     1       2.472  49.995 -14.055  1.00  0.00    -0.391 OA
HETATM   32  C1  UNL     1       3.829  49.891 -13.645  1.00  0.00     0.201 C 
ENDBRANCH  30  31
ENDBRANCH  25  30
ENDBRANCH  21  22
BRANCH  21  33
HETATM   33  C9  UNL     1       0.147  53.068 -20.246  1.00  0.00     0.171 C 
BRANCH  33  34
HETATM   34  O2  UNL     1       0.226  54.369 -19.674  1.00  0.00    -0.400 OA
HETATM   35  H15 UNL     1      -0.634  54.807 -19.816  1.00  0.00     0.209 HD
ENDBRANCH  33  34
ENDBRANCH  21  33
ENDBRANCH   1  21
BRANCH  10  36
HETATM   36  S1  UNL     1      -5.137  48.269 -29.092  1.00  0.00     0.099 S 
HETATM   37  O3  UNL     1      -4.544  47.385 -30.068  1.00  0.00    -0.601 OA
HETATM   38  O4  UNL     1      -6.562  48.485 -29.026  1.00  0.00    -0.601 OA
BRANCH  36  39
HETATM   39  O5  UNL     1      -4.454  49.715 -29.303  1.00  0.00    -0.295 OA
HETATM   40  H29 UNL     1      -4.879  50.153 -30.072  1.00  0.00     0.232 HD
ENDBRANCH  36  39
ENDBRANCH  10  36
TORSDOF 8
ENDMDL
MODEL 9
REMARK minimizedAffinity -8.3409586
REMARK CNNscore 0.312607795
REMARK CNNaffinity 6.25630569
REMARK  8 active torsions:
REMARK  status: ('A' for Active; 'I' for Inactive)
REMARK    1  A    between atoms: O1_2  and  C2_3 
REMARK    2  A    between atoms: C2_3  and  C3_4 
REMARK    3  A    between atoms: C7_8  and  C8_9 
REMARK    4  A    between atoms: C8_9  and  C9_10 
REMARK    5  A    between atoms: C8_9  and  C10_12 
REMARK    6  A    between atoms: C9_10  and  O2_11 
REMARK    7  A    between atoms: C19_21  and  S1_22 
REMARK    8  A    between atoms: S1_22  and  O5_25 
ROOT
HETATM    1  C10 UNL     1      -3.507  49.564 -23.988  1.00  0.00     0.003 C 
HETATM    2  C11 UNL     1      -2.680  48.460 -23.324  1.00  0.00     0.006 C 
HETATM    3  C12 UNL     1      -3.188  48.433 -21.876  1.00  0.00     0.006 C 
HETATM    4  C13 UNL     1      -4.493  49.272 -21.851  1.00  0.00    -0.001 C 
HETATM    5  C14 UNL     1      -5.532  48.745 -20.843  1.00  0.00    -0.001 C 
HETATM    6  C15 UNL     1      -6.385  49.891 -20.272  1.00  0.00     0.033 C 
HETATM    7  C16 UNL     1      -7.533  49.407 -19.450  1.00  0.00    -0.022 C 
HETATM    8  C17 UNL     1      -8.234  48.320 -19.799  1.00  0.00    -0.066 C 
HETATM    9  C18 UNL     1      -9.435  47.856 -19.014  1.00  0.00     0.057 C 
HETATM   10  C19 UNL     1      -9.223  46.440 -18.471  1.00  0.00     0.132 C 
HETATM   11  C20 UNL     1      -8.322  45.577 -19.352  1.00  0.00     0.101 C 
HETATM   12  C21 UNL     1      -8.333  46.055 -20.790  1.00  0.00     0.141 C 
HETATM   13  O6  UNL     1      -8.616  45.276 -21.701  1.00  0.00    -0.297 OA
HETATM   14  C22 UNL     1      -7.881  47.517 -21.053  1.00  0.00     0.044 C 
HETATM   15  C23 UNL     1      -8.702  48.078 -22.226  1.00  0.00     0.029 C 
HETATM   16  C24 UNL     1      -6.329  47.496 -21.310  1.00  0.00     0.010 C 
HETATM   17  C25 UNL     1      -5.905  47.000 -22.700  1.00  0.00     0.007 C 
HETATM   18  C26 UNL     1      -5.678  48.069 -23.769  1.00  0.00     0.010 C 
HETATM   19  C27 UNL     1      -4.923  49.357 -23.342  1.00  0.00    -0.036 C 
HETATM   20  C28 UNL     1      -5.792  50.589 -23.642  1.00  0.00     0.016 C 
ENDROOT
BRANCH   1  21
HETATM   21  C8  UNL     1      -3.302  49.797 -25.527  1.00  0.00     0.044 C 
BRANCH  21  22
HETATM   22  C7  UNL     1      -2.197  50.883 -25.768  1.00  0.00     0.142 C 
HETATM   23  C6  UNL     1      -0.817  50.355 -26.159  1.00  0.00     0.067 C 
HETATM   24  C4  UNL     1       0.083  51.496 -26.564  1.00  0.00    -0.067 C 
HETATM   25  C3  UNL     1      -0.438  52.651 -27.038  1.00  0.00     0.043 C 
HETATM   26  C5  UNL     1       1.552  51.223 -26.399  1.00  0.00     0.044 C 
HETATM   27  C29 UNL     1      -1.895  52.729 -27.323  1.00  0.00     0.292 C 
HETATM   28  O7  UNL     1      -2.678  51.743 -26.829  1.00  0.00    -0.311 OA
HETATM   29  O8  UNL     1      -2.366  53.624 -28.016  1.00  0.00    -0.260 OA
BRANCH  25  30
HETATM   30  C2  UNL     1       0.307  53.911 -27.399  1.00  0.00     0.212 C 
BRANCH  30  31
HETATM   31  O1  UNL     1       0.135  54.912 -26.390  1.00  0.00    -0.391 OA
HETATM   32  C1  UNL     1       0.285  54.369 -25.085  1.00  0.00     0.201 C 
ENDBRANCH  30  31
ENDBRANCH  25  30
ENDBRANCH  21  22
BRANCH  21  33
HETATM   33  C9  UNL     1      -3.079  48.534 -26.361  1.00  0.00     0.171 C 
BRANCH  33  34
HETATM   34  O2  UNL     1      -3.390  48.749 -27.733  1.00  0.00    -0.400 OA
HETATM   35  H15 UNL     1      -4.358  48.850 -27.803  1.00  0.00     0.209 HD
ENDBRANCH  33  34
ENDBRANCH  21  33
ENDBRANCH   1  21
BRANCH  10  36
HETATM   36  S1  UNL     1     -10.830  45.679 -18.210  1.00  0.00     0.099 S 
HETATM   37  O3  UNL     1     -11.836  46.706 -18.073  1.00  0.00    -0.601 OA
HETATM   38  O4  UNL     1     -11.005  44.553 -19.093  1.00  0.00    -0.601 OA
BRANCH  36  39
HETATM   39  O5  UNL     1     -10.576  45.081 -16.733  1.00  0.00    -0.295 OA
HETATM   40  H29 UNL     1     -11.301  44.452 -16.522  1.00  0.00     0.232 HD
ENDBRANCH  36  39
ENDBRANCH  10  36
TORSDOF 8
ENDMDL
