MODEL 1
REMARK minimizedAffinity -7.99737215
REMARK CNNscore 0.899439633
REMARK CNNaffinity 7.61233139
REMARK  10 active torsions:
REMARK  status: ('A' for Active; 'I' for Inactive)
REMARK    1  A    between atoms: N1_6  and  O1_8 
REMARK    2  A    between atoms: O1_8  and  C6_9 
REMARK    3  A    between atoms: C6_9  and  C7_10 
REMARK       I    between atoms: C7_10  and  N2_12 
REMARK    4  A    between atoms: N2_12  and  C8_13 
REMARK    5  A    between atoms: C8_13  and  C9_14 
REMARK    6  A    between atoms: C20_27  and  O3_28 
REMARK    7  A    between atoms: C27_35  and  O4_36 
REMARK    8  A    between atoms: C27_35  and  C28_37 
REMARK    9  A    between atoms: C28_37  and  C29_39 
REMARK   10  A    between atoms: C29_39  and  O6_40 
ROOT
HETATM    1  C1  UNL     1       0.835  52.176 -14.137  1.00  0.00     0.020 C 
HETATM    2  C2  UNL     1       1.343  51.161 -15.192  1.00  0.00    -0.014 C 
HETATM    3  C3  UNL     1       2.546  51.787 -15.959  1.00  0.00     0.020 C 
HETATM    4  C4  UNL     1       2.161  52.950 -16.859  1.00  0.00     0.060 C 
HETATM    5  C5  UNL     1       1.085  52.535 -17.841  1.00  0.00     0.032 C 
HETATM    6  N1  UNL     1       1.098  53.112 -19.004  1.00  0.00    -0.271 N 
ATOM      7  H1  UNL     1       1.806  53.784 -19.300  1.00  0.00     0.194 HD
HETATM    8  C14 UNL     1       0.076  51.545 -17.366  1.00  0.00     0.030 C 
HETATM    9  C15 UNL     1       0.169  50.953 -16.159  1.00  0.00    -0.069 C 
HETATM   10  C16 UNL     1      -0.963  50.058 -15.699  1.00  0.00     0.035 C 
HETATM   11  C17 UNL     1      -0.547  49.012 -14.667  1.00  0.00     0.010 C 
HETATM   12  C18 UNL     1       0.907  48.587 -14.883  1.00  0.00    -0.002 C 
HETATM   13  C19 UNL     1       1.855  49.777 -14.567  1.00  0.00     0.031 C 
HETATM   14  C20 UNL     1       2.228  49.857 -13.068  1.00  0.00     0.124 C 
HETATM   15  C21 UNL     1       2.705  48.520 -12.499  1.00  0.00     0.045 C 
HETATM   16  C22 UNL     1       1.693  47.362 -12.684  1.00  0.00     0.001 C 
HETATM   17  C23 UNL     1       0.509  47.580 -11.728  1.00  0.00     0.019 C 
HETATM   18  C24 UNL     1       1.260  47.268 -14.163  1.00  0.00     0.002 C 
HETATM   19  C25 UNL     1       2.441  46.543 -14.848  1.00  0.00     0.009 C 
HETATM   20  C26 UNL     1       3.166  45.741 -13.764  1.00  0.00     0.047 C 
HETATM   21  C27 UNL     1       2.382  45.974 -12.459  1.00  0.00     0.128 C 
ENDROOT
BRANCH   6  22
HETATM   22  O1  UNL     1       0.021  52.699 -19.807  1.00  0.00    -0.271 OA
BRANCH  22  23
HETATM   23  C6  UNL     1       0.535  52.125 -20.996  1.00  0.00     0.303 C 
BRANCH  23  24
HETATM   24  C7  UNL     1       0.893  53.194 -22.029  1.00  0.00     0.244 C 
HETATM   25  O2  UNL     1       1.454  54.252 -21.759  1.00  0.00    -0.271 OA
HETATM   26  N2  UNL     1       0.528  52.848 -23.318  1.00  0.00    -0.355 N 
HETATM   27  H10 UNL     1      -0.068  52.043 -23.457  1.00  0.00     0.162 HD
BRANCH  26  28
HETATM   28  C8  UNL     1       0.714  53.750 -24.431  1.00  0.00     0.161 C 
BRANCH  28  29
HETATM   29  C9  UNL     1       0.363  53.080 -25.732  1.00  0.00    -0.038 A 
HETATM   30  C10 UNL     1      -0.017  53.842 -26.841  1.00  0.00     0.025 A 
HETATM   31  C11 UNL     1      -0.354  53.188 -28.015  1.00  0.00     0.088 A 
HETATM   32  N3  UNL     1      -0.344  51.845 -28.156  1.00  0.00    -0.375 N 
HETATM   33  C12 UNL     1       0.016  51.127 -27.070  1.00  0.00     0.088 A 
ATOM     34  H3  UNL     1      -0.595  51.397 -29.036  1.00  0.00     0.164 HD
HETATM   35  C13 UNL     1       0.372  51.687 -25.853  1.00  0.00     0.025 A 
ENDBRANCH  28  29
ENDBRANCH  26  28
ENDBRANCH  23  24
ENDBRANCH  22  23
ENDBRANCH   6  22
BRANCH  14  36
HETATM   36  O3  UNL     1       3.298  50.792 -12.906  1.00  0.00    -0.395 OA
HETATM   37  H25 UNL     1       3.472  50.875 -11.951  1.00  0.00     0.210 HD
ENDBRANCH  14  36
BRANCH  21  38
HETATM   38  O4  UNL     1       3.290  46.033 -11.361  1.00  0.00    -0.381 OA
HETATM   39  H36 UNL     1       3.969  45.344 -11.485  1.00  0.00     0.211 HD
ENDBRANCH  21  38
BRANCH  21  40
HETATM   40  C28 UNL     1       1.383  44.804 -12.243  1.00  0.00     0.184 C 
HETATM   41  O5  UNL     1       0.706  44.324 -13.159  1.00  0.00    -0.292 OA
BRANCH  40  42
HETATM   42  C29 UNL     1       1.256  44.234 -10.831  1.00  0.00     0.245 C 
BRANCH  42  43
HETATM   43  O6  UNL     1       0.175  43.314 -10.738  1.00  0.00    -0.393 OA
HETATM   44  H39 UNL     1      -0.005  43.009 -11.650  1.00  0.00     0.209 HD
ENDBRANCH  42  43
ENDBRANCH  40  42
ENDBRANCH  21  40
TORSDOF 10
ENDMDL
MODEL 2
REMARK minimizedAffinity -7.50409651
REMARK CNNscore 0.800698638
REMARK CNNaffinity 7.27923918
REMARK  10 active torsions:
REMARK  status: ('A' for Active; 'I' for Inactive)
REMARK    1  A    between atoms: N1_6  and  O1_8 
REMARK    2  A    between atoms: O1_8  and  C6_9 
REMARK    3  A    between atoms: C6_9  and  C7_10 
REMARK       I    between atoms: C7_10  and  N2_12 
REMARK    4  A    between atoms: N2_12  and  C8_13 
REMARK    5  A    between atoms: C8_13  and  C9_14 
REMARK    6  A    between atoms: C20_27  and  O3_28 
REMARK    7  A    between atoms: C27_35  and  O4_36 
REMARK    8  A    between atoms: C27_35  and  C28_37 
REMARK    9  A    between atoms: C28_37  and  C29_39 
REMARK   10  A    between atoms: C29_39  and  O6_40 
ROOT
HETATM    1  C1  UNL     1      -0.126  51.684 -14.332  1.00  0.00     0.020 C 
HETATM    2  C2  UNL     1       0.825  50.867 -15.244  1.00  0.00    -0.014 C 
HETATM    3  C3  UNL     1       2.095  51.720 -15.544  1.00  0.00     0.020 C 
HETATM    4  C4  UNL     1       1.828  52.924 -16.432  1.00  0.00     0.060 C 
HETATM    5  C5  UNL     1       1.176  52.499 -17.731  1.00  0.00     0.032 C 
HETATM    6  N1  UNL     1       1.452  53.205 -18.785  1.00  0.00    -0.271 N 
ATOM      7  H1  UNL     1       2.106  53.987 -18.793  1.00  0.00     0.194 HD
HETATM    8  C14 UNL     1       0.232  51.345 -17.672  1.00  0.00     0.030 C 
HETATM    9  C15 UNL     1       0.045  50.632 -16.544  1.00  0.00    -0.069 C 
HETATM   10  C16 UNL     1      -1.025  49.560 -16.532  1.00  0.00     0.035 C 
HETATM   11  C17 UNL     1      -0.787  48.458 -15.500  1.00  0.00     0.010 C 
HETATM   12  C18 UNL     1       0.712  48.241 -15.277  1.00  0.00    -0.002 C 
HETATM   13  C19 UNL     1       1.328  49.492 -14.592  1.00  0.00     0.031 C 
HETATM   14  C20 UNL     1       1.214  49.442 -13.050  1.00  0.00     0.124 C 
HETATM   15  C21 UNL     1       1.693  48.116 -12.458  1.00  0.00     0.045 C 
HETATM   16  C22 UNL     1       0.972  46.873 -13.037  1.00  0.00     0.001 C 
HETATM   17  C23 UNL     1      -0.465  46.833 -12.491  1.00  0.00     0.019 C 
HETATM   18  C24 UNL     1       1.026  46.900 -14.580  1.00  0.00     0.002 C 
HETATM   19  C25 UNL     1       2.454  46.408 -14.908  1.00  0.00     0.009 C 
HETATM   20  C26 UNL     1       2.930  45.580 -13.712  1.00  0.00     0.047 C 
HETATM   21  C27 UNL     1       1.762  45.562 -12.708  1.00  0.00     0.128 C 
ENDROOT
BRANCH   6  22
HETATM   22  O1  UNL     1       0.744  52.761 -19.915  1.00  0.00    -0.271 OA
BRANCH  22  23
HETATM   23  C6  UNL     1       1.551  52.957 -21.063  1.00  0.00     0.303 C 
BRANCH  23  24
HETATM   24  C7  UNL     1       0.706  53.059 -22.334  1.00  0.00     0.244 C 
HETATM   25  O2  UNL     1       0.993  53.762 -23.298  1.00  0.00    -0.271 OA
HETATM   26  N2  UNL     1      -0.427  52.265 -22.297  1.00  0.00    -0.355 N 
HETATM   27  H10 UNL     1      -0.694  51.834 -21.422  1.00  0.00     0.162 HD
BRANCH  26  28
HETATM   28  C8  UNL     1      -1.396  52.270 -23.369  1.00  0.00     0.161 C 
BRANCH  28  29
HETATM   29  C9  UNL     1      -2.767  51.920 -22.857  1.00  0.00    -0.038 A 
HETATM   30  C10 UNL     1      -2.934  51.439 -21.555  1.00  0.00     0.025 A 
HETATM   31  C11 UNL     1      -4.209  51.106 -21.125  1.00  0.00     0.088 A 
HETATM   32  N3  UNL     1      -5.312  51.213 -21.896  1.00  0.00    -0.375 N 
HETATM   33  C12 UNL     1      -5.128  51.669 -23.154  1.00  0.00     0.088 A 
ATOM     34  H3  UNL     1      -6.236  50.962 -21.547  1.00  0.00     0.164 HD
HETATM   35  C13 UNL     1      -3.895  52.029 -23.675  1.00  0.00     0.025 A 
ENDBRANCH  28  29
ENDBRANCH  26  28
ENDBRANCH  23  24
ENDBRANCH  22  23
ENDBRANCH   6  22
BRANCH  14  36
HETATM   36  O3  UNL     1       2.029  50.475 -12.491  1.00  0.00    -0.395 OA
HETATM   37  H25 UNL     1       1.892  50.466 -11.526  1.00  0.00     0.210 HD
ENDBRANCH  14  36
BRANCH  21  38
HETATM   38  O4  UNL     1       2.276  45.603 -11.378  1.00  0.00    -0.381 OA
HETATM   39  H36 UNL     1       3.057  45.021 -11.331  1.00  0.00     0.211 HD
ENDBRANCH  21  38
BRANCH  21  40
HETATM   40  C28 UNL     1       0.934  44.263 -12.904  1.00  0.00     0.184 C 
HETATM   41  O5  UNL     1       1.054  43.275 -12.170  1.00  0.00    -0.292 OA
BRANCH  40  42
HETATM   42  C29 UNL     1      -0.071  44.232 -14.054  1.00  0.00     0.245 C 
BRANCH  42  43
HETATM   43  O6  UNL     1       0.466  43.575 -15.196  1.00  0.00    -0.393 OA
HETATM   44  H39 UNL     1       1.195  43.010 -14.869  1.00  0.00     0.209 HD
ENDBRANCH  42  43
ENDBRANCH  40  42
ENDBRANCH  21  40
TORSDOF 10
ENDMDL
MODEL 3
REMARK minimizedAffinity -9.74045086
REMARK CNNscore 0.653402925
REMARK CNNaffinity 6.87198257
REMARK  10 active torsions:
REMARK  status: ('A' for Active; 'I' for Inactive)
REMARK    1  A    between atoms: N1_6  and  O1_8 
REMARK    2  A    between atoms: O1_8  and  C6_9 
REMARK    3  A    between atoms: C6_9  and  C7_10 
REMARK       I    between atoms: C7_10  and  N2_12 
REMARK    4  A    between atoms: N2_12  and  C8_13 
REMARK    5  A    between atoms: C8_13  and  C9_14 
REMARK    6  A    between atoms: C20_27  and  O3_28 
REMARK    7  A    between atoms: C27_35  and  O4_36 
REMARK    8  A    between atoms: C27_35  and  C28_37 
REMARK    9  A    between atoms: C28_37  and  C29_39 
REMARK   10  A    between atoms: C29_39  and  O6_40 
ROOT
HETATM    1  C1  UNL     1      -4.267  49.100 -22.435  1.00  0.00     0.020 C 
HETATM    2  C2  UNL     1      -2.733  49.221 -22.242  1.00  0.00    -0.014 C 
HETATM    3  C3  UNL     1      -2.147  47.807 -21.952  1.00  0.00     0.020 C 
HETATM    4  C4  UNL     1      -2.551  47.240 -20.601  1.00  0.00     0.060 C 
HETATM    5  C5  UNL     1      -2.172  48.192 -19.486  1.00  0.00     0.032 C 
HETATM    6  N1  UNL     1      -1.852  47.661 -18.345  1.00  0.00    -0.271 N 
ATOM      7  H1  UNL     1      -1.800  46.657 -18.177  1.00  0.00     0.194 HD
HETATM    8  C14 UNL     1      -2.256  49.652 -19.779  1.00  0.00     0.030 C 
HETATM    9  C15 UNL     1      -2.545  50.118 -21.010  1.00  0.00    -0.069 C 
HETATM   10  C16 UNL     1      -2.738  51.608 -21.196  1.00  0.00     0.035 C 
HETATM   11  C17 UNL     1      -2.477  52.095 -22.621  1.00  0.00     0.010 C 
HETATM   12  C18 UNL     1      -1.411  51.231 -23.300  1.00  0.00    -0.002 C 
HETATM   13  C19 UNL     1      -1.961  49.796 -23.523  1.00  0.00     0.031 C 
HETATM   14  C20 UNL     1      -2.744  49.659 -24.850  1.00  0.00     0.124 C 
HETATM   15  C21 UNL     1      -1.985  50.223 -26.052  1.00  0.00     0.045 C 
HETATM   16  C22 UNL     1      -1.564  51.705 -25.889  1.00  0.00     0.001 C 
HETATM   17  C23 UNL     1      -2.814  52.593 -26.003  1.00  0.00     0.019 C 
HETATM   18  C24 UNL     1      -0.810  51.898 -24.556  1.00  0.00     0.002 C 
HETATM   19  C25 UNL     1       0.612  51.372 -24.856  1.00  0.00     0.009 C 
HETATM   20  C26 UNL     1       0.820  51.475 -26.369  1.00  0.00     0.047 C 
HETATM   21  C27 UNL     1      -0.470  52.095 -26.940  1.00  0.00     0.128 C 
ENDROOT
BRANCH   6  22
HETATM   22  O1  UNL     1      -1.582  48.636 -17.369  1.00  0.00    -0.271 OA
BRANCH  22  23
HETATM   23  C6  UNL     1      -2.737  48.805 -16.565  1.00  0.00     0.303 C 
BRANCH  23  24
HETATM   24  C7  UNL     1      -2.925  50.265 -16.151  1.00  0.00     0.244 C 
HETATM   25  O2  UNL     1      -2.908  51.210 -16.933  1.00  0.00    -0.271 OA
HETATM   26  N2  UNL     1      -3.128  50.422 -14.791  1.00  0.00    -0.355 N 
HETATM   27  H10 UNL     1      -2.975  49.631 -14.180  1.00  0.00     0.162 HD
BRANCH  26  28
HETATM   28  C8  UNL     1      -3.258  51.727 -14.185  1.00  0.00     0.161 C 
BRANCH  28  29
HETATM   29  C9  UNL     1      -3.336  51.619 -12.686  1.00  0.00    -0.038 A 
HETATM   30  C10 UNL     1      -2.978  50.431 -12.043  1.00  0.00     0.025 A 
HETATM   31  C11 UNL     1      -3.083  50.362 -10.663  1.00  0.00     0.088 A 
HETATM   32  N3  UNL     1      -3.519  51.380  -9.892  1.00  0.00    -0.375 N 
HETATM   33  C12 UNL     1      -3.869  52.515 -10.533  1.00  0.00     0.088 A 
ATOM     34  H3  UNL     1      -3.581  51.296  -8.878  1.00  0.00     0.164 HD
HETATM   35  C13 UNL     1      -3.799  52.683 -11.907  1.00  0.00     0.025 A 
ENDBRANCH  28  29
ENDBRANCH  26  28
ENDBRANCH  23  24
ENDBRANCH  22  23
ENDBRANCH   6  22
BRANCH  14  36
HETATM   36  O3  UNL     1      -2.979  48.273 -25.110  1.00  0.00    -0.395 OA
HETATM   37  H25 UNL     1      -3.527  48.214 -25.913  1.00  0.00     0.210 HD
ENDBRANCH  14  36
BRANCH  21  38
HETATM   38  O4  UNL     1      -0.758  51.512 -28.209  1.00  0.00    -0.381 OA
HETATM   39  H36 UNL     1       0.079  51.418 -28.702  1.00  0.00     0.211 HD
ENDBRANCH  21  38
BRANCH  21  40
HETATM   40  C28 UNL     1      -0.274  53.627 -27.105  1.00  0.00     0.184 C 
HETATM   41  O5  UNL     1       0.146  54.351 -26.194  1.00  0.00    -0.292 OA
BRANCH  40  42
HETATM   42  C29 UNL     1      -0.614  54.241 -28.462  1.00  0.00     0.245 C 
BRANCH  42  43
HETATM   43  O6  UNL     1      -2.020  54.330 -28.654  1.00  0.00    -0.393 OA
HETATM   44  H39 UNL     1      -2.421  54.304 -27.762  1.00  0.00     0.209 HD
ENDBRANCH  42  43
ENDBRANCH  40  42
ENDBRANCH  21  40
TORSDOF 10
ENDMDL
MODEL 4
REMARK minimizedAffinity -7.33904314
REMARK CNNscore 0.574168801
REMARK CNNaffinity 6.00769281
REMARK  10 active torsions:
REMARK  status: ('A' for Active; 'I' for Inactive)
REMARK    1  A    between atoms: N1_6  and  O1_8 
REMARK    2  A    between atoms: O1_8  and  C6_9 
REMARK    3  A    between atoms: C6_9  and  C7_10 
REMARK       I    between atoms: C7_10  and  N2_12 
REMARK    4  A    between atoms: N2_12  and  C8_13 
REMARK    5  A    between atoms: C8_13  and  C9_14 
REMARK    6  A    between atoms: C20_27  and  O3_28 
REMARK    7  A    between atoms: C27_35  and  O4_36 
REMARK    8  A    between atoms: C27_35  and  C28_37 
REMARK    9  A    between atoms: C28_37  and  C29_39 
REMARK   10  A    between atoms: C29_39  and  O6_40 
ROOT
HETATM    1  C1  UNL     1     -12.470  43.621 -28.660  1.00  0.00     0.020 C 
HETATM    2  C2  UNL     1     -12.121  44.858 -27.794  1.00  0.00    -0.014 C 
HETATM    3  C3  UNL     1     -12.105  44.437 -26.294  1.00  0.00     0.020 C 
HETATM    4  C4  UNL     1     -13.478  44.092 -25.739  1.00  0.00     0.060 C 
HETATM    5  C5  UNL     1     -14.442  45.242 -25.941  1.00  0.00     0.032 C 
HETATM    6  N1  UNL     1     -15.366  45.398 -25.042  1.00  0.00    -0.271 N 
ATOM      7  H1  UNL     1     -15.448  44.825 -24.202  1.00  0.00     0.194 HD
HETATM    8  C14 UNL     1     -14.280  46.057 -27.180  1.00  0.00     0.030 C 
HETATM    9  C15 UNL     1     -13.257  45.861 -28.035  1.00  0.00    -0.069 C 
HETATM   10  C16 UNL     1     -13.235  46.641 -29.333  1.00  0.00     0.035 C 
HETATM   11  C17 UNL     1     -11.840  46.813 -29.930  1.00  0.00     0.010 C 
HETATM   12  C18 UNL     1     -10.782  46.871 -28.825  1.00  0.00    -0.002 C 
HETATM   13  C19 UNL     1     -10.685  45.492 -28.118  1.00  0.00     0.031 C 
HETATM   14  C20 UNL     1      -9.711  44.525 -28.832  1.00  0.00     0.124 C 
HETATM   15  C21 UNL     1      -8.353  45.161 -29.135  1.00  0.00     0.045 C 
HETATM   16  C22 UNL     1      -8.442  46.463 -29.969  1.00  0.00     0.001 C 
HETATM   17  C23 UNL     1      -8.825  46.102 -31.415  1.00  0.00     0.019 C 
HETATM   18  C24 UNL     1      -9.435  47.446 -29.314  1.00  0.00     0.002 C 
HETATM   19  C25 UNL     1      -8.627  48.069 -28.154  1.00  0.00     0.009 C 
HETATM   20  C26 UNL     1      -7.145  47.934 -28.514  1.00  0.00     0.047 C 
HETATM   21  C27 UNL     1      -7.099  47.265 -29.901  1.00  0.00     0.128 C 
ENDROOT
BRANCH   6  22
HETATM   22  O1  UNL     1     -16.239  46.451 -25.363  1.00  0.00    -0.271 OA
BRANCH  22  23
HETATM   23  C6  UNL     1     -17.534  45.918 -25.581  1.00  0.00     0.303 C 
BRANCH  23  24
HETATM   24  C7  UNL     1     -18.483  46.256 -24.431  1.00  0.00     0.244 C 
HETATM   25  O2  UNL     1     -19.250  47.214 -24.429  1.00  0.00    -0.271 OA
HETATM   26  N2  UNL     1     -18.400  45.361 -23.378  1.00  0.00    -0.355 N 
HETATM   27  H10 UNL     1     -17.645  44.690 -23.366  1.00  0.00     0.162 HD
BRANCH  26  28
HETATM   28  C8  UNL     1     -19.162  45.540 -22.164  1.00  0.00     0.161 C 
BRANCH  28  29
HETATM   29  C9  UNL     1     -18.337  46.222 -21.106  1.00  0.00    -0.038 A 
HETATM   30  C10 UNL     1     -16.951  46.042 -21.065  1.00  0.00     0.025 A 
HETATM   31  C11 UNL     1     -16.227  46.668 -20.064  1.00  0.00     0.088 A 
HETATM   32  N3  UNL     1     -16.783  47.445 -19.109  1.00  0.00    -0.375 N 
HETATM   33  C12 UNL     1     -18.123  47.598 -19.160  1.00  0.00     0.088 A 
ATOM     34  H3  UNL     1     -16.219  47.894 -18.388  1.00  0.00     0.164 HD
HETATM   35  C13 UNL     1     -18.934  47.015 -20.122  1.00  0.00     0.025 A 
ENDBRANCH  28  29
ENDBRANCH  26  28
ENDBRANCH  23  24
ENDBRANCH  22  23
ENDBRANCH   6  22
BRANCH  14  36
HETATM   36  O3  UNL     1      -9.472  43.398 -27.986  1.00  0.00    -0.395 OA
HETATM   37  H25 UNL     1      -8.910  42.775 -28.480  1.00  0.00     0.210 HD
ENDBRANCH  14  36
BRANCH  21  38
HETATM   38  O4  UNL     1      -5.980  46.383 -29.968  1.00  0.00    -0.381 OA
HETATM   39  H36 UNL     1      -5.221  46.816 -29.534  1.00  0.00     0.211 HD
ENDBRANCH  21  38
BRANCH  21  40
HETATM   40  C28 UNL     1      -6.963  48.359 -30.996  1.00  0.00     0.184 C 
HETATM   41  O5  UNL     1      -7.822  49.229 -31.184  1.00  0.00    -0.292 OA
BRANCH  40  42
HETATM   42  C29 UNL     1      -5.702  48.345 -31.857  1.00  0.00     0.245 C 
BRANCH  42  43
HETATM   43  O6  UNL     1      -4.603  48.940 -31.178  1.00  0.00    -0.393 OA
HETATM   44  H39 UNL     1      -4.816  48.901 -30.224  1.00  0.00     0.209 HD
ENDBRANCH  42  43
ENDBRANCH  40  42
ENDBRANCH  21  40
TORSDOF 10
ENDMDL
MODEL 5
REMARK minimizedAffinity -8.71539307
REMARK CNNscore 0.534216046
REMARK CNNaffinity 7.10786867
REMARK  10 active torsions:
REMARK  status: ('A' for Active; 'I' for Inactive)
REMARK    1  A    between atoms: N1_6  and  O1_8 
REMARK    2  A    between atoms: O1_8  and  C6_9 
REMARK    3  A    between atoms: C6_9  and  C7_10 
REMARK       I    between atoms: C7_10  and  N2_12 
REMARK    4  A    between atoms: N2_12  and  C8_13 
REMARK    5  A    between atoms: C8_13  and  C9_14 
REMARK    6  A    between atoms: C20_27  and  O3_28 
REMARK    7  A    between atoms: C27_35  and  O4_36 
REMARK    8  A    between atoms: C27_35  and  C28_37 
REMARK    9  A    between atoms: C28_37  and  C29_39 
REMARK   10  A    between atoms: C29_39  and  O6_40 
ROOT
HETATM    1  C1  UNL     1      -4.164  49.016 -25.004  1.00  0.00     0.020 C 
HETATM    2  C2  UNL     1      -4.122  49.885 -23.721  1.00  0.00    -0.014 C 
HETATM    3  C3  UNL     1      -4.228  51.387 -24.123  1.00  0.00     0.020 C 
HETATM    4  C4  UNL     1      -3.003  51.914 -24.852  1.00  0.00     0.060 C 
HETATM    5  C5  UNL     1      -1.751  51.689 -24.030  1.00  0.00     0.032 C 
HETATM    6  N1  UNL     1      -0.803  52.568 -24.151  1.00  0.00    -0.271 N 
ATOM      7  H1  UNL     1      -0.873  53.407 -24.726  1.00  0.00     0.194 HD
HETATM    8  C14 UNL     1      -1.696  50.450 -23.200  1.00  0.00     0.030 C 
HETATM    9  C15 UNL     1      -2.749  49.617 -23.089  1.00  0.00    -0.069 C 
HETATM   10  C16 UNL     1      -2.571  48.317 -22.333  1.00  0.00     0.035 C 
HETATM   11  C17 UNL     1      -3.868  47.748 -21.762  1.00  0.00     0.010 C 
HETATM   12  C18 UNL     1      -4.841  48.875 -21.403  1.00  0.00    -0.002 C 
HETATM   13  C19 UNL     1      -5.319  49.589 -22.697  1.00  0.00     0.031 C 
HETATM   14  C20 UNL     1      -6.546  48.898 -23.338  1.00  0.00     0.124 C 
HETATM   15  C21 UNL     1      -7.667  48.621 -22.335  1.00  0.00     0.045 C 
HETATM   16  C22 UNL     1      -7.222  47.780 -21.113  1.00  0.00     0.001 C 
HETATM   17  C23 UNL     1      -6.991  46.329 -21.565  1.00  0.00     0.019 C 
HETATM   18  C24 UNL     1      -5.973  48.412 -20.462  1.00  0.00     0.002 C 
HETATM   19  C25 UNL     1      -6.542  49.587 -19.634  1.00  0.00     0.009 C 
HETATM   20  C26 UNL     1      -8.007  49.257 -19.333  1.00  0.00     0.047 C 
HETATM   21  C27 UNL     1      -8.274  47.874 -19.956  1.00  0.00     0.128 C 
ENDROOT
BRANCH   6  22
HETATM   22  O1  UNL     1       0.331  52.225 -23.396  1.00  0.00    -0.271 OA
BRANCH  22  23
HETATM   23  C6  UNL     1       1.017  53.413 -23.042  1.00  0.00     0.303 C 
BRANCH  23  24
HETATM   24  C7  UNL     1       1.030  53.627 -21.528  1.00  0.00     0.244 C 
HETATM   25  O2  UNL     1       1.703  54.480 -20.957  1.00  0.00    -0.271 OA
HETATM   26  N2  UNL     1       0.192  52.758 -20.850  1.00  0.00    -0.355 N 
HETATM   27  H10 UNL     1      -0.212  51.979 -21.352  1.00  0.00     0.162 HD
BRANCH  26  28
HETATM   28  C8  UNL     1       0.111  52.747 -19.408  1.00  0.00     0.161 C 
BRANCH  28  29
HETATM   29  C9  UNL     1      -0.182  51.362 -18.896  1.00  0.00    -0.038 A 
HETATM   30  C10 UNL     1      -0.817  50.425 -19.716  1.00  0.00     0.025 A 
HETATM   31  C11 UNL     1      -1.089  49.167 -19.203  1.00  0.00     0.088 A 
HETATM   32  N3  UNL     1      -0.781  48.787 -17.944  1.00  0.00    -0.375 N 
HETATM   33  C12 UNL     1      -0.178  49.710 -17.166  1.00  0.00     0.088 A 
ATOM     34  H3  UNL     1      -0.994  47.851 -17.600  1.00  0.00     0.164 HD
HETATM   35  C13 UNL     1       0.138  50.992 -17.586  1.00  0.00     0.025 A 
ENDBRANCH  28  29
ENDBRANCH  26  28
ENDBRANCH  23  24
ENDBRANCH  22  23
ENDBRANCH   6  22
BRANCH  14  36
HETATM   36  O3  UNL     1      -7.084  49.753 -24.350  1.00  0.00    -0.395 OA
HETATM   37  H25 UNL     1      -7.812  49.272 -24.783  1.00  0.00     0.210 HD
ENDBRANCH  14  36
BRANCH  21  38
HETATM   38  O4  UNL     1      -9.601  47.833 -20.476  1.00  0.00    -0.381 OA
HETATM   39  H36 UNL     1     -10.193  48.281 -19.843  1.00  0.00     0.211 HD
ENDBRANCH  21  38
BRANCH  21  40
HETATM   40  C28 UNL     1      -8.109  46.779 -18.867  1.00  0.00     0.184 C 
HETATM   41  O5  UNL     1      -8.721  45.705 -18.899  1.00  0.00    -0.292 OA
BRANCH  40  42
HETATM   42  C29 UNL     1      -7.137  47.060 -17.723  1.00  0.00     0.245 C 
BRANCH  42  43
HETATM   43  O6  UNL     1      -7.827  47.427 -16.534  1.00  0.00    -0.393 OA
HETATM   44  H39 UNL     1      -8.738  47.082 -16.628  1.00  0.00     0.209 HD
ENDBRANCH  42  43
ENDBRANCH  40  42
ENDBRANCH  21  40
TORSDOF 10
ENDMDL
MODEL 6
REMARK minimizedAffinity -8.47401905
REMARK CNNscore 0.51405406
REMARK CNNaffinity 7.1879077
REMARK  10 active torsions:
REMARK  status: ('A' for Active; 'I' for Inactive)
REMARK    1  A    between atoms: N1_6  and  O1_8 
REMARK    2  A    between atoms: O1_8  and  C6_9 
REMARK    3  A    between atoms: C6_9  and  C7_10 
REMARK       I    between atoms: C7_10  and  N2_12 
REMARK    4  A    between atoms: N2_12  and  C8_13 
REMARK    5  A    between atoms: C8_13  and  C9_14 
REMARK    6  A    between atoms: C20_27  and  O3_28 
REMARK    7  A    between atoms: C27_35  and  O4_36 
REMARK    8  A    between atoms: C27_35  and  C28_37 
REMARK    9  A    between atoms: C28_37  and  C29_39 
REMARK   10  A    between atoms: C29_39  and  O6_40 
ROOT
HETATM    1  C1  UNL     1       0.536  51.201 -21.542  1.00  0.00     0.020 C 
HETATM    2  C2  UNL     1      -0.639  51.440 -20.560  1.00  0.00    -0.014 C 
HETATM    3  C3  UNL     1      -0.583  52.912 -20.052  1.00  0.00     0.020 C 
HETATM    4  C4  UNL     1       0.599  53.202 -19.141  1.00  0.00     0.060 C 
HETATM    5  C5  UNL     1       0.614  52.250 -17.963  1.00  0.00     0.032 C 
HETATM    6  N1  UNL     1       1.090  52.708 -16.845  1.00  0.00    -0.271 N 
ATOM      7  H1  UNL     1       1.407  53.668 -16.710  1.00  0.00     0.194 HD
HETATM    8  C14 UNL     1       0.136  50.858 -18.207  1.00  0.00     0.030 C 
HETATM    9  C15 UNL     1      -0.395  50.481 -19.387  1.00  0.00    -0.069 C 
HETATM   10  C16 UNL     1      -0.737  49.021 -19.596  1.00  0.00     0.035 C 
HETATM   11  C17 UNL     1      -1.820  48.782 -20.647  1.00  0.00     0.010 C 
HETATM   12  C18 UNL     1      -2.804  49.954 -20.686  1.00  0.00    -0.002 C 
HETATM   13  C19 UNL     1      -2.086  51.225 -21.216  1.00  0.00     0.031 C 
HETATM   14  C20 UNL     1      -2.103  51.317 -22.760  1.00  0.00     0.124 C 
HETATM   15  C21 UNL     1      -3.495  51.100 -23.356  1.00  0.00     0.045 C 
HETATM   16  C22 UNL     1      -4.152  49.760 -22.944  1.00  0.00     0.001 C 
HETATM   17  C23 UNL     1      -3.436  48.610 -23.673  1.00  0.00     0.019 C 
HETATM   18  C24 UNL     1      -4.123  49.606 -21.408  1.00  0.00     0.002 C 
HETATM   19  C25 UNL     1      -5.290  50.496 -20.925  1.00  0.00     0.009 C 
HETATM   20  C26 UNL     1      -6.272  50.624 -22.093  1.00  0.00     0.047 C 
HETATM   21  C27 UNL     1      -5.690  49.776 -23.239  1.00  0.00     0.128 C 
ENDROOT
BRANCH   6  22
HETATM   22  O1  UNL     1       1.115  51.724 -15.843  1.00  0.00    -0.271 OA
BRANCH  22  23
HETATM   23  C6  UNL     1       2.364  51.784 -15.178  1.00  0.00     0.303 C 
BRANCH  23  24
HETATM   24  C7  UNL     1       2.196  51.729 -13.658  1.00  0.00     0.244 C 
HETATM   25  O2  UNL     1       2.939  51.108 -12.905  1.00  0.00    -0.271 OA
HETATM   26  N2  UNL     1       1.115  52.465 -13.205  1.00  0.00    -0.355 N 
HETATM   27  H10 UNL     1       0.451  52.823 -13.878  1.00  0.00     0.162 HD
BRANCH  26  28
HETATM   28  C8  UNL     1       0.739  52.488 -11.810  1.00  0.00     0.161 C 
BRANCH  28  29
HETATM   29  C9  UNL     1      -0.702  52.885 -11.647  1.00  0.00    -0.038 A 
HETATM   30  C10 UNL     1      -1.067  53.859 -10.713  1.00  0.00     0.025 A 
HETATM   31  C11 UNL     1      -2.407  54.184 -10.576  1.00  0.00     0.088 A 
HETATM   32  N3  UNL     1      -3.395  53.608 -11.292  1.00  0.00    -0.375 N 
HETATM   33  C12 UNL     1      -3.024  52.663 -12.182  1.00  0.00     0.088 A 
ATOM     34  H3  UNL     1      -4.372  53.873 -11.168  1.00  0.00     0.164 HD
HETATM   35  C13 UNL     1      -1.712  52.270 -12.394  1.00  0.00     0.025 A 
ENDBRANCH  28  29
ENDBRANCH  26  28
ENDBRANCH  23  24
ENDBRANCH  22  23
ENDBRANCH   6  22
BRANCH  14  36
HETATM   36  O3  UNL     1      -1.673  52.623 -23.152  1.00  0.00    -0.395 OA
HETATM   37  H25 UNL     1      -1.630  52.638 -24.125  1.00  0.00     0.210 HD
ENDBRANCH  14  36
BRANCH  21  38
HETATM   38  O4  UNL     1      -5.958  50.412 -24.487  1.00  0.00    -0.381 OA
HETATM   39  H36 UNL     1      -6.867  50.765 -24.464  1.00  0.00     0.211 HD
ENDBRANCH  21  38
BRANCH  21  40
HETATM   40  C28 UNL     1      -6.347  48.368 -23.223  1.00  0.00     0.184 C 
HETATM   41  O5  UNL     1      -6.437  47.682 -22.198  1.00  0.00    -0.292 OA
BRANCH  40  42
HETATM   42  C29 UNL     1      -6.909  47.835 -24.539  1.00  0.00     0.245 C 
BRANCH  42  43
HETATM   43  O6  UNL     1      -7.946  48.670 -25.038  1.00  0.00    -0.393 OA
HETATM   44  H39 UNL     1      -7.819  49.545 -24.618  1.00  0.00     0.209 HD
ENDBRANCH  42  43
ENDBRANCH  40  42
ENDBRANCH  21  40
TORSDOF 10
ENDMDL
MODEL 7
REMARK minimizedAffinity -7.30525303
REMARK CNNscore 0.506082296
REMARK CNNaffinity 6.00166702
REMARK  10 active torsions:
REMARK  status: ('A' for Active; 'I' for Inactive)
REMARK    1  A    between atoms: N1_6  and  O1_8 
REMARK    2  A    between atoms: O1_8  and  C6_9 
REMARK    3  A    between atoms: C6_9  and  C7_10 
REMARK       I    between atoms: C7_10  and  N2_12 
REMARK    4  A    between atoms: N2_12  and  C8_13 
REMARK    5  A    between atoms: C8_13  and  C9_14 
REMARK    6  A    between atoms: C20_27  and  O3_28 
REMARK    7  A    between atoms: C27_35  and  O4_36 
REMARK    8  A    between atoms: C27_35  and  C28_37 
REMARK    9  A    between atoms: C28_37  and  C29_39 
REMARK   10  A    between atoms: C29_39  and  O6_40 
ROOT
HETATM    1  C1  UNL     1     -10.937  46.205 -25.965  1.00  0.00     0.020 C 
HETATM    2  C2  UNL     1     -11.546  46.500 -27.360  1.00  0.00    -0.014 C 
HETATM    3  C3  UNL     1     -12.690  47.546 -27.201  1.00  0.00     0.020 C 
HETATM    4  C4  UNL     1     -13.914  47.012 -26.475  1.00  0.00     0.060 C 
HETATM    5  C5  UNL     1     -14.444  45.770 -27.159  1.00  0.00     0.032 C 
HETATM    6  N1  UNL     1     -15.726  45.573 -27.106  1.00  0.00    -0.271 N 
ATOM      7  H1  UNL     1     -16.386  46.219 -26.674  1.00  0.00     0.194 HD
HETATM    8  C14 UNL     1     -13.442  44.857 -27.784  1.00  0.00     0.030 C 
HETATM    9  C15 UNL     1     -12.132  45.167 -27.842  1.00  0.00    -0.069 C 
HETATM   10  C16 UNL     1     -11.164  44.131 -28.375  1.00  0.00     0.035 C 
HETATM   11  C17 UNL     1      -9.875  44.721 -28.944  1.00  0.00     0.010 C 
HETATM   12  C18 UNL     1     -10.133  46.107 -29.541  1.00  0.00    -0.002 C 
HETATM   13  C19 UNL     1     -10.498  47.107 -28.409  1.00  0.00     0.031 C 
HETATM   14  C20 UNL     1      -9.250  47.751 -27.761  1.00  0.00     0.124 C 
HETATM   15  C21 UNL     1      -8.266  48.314 -28.788  1.00  0.00     0.045 C 
HETATM   16  C22 UNL     1      -7.787  47.275 -29.832  1.00  0.00     0.001 C 
HETATM   17  C23 UNL     1      -6.826  46.289 -29.146  1.00  0.00     0.019 C 
HETATM   18  C24 UNL     1      -9.001  46.576 -30.480  1.00  0.00     0.002 C 
HETATM   19  C25 UNL     1      -9.509  47.603 -31.517  1.00  0.00     0.009 C 
HETATM   20  C26 UNL     1      -8.326  48.509 -31.869  1.00  0.00     0.047 C 
HETATM   21  C27 UNL     1      -7.124  47.982 -31.062  1.00  0.00     0.128 C 
ENDROOT
BRANCH   6  22
HETATM   22  O1  UNL     1     -16.097  44.363 -27.717  1.00  0.00    -0.271 OA
BRANCH  22  23
HETATM   23  C6  UNL     1     -17.511  44.268 -27.717  1.00  0.00     0.303 C 
BRANCH  23  24
HETATM   24  C7  UNL     1     -17.995  43.081 -28.550  1.00  0.00     0.244 C 
HETATM   25  O2  UNL     1     -17.305  42.103 -28.823  1.00  0.00    -0.271 OA
HETATM   26  N2  UNL     1     -19.309  43.210 -28.966  1.00  0.00    -0.355 N 
HETATM   27  H10 UNL     1     -19.774  44.100 -28.848  1.00  0.00     0.162 HD
BRANCH  26  28
HETATM   28  C8  UNL     1     -19.937  42.230 -29.823  1.00  0.00     0.161 C 
BRANCH  28  29
HETATM   29  C9  UNL     1     -19.808  42.619 -31.270  1.00  0.00    -0.038 A 
HETATM   30  C10 UNL     1     -18.948  41.916 -32.119  1.00  0.00     0.025 A 
HETATM   31  C11 UNL     1     -18.840  42.317 -33.440  1.00  0.00     0.088 A 
HETATM   32  N3  UNL     1     -19.516  43.360 -33.966  1.00  0.00    -0.375 N 
HETATM   33  C12 UNL     1     -20.334  44.032 -33.128  1.00  0.00     0.088 A 
ATOM     34  H3  UNL     1     -19.415  43.626 -34.945  1.00  0.00     0.164 HD
HETATM   35  C13 UNL     1     -20.512  43.708 -31.792  1.00  0.00     0.025 A 
ENDBRANCH  28  29
ENDBRANCH  26  28
ENDBRANCH  23  24
ENDBRANCH  22  23
ENDBRANCH   6  22
BRANCH  14  36
HETATM   36  O3  UNL     1      -9.668  48.840 -26.934  1.00  0.00    -0.395 OA
HETATM   37  H25 UNL     1      -8.876  49.189 -26.486  1.00  0.00     0.210 HD
ENDBRANCH  14  36
BRANCH  21  38
HETATM   38  O4  UNL     1      -6.315  49.077 -30.640  1.00  0.00    -0.381 OA
HETATM   39  H36 UNL     1      -6.253  49.716 -31.374  1.00  0.00     0.211 HD
ENDBRANCH  21  38
BRANCH  21  40
HETATM   40  C28 UNL     1      -6.283  47.030 -31.956  1.00  0.00     0.184 C 
HETATM   41  O5  UNL     1      -6.323  45.799 -31.847  1.00  0.00    -0.292 OA
BRANCH  40  42
HETATM   42  C29 UNL     1      -5.381  47.665 -33.012  1.00  0.00     0.245 C 
BRANCH  42  43
HETATM   43  O6  UNL     1      -5.935  47.531 -34.316  1.00  0.00    -0.393 OA
HETATM   44  H39 UNL     1      -6.894  47.381 -34.192  1.00  0.00     0.209 HD
ENDBRANCH  42  43
ENDBRANCH  40  42
ENDBRANCH  21  40
TORSDOF 10
ENDMDL
MODEL 8
REMARK minimizedAffinity -9.14124012
REMARK CNNscore 0.430366337
REMARK CNNaffinity 6.87610817
REMARK  10 active torsions:
REMARK  status: ('A' for Active; 'I' for Inactive)
REMARK    1  A    between atoms: N1_6  and  O1_8 
REMARK    2  A    between atoms: O1_8  and  C6_9 
REMARK    3  A    between atoms: C6_9  and  C7_10 
REMARK       I    between atoms: C7_10  and  N2_12 
REMARK    4  A    between atoms: N2_12  and  C8_13 
REMARK    5  A    between atoms: C8_13  and  C9_14 
REMARK    6  A    between atoms: C20_27  and  O3_28 
REMARK    7  A    between atoms: C27_35  and  O4_36 
REMARK    8  A    between atoms: C27_35  and  C28_37 
REMARK    9  A    between atoms: C28_37  and  C29_39 
REMARK   10  A    between atoms: C29_39  and  O6_40 
ROOT
HETATM    1  C1  UNL     1      -4.136  48.040 -19.277  1.00  0.00     0.020 C 
HETATM    2  C2  UNL     1      -3.743  48.580 -20.677  1.00  0.00    -0.014 C 
HETATM    3  C3  UNL     1      -2.295  48.112 -21.011  1.00  0.00     0.020 C 
HETATM    4  C4  UNL     1      -1.225  48.768 -20.153  1.00  0.00     0.060 C 
HETATM    5  C5  UNL     1      -1.313  50.277 -20.247  1.00  0.00     0.032 C 
HETATM    6  N1  UNL     1      -0.199  50.937 -20.144  1.00  0.00    -0.271 N 
ATOM      7  H1  UNL     1       0.717  50.499 -20.047  1.00  0.00     0.194 HD
HETATM    8  C14 UNL     1      -2.673  50.871 -20.394  1.00  0.00     0.030 C 
HETATM    9  C15 UNL     1      -3.773  50.109 -20.550  1.00  0.00    -0.069 C 
HETATM   10  C16 UNL     1      -5.129  50.783 -20.562  1.00  0.00     0.035 C 
HETATM   11  C17 UNL     1      -6.208  49.994 -21.300  1.00  0.00     0.010 C 
HETATM   12  C18 UNL     1      -5.596  49.179 -22.442  1.00  0.00    -0.002 C 
HETATM   13  C19 UNL     1      -4.689  48.059 -21.861  1.00  0.00     0.031 C 
HETATM   14  C20 UNL     1      -5.476  46.771 -21.525  1.00  0.00     0.124 C 
HETATM   15  C21 UNL     1      -6.375  46.305 -22.671  1.00  0.00     0.045 C 
HETATM   16  C22 UNL     1      -7.384  47.377 -23.154  1.00  0.00     0.001 C 
HETATM   17  C23 UNL     1      -8.481  47.542 -22.089  1.00  0.00     0.019 C 
HETATM   18  C24 UNL     1      -6.646  48.696 -23.465  1.00  0.00     0.002 C 
HETATM   19  C25 UNL     1      -6.017  48.449 -24.855  1.00  0.00     0.009 C 
HETATM   20  C26 UNL     1      -6.846  47.357 -25.536  1.00  0.00     0.047 C 
HETATM   21  C27 UNL     1      -7.977  46.998 -24.553  1.00  0.00     0.128 C 
ENDROOT
BRANCH   6  22
HETATM   22  O1  UNL     1      -0.407  52.326 -20.181  1.00  0.00    -0.271 OA
BRANCH  22  23
HETATM   23  C6  UNL     1       0.852  52.975 -20.141  1.00  0.00     0.303 C 
BRANCH  23  24
HETATM   24  C7  UNL     1       1.203  53.606 -21.489  1.00  0.00     0.244 C 
HETATM   25  O2  UNL     1       1.852  54.639 -21.618  1.00  0.00    -0.271 OA
HETATM   26  N2  UNL     1       0.718  52.887 -22.568  1.00  0.00    -0.355 N 
HETATM   27  H10 UNL     1       0.060  52.138 -22.399  1.00  0.00     0.162 HD
BRANCH  26  28
HETATM   28  C8  UNL     1       0.879  53.349 -23.927  1.00  0.00     0.161 C 
BRANCH  28  29
HETATM   29  C9  UNL     1       0.259  52.384 -24.901  1.00  0.00    -0.038 A 
HETATM   30  C10 UNL     1       0.761  52.270 -26.201  1.00  0.00     0.025 A 
HETATM   31  C11 UNL     1       0.151  51.387 -27.076  1.00  0.00     0.088 A 
HETATM   32  N3  UNL     1      -0.915  50.624 -26.751  1.00  0.00    -0.375 N 
HETATM   33  C12 UNL     1      -1.390  50.756 -25.494  1.00  0.00     0.088 A 
ATOM     34  H3  UNL     1      -1.338  49.981 -27.420  1.00  0.00     0.164 HD
HETATM   35  C13 UNL     1      -0.849  51.609 -24.546  1.00  0.00     0.025 A 
ENDBRANCH  28  29
ENDBRANCH  26  28
ENDBRANCH  23  24
ENDBRANCH  22  23
ENDBRANCH   6  22
BRANCH  14  36
HETATM   36  O3  UNL     1      -4.549  45.716 -21.258  1.00  0.00    -0.395 OA
HETATM   37  H25 UNL     1      -5.063  44.935 -20.987  1.00  0.00     0.210 HD
ENDBRANCH  14  36
BRANCH  21  38
HETATM   38  O4  UNL     1      -8.246  45.600 -24.626  1.00  0.00    -0.381 OA
HETATM   39  H36 UNL     1      -8.218  45.329 -25.563  1.00  0.00     0.211 HD
ENDBRANCH  21  38
BRANCH  21  40
HETATM   40  C28 UNL     1      -9.257  47.794 -24.930  1.00  0.00     0.184 C 
HETATM   41  O5  UNL     1     -10.311  47.708 -24.290  1.00  0.00    -0.292 OA
BRANCH  40  42
HETATM   42  C29 UNL     1      -9.181  48.722 -26.140  1.00  0.00     0.245 C 
BRANCH  42  43
HETATM   43  O6  UNL     1      -9.522  50.059 -25.792  1.00  0.00    -0.393 OA
HETATM   44  H39 UNL     1      -9.386  50.133 -24.825  1.00  0.00     0.209 HD
ENDBRANCH  42  43
ENDBRANCH  40  42
ENDBRANCH  21  40
TORSDOF 10
ENDMDL
MODEL 9
REMARK minimizedAffinity -7.71624851
REMARK CNNscore 0.423948616
REMARK CNNaffinity 6.43759966
REMARK  10 active torsions:
REMARK  status: ('A' for Active; 'I' for Inactive)
REMARK    1  A    between atoms: N1_6  and  O1_8 
REMARK    2  A    between atoms: O1_8  and  C6_9 
REMARK    3  A    between atoms: C6_9  and  C7_10 
REMARK       I    between atoms: C7_10  and  N2_12 
REMARK    4  A    between atoms: N2_12  and  C8_13 
REMARK    5  A    between atoms: C8_13  and  C9_14 
REMARK    6  A    between atoms: C20_27  and  O3_28 
REMARK    7  A    between atoms: C27_35  and  O4_36 
REMARK    8  A    between atoms: C27_35  and  C28_37 
REMARK    9  A    between atoms: C28_37  and  C29_39 
REMARK   10  A    between atoms: C29_39  and  O6_40 
ROOT
HETATM    1  C1  UNL     1      -3.971  51.176 -25.533  1.00  0.00     0.020 C 
HETATM    2  C2  UNL     1      -3.632  49.680 -25.312  1.00  0.00    -0.014 C 
HETATM    3  C3  UNL     1      -2.693  49.199 -26.459  1.00  0.00     0.020 C 
HETATM    4  C4  UNL     1      -3.369  49.130 -27.818  1.00  0.00     0.060 C 
HETATM    5  C5  UNL     1      -4.601  48.251 -27.760  1.00  0.00     0.032 C 
HETATM    6  N1  UNL     1      -4.902  47.591 -28.837  1.00  0.00    -0.271 N 
ATOM      7  H1  UNL     1      -4.340  47.600 -29.688  1.00  0.00     0.194 HD
HETATM    8  C14 UNL     1      -5.388  48.266 -26.493  1.00  0.00     0.030 C 
HETATM    9  C15 UNL     1      -4.973  48.939 -25.402  1.00  0.00    -0.069 C 
HETATM   10  C16 UNL     1      -5.891  49.010 -24.199  1.00  0.00     0.035 C 
HETATM   11  C17 UNL     1      -5.163  49.246 -22.877  1.00  0.00     0.010 C 
HETATM   12  C18 UNL     1      -3.765  48.623 -22.909  1.00  0.00    -0.002 C 
HETATM   13  C19 UNL     1      -2.875  49.383 -23.931  1.00  0.00     0.031 C 
HETATM   14  C20 UNL     1      -2.179  50.617 -23.311  1.00  0.00     0.124 C 
HETATM   15  C21 UNL     1      -1.474  50.304 -21.990  1.00  0.00     0.045 C 
HETATM   16  C22 UNL     1      -2.399  49.679 -20.917  1.00  0.00     0.001 C 
HETATM   17  C23 UNL     1      -3.349  50.767 -20.387  1.00  0.00     0.019 C 
HETATM   18  C24 UNL     1      -3.147  48.464 -21.504  1.00  0.00     0.002 C 
HETATM   19  C25 UNL     1      -2.096  47.331 -21.469  1.00  0.00     0.009 C 
HETATM   20  C26 UNL     1      -1.078  47.696 -20.385  1.00  0.00     0.047 C 
HETATM   21  C27 UNL     1      -1.561  49.022 -19.769  1.00  0.00     0.128 C 
ENDROOT
BRANCH   6  22
HETATM   22  O1  UNL     1      -6.094  46.862 -28.690  1.00  0.00    -0.271 OA
BRANCH  22  23
HETATM   23  C6  UNL     1      -6.432  46.286 -29.940  1.00  0.00     0.303 C 
BRANCH  23  24
HETATM   24  C7  UNL     1      -6.695  47.357 -31.000  1.00  0.00     0.244 C 
HETATM   25  O2  UNL     1      -6.876  48.544 -30.750  1.00  0.00    -0.271 OA
HETATM   26  N2  UNL     1      -6.701  46.854 -32.289  1.00  0.00    -0.355 N 
HETATM   27  H10 UNL     1      -6.705  45.852 -32.422  1.00  0.00     0.162 HD
BRANCH  26  28
HETATM   28  C8  UNL     1      -7.000  47.687 -33.431  1.00  0.00     0.161 C 
BRANCH  28  29
HETATM   29  C9  UNL     1      -7.879  46.960 -34.413  1.00  0.00    -0.038 A 
HETATM   30  C10 UNL     1      -8.438  45.722 -34.080  1.00  0.00     0.025 A 
HETATM   31  C11 UNL     1      -9.224  45.072 -35.017  1.00  0.00     0.088 A 
HETATM   32  N3  UNL     1      -9.482  45.561 -36.249  1.00  0.00    -0.375 N 
HETATM   33  C12 UNL     1      -8.925  46.752 -36.554  1.00  0.00     0.088 A 
ATOM     34  H3  UNL     1     -10.068  45.056 -36.913  1.00  0.00     0.164 HD
HETATM   35  C13 UNL     1      -8.126  47.480 -35.686  1.00  0.00     0.025 A 
ENDBRANCH  28  29
ENDBRANCH  26  28
ENDBRANCH  23  24
ENDBRANCH  22  23
ENDBRANCH   6  22
BRANCH  14  36
HETATM   36  O3  UNL     1      -1.184  51.094 -24.220  1.00  0.00    -0.395 OA
HETATM   37  H25 UNL     1      -0.805  51.906 -23.839  1.00  0.00     0.210 HD
ENDBRANCH  14  36
BRANCH  21  38
HETATM   38  O4  UNL     1      -0.436  49.832 -19.437  1.00  0.00    -0.381 OA
HETATM   39  H36 UNL     1       0.253  49.259 -19.051  1.00  0.00     0.211 HD
ENDBRANCH  21  38
BRANCH  21  40
HETATM   40  C28 UNL     1      -2.382  48.723 -18.484  1.00  0.00     0.184 C 
HETATM   41  O5  UNL     1      -3.345  47.947 -18.469  1.00  0.00    -0.292 OA
BRANCH  40  42
HETATM   42  C29 UNL     1      -1.956  49.422 -17.194  1.00  0.00     0.245 C 
BRANCH  42  43
HETATM   43  O6  UNL     1      -0.598  49.141 -16.875  1.00  0.00    -0.393 OA
HETATM   44  H39 UNL     1      -0.172  48.863 -17.712  1.00  0.00     0.209 HD
ENDBRANCH  42  43
ENDBRANCH  40  42
ENDBRANCH  21  40
TORSDOF 10
ENDMDL
