MODEL 1
REMARK minimizedAffinity -8.15594101
REMARK CNNscore 0.727880001
REMARK CNNaffinity 7.38803673
REMARK  12 active torsions:
REMARK  status: ('A' for Active; 'I' for Inactive)
REMARK    1  A    between atoms: C5_5  and  C6_6 
REMARK    2  A    between atoms: C6_6  and  C8_8 
REMARK    3  A    between atoms: C8_8  and  O1_9 
REMARK    4  A    between atoms: C13_15  and  O3_17 
REMARK    5  A    between atoms: C18_21  and  O4_23 
REMARK    6  A    between atoms: O4_23  and  C20_24 
REMARK    7  A    between atoms: C20_24  and  C21_26 
REMARK    8  A    between atoms: C21_26  and  C22_27 
REMARK    9  A    between atoms: C21_26  and  O6_29 
REMARK   10  A    between atoms: O6_29  and  C24_30 
REMARK   11  A    between atoms: C24_30  and  C25_32 
REMARK   12  A    between atoms: C25_32  and  C26_33 
ROOT
HETATM    1  C1  UNL     1      -3.011  50.604 -17.733  1.00  0.00     0.015 C 
HETATM    2  C2  UNL     1      -2.739  49.864 -18.822  1.00  0.00    -0.077 C 
HETATM    3  C3  UNL     1      -1.393  49.202 -19.001  1.00  0.00     0.034 C 
HETATM    4  C4  UNL     1      -0.995  49.078 -20.475  1.00  0.00     0.010 C 
HETATM    5  C5  UNL     1      -1.584  50.202 -21.354  1.00  0.00    -0.001 C 
HETATM    6  C9  UNL     1      -3.150  50.045 -21.371  1.00  0.00     0.037 C 
HETATM    7  C10 UNL     1      -3.737  49.690 -19.958  1.00  0.00     0.090 C 
HETATM    8  C11 UNL     1      -4.370  48.293 -19.819  1.00  0.00     0.138 C 
HETATM    9  O2  UNL     1      -3.684  47.278 -19.650  1.00  0.00    -0.297 OA
HETATM   10  C12 UNL     1      -5.898  48.170 -19.824  1.00  0.00     0.119 C 
HETATM   11  C13 UNL     1      -6.683  49.072 -20.806  1.00  0.00     0.087 C 
HETATM   12  C14 UNL     1      -8.119  48.531 -20.939  1.00  0.00     0.049 C 
HETATM   13  C15 UNL     1      -6.047  49.176 -22.239  1.00  0.00     0.156 C 
HETATM   14  C16 UNL     1      -5.928  50.604 -22.789  1.00  0.00     0.038 C 
HETATM   15  C17 UNL     1      -4.963  50.760 -23.967  1.00  0.00     0.043 C 
HETATM   16  C18 UNL     1      -3.778  49.765 -23.970  1.00  0.00     0.093 C 
HETATM   17  C19 UNL     1      -4.049  48.618 -24.981  1.00  0.00     0.049 C 
HETATM   18  C28 UNL     1      -3.621  49.114 -22.553  1.00  0.00     0.162 C 
HETATM   19  O8  UNL     1      -4.835  48.424 -22.266  1.00  0.00    -0.374 OA
ENDROOT
BRANCH  16  20
HETATM   20  O4  UNL     1      -2.527  50.402 -24.349  1.00  0.00    -0.306 OA
BRANCH  20  21
HETATM   21  C20 UNL     1      -2.511  51.735 -24.651  1.00  0.00     0.289 C 
HETATM   22  O5  UNL     1      -2.982  52.619 -23.943  1.00  0.00    -0.262 OA
BRANCH  21  23
HETATM   23  C21 UNL     1      -1.861  52.015 -26.017  1.00  0.00     0.231 C 
BRANCH  23  24
HETATM   24  C22 UNL     1      -2.889  51.899 -27.151  1.00  0.00     0.038 C 
HETATM   25  C23 UNL     1      -2.895  50.549 -27.852  1.00  0.00     0.008 C 
ENDBRANCH  23  24
BRANCH  23  26
HETATM   26  O6  UNL     1      -1.177  53.266 -26.143  1.00  0.00    -0.306 OA
BRANCH  26  27
HETATM   27  C24 UNL     1       0.118  53.250 -25.718  1.00  0.00     0.259 C 
HETATM   28  O7  UNL     1       0.756  54.238 -25.385  1.00  0.00    -0.265 OA
BRANCH  27  29
HETATM   29  C25 UNL     1       0.655  51.839 -25.742  1.00  0.00     0.111 C 
BRANCH  29  30
HETATM   30  C26 UNL     1       1.244  51.486 -27.104  1.00  0.00     0.005 C 
HETATM   31  C27 UNL     1       2.752  51.683 -27.124  1.00  0.00     0.005 C 
ENDBRANCH  29  30
ENDBRANCH  27  29
ENDBRANCH  26  27
ENDBRANCH  23  26
ENDBRANCH  21  23
ENDBRANCH  20  21
ENDBRANCH  16  20
BRANCH   5  32
HETATM   32  C6  UNL     1      -1.044  51.621 -20.936  1.00  0.00     0.010 C 
HETATM   33  C7  UNL     1      -0.034  51.499 -19.780  1.00  0.00     0.012 C 
BRANCH  32  34
HETATM   34  C8  UNL     1      -0.409  52.400 -22.103  1.00  0.00     0.168 C 
BRANCH  34  35
HETATM   35  O1  UNL     1       0.749  53.120 -21.696  1.00  0.00    -0.400 OA
HETATM   36  H14 UNL     1       0.479  53.729 -20.988  1.00  0.00     0.209 HD
ENDBRANCH  34  35
ENDBRANCH  32  34
ENDBRANCH   5  32
BRANCH  11  37
HETATM   37  O3  UNL     1      -6.821  50.371 -20.204  1.00  0.00    -0.387 OA
HETATM   38  H22 UNL     1      -7.382  50.289 -19.413  1.00  0.00     0.210 HD
ENDBRANCH  11  37
TORSDOF 12
ENDMDL
MODEL 2
REMARK minimizedAffinity -8.48759556
REMARK CNNscore 0.725152791
REMARK CNNaffinity 7.56820822
REMARK  12 active torsions:
REMARK  status: ('A' for Active; 'I' for Inactive)
REMARK    1  A    between atoms: C5_5  and  C6_6 
REMARK    2  A    between atoms: C6_6  and  C8_8 
REMARK    3  A    between atoms: C8_8  and  O1_9 
REMARK    4  A    between atoms: C13_15  and  O3_17 
REMARK    5  A    between atoms: C18_21  and  O4_23 
REMARK    6  A    between atoms: O4_23  and  C20_24 
REMARK    7  A    between atoms: C20_24  and  C21_26 
REMARK    8  A    between atoms: C21_26  and  C22_27 
REMARK    9  A    between atoms: C21_26  and  O6_29 
REMARK   10  A    between atoms: O6_29  and  C24_30 
REMARK   11  A    between atoms: C24_30  and  C25_32 
REMARK   12  A    between atoms: C25_32  and  C26_33 
ROOT
HETATM    1  C1  UNL     1      -3.863  49.180 -18.685  1.00  0.00     0.015 C 
HETATM    2  C2  UNL     1      -3.411  48.624 -19.822  1.00  0.00    -0.077 C 
HETATM    3  C3  UNL     1      -2.215  47.701 -19.818  1.00  0.00     0.034 C 
HETATM    4  C4  UNL     1      -1.417  47.774 -21.124  1.00  0.00     0.010 C 
HETATM    5  C5  UNL     1      -1.499  49.159 -21.803  1.00  0.00    -0.001 C 
HETATM    6  C9  UNL     1      -2.988  49.396 -22.256  1.00  0.00     0.037 C 
HETATM    7  C10 UNL     1      -4.030  48.926 -21.179  1.00  0.00     0.090 C 
HETATM    8  C11 UNL     1      -4.915  47.727 -21.569  1.00  0.00     0.138 C 
HETATM    9  O2  UNL     1      -4.505  46.562 -21.500  1.00  0.00    -0.297 OA
HETATM   10  C12 UNL     1      -6.364  47.985 -21.993  1.00  0.00     0.119 C 
HETATM   11  C13 UNL     1      -6.640  49.225 -22.875  1.00  0.00     0.087 C 
HETATM   12  C14 UNL     1      -8.040  49.089 -23.503  1.00  0.00     0.049 C 
HETATM   13  C15 UNL     1      -5.591  49.450 -24.023  1.00  0.00     0.156 C 
HETATM   14  C16 UNL     1      -5.058  50.884 -24.138  1.00  0.00     0.038 C 
HETATM   15  C17 UNL     1      -3.769  51.026 -24.952  1.00  0.00     0.043 C 
HETATM   16  C18 UNL     1      -2.836  49.793 -24.911  1.00  0.00     0.093 C 
HETATM   17  C19 UNL     1      -2.987  48.968 -26.218  1.00  0.00     0.049 C 
HETATM   18  C28 UNL     1      -3.236  48.859 -23.717  1.00  0.00     0.162 C 
HETATM   19  O8  UNL     1      -4.583  48.444 -23.936  1.00  0.00    -0.374 OA
ENDROOT
BRANCH  16  20
HETATM   20  O4  UNL     1      -1.436  50.165 -24.783  1.00  0.00    -0.306 OA
BRANCH  20  21
HETATM   21  C20 UNL     1      -0.823  50.844 -25.799  1.00  0.00     0.289 C 
HETATM   22  O5  UNL     1      -1.050  50.676 -26.992  1.00  0.00    -0.262 OA
BRANCH  21  23
HETATM   23  C21 UNL     1       0.232  51.837 -25.280  1.00  0.00     0.231 C 
BRANCH  23  24
HETATM   24  C22 UNL     1       1.254  52.176 -26.373  1.00  0.00     0.038 C 
HETATM   25  C23 UNL     1       2.487  51.285 -26.372  1.00  0.00     0.008 C 
ENDBRANCH  23  24
BRANCH  23  26
HETATM   26  O6  UNL     1      -0.272  53.058 -24.728  1.00  0.00    -0.306 OA
BRANCH  26  27
HETATM   27  C24 UNL     1       0.598  53.710 -23.905  1.00  0.00     0.259 C 
HETATM   28  O7  UNL     1       1.172  54.753 -24.181  1.00  0.00    -0.265 OA
BRANCH  27  29
HETATM   29  C25 UNL     1       0.764  52.944 -22.615  1.00  0.00     0.111 C 
BRANCH  29  30
HETATM   30  C26 UNL     1       1.512  53.764 -21.569  1.00  0.00     0.005 C 
HETATM   31  C27 UNL     1       0.676  53.959 -20.313  1.00  0.00     0.005 C 
ENDBRANCH  29  30
ENDBRANCH  27  29
ENDBRANCH  26  27
ENDBRANCH  23  26
ENDBRANCH  21  23
ENDBRANCH  20  21
ENDBRANCH  16  20
BRANCH   5  32
HETATM   32  C6  UNL     1      -0.868  50.292 -20.911  1.00  0.00     0.010 C 
HETATM   33  C7  UNL     1      -1.891  51.417 -20.659  1.00  0.00     0.012 C 
BRANCH  32  34
HETATM   34  C8  UNL     1      -0.319  49.776 -19.567  1.00  0.00     0.168 C 
BRANCH  34  35
HETATM   35  O1  UNL     1      -0.483  50.728 -18.523  1.00  0.00    -0.400 OA
HETATM   36  H14 UNL     1      -0.018  51.539 -18.792  1.00  0.00     0.209 HD
ENDBRANCH  34  35
ENDBRANCH  32  34
ENDBRANCH   5  32
BRANCH  11  37
HETATM   37  O3  UNL     1      -6.720  50.375 -22.015  1.00  0.00    -0.387 OA
HETATM   38  H22 UNL     1      -7.500  50.280 -21.441  1.00  0.00     0.210 HD
ENDBRANCH  11  37
TORSDOF 12
ENDMDL
MODEL 3
REMARK minimizedAffinity -6.73306942
REMARK CNNscore 0.658608079
REMARK CNNaffinity 6.68946505
REMARK  12 active torsions:
REMARK  status: ('A' for Active; 'I' for Inactive)
REMARK    1  A    between atoms: C5_5  and  C6_6 
REMARK    2  A    between atoms: C6_6  and  C8_8 
REMARK    3  A    between atoms: C8_8  and  O1_9 
REMARK    4  A    between atoms: C13_15  and  O3_17 
REMARK    5  A    between atoms: C18_21  and  O4_23 
REMARK    6  A    between atoms: O4_23  and  C20_24 
REMARK    7  A    between atoms: C20_24  and  C21_26 
REMARK    8  A    between atoms: C21_26  and  C22_27 
REMARK    9  A    between atoms: C21_26  and  O6_29 
REMARK   10  A    between atoms: O6_29  and  C24_30 
REMARK   11  A    between atoms: C24_30  and  C25_32 
REMARK   12  A    between atoms: C25_32  and  C26_33 
ROOT
HETATM    1  C1  UNL     1      -6.751  47.639 -23.678  1.00  0.00     0.015 C 
HETATM    2  C2  UNL     1      -6.434  48.459 -22.661  1.00  0.00    -0.077 C 
HETATM    3  C3  UNL     1      -6.687  49.946 -22.749  1.00  0.00     0.034 C 
HETATM    4  C4  UNL     1      -5.666  50.760 -21.948  1.00  0.00     0.010 C 
HETATM    5  C5  UNL     1      -4.286  50.072 -21.858  1.00  0.00    -0.001 C 
HETATM    6  C9  UNL     1      -4.451  48.747 -21.024  1.00  0.00     0.037 C 
HETATM    7  C10 UNL     1      -5.758  47.959 -21.392  1.00  0.00     0.090 C 
HETATM    8  C11 UNL     1      -6.831  47.874 -20.290  1.00  0.00     0.138 C 
HETATM    9  O2  UNL     1      -7.608  48.807 -20.060  1.00  0.00    -0.297 OA
HETATM   10  C12 UNL     1      -6.979  46.567 -19.503  1.00  0.00     0.119 C 
HETATM   11  C13 UNL     1      -5.683  45.817 -19.116  1.00  0.00     0.087 C 
HETATM   12  C14 UNL     1      -6.014  44.781 -18.025  1.00  0.00     0.049 C 
HETATM   13  C15 UNL     1      -4.527  46.745 -18.598  1.00  0.00     0.156 C 
HETATM   14  C16 UNL     1      -3.154  46.480 -19.230  1.00  0.00     0.038 C 
HETATM   15  C17 UNL     1      -2.136  47.610 -19.052  1.00  0.00     0.043 C 
HETATM   16  C18 UNL     1      -2.750  49.027 -18.960  1.00  0.00     0.093 C 
HETATM   17  C19 UNL     1      -2.789  49.494 -17.480  1.00  0.00     0.049 C 
HETATM   18  C28 UNL     1      -4.227  49.006 -19.485  1.00  0.00     0.162 C 
HETATM   19  O8  UNL     1      -4.959  48.103 -18.658  1.00  0.00    -0.374 OA
ENDROOT
BRANCH  16  20
HETATM   20  O4  UNL     1      -1.985  50.008 -19.713  1.00  0.00    -0.306 OA
BRANCH  20  21
HETATM   21  C20 UNL     1      -1.743  51.238 -19.168  1.00  0.00     0.289 C 
HETATM   22  O5  UNL     1      -2.605  51.993 -18.733  1.00  0.00    -0.262 OA
BRANCH  21  23
HETATM   23  C21 UNL     1      -0.248  51.600 -19.191  1.00  0.00     0.231 C 
BRANCH  23  24
HETATM   24  C22 UNL     1       0.148  52.223 -20.536  1.00  0.00     0.038 C 
HETATM   25  C23 UNL     1      -0.919  52.113 -21.614  1.00  0.00     0.008 C 
ENDBRANCH  23  24
BRANCH  23  26
HETATM   26  O6  UNL     1       0.208  52.455 -18.137  1.00  0.00    -0.306 OA
BRANCH  26  27
HETATM   27  C24 UNL     1       0.975  51.835 -17.195  1.00  0.00     0.259 C 
HETATM   28  O7  UNL     1       0.786  50.702 -16.777  1.00  0.00    -0.265 OA
BRANCH  27  29
HETATM   29  C25 UNL     1       2.073  52.759 -16.729  1.00  0.00     0.111 C 
BRANCH  29  30
HETATM   30  C26 UNL     1       2.997  52.071 -15.729  1.00  0.00     0.005 C 
HETATM   31  C27 UNL     1       4.460  52.272 -16.095  1.00  0.00     0.005 C 
ENDBRANCH  29  30
ENDBRANCH  27  29
ENDBRANCH  26  27
ENDBRANCH  23  26
ENDBRANCH  21  23
ENDBRANCH  20  21
ENDBRANCH  16  20
BRANCH   5  32
HETATM   32  C6  UNL     1      -3.614  49.910 -23.273  1.00  0.00     0.010 C 
HETATM   33  C7  UNL     1      -3.295  48.429 -23.555  1.00  0.00     0.012 C 
BRANCH  32  34
HETATM   34  C8  UNL     1      -4.463  50.488 -24.421  1.00  0.00     0.168 C 
BRANCH  34  35
HETATM   35  O1  UNL     1      -4.481  49.629 -25.555  1.00  0.00    -0.400 OA
HETATM   36  H14 UNL     1      -3.560  49.506 -25.842  1.00  0.00     0.209 HD
ENDBRANCH  34  35
ENDBRANCH  32  34
ENDBRANCH   5  32
BRANCH  11  37
HETATM   37  O3  UNL     1      -5.258  45.046 -20.254  1.00  0.00    -0.387 OA
HETATM   38  H22 UNL     1      -5.922  44.356 -20.428  1.00  0.00     0.210 HD
ENDBRANCH  11  37
TORSDOF 12
ENDMDL
MODEL 4
REMARK minimizedAffinity -5.75941229
REMARK CNNscore 0.628760755
REMARK CNNaffinity 7.02754259
REMARK  12 active torsions:
REMARK  status: ('A' for Active; 'I' for Inactive)
REMARK    1  A    between atoms: C5_5  and  C6_6 
REMARK    2  A    between atoms: C6_6  and  C8_8 
REMARK    3  A    between atoms: C8_8  and  O1_9 
REMARK    4  A    between atoms: C13_15  and  O3_17 
REMARK    5  A    between atoms: C18_21  and  O4_23 
REMARK    6  A    between atoms: O4_23  and  C20_24 
REMARK    7  A    between atoms: C20_24  and  C21_26 
REMARK    8  A    between atoms: C21_26  and  C22_27 
REMARK    9  A    between atoms: C21_26  and  O6_29 
REMARK   10  A    between atoms: O6_29  and  C24_30 
REMARK   11  A    between atoms: C24_30  and  C25_32 
REMARK   12  A    between atoms: C25_32  and  C26_33 
ROOT
HETATM    1  C1  UNL     1       0.510  48.297 -13.498  1.00  0.00     0.015 C 
HETATM    2  C2  UNL     1       0.540  49.641 -13.539  1.00  0.00    -0.077 C 
HETATM    3  C3  UNL     1       1.263  50.372 -14.644  1.00  0.00     0.034 C 
HETATM    4  C4  UNL     1       1.831  51.718 -14.180  1.00  0.00     0.010 C 
HETATM    5  C5  UNL     1       2.203  51.729 -12.682  1.00  0.00    -0.001 C 
HETATM    6  C9  UNL     1       0.880  51.568 -11.845  1.00  0.00     0.037 C 
HETATM    7  C10 UNL     1      -0.098  50.503 -12.459  1.00  0.00     0.090 C 
HETATM    8  C11 UNL     1      -1.429  51.045 -13.014  1.00  0.00     0.138 C 
HETATM    9  O2  UNL     1      -1.505  51.573 -14.129  1.00  0.00    -0.297 OA
HETATM   10  C12 UNL     1      -2.704  50.862 -12.185  1.00  0.00     0.119 C 
HETATM   11  C13 UNL     1      -2.592  51.046 -10.653  1.00  0.00     0.087 C 
HETATM   12  C14 UNL     1      -4.007  51.212 -10.066  1.00  0.00     0.049 C 
HETATM   13  C15 UNL     1      -1.714  52.273 -10.210  1.00  0.00     0.156 C 
HETATM   14  C16 UNL     1      -0.682  51.966  -9.117  1.00  0.00     0.038 C 
HETATM   15  C17 UNL     1       0.428  53.010  -8.972  1.00  0.00     0.043 C 
HETATM   16  C18 UNL     1       0.796  53.752 -10.279  1.00  0.00     0.093 C 
HETATM   17  C19 UNL     1       0.147  55.163 -10.290  1.00  0.00     0.049 C 
HETATM   18  C28 UNL     1       0.235  52.968 -11.515  1.00  0.00     0.162 C 
HETATM   19  O8  UNL     1      -1.183  52.907 -11.372  1.00  0.00    -0.374 OA
ENDROOT
BRANCH  16  20
HETATM   20  O4  UNL     1       2.231  53.924 -10.429  1.00  0.00    -0.306 OA
BRANCH  20  21
HETATM   21  C20 UNL     1       2.769  55.181 -10.387  1.00  0.00     0.289 C 
HETATM   22  O5  UNL     1       2.638  56.028 -11.264  1.00  0.00    -0.262 OA
BRANCH  21  23
HETATM   23  C21 UNL     1       3.602  55.415  -9.116  1.00  0.00     0.231 C 
BRANCH  23  24
HETATM   24  C22 UNL     1       2.789  56.168  -8.054  1.00  0.00     0.038 C 
HETATM   25  C23 UNL     1       3.344  57.539  -7.700  1.00  0.00     0.008 C 
ENDBRANCH  23  24
BRANCH  23  26
HETATM   26  O6  UNL     1       4.173  54.249  -8.514  1.00  0.00    -0.306 OA
BRANCH  26  27
HETATM   27  C24 UNL     1       5.349  53.841  -9.070  1.00  0.00     0.259 C 
HETATM   28  O7  UNL     1       5.574  52.711  -9.479  1.00  0.00    -0.265 OA
BRANCH  27  29
HETATM   29  C25 UNL     1       6.339  54.981  -9.086  1.00  0.00     0.111 C 
BRANCH  29  30
HETATM   30  C26 UNL     1       6.545  55.563  -7.691  1.00  0.00     0.005 C 
HETATM   31  C27 UNL     1       7.094  54.519  -6.730  1.00  0.00     0.005 C 
ENDBRANCH  29  30
ENDBRANCH  27  29
ENDBRANCH  26  27
ENDBRANCH  23  26
ENDBRANCH  21  23
ENDBRANCH  20  21
ENDBRANCH  16  20
BRANCH   5  32
HETATM   32  C6  UNL     1       3.350  50.702 -12.351  1.00  0.00     0.010 C 
HETATM   33  C7  UNL     1       2.951  49.808 -11.161  1.00  0.00     0.012 C 
BRANCH  32  34
HETATM   34  C8  UNL     1       3.746  49.823 -13.552  1.00  0.00     0.168 C 
BRANCH  34  35
HETATM   35  O1  UNL     1       5.156  49.666 -13.657  1.00  0.00    -0.400 OA
HETATM   36  H14 UNL     1       5.542  50.554 -13.744  1.00  0.00     0.209 HD
ENDBRANCH  34  35
ENDBRANCH  32  34
ENDBRANCH   5  32
BRANCH  11  37
HETATM   37  O3  UNL     1      -2.089  49.821 -10.092  1.00  0.00    -0.387 OA
HETATM   38  H22 UNL     1      -2.754  49.122 -10.227  1.00  0.00     0.210 HD
ENDBRANCH  11  37
TORSDOF 12
ENDMDL
MODEL 5
REMARK minimizedAffinity -8.10752964
REMARK CNNscore 0.627144754
REMARK CNNaffinity 7.18937731
REMARK  12 active torsions:
REMARK  status: ('A' for Active; 'I' for Inactive)
REMARK    1  A    between atoms: C5_5  and  C6_6 
REMARK    2  A    between atoms: C6_6  and  C8_8 
REMARK    3  A    between atoms: C8_8  and  O1_9 
REMARK    4  A    between atoms: C13_15  and  O3_17 
REMARK    5  A    between atoms: C18_21  and  O4_23 
REMARK    6  A    between atoms: O4_23  and  C20_24 
REMARK    7  A    between atoms: C20_24  and  C21_26 
REMARK    8  A    between atoms: C21_26  and  C22_27 
REMARK    9  A    between atoms: C21_26  and  O6_29 
REMARK   10  A    between atoms: O6_29  and  C24_30 
REMARK   11  A    between atoms: C24_30  and  C25_32 
REMARK   12  A    between atoms: C25_32  and  C26_33 
ROOT
HETATM    1  C1  UNL     1      -3.804  48.633 -18.438  1.00  0.00     0.015 C 
HETATM    2  C2  UNL     1      -3.104  48.373 -19.556  1.00  0.00    -0.077 C 
HETATM    3  C3  UNL     1      -1.672  47.899 -19.489  1.00  0.00     0.034 C 
HETATM    4  C4  UNL     1      -0.847  48.361 -20.694  1.00  0.00     0.010 C 
HETATM    5  C5  UNL     1      -1.337  49.703 -21.281  1.00  0.00    -0.001 C 
HETATM    6  C9  UNL     1      -2.779  49.482 -21.873  1.00  0.00     0.037 C 
HETATM    7  C10 UNL     1      -3.682  48.590 -20.947  1.00  0.00     0.090 C 
HETATM    8  C11 UNL     1      -4.079  47.213 -21.512  1.00  0.00     0.138 C 
HETATM    9  O2  UNL     1      -3.308  46.246 -21.479  1.00  0.00    -0.297 OA
HETATM   10  C12 UNL     1      -5.493  47.022 -22.068  1.00  0.00     0.119 C 
HETATM   11  C13 UNL     1      -6.101  48.185 -22.887  1.00  0.00     0.087 C 
HETATM   12  C14 UNL     1      -7.322  47.660 -23.668  1.00  0.00     0.049 C 
HETATM   13  C15 UNL     1      -5.104  48.856 -23.899  1.00  0.00     0.156 C 
HETATM   14  C16 UNL     1      -5.077  50.390 -23.857  1.00  0.00     0.038 C 
HETATM   15  C17 UNL     1      -3.853  51.028 -24.517  1.00  0.00     0.043 C 
HETATM   16  C18 UNL     1      -2.565  50.172 -24.463  1.00  0.00     0.093 C 
HETATM   17  C19 UNL     1      -2.329  49.479 -25.832  1.00  0.00     0.049 C 
HETATM   18  C28 UNL     1      -2.719  49.043 -23.386  1.00  0.00     0.162 C 
HETATM   19  O8  UNL     1      -3.826  48.233 -23.774  1.00  0.00    -0.374 OA
ENDROOT
BRANCH  16  20
HETATM   20  O4  UNL     1      -1.387  50.968 -24.161  1.00  0.00    -0.306 OA
BRANCH  20  21
HETATM   21  C20 UNL     1      -1.409  52.317 -24.381  1.00  0.00     0.289 C 
HETATM   22  O5  UNL     1      -2.401  52.956 -24.714  1.00  0.00    -0.262 OA
BRANCH  21  23
HETATM   23  C21 UNL     1      -0.023  52.959 -24.199  1.00  0.00     0.231 C 
BRANCH  23  24
HETATM   24  C22 UNL     1       0.662  52.441 -22.928  1.00  0.00     0.038 C 
HETATM   25  C23 UNL     1       0.818  53.485 -21.833  1.00  0.00     0.008 C 
ENDBRANCH  23  24
BRANCH  23  26
HETATM   26  O6  UNL     1       0.884  52.820 -25.298  1.00  0.00    -0.306 OA
BRANCH  26  27
HETATM   27  C24 UNL     1       0.380  53.214 -26.503  1.00  0.00     0.259 C 
HETATM   28  O7  UNL     1       0.108  54.367 -26.802  1.00  0.00    -0.265 OA
BRANCH  27  29
HETATM   29  C25 UNL     1       0.188  52.017 -27.401  1.00  0.00     0.111 C 
BRANCH  29  30
HETATM   30  C26 UNL     1       1.417  51.764 -28.269  1.00  0.00     0.005 C 
HETATM   31  C27 UNL     1       2.687  51.722 -27.433  1.00  0.00     0.005 C 
ENDBRANCH  29  30
ENDBRANCH  27  29
ENDBRANCH  26  27
ENDBRANCH  23  26
ENDBRANCH  21  23
ENDBRANCH  20  21
ENDBRANCH  16  20
BRANCH   5  32
HETATM   32  C6  UNL     1      -1.195  50.885 -20.251  1.00  0.00     0.010 C 
HETATM   33  C7  UNL     1      -2.563  51.543 -19.988  1.00  0.00     0.012 C 
BRANCH  32  34
HETATM   34  C8  UNL     1      -0.558  50.457 -18.916  1.00  0.00     0.168 C 
BRANCH  34  35
HETATM   35  O1  UNL     1      -1.208  51.051 -17.799  1.00  0.00    -0.400 OA
HETATM   36  H14 UNL     1      -1.152  52.015 -17.908  1.00  0.00     0.209 HD
ENDBRANCH  34  35
ENDBRANCH  32  34
ENDBRANCH   5  32
BRANCH  11  37
HETATM   37  O3  UNL     1      -6.630  49.152 -21.962  1.00  0.00    -0.387 OA
HETATM   38  H22 UNL     1      -7.375  48.748 -21.482  1.00  0.00     0.210 HD
ENDBRANCH  11  37
TORSDOF 12
ENDMDL
MODEL 6
REMARK minimizedAffinity -7.78671789
REMARK CNNscore 0.593018174
REMARK CNNaffinity 6.90972853
REMARK  12 active torsions:
REMARK  status: ('A' for Active; 'I' for Inactive)
REMARK    1  A    between atoms: C5_5  and  C6_6 
REMARK    2  A    between atoms: C6_6  and  C8_8 
REMARK    3  A    between atoms: C8_8  and  O1_9 
REMARK    4  A    between atoms: C13_15  and  O3_17 
REMARK    5  A    between atoms: C18_21  and  O4_23 
REMARK    6  A    between atoms: O4_23  and  C20_24 
REMARK    7  A    between atoms: C20_24  and  C21_26 
REMARK    8  A    between atoms: C21_26  and  C22_27 
REMARK    9  A    between atoms: C21_26  and  O6_29 
REMARK   10  A    between atoms: O6_29  and  C24_30 
REMARK   11  A    between atoms: C24_30  and  C25_32 
REMARK   12  A    between atoms: C25_32  and  C26_33 
ROOT
HETATM    1  C1  UNL     1      -6.086  49.040 -24.307  1.00  0.00     0.015 C 
HETATM    2  C2  UNL     1      -5.456  49.802 -23.397  1.00  0.00    -0.077 C 
HETATM    3  C3  UNL     1      -5.541  51.309 -23.447  1.00  0.00     0.034 C 
HETATM    4  C4  UNL     1      -4.278  51.984 -22.904  1.00  0.00     0.010 C 
HETATM    5  C5  UNL     1      -3.005  51.135 -23.113  1.00  0.00    -0.001 C 
HETATM    6  C9  UNL     1      -3.138  49.828 -22.246  1.00  0.00     0.037 C 
HETATM    7  C10 UNL     1      -4.579  49.208 -22.304  1.00  0.00     0.090 C 
HETATM    8  C11 UNL     1      -5.383  49.236 -20.990  1.00  0.00     0.138 C 
HETATM    9  O2  UNL     1      -5.972  50.253 -20.606  1.00  0.00    -0.297 OA
HETATM   10  C12 UNL     1      -5.508  47.947 -20.172  1.00  0.00     0.119 C 
HETATM   11  C13 UNL     1      -4.258  47.041 -20.073  1.00  0.00     0.087 C 
HETATM   12  C14 UNL     1      -4.460  46.037 -18.921  1.00  0.00     0.049 C 
HETATM   13  C15 UNL     1      -2.912  47.817 -19.836  1.00  0.00     0.156 C 
HETATM   14  C16 UNL     1      -1.756  47.397 -20.754  1.00  0.00     0.038 C 
HETATM   15  C17 UNL     1      -0.597  48.395 -20.822  1.00  0.00     0.043 C 
HETATM   16  C18 UNL     1      -1.000  49.874 -20.615  1.00  0.00     0.093 C 
HETATM   17  C19 UNL     1      -0.653  50.322 -19.169  1.00  0.00     0.049 C 
HETATM   18  C28 UNL     1      -2.549  50.037 -20.798  1.00  0.00     0.162 C 
HETATM   19  O8  UNL     1      -3.181  49.218 -19.818  1.00  0.00    -0.374 OA
ENDROOT
BRANCH  16  20
HETATM   20  O4  UNL     1      -0.310  50.766 -21.532  1.00  0.00    -0.306 OA
BRANCH  20  21
HETATM   21  C20 UNL     1      -0.386  52.118 -21.344  1.00  0.00     0.289 C 
HETATM   22  O5  UNL     1      -0.901  52.663 -20.374  1.00  0.00    -0.262 OA
BRANCH  21  23
HETATM   23  C21 UNL     1       0.224  52.903 -22.518  1.00  0.00     0.231 C 
BRANCH  23  24
HETATM   24  C22 UNL     1       1.241  53.939 -22.021  1.00  0.00     0.038 C 
HETATM   25  C23 UNL     1       1.944  53.552 -20.728  1.00  0.00     0.008 C 
ENDBRANCH  23  24
BRANCH  23  26
HETATM   26  O6  UNL     1       0.833  52.120 -23.550  1.00  0.00    -0.306 OA
BRANCH  26  27
HETATM   27  C24 UNL     1       0.395  52.402 -24.810  1.00  0.00     0.259 C 
HETATM   28  O7  UNL     1      -0.253  53.391 -25.119  1.00  0.00    -0.265 OA
BRANCH  27  29
HETATM   29  C25 UNL     1       0.807  51.304 -25.760  1.00  0.00     0.111 C 
BRANCH  29  30
HETATM   30  C26 UNL     1       0.109  51.439 -27.110  1.00  0.00     0.005 C 
HETATM   31  C27 UNL     1       1.067  51.932 -28.184  1.00  0.00     0.005 C 
ENDBRANCH  29  30
ENDBRANCH  27  29
ENDBRANCH  26  27
ENDBRANCH  23  26
ENDBRANCH  21  23
ENDBRANCH  20  21
ENDBRANCH  16  20
BRANCH   5  32
HETATM   32  C6  UNL     1      -2.688  50.912 -24.639  1.00  0.00     0.010 C 
HETATM   33  C7  UNL     1      -2.721  49.412 -24.987  1.00  0.00     0.012 C 
BRANCH  32  34
HETATM   34  C8  UNL     1      -3.635  51.685 -25.578  1.00  0.00     0.168 C 
BRANCH  34  35
HETATM   35  O1  UNL     1      -3.027  52.861 -26.098  1.00  0.00    -0.400 OA
HETATM   36  H14 UNL     1      -2.771  53.416 -25.342  1.00  0.00     0.209 HD
ENDBRANCH  34  35
ENDBRANCH  32  34
ENDBRANCH   5  32
BRANCH  11  37
HETATM   37  O3  UNL     1      -4.192  46.241 -21.266  1.00  0.00    -0.387 OA
HETATM   38  H22 UNL     1      -4.956  45.637 -21.279  1.00  0.00     0.210 HD
ENDBRANCH  11  37
TORSDOF 12
ENDMDL
MODEL 7
REMARK minimizedAffinity -6.97665787
REMARK CNNscore 0.547020614
REMARK CNNaffinity 6.75579834
REMARK  12 active torsions:
REMARK  status: ('A' for Active; 'I' for Inactive)
REMARK    1  A    between atoms: C5_5  and  C6_6 
REMARK    2  A    between atoms: C6_6  and  C8_8 
REMARK    3  A    between atoms: C8_8  and  O1_9 
REMARK    4  A    between atoms: C13_15  and  O3_17 
REMARK    5  A    between atoms: C18_21  and  O4_23 
REMARK    6  A    between atoms: O4_23  and  C20_24 
REMARK    7  A    between atoms: C20_24  and  C21_26 
REMARK    8  A    between atoms: C21_26  and  C22_27 
REMARK    9  A    between atoms: C21_26  and  O6_29 
REMARK   10  A    between atoms: O6_29  and  C24_30 
REMARK   11  A    between atoms: C24_30  and  C25_32 
REMARK   12  A    between atoms: C25_32  and  C26_33 
ROOT
HETATM    1  C1  UNL     1      -6.105  47.396 -18.103  1.00  0.00     0.015 C 
HETATM    2  C2  UNL     1      -5.281  47.180 -19.143  1.00  0.00    -0.077 C 
HETATM    3  C3  UNL     1      -3.947  46.497 -18.955  1.00  0.00     0.034 C 
HETATM    4  C4  UNL     1      -2.896  46.982 -19.958  1.00  0.00     0.010 C 
HETATM    5  C5  UNL     1      -3.119  48.443 -20.404  1.00  0.00    -0.001 C 
HETATM    6  C9  UNL     1      -4.470  48.512 -21.208  1.00  0.00     0.037 C 
HETATM    7  C10 UNL     1      -5.609  47.652 -20.552  1.00  0.00     0.090 C 
HETATM    8  C11 UNL     1      -6.085  46.430 -21.359  1.00  0.00     0.138 C 
HETATM    9  O2  UNL     1      -5.457  45.365 -21.366  1.00  0.00    -0.297 OA
HETATM   10  C12 UNL     1      -7.411  46.520 -22.122  1.00  0.00     0.119 C 
HETATM   11  C13 UNL     1      -7.735  47.853 -22.836  1.00  0.00     0.087 C 
HETATM   12  C14 UNL     1      -8.878  47.615 -23.841  1.00  0.00     0.049 C 
HETATM   13  C15 UNL     1      -6.518  48.493 -23.596  1.00  0.00     0.156 C 
HETATM   14  C16 UNL     1      -6.305  49.989 -23.328  1.00  0.00     0.038 C 
HETATM   15  C17 UNL     1      -4.923  50.520 -23.718  1.00  0.00     0.043 C 
HETATM   16  C18 UNL     1      -3.778  49.485 -23.618  1.00  0.00     0.093 C 
HETATM   17  C19 UNL     1      -3.425  48.943 -25.030  1.00  0.00     0.049 C 
HETATM   18  C28 UNL     1      -4.235  48.264 -22.747  1.00  0.00     0.162 C 
HETATM   19  O8  UNL     1      -5.364  47.680 -23.394  1.00  0.00    -0.374 OA
ENDROOT
BRANCH  16  20
HETATM   20  O4  UNL     1      -2.568  50.056 -23.049  1.00  0.00    -0.306 OA
BRANCH  20  21
HETATM   21  C20 UNL     1      -2.382  51.410 -23.077  1.00  0.00     0.289 C 
HETATM   22  O5  UNL     1      -3.137  52.231 -22.569  1.00  0.00    -0.262 OA
BRANCH  21  23
HETATM   23  C21 UNL     1      -1.120  51.807 -23.861  1.00  0.00     0.231 C 
BRANCH  23  24
HETATM   24  C22 UNL     1       0.113  51.827 -22.948  1.00  0.00     0.038 C 
HETATM   25  C23 UNL     1       0.709  53.210 -22.733  1.00  0.00     0.008 C 
ENDBRANCH  23  24
BRANCH  23  26
HETATM   26  O6  UNL     1      -0.822  51.016 -25.016  1.00  0.00    -0.306 OA
BRANCH  26  27
HETATM   27  C24 UNL     1      -0.872  51.696 -26.197  1.00  0.00     0.259 C 
HETATM   28  O7  UNL     1      -1.649  52.606 -26.447  1.00  0.00    -0.265 OA
BRANCH  27  29
HETATM   29  C25 UNL     1       0.157  51.147 -27.156  1.00  0.00     0.111 C 
BRANCH  29  30
HETATM   30  C26 UNL     1       1.212  52.192 -27.505  1.00  0.00     0.005 C 
HETATM   31  C27 UNL     1       2.611  51.705 -27.160  1.00  0.00     0.005 C 
ENDBRANCH  29  30
ENDBRANCH  27  29
ENDBRANCH  26  27
ENDBRANCH  23  26
ENDBRANCH  21  23
ENDBRANCH  20  21
ENDBRANCH  16  20
BRANCH   5  32
HETATM   32  C6  UNL     1      -2.987  49.453 -19.202  1.00  0.00     0.010 C 
HETATM   33  C7  UNL     1      -1.595  49.344 -18.552  1.00  0.00     0.012 C 
BRANCH  32  34
HETATM   34  C8  UNL     1      -3.262  50.915 -19.601  1.00  0.00     0.168 C 
BRANCH  34  35
HETATM   35  O1  UNL     1      -2.946  51.822 -18.553  1.00  0.00    -0.400 OA
HETATM   36  H14 UNL     1      -3.482  51.575 -17.781  1.00  0.00     0.209 HD
ENDBRANCH  34  35
ENDBRANCH  32  34
ENDBRANCH   5  32
BRANCH  11  37
HETATM   37  O3  UNL     1      -8.272  48.762 -21.859  1.00  0.00    -0.387 OA
HETATM   38  H22 UNL     1      -9.126  48.415 -21.547  1.00  0.00     0.210 HD
ENDBRANCH  11  37
TORSDOF 12
ENDMDL
MODEL 8
REMARK minimizedAffinity -6.18728828
REMARK CNNscore 0.488849044
REMARK CNNaffinity 6.30046511
REMARK  12 active torsions:
REMARK  status: ('A' for Active; 'I' for Inactive)
REMARK    1  A    between atoms: C5_5  and  C6_6 
REMARK    2  A    between atoms: C6_6  and  C8_8 
REMARK    3  A    between atoms: C8_8  and  O1_9 
REMARK    4  A    between atoms: C13_15  and  O3_17 
REMARK    5  A    between atoms: C18_21  and  O4_23 
REMARK    6  A    between atoms: O4_23  and  C20_24 
REMARK    7  A    between atoms: C20_24  and  C21_26 
REMARK    8  A    between atoms: C21_26  and  C22_27 
REMARK    9  A    between atoms: C21_26  and  O6_29 
REMARK   10  A    between atoms: O6_29  and  C24_30 
REMARK   11  A    between atoms: C24_30  and  C25_32 
REMARK   12  A    between atoms: C25_32  and  C26_33 
ROOT
HETATM    1  C1  UNL     1      -9.339  46.248 -19.968  1.00  0.00     0.015 C 
HETATM    2  C2  UNL     1      -8.049  46.200 -20.346  1.00  0.00    -0.077 C 
HETATM    3  C3  UNL     1      -7.012  45.506 -19.496  1.00  0.00     0.034 C 
HETATM    4  C4  UNL     1      -5.626  46.146 -19.628  1.00  0.00     0.010 C 
HETATM    5  C5  UNL     1      -5.688  47.657 -19.940  1.00  0.00    -0.001 C 
HETATM    6  C9  UNL     1      -6.326  47.838 -21.368  1.00  0.00     0.037 C 
HETATM    7  C10 UNL     1      -7.546  46.880 -21.612  1.00  0.00     0.090 C 
HETATM    8  C11 UNL     1      -7.350  45.791 -22.684  1.00  0.00     0.138 C 
HETATM    9  O2  UNL     1      -6.735  44.745 -22.448  1.00  0.00    -0.297 OA
HETATM   10  C12 UNL     1      -7.992  45.987 -24.061  1.00  0.00     0.119 C 
HETATM   11  C13 UNL     1      -7.970  47.411 -24.664  1.00  0.00     0.087 C 
HETATM   12  C14 UNL     1      -8.293  47.321 -26.167  1.00  0.00     0.049 C 
HETATM   13  C15 UNL     1      -6.605  48.169 -24.485  1.00  0.00     0.156 C 
HETATM   14  C16 UNL     1      -6.729  49.608 -23.966  1.00  0.00     0.038 C 
HETATM   15  C17 UNL     1      -5.434  50.202 -23.406  1.00  0.00     0.043 C 
HETATM   16  C18 UNL     1      -4.465  49.172 -22.779  1.00  0.00     0.093 C 
HETATM   17  C19 UNL     1      -3.312  48.855 -23.769  1.00  0.00     0.049 C 
HETATM   18  C28 UNL     1      -5.223  47.829 -22.495  1.00  0.00     0.162 C 
HETATM   19  O8  UNL     1      -5.709  47.343 -23.744  1.00  0.00    -0.374 OA
ENDROOT
BRANCH  16  20
HETATM   20  O4  UNL     1      -3.868  49.658 -21.546  1.00  0.00    -0.306 OA
BRANCH  20  21
HETATM   21  C20 UNL     1      -3.155  50.825 -21.555  1.00  0.00     0.289 C 
HETATM   22  O5  UNL     1      -3.462  51.829 -22.189  1.00  0.00    -0.262 OA
BRANCH  21  23
HETATM   23  C21 UNL     1      -1.880  50.734 -20.699  1.00  0.00     0.231 C 
BRANCH  23  24
HETATM   24  C22 UNL     1      -0.866  49.764 -21.320  1.00  0.00     0.038 C 
HETATM   25  C23 UNL     1      -0.813  48.401 -20.647  1.00  0.00     0.008 C 
ENDBRANCH  23  24
BRANCH  23  26
HETATM   26  O6  UNL     1      -1.219  51.973 -20.422  1.00  0.00    -0.306 OA
BRANCH  26  27
HETATM   27  C24 UNL     1      -0.508  51.989 -19.259  1.00  0.00     0.259 C 
HETATM   28  O7  UNL     1      -0.803  51.361 -18.252  1.00  0.00    -0.265 OA
BRANCH  27  29
HETATM   29  C25 UNL     1       0.680  52.911 -19.389  1.00  0.00     0.111 C 
BRANCH  29  30
HETATM   30  C26 UNL     1       1.316  52.813 -20.773  1.00  0.00     0.005 C 
HETATM   31  C27 UNL     1       1.435  54.182 -21.426  1.00  0.00     0.005 C 
ENDBRANCH  29  30
ENDBRANCH  27  29
ENDBRANCH  26  27
ENDBRANCH  23  26
ENDBRANCH  21  23
ENDBRANCH  20  21
ENDBRANCH  16  20
BRANCH   5  32
HETATM   32  C6  UNL     1      -6.372  48.472 -18.779  1.00  0.00     0.010 C 
HETATM   33  C7  UNL     1      -7.581  49.264 -19.311  1.00  0.00     0.012 C 
BRANCH  32  34
HETATM   34  C8  UNL     1      -6.807  47.593 -17.591  1.00  0.00     0.168 C 
BRANCH  34  35
HETATM   35  O1  UNL     1      -7.977  48.094 -16.957  1.00  0.00    -0.400 OA
HETATM   36  H14 UNL     1      -7.782  48.998 -16.657  1.00  0.00     0.209 HD
ENDBRANCH  34  35
ENDBRANCH  32  34
ENDBRANCH   5  32
BRANCH  11  37
HETATM   37  O3  UNL     1      -9.056  48.157 -24.086  1.00  0.00    -0.387 OA
HETATM   38  H22 UNL     1      -9.896  47.759 -24.377  1.00  0.00     0.210 HD
ENDBRANCH  11  37
TORSDOF 12
ENDMDL
MODEL 9
REMARK minimizedAffinity -6.21795082
REMARK CNNscore 0.47281912
REMARK CNNaffinity 6.60718393
REMARK  12 active torsions:
REMARK  status: ('A' for Active; 'I' for Inactive)
REMARK    1  A    between atoms: C5_5  and  C6_6 
REMARK    2  A    between atoms: C6_6  and  C8_8 
REMARK    3  A    between atoms: C8_8  and  O1_9 
REMARK    4  A    between atoms: C13_15  and  O3_17 
REMARK    5  A    between atoms: C18_21  and  O4_23 
REMARK    6  A    between atoms: O4_23  and  C20_24 
REMARK    7  A    between atoms: C20_24  and  C21_26 
REMARK    8  A    between atoms: C21_26  and  C22_27 
REMARK    9  A    between atoms: C21_26  and  O6_29 
REMARK   10  A    between atoms: O6_29  and  C24_30 
REMARK   11  A    between atoms: C24_30  and  C25_32 
REMARK   12  A    between atoms: C25_32  and  C26_33 
ROOT
HETATM    1  C1  UNL     1       0.164  48.231 -13.643  1.00  0.00     0.015 C 
HETATM    2  C2  UNL     1       0.432  49.546 -13.729  1.00  0.00    -0.077 C 
HETATM    3  C3  UNL     1       1.130  50.122 -14.938  1.00  0.00     0.034 C 
HETATM    4  C4  UNL     1       1.987  51.343 -14.590  1.00  0.00     0.010 C 
HETATM    5  C5  UNL     1       2.544  51.297 -13.151  1.00  0.00    -0.001 C 
HETATM    6  C9  UNL     1       1.330  51.390 -12.151  1.00  0.00     0.037 C 
HETATM    7  C10 UNL     1       0.105  50.519 -12.606  1.00  0.00     0.090 C 
HETATM    8  C11 UNL     1      -1.164  51.292 -13.009  1.00  0.00     0.138 C 
HETATM    9  O2  UNL     1      -1.285  51.818 -14.121  1.00  0.00    -0.297 OA
HETATM   10  C12 UNL     1      -2.336  51.355 -12.023  1.00  0.00     0.119 C 
HETATM   11  C13 UNL     1      -1.998  51.527 -10.523  1.00  0.00     0.087 C 
HETATM   12  C14 UNL     1      -3.272  51.956  -9.771  1.00  0.00     0.049 C 
HETATM   13  C15 UNL     1      -0.863  52.574 -10.231  1.00  0.00     0.156 C 
HETATM   14  C16 UNL     1       0.227  52.090  -9.265  1.00  0.00     0.038 C 
HETATM   15  C17 UNL     1       1.518  52.912  -9.291  1.00  0.00     0.043 C 
HETATM   16  C18 UNL     1       1.845  53.564 -10.655  1.00  0.00     0.093 C 
HETATM   17  C19 UNL     1       1.469  55.070 -10.629  1.00  0.00     0.049 C 
HETATM   18  C28 UNL     1       0.998  52.887 -11.788  1.00  0.00     0.162 C 
HETATM   19  O8  UNL     1      -0.376  53.090 -11.468  1.00  0.00    -0.374 OA
ENDROOT
BRANCH  16  20
HETATM   20  O4  UNL     1       3.258  53.467 -10.987  1.00  0.00    -0.306 OA
BRANCH  20  21
HETATM   21  C20 UNL     1       4.131  54.400 -10.501  1.00  0.00     0.289 C 
HETATM   22  O5  UNL     1       4.416  55.452 -11.062  1.00  0.00    -0.262 OA
BRANCH  21  23
HETATM   23  C21 UNL     1       4.759  53.967  -9.165  1.00  0.00     0.231 C 
BRANCH  23  24
HETATM   24  C22 UNL     1       6.287  53.871  -9.279  1.00  0.00     0.038 C 
HETATM   25  C23 UNL     1       6.840  52.466  -9.093  1.00  0.00     0.008 C 
ENDBRANCH  23  24
BRANCH  23  26
HETATM   26  O6  UNL     1       4.434  54.772  -8.027  1.00  0.00    -0.306 OA
BRANCH  26  27
HETATM   27  C24 UNL     1       5.107  55.956  -7.958  1.00  0.00     0.259 C 
HETATM   28  O7  UNL     1       6.311  56.066  -7.777  1.00  0.00    -0.265 OA
BRANCH  27  29
HETATM   29  C25 UNL     1       4.146  57.109  -8.116  1.00  0.00     0.111 C 
BRANCH  29  30
HETATM   30  C26 UNL     1       2.844  56.861  -7.359  1.00  0.00     0.005 C 
HETATM   31  C27 UNL     1       2.361  58.122  -6.659  1.00  0.00     0.005 C 
ENDBRANCH  29  30
ENDBRANCH  27  29
ENDBRANCH  26  27
ENDBRANCH  23  26
ENDBRANCH  21  23
ENDBRANCH  20  21
ENDBRANCH  16  20
BRANCH   5  32
HETATM   32  C6  UNL     1       3.516  50.079 -12.932  1.00  0.00     0.010 C 
HETATM   33  C7  UNL     1       4.556  50.005 -14.066  1.00  0.00     0.012 C 
BRANCH  32  34
HETATM   34  C8  UNL     1       4.233  50.107 -11.569  1.00  0.00     0.168 C 
BRANCH  34  35
HETATM   35  O1  UNL     1       5.612  49.777 -11.685  1.00  0.00    -0.400 OA
HETATM   36  H14 UNL     1       5.667  48.890 -12.079  1.00  0.00     0.209 HD
ENDBRANCH  34  35
ENDBRANCH  32  34
ENDBRANCH   5  32
BRANCH  11  37
HETATM   37  O3  UNL     1      -1.659  50.234  -9.991  1.00  0.00    -0.387 OA
HETATM   38  H22 UNL     1      -2.452  49.669 -10.020  1.00  0.00     0.210 HD
ENDBRANCH  11  37
TORSDOF 12
ENDMDL
