MODEL 1
REMARK minimizedAffinity -7.97674131
REMARK  3 active torsions:
REMARK  status: ('A' for Active; 'I' for Inactive)
REMARK    1  A    between atoms: C8_8  and  N1_9 
REMARK       I    between atoms: N1_9  and  C9_10 
REMARK    2  A    between atoms: C9_10  and  C10_12 
REMARK    3  A    between atoms: C14_18  and  O2_19 
ROOT
HETATM    1  N1  UNL     1       0.039  51.989 -24.112  1.00  0.00    -0.322 N 
HETATM    2  C9  UNL     1       0.559  53.092 -23.460  1.00  0.00     0.260 C 
HETATM    3  O1  UNL     1       1.029  54.097 -23.986  1.00  0.00    -0.267 OA
HETATM    4  H10 UNL     1       0.129  51.118 -23.609  1.00  0.00     0.169 HD
ENDROOT
BRANCH   2   5
HETATM    5  C10 UNL     1       0.636  52.994 -21.981  1.00  0.00     0.083 A 
HETATM    6  C11 UNL     1      -0.027  51.988 -21.267  1.00  0.00     0.023 A 
HETATM    7  C12 UNL     1       0.089  51.943 -19.880  1.00  0.00     0.018 A 
HETATM    8  C13 UNL     1       0.859  52.908 -19.253  1.00  0.00     0.090 A 
HETATM    9  N2  UNL     1       1.497  53.899 -19.910  1.00  0.00    -0.346 N 
HETATM   10  C14 UNL     1       1.364  53.935 -21.253  1.00  0.00     0.155 A 
ATOM     11  H2  UNL     1       2.056  54.592 -19.413  1.00  0.00     0.167 HD
BRANCH  10  12
HETATM   12  O2  UNL     1       2.021  54.982 -21.837  1.00  0.00    -0.345 OA
HETATM   13  H14 UNL     1       1.737  55.021 -22.774  1.00  0.00     0.219 HD
ENDBRANCH  10  12
ENDBRANCH   2   5
BRANCH   1  14
HETATM   14  C8  UNL     1      -0.154  51.866 -25.513  1.00  0.00     0.046 A 
HETATM   15  C2  UNL     1       0.895  51.593 -26.418  1.00  0.00    -0.035 A 
HETATM   16  C1  UNL     1       2.348  51.489 -26.035  1.00  0.00     0.050 C 
HETATM   17  C3  UNL     1       0.600  51.447 -27.787  1.00  0.00     0.009 A 
HETATM   18  C4  UNL     1      -0.691  51.629 -28.269  1.00  0.00     0.001 A 
HETATM   19  C5  UNL     1      -1.713  51.966 -27.389  1.00  0.00     0.009 A 
HETATM   20  C6  UNL     1      -1.462  52.092 -26.013  1.00  0.00    -0.035 A 
HETATM   21  C7  UNL     1      -2.624  52.431 -25.116  1.00  0.00     0.050 C 
ENDBRANCH   1  14
TORSDOF 3
ENDMDL
MODEL 2
REMARK minimizedAffinity -7.95526361
REMARK  3 active torsions:
REMARK  status: ('A' for Active; 'I' for Inactive)
REMARK    1  A    between atoms: C8_8  and  N1_9 
REMARK       I    between atoms: N1_9  and  C9_10 
REMARK    2  A    between atoms: C9_10  and  C10_12 
REMARK    3  A    between atoms: C14_18  and  O2_19 
ROOT
HETATM    1  N1  UNL     1       0.603  52.203 -23.373  1.00  0.00    -0.322 N 
HETATM    2  C9  UNL     1      -0.349  52.507 -24.330  1.00  0.00     0.260 C 
HETATM    3  O1  UNL     1      -1.509  52.853 -24.123  1.00  0.00    -0.267 OA
HETATM    4  H10 UNL     1       1.296  51.529 -23.665  1.00  0.00     0.169 HD
ENDROOT
BRANCH   2   5
HETATM    5  C10 UNL     1       0.061  52.297 -25.741  1.00  0.00     0.083 A 
HETATM    6  C11 UNL     1       1.360  51.908 -26.088  1.00  0.00     0.023 A 
HETATM    7  C12 UNL     1       1.684  51.719 -27.429  1.00  0.00     0.018 A 
HETATM    8  C13 UNL     1       0.699  51.931 -28.379  1.00  0.00     0.090 A 
HETATM    9  N2  UNL     1      -0.557  52.322 -28.079  1.00  0.00    -0.346 N 
HETATM   10  C14 UNL     1      -0.850  52.512 -26.775  1.00  0.00     0.155 A 
ATOM     11  H2  UNL     1      -1.256  52.468 -28.807  1.00  0.00     0.167 HD
BRANCH  10  12
HETATM   12  O2  UNL     1      -2.134  52.930 -26.561  1.00  0.00    -0.345 OA
HETATM   13  H14 UNL     1      -2.203  53.195 -25.620  1.00  0.00     0.219 HD
ENDBRANCH  10  12
ENDBRANCH   2   5
BRANCH   1  14
HETATM   14  C8  UNL     1       0.446  52.349 -21.970  1.00  0.00     0.046 A 
HETATM   15  C2  UNL     1      -0.223  51.402 -21.163  1.00  0.00    -0.035 A 
HETATM   16  C1  UNL     1      -0.927  50.179 -21.687  1.00  0.00     0.050 C 
HETATM   17  C3  UNL     1      -0.291  51.612 -19.773  1.00  0.00     0.009 A 
HETATM   18  C4  UNL     1       0.230  52.762 -19.191  1.00  0.00     0.001 A 
HETATM   19  C5  UNL     1       0.828  53.727 -19.992  1.00  0.00     0.009 A 
HETATM   20  C6  UNL     1       0.940  53.540 -21.379  1.00  0.00    -0.035 A 
HETATM   21  C7  UNL     1       1.626  54.617 -22.180  1.00  0.00     0.050 C 
ENDBRANCH   1  14
TORSDOF 3
ENDMDL
MODEL 3
REMARK minimizedAffinity -7.88042259
REMARK  3 active torsions:
REMARK  status: ('A' for Active; 'I' for Inactive)
REMARK    1  A    between atoms: C8_8  and  N1_9 
REMARK       I    between atoms: N1_9  and  C9_10 
REMARK    2  A    between atoms: C9_10  and  C10_12 
REMARK    3  A    between atoms: C14_18  and  O2_19 
ROOT
HETATM    1  N1  UNL     1       0.347  52.209 -23.374  1.00  0.00    -0.322 N 
HETATM    2  C9  UNL     1      -0.580  52.583 -24.330  1.00  0.00     0.260 C 
HETATM    3  O1  UNL     1      -1.710  53.018 -24.121  1.00  0.00    -0.267 OA
HETATM    4  H10 UNL     1       0.985  51.483 -23.666  1.00  0.00     0.169 HD
ENDROOT
BRANCH   2   5
HETATM    5  C10 UNL     1      -0.191  52.340 -25.741  1.00  0.00     0.083 A 
HETATM    6  C11 UNL     1       1.089  51.892 -26.093  1.00  0.00     0.023 A 
HETATM    7  C12 UNL     1       1.394  51.674 -27.434  1.00  0.00     0.018 A 
HETATM    8  C13 UNL     1       0.411  51.916 -28.380  1.00  0.00     0.090 A 
HETATM    9  N2  UNL     1      -0.825  52.363 -28.075  1.00  0.00    -0.346 N 
HETATM   10  C14 UNL     1      -1.100  52.581 -26.772  1.00  0.00     0.155 A 
ATOM     11  H2  UNL     1      -1.523  52.529 -28.800  1.00  0.00     0.167 HD
BRANCH  10  12
HETATM   12  O2  UNL     1      -2.363  53.055 -26.553  1.00  0.00    -0.345 OA
HETATM   13  H14 UNL     1      -2.414  53.334 -25.615  1.00  0.00     0.219 HD
ENDBRANCH  10  12
ENDBRANCH   2   5
BRANCH   1  14
HETATM   14  C8  UNL     1       0.205  52.368 -21.971  1.00  0.00     0.046 A 
HETATM   15  C2  UNL     1       0.752  53.456 -21.256  1.00  0.00    -0.035 A 
HETATM   16  C1  UNL     1       1.624  54.524 -21.861  1.00  0.00     0.050 C 
HETATM   17  C3  UNL     1       0.522  53.551 -19.870  1.00  0.00     0.009 A 
HETATM   18  C4  UNL     1      -0.179  52.564 -19.187  1.00  0.00     0.001 A 
HETATM   19  C5  UNL     1      -0.659  51.458 -19.877  1.00  0.00     0.009 A 
HETATM   20  C6  UNL     1      -0.474  51.343 -21.264  1.00  0.00    -0.035 A 
HETATM   21  C7  UNL     1      -1.048  50.129 -21.950  1.00  0.00     0.050 C 
ENDBRANCH   1  14
TORSDOF 3
ENDMDL
MODEL 4
REMARK minimizedAffinity -7.69941568
REMARK  3 active torsions:
REMARK  status: ('A' for Active; 'I' for Inactive)
REMARK    1  A    between atoms: C8_8  and  N1_9 
REMARK       I    between atoms: N1_9  and  C9_10 
REMARK    2  A    between atoms: C9_10  and  C10_12 
REMARK    3  A    between atoms: C14_18  and  O2_19 
ROOT
HETATM    1  N1  UNL     1      -1.588  51.363 -24.628  1.00  0.00    -0.322 N 
HETATM    2  C9  UNL     1      -0.247  51.642 -24.817  1.00  0.00     0.260 C 
HETATM    3  O1  UNL     1       0.505  51.102 -25.624  1.00  0.00    -0.267 OA
HETATM    4  H10 UNL     1      -1.925  51.524 -23.689  1.00  0.00     0.169 HD
ENDROOT
BRANCH   2   5
HETATM    5  C10 UNL     1       0.349  52.626 -23.879  1.00  0.00     0.083 A 
HETATM    6  C11 UNL     1       0.455  52.374 -22.505  1.00  0.00     0.023 A 
HETATM    7  C12 UNL     1       1.031  53.333 -21.675  1.00  0.00     0.018 A 
HETATM    8  C13 UNL     1       1.476  54.514 -22.245  1.00  0.00     0.090 A 
HETATM    9  N2  UNL     1       1.374  54.793 -23.561  1.00  0.00    -0.346 N 
HETATM   10  C14 UNL     1       0.802  53.858 -24.349  1.00  0.00     0.155 A 
ATOM     11  H2  UNL     1       1.714  55.675 -23.945  1.00  0.00     0.167 HD
BRANCH  10  12
HETATM   12  O2  UNL     1       0.716  54.231 -25.662  1.00  0.00    -0.345 OA
HETATM   13  H14 UNL     1       0.151  53.573 -26.117  1.00  0.00     0.219 HD
ENDBRANCH  10  12
ENDBRANCH   2   5
BRANCH   1  14
HETATM   14  C8  UNL     1      -2.372  50.479 -25.414  1.00  0.00     0.046 A 
HETATM   15  C2  UNL     1      -2.730  50.746 -26.754  1.00  0.00    -0.035 A 
HETATM   16  C1  UNL     1      -2.411  52.023 -27.485  1.00  0.00     0.050 C 
HETATM   17  C3  UNL     1      -3.475  49.789 -27.468  1.00  0.00     0.009 A 
HETATM   18  C4  UNL     1      -3.917  48.619 -26.861  1.00  0.00     0.001 A 
HETATM   19  C5  UNL     1      -3.625  48.387 -25.523  1.00  0.00     0.009 A 
HETATM   20  C6  UNL     1      -2.859  49.305 -24.786  1.00  0.00    -0.035 A 
HETATM   21  C7  UNL     1      -2.557  48.972 -23.347  1.00  0.00     0.050 C 
ENDBRANCH   1  14
TORSDOF 3
ENDMDL
MODEL 5
REMARK minimizedAffinity -7.64712477
REMARK  3 active torsions:
REMARK  status: ('A' for Active; 'I' for Inactive)
REMARK    1  A    between atoms: C8_8  and  N1_9 
REMARK       I    between atoms: N1_9  and  C9_10 
REMARK    2  A    between atoms: C9_10  and  C10_12 
REMARK    3  A    between atoms: C14_18  and  O2_19 
ROOT
HETATM    1  N1  UNL     1      -1.436  51.190 -24.363  1.00  0.00    -0.322 N 
HETATM    2  C9  UNL     1      -0.992  50.655 -25.559  1.00  0.00     0.260 C 
HETATM    3  O1  UNL     1       0.167  50.640 -25.966  1.00  0.00    -0.267 OA
HETATM    4  H10 UNL     1      -2.386  51.535 -24.381  1.00  0.00     0.169 HD
ENDROOT
BRANCH   2   5
HETATM    5  C10 UNL     1      -2.044  50.140 -26.470  1.00  0.00     0.083 A 
HETATM    6  C11 UNL     1      -2.655  48.895 -26.271  1.00  0.00     0.023 A 
HETATM    7  C12 UNL     1      -3.642  48.468 -27.155  1.00  0.00     0.018 A 
HETATM    8  C13 UNL     1      -3.981  49.295 -28.212  1.00  0.00     0.090 A 
HETATM    9  N2  UNL     1      -3.400  50.491 -28.441  1.00  0.00    -0.346 N 
HETATM   10  C14 UNL     1      -2.437  50.885 -27.581  1.00  0.00     0.155 A 
ATOM     11  H2  UNL     1      -3.678  51.074 -29.231  1.00  0.00     0.167 HD
BRANCH  10  12
HETATM   12  O2  UNL     1      -1.885  52.095 -27.899  1.00  0.00    -0.345 OA
HETATM   13  H14 UNL     1      -1.099  52.218 -27.327  1.00  0.00     0.219 HD
ENDBRANCH  10  12
ENDBRANCH   2   5
BRANCH   1  14
HETATM   14  C8  UNL     1      -0.615  51.717 -23.332  1.00  0.00     0.046 A 
HETATM   15  C2  UNL     1       0.140  52.901 -23.473  1.00  0.00    -0.035 A 
HETATM   16  C1  UNL     1       0.246  53.701 -24.744  1.00  0.00     0.050 C 
HETATM   17  C3  UNL     1       0.893  53.369 -22.379  1.00  0.00     0.009 A 
HETATM   18  C4  UNL     1       0.955  52.654 -21.189  1.00  0.00     0.001 A 
HETATM   19  C5  UNL     1       0.267  51.452 -21.072  1.00  0.00     0.009 A 
HETATM   20  C6  UNL     1      -0.517  50.968 -22.132  1.00  0.00    -0.035 A 
HETATM   21  C7  UNL     1      -1.258  49.672 -21.922  1.00  0.00     0.050 C 
ENDBRANCH   1  14
TORSDOF 3
ENDMDL
MODEL 6
REMARK minimizedAffinity -7.62035084
REMARK  3 active torsions:
REMARK  status: ('A' for Active; 'I' for Inactive)
REMARK    1  A    between atoms: C8_8  and  N1_9 
REMARK       I    between atoms: N1_9  and  C9_10 
REMARK    2  A    between atoms: C9_10  and  C10_12 
REMARK    3  A    between atoms: C14_18  and  O2_19 
ROOT
HETATM    1  N1  UNL     1      -1.646  51.324 -24.677  1.00  0.00    -0.322 N 
HETATM    2  C9  UNL     1      -0.292  51.560 -24.835  1.00  0.00     0.260 C 
HETATM    3  O1  UNL     1       0.469  50.966 -25.594  1.00  0.00    -0.267 OA
HETATM    4  H10 UNL     1      -2.007  51.534 -23.757  1.00  0.00     0.169 HD
ENDROOT
BRANCH   2   5
HETATM    5  C10 UNL     1       0.302  52.567 -23.921  1.00  0.00     0.083 A 
HETATM    6  C11 UNL     1       0.394  52.354 -22.539  1.00  0.00     0.023 A 
HETATM    7  C12 UNL     1       0.969  53.333 -21.732  1.00  0.00     0.018 A 
HETATM    8  C13 UNL     1       1.426  54.494 -22.332  1.00  0.00     0.090 A 
HETATM    9  N2  UNL     1       1.338  54.736 -23.657  1.00  0.00    -0.346 N 
HETATM   10  C14 UNL     1       0.768  53.782 -24.422  1.00  0.00     0.155 A 
ATOM     11  H2  UNL     1       1.688  55.604 -24.062  1.00  0.00     0.167 HD
BRANCH  10  12
HETATM   12  O2  UNL     1       0.696  54.117 -25.746  1.00  0.00    -0.345 OA
HETATM   13  H14 UNL     1       0.130  53.450 -26.187  1.00  0.00     0.219 HD
ENDBRANCH  10  12
ENDBRANCH   2   5
BRANCH   1  14
HETATM   14  C8  UNL     1      -2.430  50.429 -25.450  1.00  0.00     0.046 A 
HETATM   15  C2  UNL     1      -2.894  49.187 -24.964  1.00  0.00    -0.035 A 
HETATM   16  C1  UNL     1      -2.548  48.615 -23.615  1.00  0.00     0.050 C 
HETATM   17  C3  UNL     1      -3.701  48.385 -25.792  1.00  0.00     0.009 A 
HETATM   18  C4  UNL     1      -3.996  48.763 -27.096  1.00  0.00     0.001 A 
HETATM   19  C5  UNL     1      -3.483  49.952 -27.600  1.00  0.00     0.009 A 
HETATM   20  C6  UNL     1      -2.697  50.792 -26.795  1.00  0.00    -0.035 A 
HETATM   21  C7  UNL     1      -2.200  52.080 -27.400  1.00  0.00     0.050 C 
ENDBRANCH   1  14
TORSDOF 3
ENDMDL
MODEL 7
REMARK minimizedAffinity -7.45335627
REMARK  3 active torsions:
REMARK  status: ('A' for Active; 'I' for Inactive)
REMARK    1  A    between atoms: C8_8  and  N1_9 
REMARK       I    between atoms: N1_9  and  C9_10 
REMARK    2  A    between atoms: C9_10  and  C10_12 
REMARK    3  A    between atoms: C14_18  and  O2_19 
ROOT
HETATM    1  N1  UNL     1      -1.437  51.186 -24.463  1.00  0.00    -0.322 N 
HETATM    2  C9  UNL     1      -1.003  50.580 -25.628  1.00  0.00     0.260 C 
HETATM    3  O1  UNL     1       0.160  50.478 -26.009  1.00  0.00    -0.267 OA
HETATM    4  H10 UNL     1      -2.363  51.587 -24.514  1.00  0.00     0.169 HD
ENDROOT
BRANCH   2   5
HETATM    5  C10 UNL     1      -2.067  50.093 -26.541  1.00  0.00     0.083 A 
HETATM    6  C11 UNL     1      -2.684  48.848 -26.367  1.00  0.00     0.023 A 
HETATM    7  C12 UNL     1      -3.683  48.449 -27.253  1.00  0.00     0.018 A 
HETATM    8  C13 UNL     1      -4.025  49.305 -28.286  1.00  0.00     0.090 A 
HETATM    9  N2  UNL     1      -3.439  50.503 -28.490  1.00  0.00    -0.346 N 
HETATM   10  C14 UNL     1      -2.465  50.869 -27.630  1.00  0.00     0.155 A 
ATOM     11  H2  UNL     1      -3.720  51.106 -29.262  1.00  0.00     0.167 HD
BRANCH  10  12
HETATM   12  O2  UNL     1      -1.908  52.082 -27.923  1.00  0.00    -0.345 OA
HETATM   13  H14 UNL     1      -1.116  52.186 -27.355  1.00  0.00     0.219 HD
ENDBRANCH  10  12
ENDBRANCH   2   5
BRANCH   1  14
HETATM   14  C8  UNL     1      -0.606  51.702 -23.435  1.00  0.00     0.046 A 
HETATM   15  C2  UNL     1      -0.440  51.070 -22.183  1.00  0.00    -0.035 A 
HETATM   16  C1  UNL     1      -1.181  49.835 -21.745  1.00  0.00     0.050 C 
HETATM   17  C3  UNL     1       0.440  51.635 -21.241  1.00  0.00     0.009 A 
HETATM   18  C4  UNL     1       1.097  52.833 -21.496  1.00  0.00     0.001 A 
HETATM   19  C5  UNL     1       0.881  53.493 -22.699  1.00  0.00     0.009 A 
HETATM   20  C6  UNL     1       0.033  52.945 -23.675  1.00  0.00    -0.035 A 
HETATM   21  C7  UNL     1      -0.130  53.702 -24.969  1.00  0.00     0.050 C 
ENDBRANCH   1  14
TORSDOF 3
ENDMDL
MODEL 8
REMARK minimizedAffinity -7.414361
REMARK  3 active torsions:
REMARK  status: ('A' for Active; 'I' for Inactive)
REMARK    1  A    between atoms: C8_8  and  N1_9 
REMARK       I    between atoms: N1_9  and  C9_10 
REMARK    2  A    between atoms: C9_10  and  C10_12 
REMARK    3  A    between atoms: C14_18  and  O2_19 
ROOT
HETATM    1  N1  UNL     1      -0.941  51.169 -23.746  1.00  0.00    -0.322 N 
HETATM    2  C9  UNL     1      -2.157  51.559 -24.278  1.00  0.00     0.260 C 
HETATM    3  O1  UNL     1      -2.881  52.459 -23.862  1.00  0.00    -0.267 OA
HETATM    4  H10 UNL     1      -0.714  50.194 -23.880  1.00  0.00     0.169 HD
ENDROOT
BRANCH   2   5
HETATM    5  C10 UNL     1      -2.666  50.736 -25.403  1.00  0.00     0.083 A 
HETATM    6  C11 UNL     1      -2.775  49.343 -25.316  1.00  0.00     0.023 A 
HETATM    7  C12 UNL     1      -3.267  48.624 -26.403  1.00  0.00     0.018 A 
HETATM    8  C13 UNL     1      -3.628  49.322 -27.543  1.00  0.00     0.090 A 
HETATM    9  N2  UNL     1      -3.519  50.661 -27.665  1.00  0.00    -0.346 N 
HETATM   10  C14 UNL     1      -3.030  51.341 -26.607  1.00  0.00     0.155 A 
ATOM     11  H2  UNL     1      -3.797  51.140 -28.522  1.00  0.00     0.167 HD
BRANCH  10  12
HETATM   12  O2  UNL     1      -2.930  52.687 -26.823  1.00  0.00    -0.345 OA
HETATM   13  H14 UNL     1      -2.422  53.067 -26.077  1.00  0.00     0.219 HD
ENDBRANCH  10  12
ENDBRANCH   2   5
BRANCH   1  14
HETATM   14  C8  UNL     1      -0.251  51.817 -22.688  1.00  0.00     0.046 A 
HETATM   15  C2  UNL     1       0.501  52.999 -22.864  1.00  0.00    -0.035 A 
HETATM   16  C1  UNL     1       0.744  53.667 -24.191  1.00  0.00     0.050 C 
HETATM   17  C3  UNL     1       1.117  53.592 -21.746  1.00  0.00     0.009 A 
HETATM   18  C4  UNL     1       1.050  53.003 -20.488  1.00  0.00     0.001 A 
HETATM   19  C5  UNL     1       0.368  51.803 -20.327  1.00  0.00     0.009 A 
HETATM   20  C6  UNL     1      -0.283  51.196 -21.413  1.00  0.00    -0.035 A 
HETATM   21  C7  UNL     1      -1.027  49.911 -21.157  1.00  0.00     0.050 C 
ENDBRANCH   1  14
TORSDOF 3
ENDMDL
MODEL 9
REMARK minimizedAffinity -7.32616091
REMARK  3 active torsions:
REMARK  status: ('A' for Active; 'I' for Inactive)
REMARK    1  A    between atoms: C8_8  and  N1_9 
REMARK       I    between atoms: N1_9  and  C9_10 
REMARK    2  A    between atoms: C9_10  and  C10_12 
REMARK    3  A    between atoms: C14_18  and  O2_19 
ROOT
HETATM    1  N1  UNL     1      -0.671  51.510 -23.738  1.00  0.00    -0.322 N 
HETATM    2  C9  UNL     1      -1.976  51.726 -24.143  1.00  0.00     0.260 C 
HETATM    3  O1  UNL     1      -2.791  52.477 -23.613  1.00  0.00    -0.267 OA
HETATM    4  H10 UNL     1      -0.308  50.592 -23.951  1.00  0.00     0.169 HD
ENDROOT
BRANCH   2   5
HETATM    5  C10 UNL     1      -2.451  50.888 -25.272  1.00  0.00     0.083 A 
HETATM    6  C11 UNL     1      -2.563  49.496 -25.169  1.00  0.00     0.023 A 
HETATM    7  C12 UNL     1      -3.023  48.763 -26.261  1.00  0.00     0.018 A 
HETATM    8  C13 UNL     1      -3.349  49.446 -27.420  1.00  0.00     0.090 A 
HETATM    9  N2  UNL     1      -3.237  50.783 -27.557  1.00  0.00    -0.346 N 
HETATM   10  C14 UNL     1      -2.779  51.477 -26.493  1.00  0.00     0.155 A 
ATOM     11  H2  UNL     1      -3.488  51.251 -28.427  1.00  0.00     0.167 HD
BRANCH  10  12
HETATM   12  O2  UNL     1      -2.673  52.820 -26.724  1.00  0.00    -0.345 OA
HETATM   13  H14 UNL     1      -2.187  53.210 -25.968  1.00  0.00     0.219 HD
ENDBRANCH  10  12
ENDBRANCH   2   5
BRANCH   1  14
HETATM   14  C8  UNL     1       0.003  52.208 -22.702  1.00  0.00     0.046 A 
HETATM   15  C2  UNL     1      -0.019  51.798 -21.351  1.00  0.00    -0.035 A 
HETATM   16  C1  UNL     1      -0.823  50.640 -20.823  1.00  0.00     0.050 C 
HETATM   17  C3  UNL     1       0.716  52.531 -20.400  1.00  0.00     0.009 A 
HETATM   18  C4  UNL     1       1.409  53.682 -20.755  1.00  0.00     0.001 A 
HETATM   19  C5  UNL     1       1.375  54.126 -22.072  1.00  0.00     0.009 A 
HETATM   20  C6  UNL     1       0.677  53.406 -23.054  1.00  0.00    -0.035 A 
HETATM   21  C7  UNL     1       0.709  53.931 -24.466  1.00  0.00     0.050 C 
ENDBRANCH   1  14
TORSDOF 3
ENDMDL
