MODEL 1
REMARK minimizedAffinity -7.15823698
REMARK CNNscore 0.761431456
REMARK CNNaffinity 7.02325487
REMARK  5 active torsions:
REMARK  status: ('A' for Active; 'I' for Inactive)
REMARK    1  A    between atoms: C4_4  and  C5_5 
REMARK    2  A    between atoms: C5_5  and  C6_6 
REMARK    3  A    between atoms: C6_6  and  C7_7 
REMARK    4  A    between atoms: C7_7  and  C9_9 
REMARK    5  A    between atoms: C24_24  and  O1_26 
ROOT
HETATM    1  C9  UNL     1      -1.331  52.935 -10.128  1.00  0.00    -0.002 C 
HETATM    2  C10 UNL     1      -0.774  53.185 -11.555  1.00  0.00     0.007 C 
HETATM    3  C11 UNL     1       0.612  53.847 -11.385  1.00  0.00     0.015 C 
HETATM    4  C12 UNL     1       0.968  53.649  -9.899  1.00  0.00    -0.013 C 
HETATM    5  C13 UNL     1       1.582  52.219  -9.767  1.00  0.00     0.021 C 
HETATM    6  C14 UNL     1       1.980  54.570  -9.232  1.00  0.00    -0.068 C 
HETATM    7  C15 UNL     1       1.916  54.778  -7.889  1.00  0.00    -0.068 C 
HETATM    8  C16 UNL     1       0.783  54.204  -7.035  1.00  0.00     0.036 C 
HETATM    9  C17 UNL     1      -0.339  53.432  -7.763  1.00  0.00     0.015 C 
HETATM   10  C18 UNL     1      -0.442  53.848  -9.235  1.00  0.00    -0.029 C 
HETATM   11  C19 UNL     1      -0.951  55.320  -9.286  1.00  0.00     0.016 C 
HETATM   12  C20 UNL     1       2.957  55.696  -7.199  1.00  0.00    -0.016 C 
HETATM   13  C21 UNL     1       2.381  57.129  -7.369  1.00  0.00     0.020 C 
HETATM   14  C22 UNL     1       3.157  55.474  -5.673  1.00  0.00     0.017 C 
HETATM   15  C23 UNL     1       4.249  54.463  -5.363  1.00  0.00     0.039 C 
HETATM   16  C24 UNL     1       5.655  54.929  -5.831  1.00  0.00     0.061 C 
HETATM   17  C25 UNL     1       6.520  53.658  -5.958  1.00  0.00     0.046 C 
HETATM   18  C26 UNL     1       5.611  55.827  -7.152  1.00  0.00    -0.012 C 
HETATM   19  C27 UNL     1       5.656  57.339  -6.825  1.00  0.00     0.018 C 
HETATM   20  C28 UNL     1       6.872  55.587  -8.025  1.00  0.00     0.018 C 
HETATM   21  C29 UNL     1       4.320  55.426  -7.949  1.00  0.00     0.009 C 
HETATM   22  C30 UNL     1       4.207  55.895  -9.405  1.00  0.00     0.011 C 
HETATM   23  C31 UNL     1       3.063  55.158 -10.121  1.00  0.00     0.036 C 
ENDROOT
BRANCH   1  24
HETATM   24  C7  UNL     1      -2.877  53.004  -9.953  1.00  0.00    -0.014 C 
HETATM   25  C8  UNL     1      -3.631  53.720 -11.082  1.00  0.00     0.010 C 
BRANCH  24  26
HETATM   26  C6  UNL     1      -3.432  51.565  -9.773  1.00  0.00     0.008 C 
BRANCH  26  27
HETATM   27  C5  UNL     1      -4.517  51.182 -10.786  1.00  0.00     0.028 C 
BRANCH  27  28
HETATM   28  C4  UNL     1      -5.536  50.266 -10.161  1.00  0.00    -0.025 C 
HETATM   29  C2  UNL     1      -5.848  49.006 -10.521  1.00  0.00    -0.091 C 
HETATM   30  C1  UNL     1      -6.877  48.221  -9.747  1.00  0.00     0.042 C 
HETATM   31  C3  UNL     1      -5.247  48.262 -11.681  1.00  0.00     0.042 C 
ENDBRANCH  27  28
ENDBRANCH  26  27
ENDBRANCH  24  26
ENDBRANCH   1  24
BRANCH  16  32
HETATM   32  O1  UNL     1       6.242  55.703  -4.772  1.00  0.00    -0.389 OA
HETATM   33  H41 UNL     1       6.304  55.140  -3.983  1.00  0.00     0.210 HD
ENDBRANCH  16  32
TORSDOF 5
ENDMDL
MODEL 2
REMARK minimizedAffinity -7.25150585
REMARK CNNscore 0.595689416
REMARK CNNaffinity 6.73443985
REMARK  5 active torsions:
REMARK  status: ('A' for Active; 'I' for Inactive)
REMARK    1  A    between atoms: C4_4  and  C5_5 
REMARK    2  A    between atoms: C5_5  and  C6_6 
REMARK    3  A    between atoms: C6_6  and  C7_7 
REMARK    4  A    between atoms: C7_7  and  C9_9 
REMARK    5  A    between atoms: C24_24  and  O1_26 
ROOT
HETATM    1  C9  UNL     1       2.037  55.637  -7.670  1.00  0.00    -0.002 C 
HETATM    2  C10 UNL     1       1.813  54.941  -6.302  1.00  0.00     0.007 C 
HETATM    3  C11 UNL     1       0.763  53.830  -6.531  1.00  0.00     0.015 C 
HETATM    4  C12 UNL     1       0.667  53.684  -8.062  1.00  0.00    -0.013 C 
HETATM    5  C13 UNL     1       1.831  52.740  -8.501  1.00  0.00     0.021 C 
HETATM    6  C14 UNL     1      -0.581  53.080  -8.690  1.00  0.00    -0.068 C 
HETATM    7  C15 UNL     1      -0.924  53.418  -9.963  1.00  0.00    -0.068 C 
HETATM    8  C16 UNL     1      -0.156  54.480 -10.752  1.00  0.00     0.036 C 
HETATM    9  C17 UNL     1       0.990  55.219 -10.026  1.00  0.00     0.015 C 
HETATM   10  C18 UNL     1       0.805  55.185  -8.505  1.00  0.00    -0.029 C 
HETATM   11  C19 UNL     1      -0.440  56.054  -8.152  1.00  0.00     0.016 C 
HETATM   12  C20 UNL     1      -2.180  52.789 -10.617  1.00  0.00    -0.016 C 
HETATM   13  C21 UNL     1      -3.354  53.692 -10.145  1.00  0.00     0.020 C 
HETATM   14  C22 UNL     1      -2.213  52.792 -12.172  1.00  0.00     0.017 C 
HETATM   15  C23 UNL     1      -1.606  51.535 -12.776  1.00  0.00     0.039 C 
HETATM   16  C24 UNL     1      -2.398  50.247 -12.415  1.00  0.00     0.061 C 
HETATM   17  C25 UNL     1      -1.426  49.065 -12.606  1.00  0.00     0.046 C 
HETATM   18  C26 UNL     1      -3.077  50.313 -10.970  1.00  0.00    -0.012 C 
HETATM   19  C27 UNL     1      -4.566  50.728 -11.050  1.00  0.00     0.018 C 
HETATM   20  C28 UNL     1      -3.107  48.907 -10.311  1.00  0.00     0.018 C 
HETATM   21  C29 UNL     1      -2.226  51.299 -10.097  1.00  0.00     0.009 C 
HETATM   22  C30 UNL     1      -2.462  51.292  -8.580  1.00  0.00     0.011 C 
HETATM   23  C31 UNL     1      -1.344  52.063  -7.858  1.00  0.00     0.036 C 
ENDROOT
BRANCH   1  24
HETATM   24  C7  UNL     1       2.397  57.152  -7.638  1.00  0.00    -0.014 C 
HETATM   25  C8  UNL     1       2.534  57.763  -6.237  1.00  0.00     0.010 C 
BRANCH  24  26
HETATM   26  C6  UNL     1       3.702  57.382  -8.447  1.00  0.00     0.008 C 
BRANCH  26  27
HETATM   27  C5  UNL     1       4.977  56.949  -7.714  1.00  0.00     0.028 C 
BRANCH  27  28
HETATM   28  C4  UNL     1       5.330  55.523  -8.045  1.00  0.00    -0.025 C 
HETATM   29  C2  UNL     1       5.282  54.916  -9.247  1.00  0.00    -0.091 C 
HETATM   30  C1  UNL     1       5.715  53.480  -9.397  1.00  0.00     0.042 C 
HETATM   31  C3  UNL     1       4.813  55.557 -10.524  1.00  0.00     0.042 C 
ENDBRANCH  27  28
ENDBRANCH  26  27
ENDBRANCH  24  26
ENDBRANCH   1  24
BRANCH  16  32
HETATM   32  O1  UNL     1      -3.431  50.072 -13.398  1.00  0.00    -0.389 OA
HETATM   33  H41 UNL     1      -3.011  49.992 -14.271  1.00  0.00     0.210 HD
ENDBRANCH  16  32
TORSDOF 5
ENDMDL
MODEL 3
REMARK minimizedAffinity -6.81773281
REMARK CNNscore 0.587552667
REMARK CNNaffinity 7.0584178
REMARK  5 active torsions:
REMARK  status: ('A' for Active; 'I' for Inactive)
REMARK    1  A    between atoms: C4_4  and  C5_5 
REMARK    2  A    between atoms: C5_5  and  C6_6 
REMARK    3  A    between atoms: C6_6  and  C7_7 
REMARK    4  A    between atoms: C7_7  and  C9_9 
REMARK    5  A    between atoms: C24_24  and  O1_26 
ROOT
HETATM    1  C9  UNL     1       4.243  54.402  -8.304  1.00  0.00    -0.002 C 
HETATM    2  C10 UNL     1       3.705  55.847  -8.126  1.00  0.00     0.007 C 
HETATM    3  C11 UNL     1       2.268  55.863  -8.696  1.00  0.00     0.015 C 
HETATM    4  C12 UNL     1       1.892  54.378  -8.867  1.00  0.00    -0.013 C 
HETATM    5  C13 UNL     1       1.385  53.878  -7.477  1.00  0.00     0.021 C 
HETATM    6  C14 UNL     1       0.796  53.981  -9.845  1.00  0.00    -0.068 C 
HETATM    7  C15 UNL     1       0.810  52.740 -10.403  1.00  0.00    -0.068 C 
HETATM    8  C16 UNL     1       1.962  51.760 -10.165  1.00  0.00     0.036 C 
HETATM    9  C17 UNL     1       3.158  52.256  -9.322  1.00  0.00     0.015 C 
HETATM   10  C18 UNL     1       3.265  53.785  -9.344  1.00  0.00    -0.029 C 
HETATM   11  C19 UNL     1       3.661  54.218 -10.788  1.00  0.00     0.016 C 
HETATM   12  C20 UNL     1      -0.315  52.319 -11.382  1.00  0.00    -0.016 C 
HETATM   13  C21 UNL     1       0.154  52.858 -12.763  1.00  0.00     0.020 C 
HETATM   14  C22 UNL     1      -0.535  50.789 -11.553  1.00  0.00     0.017 C 
HETATM   15  C23 UNL     1      -1.554  50.229 -10.574  1.00  0.00     0.039 C 
HETATM   16  C24 UNL     1      -2.980  50.809 -10.786  1.00  0.00     0.061 C 
HETATM   17  C25 UNL     1      -3.742  50.601  -9.461  1.00  0.00     0.046 C 
HETATM   18  C26 UNL     1      -2.971  52.320 -11.308  1.00  0.00    -0.012 C 
HETATM   19  C27 UNL     1      -3.140  52.402 -12.844  1.00  0.00     0.018 C 
HETATM   20  C28 UNL     1      -4.188  53.104 -10.747  1.00  0.00     0.018 C 
HETATM   21  C29 UNL     1      -1.634  52.977 -10.817  1.00  0.00     0.009 C 
HETATM   22  C30 UNL     1      -1.521  54.505 -10.896  1.00  0.00     0.011 C 
HETATM   23  C31 UNL     1      -0.306  54.998 -10.092  1.00  0.00     0.036 C 
ENDROOT
BRANCH   1  24
HETATM   24  C7  UNL     1       5.774  54.246  -8.541  1.00  0.00    -0.014 C 
HETATM   25  C8  UNL     1       6.382  55.218  -9.560  1.00  0.00     0.010 C 
BRANCH  24  26
HETATM   26  C6  UNL     1       6.514  54.373  -7.181  1.00  0.00     0.008 C 
BRANCH  26  27
HETATM   27  C5  UNL     1       7.435  55.593  -7.081  1.00  0.00     0.028 C 
BRANCH  27  28
HETATM   28  C4  UNL     1       6.737  56.740  -6.399  1.00  0.00    -0.025 C 
HETATM   29  C2  UNL     1       6.763  57.065  -5.092  1.00  0.00    -0.091 C 
HETATM   30  C1  UNL     1       6.028  58.283  -4.592  1.00  0.00     0.042 C 
HETATM   31  C3  UNL     1       7.485  56.295  -4.021  1.00  0.00     0.042 C 
ENDBRANCH  27  28
ENDBRANCH  26  27
ENDBRANCH  24  26
ENDBRANCH   1  24
BRANCH  16  32
HETATM   32  O1  UNL     1      -3.650  49.993 -11.760  1.00  0.00    -0.389 OA
HETATM   33  H41 UNL     1      -3.689  49.084 -11.420  1.00  0.00     0.210 HD
ENDBRANCH  16  32
TORSDOF 5
ENDMDL
MODEL 4
REMARK minimizedAffinity -7.22250605
REMARK CNNscore 0.42762357
REMARK CNNaffinity 5.13225031
REMARK  5 active torsions:
REMARK  status: ('A' for Active; 'I' for Inactive)
REMARK    1  A    between atoms: C4_4  and  C5_5 
REMARK    2  A    between atoms: C5_5  and  C6_6 
REMARK    3  A    between atoms: C6_6  and  C7_7 
REMARK    4  A    between atoms: C7_7  and  C9_9 
REMARK    5  A    between atoms: C24_24  and  O1_26 
ROOT
HETATM    1  C9  UNL     1       3.888  67.497 -35.761  1.00  0.00    -0.002 C 
HETATM    2  C10 UNL     1       4.332  68.941 -35.405  1.00  0.00     0.007 C 
HETATM    3  C11 UNL     1       3.811  69.860 -36.533  1.00  0.00     0.015 C 
HETATM    4  C12 UNL     1       2.802  68.997 -37.314  1.00  0.00    -0.013 C 
HETATM    5  C13 UNL     1       1.443  69.086 -36.549  1.00  0.00     0.021 C 
HETATM    6  C14 UNL     1       2.459  69.348 -38.755  1.00  0.00    -0.068 C 
HETATM    7  C15 UNL     1       2.037  68.370 -39.602  1.00  0.00    -0.068 C 
HETATM    8  C16 UNL     1       2.000  66.899 -39.185  1.00  0.00     0.036 C 
HETATM    9  C17 UNL     1       2.534  66.542 -37.780  1.00  0.00     0.015 C 
HETATM   10  C18 UNL     1       3.518  67.600 -37.268  1.00  0.00    -0.029 C 
HETATM   11  C19 UNL     1       4.802  67.530 -38.149  1.00  0.00     0.016 C 
HETATM   12  C20 UNL     1       1.664  68.723 -41.065  1.00  0.00    -0.016 C 
HETATM   13  C21 UNL     1       3.018  68.689 -41.827  1.00  0.00     0.020 C 
HETATM   14  C22 UNL     1       0.719  67.723 -41.789  1.00  0.00     0.017 C 
HETATM   15  C23 UNL     1      -0.751  68.073 -41.619  1.00  0.00     0.039 C 
HETATM   16  C24 UNL     1      -1.127  69.435 -42.267  1.00  0.00     0.061 C 
HETATM   17  C25 UNL     1      -2.426  69.904 -41.581  1.00  0.00     0.046 C 
HETATM   18  C26 UNL     1       0.062  70.501 -42.221  1.00  0.00    -0.012 C 
HETATM   19  C27 UNL     1       0.856  70.539 -43.549  1.00  0.00     0.018 C 
HETATM   20  C28 UNL     1      -0.495  71.942 -42.067  1.00  0.00     0.018 C 
HETATM   21  C29 UNL     1       0.969  70.139 -40.993  1.00  0.00     0.009 C 
HETATM   22  C30 UNL     1       1.987  71.188 -40.526  1.00  0.00     0.011 C 
HETATM   23  C31 UNL     1       2.551  70.813 -39.145  1.00  0.00     0.036 C 
ENDROOT
BRANCH   1  24
HETATM   24  C7  UNL     1       4.825  66.340 -35.304  1.00  0.00    -0.014 C 
HETATM   25  C8  UNL     1       5.962  66.752 -34.359  1.00  0.00     0.010 C 
BRANCH  24  26
HETATM   26  C6  UNL     1       3.969  65.222 -34.648  1.00  0.00     0.008 C 
BRANCH  26  27
HETATM   27  C5  UNL     1       4.680  64.471 -33.517  1.00  0.00     0.028 C 
BRANCH  27  28
HETATM   28  C4  UNL     1       4.870  63.020 -33.871  1.00  0.00    -0.025 C 
HETATM   29  C2  UNL     1       5.904  62.457 -34.526  1.00  0.00    -0.091 C 
HETATM   30  C1  UNL     1       5.942  60.967 -34.758  1.00  0.00     0.042 C 
HETATM   31  C3  UNL     1       7.086  63.200 -35.084  1.00  0.00     0.042 C 
ENDBRANCH  27  28
ENDBRANCH  26  27
ENDBRANCH  24  26
ENDBRANCH   1  24
BRANCH  16  32
HETATM   32  O1  UNL     1      -1.470  69.192 -43.641  1.00  0.00    -0.389 OA
HETATM   33  H41 UNL     1      -2.220  68.574 -43.663  1.00  0.00     0.210 HD
ENDBRANCH  16  32
TORSDOF 5
ENDMDL
MODEL 5
REMARK minimizedAffinity -6.88715887
REMARK CNNscore 0.362894982
REMARK CNNaffinity 6.38088369
REMARK  5 active torsions:
REMARK  status: ('A' for Active; 'I' for Inactive)
REMARK    1  A    between atoms: C4_4  and  C5_5 
REMARK    2  A    between atoms: C5_5  and  C6_6 
REMARK    3  A    between atoms: C6_6  and  C7_7 
REMARK    4  A    between atoms: C7_7  and  C9_9 
REMARK    5  A    between atoms: C24_24  and  O1_26 
ROOT
HETATM    1  C9  UNL     1       4.017  54.939  -7.669  1.00  0.00    -0.002 C 
HETATM    2  C10 UNL     1       3.468  54.833  -6.222  1.00  0.00     0.007 C 
HETATM    3  C11 UNL     1       2.039  54.253  -6.326  1.00  0.00     0.015 C 
HETATM    4  C12 UNL     1       1.930  53.722  -7.768  1.00  0.00    -0.013 C 
HETATM    5  C13 UNL     1       2.561  52.294  -7.774  1.00  0.00     0.021 C 
HETATM    6  C14 UNL     1       0.561  53.544  -8.409  1.00  0.00    -0.068 C 
HETATM    7  C15 UNL     1       0.440  53.609  -9.763  1.00  0.00    -0.068 C 
HETATM    8  C16 UNL     1       1.622  53.968 -10.665  1.00  0.00     0.036 C 
HETATM    9  C17 UNL     1       2.957  54.333  -9.979  1.00  0.00     0.015 C 
HETATM   10  C18 UNL     1       2.735  54.825  -8.544  1.00  0.00    -0.029 C 
HETATM   11  C19 UNL     1       2.001  56.198  -8.614  1.00  0.00     0.016 C 
HETATM   12  C20 UNL     1      -0.947  53.405 -10.425  1.00  0.00    -0.016 C 
HETATM   13  C21 UNL     1      -1.607  54.811 -10.378  1.00  0.00     0.020 C 
HETATM   14  C22 UNL     1      -0.933  52.968 -11.918  1.00  0.00     0.017 C 
HETATM   15  C23 UNL     1      -0.935  51.458 -12.089  1.00  0.00     0.039 C 
HETATM   16  C24 UNL     1      -2.228  50.789 -11.544  1.00  0.00     0.061 C 
HETATM   17  C25 UNL     1      -1.881  49.308 -11.283  1.00  0.00     0.046 C 
HETATM   18  C26 UNL     1      -2.846  51.551 -10.283  1.00  0.00    -0.012 C 
HETATM   19  C27 UNL     1      -3.989  52.511 -10.691  1.00  0.00     0.018 C 
HETATM   20  C28 UNL     1      -3.518  50.547  -9.307  1.00  0.00     0.018 C 
HETATM   21  C29 UNL     1      -1.668  52.295  -9.563  1.00  0.00     0.009 C 
HETATM   22  C30 UNL     1      -1.922  52.830  -8.147  1.00  0.00     0.011 C 
HETATM   23  C31 UNL     1      -0.598  53.234  -7.477  1.00  0.00     0.036 C 
ENDROOT
BRANCH   1  24
HETATM   24  C7  UNL     1       5.014  56.099  -7.961  1.00  0.00    -0.014 C 
HETATM   25  C8  UNL     1       5.146  57.145  -6.846  1.00  0.00     0.010 C 
BRANCH  24  26
HETATM   26  C6  UNL     1       6.407  55.500  -8.294  1.00  0.00     0.008 C 
BRANCH  26  27
HETATM   27  C5  UNL     1       6.384  54.439  -9.400  1.00  0.00     0.028 C 
BRANCH  27  28
HETATM   28  C4  UNL     1       7.017  53.157  -8.929  1.00  0.00    -0.025 C 
HETATM   29  C2  UNL     1       6.585  51.897  -9.131  1.00  0.00    -0.091 C 
HETATM   30  C1  UNL     1       7.377  50.723  -8.614  1.00  0.00     0.042 C 
HETATM   31  C3  UNL     1       5.322  51.519  -9.856  1.00  0.00     0.042 C 
ENDBRANCH  27  28
ENDBRANCH  26  27
ENDBRANCH  24  26
ENDBRANCH   1  24
BRANCH  16  32
HETATM   32  O1  UNL     1      -3.204  50.786 -12.599  1.00  0.00    -0.389 OA
HETATM   33  H41 UNL     1      -2.839  50.286 -13.349  1.00  0.00     0.210 HD
ENDBRANCH  16  32
TORSDOF 5
ENDMDL
MODEL 6
REMARK minimizedAffinity -7.09170151
REMARK CNNscore 0.345427245
REMARK CNNaffinity 5.69258738
REMARK  5 active torsions:
REMARK  status: ('A' for Active; 'I' for Inactive)
REMARK    1  A    between atoms: C4_4  and  C5_5 
REMARK    2  A    between atoms: C5_5  and  C6_6 
REMARK    3  A    between atoms: C6_6  and  C7_7 
REMARK    4  A    between atoms: C7_7  and  C9_9 
REMARK    5  A    between atoms: C24_24  and  O1_26 
ROOT
HETATM    1  C9  UNL     1     -13.526  45.470 -26.540  1.00  0.00    -0.002 C 
HETATM    2  C10 UNL     1     -14.540  45.889 -27.637  1.00  0.00     0.007 C 
HETATM    3  C11 UNL     1     -13.715  46.263 -28.890  1.00  0.00     0.015 C 
HETATM    4  C12 UNL     1     -12.298  45.729 -28.607  1.00  0.00    -0.013 C 
HETATM    5  C13 UNL     1     -12.297  44.218 -28.999  1.00  0.00     0.021 C 
HETATM    6  C14 UNL     1     -11.103  46.322 -29.340  1.00  0.00    -0.068 C 
HETATM    7  C15 UNL     1      -9.871  46.280 -28.763  1.00  0.00    -0.068 C 
HETATM    8  C16 UNL     1      -9.662  45.753 -27.341  1.00  0.00     0.036 C 
HETATM    9  C17 UNL     1     -10.917  45.335 -26.544  1.00  0.00     0.015 C 
HETATM   10  C18 UNL     1     -12.176  46.033 -27.070  1.00  0.00    -0.029 C 
HETATM   11  C19 UNL     1     -12.055  47.552 -26.745  1.00  0.00     0.016 C 
HETATM   12  C20 UNL     1      -8.646  46.860 -29.514  1.00  0.00    -0.016 C 
HETATM   13  C21 UNL     1      -8.667  48.376 -29.172  1.00  0.00     0.020 C 
HETATM   14  C22 UNL     1      -7.256  46.322 -29.070  1.00  0.00     0.017 C 
HETATM   15  C23 UNL     1      -6.817  45.101 -29.862  1.00  0.00     0.039 C 
HETATM   16  C24 UNL     1      -6.605  45.403 -31.372  1.00  0.00     0.061 C 
HETATM   17  C25 UNL     1      -6.705  44.052 -32.109  1.00  0.00     0.046 C 
HETATM   18  C26 UNL     1      -7.591  46.530 -31.930  1.00  0.00    -0.012 C 
HETATM   19  C27 UNL     1      -6.916  47.922 -31.963  1.00  0.00     0.018 C 
HETATM   20  C28 UNL     1      -7.965  46.251 -33.411  1.00  0.00     0.018 C 
HETATM   21  C29 UNL     1      -8.879  46.511 -31.036  1.00  0.00     0.009 C 
HETATM   22  C30 UNL     1     -10.115  47.261 -31.551  1.00  0.00     0.011 C 
HETATM   23  C31 UNL     1     -11.358  46.877 -30.731  1.00  0.00     0.036 C 
ENDROOT
BRANCH   1  24
HETATM   24  C7  UNL     1     -13.924  45.765 -25.064  1.00  0.00    -0.014 C 
HETATM   25  C8  UNL     1     -12.750  45.956 -24.094  1.00  0.00     0.010 C 
BRANCH  24  26
HETATM   26  C6  UNL     1     -14.851  47.011 -25.027  1.00  0.00     0.008 C 
BRANCH  26  27
HETATM   27  C5  UNL     1     -16.272  46.720 -24.531  1.00  0.00     0.028 C 
BRANCH  27  28
HETATM   28  C4  UNL     1     -16.288  46.503 -23.041  1.00  0.00    -0.025 C 
HETATM   29  C2  UNL     1     -17.356  46.307 -22.245  1.00  0.00    -0.091 C 
HETATM   30  C1  UNL     1     -17.176  46.066 -20.768  1.00  0.00     0.042 C 
HETATM   31  C3  UNL     1     -18.789  46.308 -22.701  1.00  0.00     0.042 C 
ENDBRANCH  27  28
ENDBRANCH  26  27
ENDBRANCH  24  26
ENDBRANCH   1  24
BRANCH  16  32
HETATM   32  O1  UNL     1      -5.252  45.851 -31.548  1.00  0.00    -0.389 OA
HETATM   33  H41 UNL     1      -4.656  45.146 -31.245  1.00  0.00     0.210 HD
ENDBRANCH  16  32
TORSDOF 5
ENDMDL
MODEL 7
REMARK minimizedAffinity -7.10448122
REMARK CNNscore 0.344209075
REMARK CNNaffinity 6.03291559
REMARK  5 active torsions:
REMARK  status: ('A' for Active; 'I' for Inactive)
REMARK    1  A    between atoms: C4_4  and  C5_5 
REMARK    2  A    between atoms: C5_5  and  C6_6 
REMARK    3  A    between atoms: C6_6  and  C7_7 
REMARK    4  A    between atoms: C7_7  and  C9_9 
REMARK    5  A    between atoms: C24_24  and  O1_26 
ROOT
HETATM    1  C9  UNL     1      -8.752  46.626 -24.560  1.00  0.00    -0.002 C 
HETATM    2  C10 UNL     1     -10.100  45.899 -24.810  1.00  0.00     0.007 C 
HETATM    3  C11 UNL     1     -10.224  45.697 -26.338  1.00  0.00     0.015 C 
HETATM    4  C12 UNL     1      -8.817  45.991 -26.893  1.00  0.00    -0.013 C 
HETATM    5  C13 UNL     1      -7.986  44.678 -26.738  1.00  0.00     0.021 C 
HETATM    6  C14 UNL     1      -8.645  46.391 -28.351  1.00  0.00    -0.068 C 
HETATM    7  C15 UNL     1      -7.575  47.147 -28.719  1.00  0.00    -0.068 C 
HETATM    8  C16 UNL     1      -6.591  47.710 -27.691  1.00  0.00     0.036 C 
HETATM    9  C17 UNL     1      -6.893  47.451 -26.198  1.00  0.00     0.015 C 
HETATM   10  C18 UNL     1      -8.384  47.183 -25.966  1.00  0.00    -0.029 C 
HETATM   11  C19 UNL     1      -9.160  48.504 -26.248  1.00  0.00     0.016 C 
HETATM   12  C20 UNL     1      -7.380  47.539 -30.206  1.00  0.00    -0.016 C 
HETATM   13  C21 UNL     1      -8.245  48.817 -30.384  1.00  0.00     0.020 C 
HETATM   14  C22 UNL     1      -5.932  47.917 -30.628  1.00  0.00     0.017 C 
HETATM   15  C23 UNL     1      -5.132  46.723 -31.122  1.00  0.00     0.039 C 
HETATM   16  C24 UNL     1      -5.717  46.097 -32.419  1.00  0.00     0.061 C 
HETATM   17  C25 UNL     1      -5.180  44.653 -32.491  1.00  0.00     0.046 C 
HETATM   18  C26 UNL     1      -7.309  46.211 -32.507  1.00  0.00    -0.012 C 
HETATM   19  C27 UNL     1      -7.755  47.420 -33.363  1.00  0.00     0.018 C 
HETATM   20  C28 UNL     1      -7.910  44.981 -33.239  1.00  0.00     0.018 C 
HETATM   21  C29 UNL     1      -7.856  46.284 -31.038  1.00  0.00     0.009 C 
HETATM   22  C30 UNL     1      -9.360  46.067 -30.827  1.00  0.00     0.011 C 
HETATM   23  C31 UNL     1      -9.668  45.851 -29.336  1.00  0.00     0.036 C 
ENDROOT
BRANCH   1  24
HETATM   24  C7  UNL     1      -8.689  47.591 -23.340  1.00  0.00    -0.014 C 
HETATM   25  C8  UNL     1      -9.429  47.109 -22.085  1.00  0.00     0.010 C 
BRANCH  24  26
HETATM   26  C6  UNL     1      -7.202  47.882 -22.999  1.00  0.00     0.008 C 
BRANCH  26  27
HETATM   27  C5  UNL     1      -6.936  49.317 -22.531  1.00  0.00     0.028 C 
BRANCH  27  28
HETATM   28  C4  UNL     1      -6.159  50.085 -23.568  1.00  0.00    -0.025 C 
HETATM   29  C2  UNL     1      -5.146  50.951 -23.369  1.00  0.00    -0.091 C 
HETATM   30  C1  UNL     1      -4.455  51.602 -24.541  1.00  0.00     0.042 C 
HETATM   31  C3  UNL     1      -4.606  51.361 -22.027  1.00  0.00     0.042 C 
ENDBRANCH  27  28
ENDBRANCH  26  27
ENDBRANCH  24  26
ENDBRANCH   1  24
BRANCH  16  32
HETATM   32  O1  UNL     1      -5.146  46.788 -33.541  1.00  0.00    -0.389 OA
HETATM   33  H41 UNL     1      -4.181  46.681 -33.506  1.00  0.00     0.210 HD
ENDBRANCH  16  32
TORSDOF 5
ENDMDL
MODEL 8
REMARK minimizedAffinity -7.51272297
REMARK CNNscore 0.330501378
REMARK CNNaffinity 5.61889315
REMARK  5 active torsions:
REMARK  status: ('A' for Active; 'I' for Inactive)
REMARK    1  A    between atoms: C4_4  and  C5_5 
REMARK    2  A    between atoms: C5_5  and  C6_6 
REMARK    3  A    between atoms: C6_6  and  C7_7 
REMARK    4  A    between atoms: C7_7  and  C9_9 
REMARK    5  A    between atoms: C24_24  and  O1_26 
ROOT
HETATM    1  C9  UNL     1      -9.831  46.982 -28.115  1.00  0.00    -0.002 C 
HETATM    2  C10 UNL     1     -10.293  46.974 -29.597  1.00  0.00     0.007 C 
HETATM    3  C11 UNL     1     -11.761  46.489 -29.606  1.00  0.00     0.015 C 
HETATM    4  C12 UNL     1     -12.212  46.562 -28.134  1.00  0.00    -0.013 C 
HETATM    5  C13 UNL     1     -12.651  48.038 -27.868  1.00  0.00     0.021 C 
HETATM    6  C14 UNL     1     -13.385  45.717 -27.657  1.00  0.00    -0.068 C 
HETATM    7  C15 UNL     1     -13.460  45.349 -26.349  1.00  0.00    -0.068 C 
HETATM    8  C16 UNL     1     -12.340  45.664 -25.355  1.00  0.00     0.036 C 
HETATM    9  C17 UNL     1     -11.072  46.356 -25.904  1.00  0.00     0.015 C 
HETATM   10  C18 UNL     1     -10.899  46.101 -27.406  1.00  0.00    -0.029 C 
HETATM   11  C19 UNL     1     -10.577  44.590 -27.603  1.00  0.00     0.016 C 
HETATM   12  C20 UNL     1     -14.662  44.508 -25.851  1.00  0.00    -0.016 C 
HETATM   13  C21 UNL     1     -14.258  43.039 -26.158  1.00  0.00     0.020 C 
HETATM   14  C22 UNL     1     -14.960  44.579 -24.326  1.00  0.00     0.017 C 
HETATM   15  C23 UNL     1     -15.938  45.686 -23.968  1.00  0.00     0.039 C 
HETATM   16  C24 UNL     1     -17.348  45.470 -24.586  1.00  0.00     0.061 C 
HETATM   17  C25 UNL     1     -18.033  46.852 -24.613  1.00  0.00     0.046 C 
HETATM   18  C26 UNL     1     -17.306  44.731 -26.002  1.00  0.00    -0.012 C 
HETATM   19  C27 UNL     1     -17.568  43.211 -25.868  1.00  0.00     0.018 C 
HETATM   20  C28 UNL     1     -18.450  45.237 -26.922  1.00  0.00     0.018 C 
HETATM   21  C29 UNL     1     -15.913  45.043 -26.652  1.00  0.00     0.009 C 
HETATM   22  C30 UNL     1     -15.738  44.732 -28.145  1.00  0.00     0.011 C 
HETATM   23  C31 UNL     1     -14.454  45.385 -28.684  1.00  0.00     0.036 C 
ENDROOT
BRANCH   1  24
HETATM   24  C7  UNL     1      -8.326  46.686 -27.846  1.00  0.00    -0.014 C 
HETATM   25  C8  UNL     1      -7.788  45.397 -28.483  1.00  0.00     0.010 C 
BRANCH  24  26
HETATM   26  C6  UNL     1      -7.478  47.901 -28.309  1.00  0.00     0.008 C 
BRANCH  26  27
HETATM   27  C5  UNL     1      -5.968  47.720 -28.118  1.00  0.00     0.028 C 
BRANCH  27  28
HETATM   28  C4  UNL     1      -5.578  47.939 -26.681  1.00  0.00    -0.025 C 
HETATM   29  C2  UNL     1      -4.391  48.359 -26.200  1.00  0.00    -0.091 C 
HETATM   30  C1  UNL     1      -4.194  48.561 -24.719  1.00  0.00     0.042 C 
HETATM   31  C3  UNL     1      -3.176  48.661 -27.033  1.00  0.00     0.042 C 
ENDBRANCH  27  28
ENDBRANCH  26  27
ENDBRANCH  24  26
ENDBRANCH   1  24
BRANCH  16  32
HETATM   32  O1  UNL     1     -18.114  44.667 -23.673  1.00  0.00    -0.389 OA
HETATM   33  H41 UNL     1     -18.171  45.139 -22.826  1.00  0.00     0.210 HD
ENDBRANCH  16  32
TORSDOF 5
ENDMDL
MODEL 9
REMARK minimizedAffinity -7.60349369
REMARK CNNscore 0.309704602
REMARK CNNaffinity 5.67237997
REMARK  5 active torsions:
REMARK  status: ('A' for Active; 'I' for Inactive)
REMARK    1  A    between atoms: C4_4  and  C5_5 
REMARK    2  A    between atoms: C5_5  and  C6_6 
REMARK    3  A    between atoms: C6_6  and  C7_7 
REMARK    4  A    between atoms: C7_7  and  C9_9 
REMARK    5  A    between atoms: C24_24  and  O1_26 
ROOT
HETATM    1  C9  UNL     1     -14.493  45.257 -26.347  1.00  0.00    -0.002 C 
HETATM    2  C10 UNL     1     -14.217  43.735 -26.466  1.00  0.00     0.007 C 
HETATM    3  C11 UNL     1     -12.944  43.577 -27.329  1.00  0.00     0.015 C 
HETATM    4  C12 UNL     1     -12.330  44.988 -27.394  1.00  0.00    -0.013 C 
HETATM    5  C13 UNL     1     -11.484  45.174 -26.094  1.00  0.00     0.021 C 
HETATM    6  C14 UNL     1     -11.384  45.352 -28.529  1.00  0.00    -0.068 C 
HETATM    7  C15 UNL     1     -11.266  46.652 -28.914  1.00  0.00    -0.068 C 
HETATM    8  C16 UNL     1     -12.143  47.756 -28.318  1.00  0.00     0.036 C 
HETATM    9  C17 UNL     1     -13.230  47.333 -27.305  1.00  0.00     0.015 C 
HETATM   10  C18 UNL     1     -13.630  45.865 -27.490  1.00  0.00    -0.029 C 
HETATM   11  C19 UNL     1     -14.367  45.736 -28.857  1.00  0.00     0.016 C 
HETATM   12  C20 UNL     1     -10.287  47.034 -30.054  1.00  0.00    -0.016 C 
HETATM   13  C21 UNL     1     -11.103  46.804 -31.356  1.00  0.00     0.020 C 
HETATM   14  C22 UNL     1      -9.815  48.516 -30.079  1.00  0.00     0.017 C 
HETATM   15  C23 UNL     1      -8.541  48.741 -29.281  1.00  0.00     0.039 C 
HETATM   16  C24 UNL     1      -7.318  47.978 -29.863  1.00  0.00     0.061 C 
HETATM   17  C25 UNL     1      -6.294  47.848 -28.717  1.00  0.00     0.046 C 
HETATM   18  C26 UNL     1      -7.714  46.591 -30.551  1.00  0.00    -0.012 C 
HETATM   19  C27 UNL     1      -7.858  46.728 -32.086  1.00  0.00     0.018 C 
HETATM   20  C28 UNL     1      -6.586  45.542 -30.364  1.00  0.00     0.018 C 
HETATM   21  C29 UNL     1      -9.035  46.090 -29.869  1.00  0.00     0.009 C 
HETATM   22  C30 UNL     1      -9.451  44.633 -30.107  1.00  0.00     0.011 C 
HETATM   23  C31 UNL     1     -10.563  44.223 -29.127  1.00  0.00     0.036 C 
ENDROOT
BRANCH   1  24
HETATM   24  C7  UNL     1     -15.983  45.696 -26.229  1.00  0.00    -0.014 C 
HETATM   25  C8  UNL     1     -17.012  44.569 -26.393  1.00  0.00     0.010 C 
BRANCH  24  26
HETATM   26  C6  UNL     1     -16.195  46.414 -24.869  1.00  0.00     0.008 C 
BRANCH  26  27
HETATM   27  C5  UNL     1     -17.649  46.814 -24.592  1.00  0.00     0.028 C 
BRANCH  27  28
HETATM   28  C4  UNL     1     -18.074  46.376 -23.215  1.00  0.00    -0.025 C 
HETATM   29  C2  UNL     1     -19.090  45.556 -22.885  1.00  0.00    -0.091 C 
HETATM   30  C1  UNL     1     -19.344  45.195 -21.443  1.00  0.00     0.042 C 
HETATM   31  C3  UNL     1     -20.052  44.932 -23.857  1.00  0.00     0.042 C 
ENDBRANCH  27  28
ENDBRANCH  26  27
ENDBRANCH  24  26
ENDBRANCH   1  24
BRANCH  16  32
HETATM   32  O1  UNL     1      -6.701  48.819 -30.851  1.00  0.00    -0.389 OA
HETATM   33  H41 UNL     1      -6.426  49.645 -30.419  1.00  0.00     0.210 HD
ENDBRANCH  16  32
TORSDOF 5
ENDMDL
