MODEL 1
REMARK minimizedAffinity -7.29048538
REMARK CNNscore 0.585752904
REMARK CNNaffinity 7.05269051
REMARK  15 active torsions:
REMARK  status: ('A' for Active; 'I' for Inactive)
REMARK    1  A    between atoms: O1_2  and  C2_3 
REMARK    2  A    between atoms: C3_4  and  O2_5 
REMARK    3  A    between atoms: C5_7  and  O3_8 
REMARK    4  A    between atoms: O3_8  and  C6_9 
REMARK    5  A    between atoms: C12_15  and  O4_16 
REMARK    6  A    between atoms: C13_17  and  O5_18 
REMARK    7  A    between atoms: C15_20  and  O6_21 
REMARK    8  A    between atoms: C21_27  and  C22_28 
REMARK    9  A    between atoms: C22_28  and  C24_30 
REMARK   10  A    between atoms: C25_31  and  C26_32 
REMARK   11  A    between atoms: C26_32  and  C28_34 
REMARK   12  A    between atoms: C28_34  and  C30_36 
REMARK   13  A    between atoms: C30_36  and  O7_37 
REMARK   14  A    between atoms: C32_39  and  O8_40 
REMARK   15  A    between atoms: C35_44  and  O10_45 
ROOT
HETATM    1  C6  UNL     1       5.015  10.762  15.946  1.00  0.00     0.154 C 
HETATM    2  C7  UNL     1       4.252  11.687  14.992  1.00  0.00     0.035 C 
HETATM    3  C8  UNL     1       2.759  11.348  14.882  1.00  0.00     0.012 C 
HETATM    4  C9  UNL     1       2.483   9.861  14.522  1.00  0.00    -0.029 C 
HETATM    5  C10 UNL     1       2.988   9.631  13.078  1.00  0.00     0.016 C 
HETATM    6  C11 UNL     1       3.209   8.999  15.610  1.00  0.00     0.054 C 
HETATM    7  C12 UNL     1       4.717   9.265  15.698  1.00  0.00     0.154 C 
HETATM    8  C13 UNL     1       2.782   7.508  15.642  1.00  0.00     0.128 C 
HETATM    9  C14 UNL     1       1.770   7.042  14.593  1.00  0.00     0.071 C 
HETATM   10  C15 UNL     1       0.655   8.035  14.192  1.00  0.00     0.071 C 
HETATM   11  C16 UNL     1       0.969   9.491  14.676  1.00  0.00     0.029 C 
HETATM   12  C17 UNL     1      -0.054  10.499  14.116  1.00  0.00     0.009 C 
HETATM   13  C18 UNL     1      -1.493  10.128  14.547  1.00  0.00     0.010 C 
HETATM   14  C19 UNL     1      -1.885   8.684  14.167  1.00  0.00    -0.031 C 
HETATM   15  C20 UNL     1      -2.138   8.623  12.637  1.00  0.00     0.016 C 
HETATM   16  C21 UNL     1      -3.111   8.077  14.925  1.00  0.00     0.004 C 
HETATM   17  C31 UNL     1      -2.882   6.544  14.759  1.00  0.00     0.038 C 
HETATM   18  C32 UNL     1      -1.380   6.336  14.505  1.00  0.00     0.126 C 
HETATM   19  C33 UNL     1      -0.769   7.720  14.712  1.00  0.00     0.058 C 
ENDROOT
BRANCH   1  20
HETATM   20  O3  UNL     1       6.440  10.922  15.797  1.00  0.00    -0.351 OA
BRANCH  20  21
HETATM   21  C5  UNL     1       7.198   9.770  16.182  1.00  0.00     0.291 C 
HETATM   22  C3  UNL     1       8.523   9.741  15.375  1.00  0.00     0.207 C 
HETATM   23  C2  UNL     1       9.661  10.506  16.097  1.00  0.00     0.185 C 
HETATM   24  C35 UNL     1       9.098  11.550  17.073  1.00  0.00     0.176 C 
HETATM   25  C34 UNL     1       8.174  10.850  18.078  1.00  0.00     0.205 C 
HETATM   26  O9  UNL     1       7.440   9.735  17.581  1.00  0.00    -0.356 OA
BRANCH  22  27
HETATM   27  O2  UNL     1       8.992   8.384  15.183  1.00  0.00    -0.383 OA
HETATM   28  C4  UNL     1       9.453   7.773  16.382  1.00  0.00     0.202 C 
ENDBRANCH  22  27
BRANCH  23  29
HETATM   29  O1  UNL     1      10.488  11.179  15.117  1.00  0.00    -0.385 OA
HETATM   30  C1  UNL     1       9.740  11.735  14.043  1.00  0.00     0.202 C 
ENDBRANCH  23  29
BRANCH  24  31
HETATM   31  O10 UNL     1      10.124  12.191  17.850  1.00  0.00    -0.386 OA
HETATM   32  C36 UNL     1       9.790  13.507  18.268  1.00  0.00     0.202 C 
ENDBRANCH  24  31
ENDBRANCH  20  21
ENDBRANCH   1  20
BRANCH   7  33
HETATM   33  O4  UNL     1       5.380   8.791  14.522  1.00  0.00    -0.393 OA
HETATM   34  H20 UNL     1       6.227   9.280  14.492  1.00  0.00     0.210 HD
ENDBRANCH   7  33
BRANCH   8  35
HETATM   35  O5  UNL     1       3.907   6.631  15.594  1.00  0.00    -0.395 OA
HETATM   36  H22 UNL     1       4.480   6.946  14.862  1.00  0.00     0.210 HD
ENDBRANCH   8  35
BRANCH  10  37
HETATM   37  O6  UNL     1       0.615   8.012  12.757  1.00  0.00    -0.389 OA
HETATM   38  H25 UNL     1       0.586   7.083  12.465  1.00  0.00     0.210 HD
ENDBRANCH  10  37
BRANCH  18  39
HETATM   39  O8  UNL     1      -0.861   5.406  15.442  1.00  0.00    -0.395 OA
HETATM   40  H55 UNL     1      -1.359   4.577  15.346  1.00  0.00     0.210 HD
ENDBRANCH  18  39
BRANCH  16  41
HETATM   41  C22 UNL     1      -4.557   8.499  14.535  1.00  0.00     0.009 C 
HETATM   42  C23 UNL     1      -5.122   9.598  15.439  1.00  0.00     0.014 C 
BRANCH  41  43
HETATM   43  C24 UNL     1      -5.458   7.272  14.459  1.00  0.00    -0.026 C 
HETATM   44  C25 UNL     1      -6.318   6.822  15.390  1.00  0.00    -0.026 C 
BRANCH  44  45
HETATM   45  C26 UNL     1      -7.222   5.598  15.289  1.00  0.00     0.009 C 
HETATM   46  C27 UNL     1      -8.636   5.858  15.835  1.00  0.00     0.014 C 
BRANCH  45  47
HETATM   47  C28 UNL     1      -7.237   5.014  13.840  1.00  0.00     0.012 C 
HETATM   48  C29 UNL     1      -5.839   4.583  13.369  1.00  0.00     0.012 C 
BRANCH  47  49
HETATM   49  C30 UNL     1      -7.847   6.018  12.840  1.00  0.00     0.168 C 
BRANCH  49  50
HETATM   50  O7  UNL     1      -8.850   5.413  12.029  1.00  0.00    -0.400 OA
HETATM   51  H51 UNL     1      -8.401   4.937  11.311  1.00  0.00     0.209 HD
ENDBRANCH  49  50
ENDBRANCH  47  49
ENDBRANCH  45  47
ENDBRANCH  44  45
ENDBRANCH  41  43
ENDBRANCH  16  41
TORSDOF 15
ENDMDL
MODEL 2
REMARK minimizedAffinity -8.03605366
REMARK CNNscore 0.502938211
REMARK CNNaffinity 6.74721527
REMARK  15 active torsions:
REMARK  status: ('A' for Active; 'I' for Inactive)
REMARK    1  A    between atoms: O1_2  and  C2_3 
REMARK    2  A    between atoms: C3_4  and  O2_5 
REMARK    3  A    between atoms: C5_7  and  O3_8 
REMARK    4  A    between atoms: O3_8  and  C6_9 
REMARK    5  A    between atoms: C12_15  and  O4_16 
REMARK    6  A    between atoms: C13_17  and  O5_18 
REMARK    7  A    between atoms: C15_20  and  O6_21 
REMARK    8  A    between atoms: C21_27  and  C22_28 
REMARK    9  A    between atoms: C22_28  and  C24_30 
REMARK   10  A    between atoms: C25_31  and  C26_32 
REMARK   11  A    between atoms: C26_32  and  C28_34 
REMARK   12  A    between atoms: C28_34  and  C30_36 
REMARK   13  A    between atoms: C30_36  and  O7_37 
REMARK   14  A    between atoms: C32_39  and  O8_40 
REMARK   15  A    between atoms: C35_44  and  O10_45 
ROOT
HETATM    1  C6  UNL     1      -4.896   7.489  14.720  1.00  0.00     0.154 C 
HETATM    2  C7  UNL     1      -4.707   6.958  13.296  1.00  0.00     0.035 C 
HETATM    3  C8  UNL     1      -3.235   6.735  12.922  1.00  0.00     0.012 C 
HETATM    4  C9  UNL     1      -2.339   7.984  13.152  1.00  0.00    -0.029 C 
HETATM    5  C10 UNL     1      -2.783   9.069  12.141  1.00  0.00     0.016 C 
HETATM    6  C11 UNL     1      -2.514   8.386  14.655  1.00  0.00     0.054 C 
HETATM    7  C12 UNL     1      -3.967   8.682  15.045  1.00  0.00     0.154 C 
HETATM    8  C13 UNL     1      -1.454   9.388  15.183  1.00  0.00     0.128 C 
HETATM    9  C14 UNL     1      -0.417   9.908  14.185  1.00  0.00     0.071 C 
HETATM   10  C15 UNL     1       0.093   8.920  13.112  1.00  0.00     0.071 C 
HETATM   11  C16 UNL     1      -0.815   7.648  13.012  1.00  0.00     0.029 C 
HETATM   12  C17 UNL     1      -0.405   6.760  11.820  1.00  0.00     0.009 C 
HETATM   13  C18 UNL     1       1.071   6.314  11.942  1.00  0.00     0.010 C 
HETATM   14  C19 UNL     1       2.050   7.496  12.104  1.00  0.00    -0.031 C 
HETATM   15  C20 UNL     1       2.195   8.214  10.736  1.00  0.00     0.016 C 
HETATM   16  C21 UNL     1       3.468   7.150  12.667  1.00  0.00     0.004 C 
HETATM   17  C31 UNL     1       3.951   8.523  13.226  1.00  0.00     0.038 C 
HETATM   18  C32 UNL     1       2.694   9.360  13.516  1.00  0.00     0.126 C 
HETATM   19  C33 UNL     1       1.537   8.390  13.291  1.00  0.00     0.058 C 
ENDROOT
BRANCH   1  20
HETATM   20  O3  UNL     1      -6.244   7.956  14.927  1.00  0.00    -0.351 OA
BRANCH  20  21
HETATM   21  C5  UNL     1      -6.962   7.236  15.934  1.00  0.00     0.291 C 
HETATM   22  C3  UNL     1      -8.466   7.604  15.849  1.00  0.00     0.207 C 
HETATM   23  C2  UNL     1      -9.241   6.668  14.886  1.00  0.00     0.185 C 
HETATM   24  C35 UNL     1      -8.298   6.028  13.855  1.00  0.00     0.176 C 
HETATM   25  C34 UNL     1      -7.187   5.270  14.593  1.00  0.00     0.205 C 
HETATM   26  O9  UNL     1      -6.763   5.834  15.831  1.00  0.00    -0.356 OA
BRANCH  22  27
HETATM   27  O2  UNL     1      -9.109   7.494  17.142  1.00  0.00    -0.383 OA
HETATM   28  C4  UNL     1      -9.988   8.575  17.427  1.00  0.00     0.202 C 
ENDBRANCH  22  27
BRANCH  23  29
HETATM   29  O1  UNL     1     -10.255   7.428  14.186  1.00  0.00    -0.385 OA
HETATM   30  C1  UNL     1     -11.576   6.976  14.455  1.00  0.00     0.202 C 
ENDBRANCH  23  29
BRANCH  24  31
HETATM   31  O10 UNL     1      -8.963   5.059  13.026  1.00  0.00    -0.386 OA
HETATM   32  C36 UNL     1      -8.248   3.841  12.882  1.00  0.00     0.202 C 
ENDBRANCH  24  31
ENDBRANCH  20  21
ENDBRANCH   1  20
BRANCH   7  33
HETATM   33  O4  UNL     1      -4.423   9.882  14.412  1.00  0.00    -0.393 OA
HETATM   34  H20 UNL     1      -5.400   9.821  14.422  1.00  0.00     0.210 HD
ENDBRANCH   7  33
BRANCH   8  35
HETATM   35  O5  UNL     1      -2.057  10.512  15.824  1.00  0.00    -0.395 OA
HETATM   36  H22 UNL     1      -2.760  10.837  15.221  1.00  0.00     0.210 HD
ENDBRANCH   8  35
BRANCH  10  37
HETATM   37  O6  UNL     1       0.038   9.638  11.869  1.00  0.00    -0.389 OA
HETATM   38  H25 UNL     1       0.466  10.503  11.996  1.00  0.00     0.210 HD
ENDBRANCH  10  37
BRANCH  18  39
HETATM   39  O8  UNL     1       2.722   9.814  14.860  1.00  0.00    -0.395 OA
HETATM   40  H55 UNL     1       3.535  10.334  14.981  1.00  0.00     0.210 HD
ENDBRANCH  18  39
BRANCH  16  41
HETATM   41  C22 UNL     1       4.531   6.486  11.747  1.00  0.00     0.009 C 
HETATM   42  C23 UNL     1       5.838   7.281  11.674  1.00  0.00     0.014 C 
BRANCH  41  43
HETATM   43  C24 UNL     1       3.933   6.201  10.374  1.00  0.00    -0.026 C 
HETATM   44  C25 UNL     1       3.907   5.030   9.713  1.00  0.00    -0.026 C 
BRANCH  44  45
HETATM   45  C26 UNL     1       3.291   4.763   8.344  1.00  0.00     0.009 C 
HETATM   46  C27 UNL     1       2.697   6.028   7.704  1.00  0.00     0.014 C 
BRANCH  45  47
HETATM   47  C28 UNL     1       4.293   4.026   7.398  1.00  0.00     0.012 C 
HETATM   48  C29 UNL     1       3.608   3.470   6.140  1.00  0.00     0.012 C 
BRANCH  47  49
HETATM   49  C30 UNL     1       5.034   2.895   8.142  1.00  0.00     0.168 C 
BRANCH  49  50
HETATM   50  O7  UNL     1       4.428   2.601   9.397  1.00  0.00    -0.400 OA
HETATM   51  H51 UNL     1       4.743   3.260  10.039  1.00  0.00     0.209 HD
ENDBRANCH  49  50
ENDBRANCH  47  49
ENDBRANCH  45  47
ENDBRANCH  44  45
ENDBRANCH  41  43
ENDBRANCH  16  41
TORSDOF 15
ENDMDL
MODEL 3
REMARK minimizedAffinity -8.98094463
REMARK CNNscore 0.491290092
REMARK CNNaffinity 7.03593683
REMARK  15 active torsions:
REMARK  status: ('A' for Active; 'I' for Inactive)
REMARK    1  A    between atoms: O1_2  and  C2_3 
REMARK    2  A    between atoms: C3_4  and  O2_5 
REMARK    3  A    between atoms: C5_7  and  O3_8 
REMARK    4  A    between atoms: O3_8  and  C6_9 
REMARK    5  A    between atoms: C12_15  and  O4_16 
REMARK    6  A    between atoms: C13_17  and  O5_18 
REMARK    7  A    between atoms: C15_20  and  O6_21 
REMARK    8  A    between atoms: C21_27  and  C22_28 
REMARK    9  A    between atoms: C22_28  and  C24_30 
REMARK   10  A    between atoms: C25_31  and  C26_32 
REMARK   11  A    between atoms: C26_32  and  C28_34 
REMARK   12  A    between atoms: C28_34  and  C30_36 
REMARK   13  A    between atoms: C30_36  and  O7_37 
REMARK   14  A    between atoms: C32_39  and  O8_40 
REMARK   15  A    between atoms: C35_44  and  O10_45 
ROOT
HETATM    1  C6  UNL     1      -0.188   6.062  11.804  1.00  0.00     0.154 C 
HETATM    2  C7  UNL     1      -0.984   4.758  11.935  1.00  0.00     0.035 C 
HETATM    3  C8  UNL     1      -2.476   4.984  12.217  1.00  0.00     0.012 C 
HETATM    4  C9  UNL     1      -2.745   5.903  13.442  1.00  0.00    -0.029 C 
HETATM    5  C10 UNL     1      -2.274   5.144  14.706  1.00  0.00     0.016 C 
HETATM    6  C11 UNL     1      -1.984   7.244  13.167  1.00  0.00     0.054 C 
HETATM    7  C12 UNL     1      -0.477   7.060  12.949  1.00  0.00     0.154 C 
HETATM    8  C13 UNL     1      -2.395   8.420  14.091  1.00  0.00     0.128 C 
HETATM    9  C14 UNL     1      -3.428   8.131  15.183  1.00  0.00     0.071 C 
HETATM   10  C15 UNL     1      -4.562   7.139  14.842  1.00  0.00     0.071 C 
HETATM   11  C16 UNL     1      -4.251   6.322  13.542  1.00  0.00     0.029 C 
HETATM   12  C17 UNL     1      -5.298   5.214  13.314  1.00  0.00     0.009 C 
HETATM   13  C18 UNL     1      -6.722   5.808  13.203  1.00  0.00     0.010 C 
HETATM   14  C19 UNL     1      -7.109   6.684  14.414  1.00  0.00    -0.031 C 
HETATM   15  C20 UNL     1      -7.399   5.759  15.625  1.00  0.00     0.016 C 
HETATM   16  C21 UNL     1      -8.309   7.664  14.204  1.00  0.00     0.004 C 
HETATM   17  C31 UNL     1      -8.069   8.731  15.316  1.00  0.00     0.038 C 
HETATM   18  C32 UNL     1      -6.571   8.692  15.663  1.00  0.00     0.126 C 
HETATM   19  C33 UNL     1      -5.970   7.747  14.626  1.00  0.00     0.058 C 
ENDROOT
BRANCH   1  20
HETATM   20  O3  UNL     1       1.231   5.810  11.834  1.00  0.00    -0.351 OA
BRANCH  20  21
HETATM   21  C5  UNL     1       2.033   6.969  11.587  1.00  0.00     0.291 C 
HETATM   22  C3  UNL     1       3.482   6.525  11.254  1.00  0.00     0.207 C 
HETATM   23  C2  UNL     1       3.683   6.287   9.736  1.00  0.00     0.185 C 
HETATM   24  C35 UNL     1       2.348   5.980   9.039  1.00  0.00     0.176 C 
HETATM   25  C34 UNL     1       1.371   7.135   9.296  1.00  0.00     0.205 C 
HETATM   26  O9  UNL     1       1.490   7.784  10.558  1.00  0.00    -0.356 OA
BRANCH  22  27
HETATM   27  O2  UNL     1       4.445   7.533  11.648  1.00  0.00    -0.383 OA
HETATM   28  C4  UNL     1       5.622   6.988  12.232  1.00  0.00     0.202 C 
ENDBRANCH  22  27
BRANCH  23  29
HETATM   29  O1  UNL     1       4.583   5.170   9.537  1.00  0.00    -0.385 OA
HETATM   30  C1  UNL     1       3.920   3.912   9.541  1.00  0.00     0.202 C 
ENDBRANCH  23  29
BRANCH  24  31
HETATM   31  O10 UNL     1       2.481   5.877   7.612  1.00  0.00    -0.386 OA
HETATM   32  C36 UNL     1       1.998   7.012   6.906  1.00  0.00     0.202 C 
ENDBRANCH  24  31
ENDBRANCH  20  21
ENDBRANCH   1  20
BRANCH   7  33
HETATM   33  O4  UNL     1       0.161   6.656  14.164  1.00  0.00    -0.393 OA
HETATM   34  H20 UNL     1       1.003   6.242  13.885  1.00  0.00     0.210 HD
ENDBRANCH   7  33
BRANCH   8  35
HETATM   35  O5  UNL     1      -1.262   9.036  14.703  1.00  0.00    -0.395 OA
HETATM   36  H22 UNL     1      -0.711   8.312  15.072  1.00  0.00     0.210 HD
ENDBRANCH   8  35
BRANCH  10  37
HETATM   37  O6  UNL     1      -4.637   6.239  15.958  1.00  0.00    -0.389 OA
HETATM   38  H25 UNL     1      -4.664   6.767  16.776  1.00  0.00     0.210 HD
ENDBRANCH  10  37
BRANCH  18  39
HETATM   39  O8  UNL     1      -6.020   9.994  15.544  1.00  0.00    -0.395 OA
HETATM   40  H55 UNL     1      -6.512  10.581  16.143  1.00  0.00     0.210 HD
ENDBRANCH  18  39
BRANCH  16  41
HETATM   41  C22 UNL     1      -9.768   7.125  14.216  1.00  0.00     0.009 C 
HETATM   42  C23 UNL     1     -10.149   6.406  12.918  1.00  0.00     0.014 C 
BRANCH  41  43
HETATM   43  C24 UNL     1     -10.738   8.243  14.580  1.00  0.00    -0.026 C 
HETATM   44  C25 UNL     1     -11.662   8.248  15.557  1.00  0.00    -0.026 C 
BRANCH  44  45
HETATM   45  C26 UNL     1     -12.615   9.383  15.913  1.00  0.00     0.009 C 
HETATM   46  C27 UNL     1     -13.998   9.224  15.259  1.00  0.00     0.014 C 
BRANCH  45  47
HETATM   47  C28 UNL     1     -12.704   9.594  17.458  1.00  0.00     0.012 C 
HETATM   48  C29 UNL     1     -13.581  10.799  17.835  1.00  0.00     0.012 C 
BRANCH  47  49
HETATM   49  C30 UNL     1     -11.301   9.744  18.083  1.00  0.00     0.168 C 
BRANCH  49  50
HETATM   50  O7  UNL     1     -11.011   8.685  18.991  1.00  0.00    -0.400 OA
HETATM   51  H51 UNL     1     -11.435   8.898  19.839  1.00  0.00     0.209 HD
ENDBRANCH  49  50
ENDBRANCH  47  49
ENDBRANCH  45  47
ENDBRANCH  44  45
ENDBRANCH  41  43
ENDBRANCH  16  41
TORSDOF 15
ENDMDL
MODEL 4
REMARK minimizedAffinity -9.75782871
REMARK CNNscore 0.452815652
REMARK CNNaffinity 6.90711832
REMARK  15 active torsions:
REMARK  status: ('A' for Active; 'I' for Inactive)
REMARK    1  A    between atoms: O1_2  and  C2_3 
REMARK    2  A    between atoms: C3_4  and  O2_5 
REMARK    3  A    between atoms: C5_7  and  O3_8 
REMARK    4  A    between atoms: O3_8  and  C6_9 
REMARK    5  A    between atoms: C12_15  and  O4_16 
REMARK    6  A    between atoms: C13_17  and  O5_18 
REMARK    7  A    between atoms: C15_20  and  O6_21 
REMARK    8  A    between atoms: C21_27  and  C22_28 
REMARK    9  A    between atoms: C22_28  and  C24_30 
REMARK   10  A    between atoms: C25_31  and  C26_32 
REMARK   11  A    between atoms: C26_32  and  C28_34 
REMARK   12  A    between atoms: C28_34  and  C30_36 
REMARK   13  A    between atoms: C30_36  and  O7_37 
REMARK   14  A    between atoms: C32_39  and  O8_40 
REMARK   15  A    between atoms: C35_44  and  O10_45 
ROOT
HETATM    1  C6  UNL     1     -10.498   8.501  14.561  1.00  0.00     0.154 C 
HETATM    2  C7  UNL     1      -9.630   9.358  15.488  1.00  0.00     0.035 C 
HETATM    3  C8  UNL     1      -8.138   9.319  15.128  1.00  0.00     0.012 C 
HETATM    4  C9  UNL     1      -7.559   7.880  15.029  1.00  0.00    -0.029 C 
HETATM    5  C10 UNL     1      -7.579   7.271  16.451  1.00  0.00     0.016 C 
HETATM    6  C11 UNL     1      -8.441   7.118  13.983  1.00  0.00     0.054 C 
HETATM    7  C12 UNL     1      -9.930   7.079  14.349  1.00  0.00     0.154 C 
HETATM    8  C13 UNL     1      -7.833   5.783  13.478  1.00  0.00     0.128 C 
HETATM    9  C14 UNL     1      -6.502   5.338  14.088  1.00  0.00     0.071 C 
HETATM   10  C15 UNL     1      -5.472   6.441  14.424  1.00  0.00     0.071 C 
HETATM   11  C16 UNL     1      -6.120   7.867  14.410  1.00  0.00     0.029 C 
HETATM   12  C17 UNL     1      -5.133   8.934  14.923  1.00  0.00     0.009 C 
HETATM   13  C18 UNL     1      -3.846   8.960  14.064  1.00  0.00     0.010 C 
HETATM   14  C19 UNL     1      -3.157   7.583  13.964  1.00  0.00    -0.031 C 
HETATM   15  C20 UNL     1      -2.460   7.275  15.316  1.00  0.00     0.016 C 
HETATM   16  C21 UNL     1      -2.134   7.402  12.794  1.00  0.00     0.004 C 
HETATM   17  C31 UNL     1      -2.083   5.853  12.630  1.00  0.00     0.038 C 
HETATM   18  C32 UNL     1      -3.399   5.294  13.197  1.00  0.00     0.126 C 
HETATM   19  C33 UNL     1      -4.234   6.535  13.500  1.00  0.00     0.058 C 
ENDROOT
BRANCH   1  20
HETATM   20  O3  UNL     1     -11.824   8.331  15.101  1.00  0.00    -0.351 OA
BRANCH  20  21
HETATM   21  C5  UNL     1     -12.873   8.590  14.161  1.00  0.00     0.291 C 
HETATM   22  C3  UNL     1     -13.498   7.244  13.711  1.00  0.00     0.207 C 
HETATM   23  C2  UNL     1     -14.672   6.812  14.627  1.00  0.00     0.185 C 
HETATM   24  C35 UNL     1     -14.561   7.459  16.016  1.00  0.00     0.176 C 
HETATM   25  C34 UNL     1     -14.511   8.984  15.857  1.00  0.00     0.205 C 
HETATM   26  O9  UNL     1     -13.856   9.469  14.689  1.00  0.00    -0.356 OA
BRANCH  22  27
HETATM   27  O2  UNL     1     -14.030   7.333  12.367  1.00  0.00    -0.383 OA
HETATM   28  C4  UNL     1     -15.401   7.711  12.330  1.00  0.00     0.202 C 
ENDBRANCH  22  27
BRANCH  23  29
HETATM   29  O1  UNL     1     -14.663   5.372  14.778  1.00  0.00    -0.385 OA
HETATM   30  C1  UNL     1     -15.915   4.771  14.475  1.00  0.00     0.202 C 
ENDBRANCH  23  29
BRANCH  24  31
HETATM   31  O10 UNL     1     -15.699   7.179  16.848  1.00  0.00    -0.386 OA
HETATM   32  C36 UNL     1     -15.400   7.141  18.236  1.00  0.00     0.202 C 
ENDBRANCH  24  31
ENDBRANCH  20  21
ENDBRANCH   1  20
BRANCH   7  33
HETATM   33  O4  UNL     1     -10.143   6.257  15.500  1.00  0.00    -0.393 OA
HETATM   34  H20 UNL     1     -11.005   6.544  15.863  1.00  0.00     0.210 HD
ENDBRANCH   7  33
BRANCH   8  35
HETATM   35  O5  UNL     1      -8.757   4.701  13.592  1.00  0.00    -0.395 OA
HETATM   36  H22 UNL     1      -9.129   4.741  14.500  1.00  0.00     0.210 HD
ENDBRANCH   8  35
BRANCH  10  37
HETATM   37  O6  UNL     1      -5.010   6.145  15.751  1.00  0.00    -0.389 OA
HETATM   38  H25 UNL     1      -4.764   5.204  15.788  1.00  0.00     0.210 HD
ENDBRANCH  10  37
BRANCH  18  39
HETATM   39  O8  UNL     1      -4.031   4.480  12.223  1.00  0.00    -0.395 OA
HETATM   40  H55 UNL     1      -3.413   3.768  11.983  1.00  0.00     0.210 HD
ENDBRANCH  18  39
BRANCH  16  41
HETATM   41  C22 UNL     1      -0.714   8.028  12.897  1.00  0.00     0.009 C 
HETATM   42  C23 UNL     1      -0.706   9.372  13.631  1.00  0.00     0.014 C 
BRANCH  41  43
HETATM   43  C24 UNL     1      -0.074   8.103  11.516  1.00  0.00    -0.026 C 
HETATM   44  C25 UNL     1       0.454   7.097  10.795  1.00  0.00    -0.026 C 
BRANCH  44  45
HETATM   45  C26 UNL     1       1.080   7.191   9.409  1.00  0.00     0.009 C 
HETATM   46  C27 UNL     1       0.482   8.329   8.564  1.00  0.00     0.014 C 
BRANCH  45  47
HETATM   47  C28 UNL     1       2.638   7.257   9.485  1.00  0.00     0.012 C 
HETATM   48  C29 UNL     1       3.232   8.260   8.483  1.00  0.00     0.012 C 
BRANCH  47  49
HETATM   49  C30 UNL     1       3.267   5.863   9.274  1.00  0.00     0.168 C 
BRANCH  49  50
HETATM   50  O7  UNL     1       4.293   5.596  10.225  1.00  0.00    -0.400 OA
HETATM   51  H51 UNL     1       5.104   6.033   9.915  1.00  0.00     0.209 HD
ENDBRANCH  49  50
ENDBRANCH  47  49
ENDBRANCH  45  47
ENDBRANCH  44  45
ENDBRANCH  41  43
ENDBRANCH  16  41
TORSDOF 15
ENDMDL
MODEL 5
REMARK minimizedAffinity -8.78610325
REMARK CNNscore 0.434158474
REMARK CNNaffinity 6.59396744
REMARK  15 active torsions:
REMARK  status: ('A' for Active; 'I' for Inactive)
REMARK    1  A    between atoms: O1_2  and  C2_3 
REMARK    2  A    between atoms: C3_4  and  O2_5 
REMARK    3  A    between atoms: C5_7  and  O3_8 
REMARK    4  A    between atoms: O3_8  and  C6_9 
REMARK    5  A    between atoms: C12_15  and  O4_16 
REMARK    6  A    between atoms: C13_17  and  O5_18 
REMARK    7  A    between atoms: C15_20  and  O6_21 
REMARK    8  A    between atoms: C21_27  and  C22_28 
REMARK    9  A    between atoms: C22_28  and  C24_30 
REMARK   10  A    between atoms: C25_31  and  C26_32 
REMARK   11  A    between atoms: C26_32  and  C28_34 
REMARK   12  A    between atoms: C28_34  and  C30_36 
REMARK   13  A    between atoms: C30_36  and  O7_37 
REMARK   14  A    between atoms: C32_39  and  O8_40 
REMARK   15  A    between atoms: C35_44  and  O10_45 
ROOT
HETATM    1  C6  UNL     1      -2.623   4.904  13.852  1.00  0.00     0.154 C 
HETATM    2  C7  UNL     1      -2.246   5.115  12.382  1.00  0.00     0.035 C 
HETATM    3  C8  UNL     1      -0.770   5.489  12.182  1.00  0.00     0.012 C 
HETATM    4  C9  UNL     1      -0.317   6.709  13.033  1.00  0.00    -0.029 C 
HETATM    5  C10 UNL     1      -1.057   7.955  12.491  1.00  0.00     0.016 C 
HETATM    6  C11 UNL     1      -0.643   6.356  14.524  1.00  0.00     0.054 C 
HETATM    7  C12 UNL     1      -2.124   6.044  14.770  1.00  0.00     0.154 C 
HETATM    8  C13 UNL     1       0.036   7.280  15.568  1.00  0.00     0.128 C 
HETATM    9  C14 UNL     1       0.879   8.443  15.040  1.00  0.00     0.071 C 
HETATM   10  C15 UNL     1       1.697   8.198  13.751  1.00  0.00     0.071 C 
HETATM   11  C16 UNL     1       1.238   6.898  13.007  1.00  0.00     0.029 C 
HETATM   12  C17 UNL     1       1.932   6.763  11.638  1.00  0.00     0.009 C 
HETATM   13  C18 UNL     1       3.471   6.732  11.795  1.00  0.00     0.010 C 
HETATM   14  C19 UNL     1       4.024   7.946  12.570  1.00  0.00    -0.031 C 
HETATM   15  C20 UNL     1       3.967   9.194  11.649  1.00  0.00     0.016 C 
HETATM   16  C21 UNL     1       5.467   7.795  13.158  1.00  0.00     0.004 C 
HETATM   17  C31 UNL     1       5.481   8.865  14.291  1.00  0.00     0.038 C 
HETATM   18  C32 UNL     1       4.018   9.114  14.696  1.00  0.00     0.126 C 
HETATM   19  C33 UNL     1       3.230   8.061  13.922  1.00  0.00     0.058 C 
ENDROOT
BRANCH   1  20
HETATM   20  O3  UNL     1      -4.054   4.846  14.018  1.00  0.00    -0.351 OA
BRANCH  20  21
HETATM   21  C5  UNL     1      -4.791   5.145  12.827  1.00  0.00     0.291 C 
HETATM   22  C3  UNL     1      -5.844   4.031  12.587  1.00  0.00     0.207 C 
HETATM   23  C2  UNL     1      -7.193   4.346  13.283  1.00  0.00     0.185 C 
HETATM   24  C35 UNL     1      -6.999   5.315  14.460  1.00  0.00     0.176 C 
HETATM   25  C34 UNL     1      -6.324   6.595  13.951  1.00  0.00     0.205 C 
HETATM   26  O9  UNL     1      -5.395   6.429  12.883  1.00  0.00    -0.356 OA
BRANCH  22  27
HETATM   27  O2  UNL     1      -6.131   3.874  11.177  1.00  0.00    -0.383 OA
HETATM   28  C4  UNL     1      -5.109   3.184  10.468  1.00  0.00     0.202 C 
ENDBRANCH  22  27
BRANCH  23  29
HETATM   29  O1  UNL     1      -7.779   3.118  13.779  1.00  0.00    -0.385 OA
HETATM   30  C1  UNL     1      -7.688   2.043  12.852  1.00  0.00     0.202 C 
ENDBRANCH  23  29
BRANCH  24  31
HETATM   31  O10 UNL     1      -8.244   5.725  15.049  1.00  0.00    -0.386 OA
HETATM   32  C36 UNL     1      -8.100   6.667  16.102  1.00  0.00     0.202 C 
ENDBRANCH  24  31
ENDBRANCH  20  21
ENDBRANCH   1  20
BRANCH   7  33
HETATM   33  O4  UNL     1      -2.919   7.223  14.614  1.00  0.00    -0.393 OA
HETATM   34  H20 UNL     1      -3.828   6.898  14.447  1.00  0.00     0.210 HD
ENDBRANCH   7  33
BRANCH   8  35
HETATM   35  O5  UNL     1      -0.904   7.803  16.507  1.00  0.00    -0.395 OA
HETATM   36  H22 UNL     1      -1.660   8.150  15.986  1.00  0.00     0.210 HD
ENDBRANCH   8  35
BRANCH  10  37
HETATM   37  O6  UNL     1       1.447   9.336  12.913  1.00  0.00    -0.389 OA
HETATM   38  H25 UNL     1       1.578  10.142  13.442  1.00  0.00     0.210 HD
ENDBRANCH  10  37
BRANCH  18  39
HETATM   39  O8  UNL     1       3.873   8.932  16.095  1.00  0.00    -0.395 OA
HETATM   40  H55 UNL     1       4.479   9.549  16.541  1.00  0.00     0.210 HD
ENDBRANCH  18  39
BRANCH  16  41
HETATM   41  C22 UNL     1       6.705   7.913  12.225  1.00  0.00     0.009 C 
HETATM   42  C23 UNL     1       6.989   6.626  11.443  1.00  0.00     0.014 C 
BRANCH  41  43
HETATM   43  C24 UNL     1       7.912   8.405  13.015  1.00  0.00    -0.026 C 
HETATM   44  C25 UNL     1       8.529   7.795  14.043  1.00  0.00    -0.026 C 
BRANCH  44  45
HETATM   45  C26 UNL     1       9.744   8.298  14.813  1.00  0.00     0.009 C 
HETATM   46  C27 UNL     1      10.985   8.466  13.919  1.00  0.00     0.014 C 
BRANCH  45  47
HETATM   47  C28 UNL     1       9.413   9.589  15.628  1.00  0.00     0.012 C 
HETATM   48  C29 UNL     1      10.480  10.682  15.451  1.00  0.00     0.012 C 
BRANCH  47  49
HETATM   49  C30 UNL     1       9.225   9.270  17.126  1.00  0.00     0.168 C 
BRANCH  49  50
HETATM   50  O7  UNL     1       7.858   9.353  17.517  1.00  0.00    -0.400 OA
HETATM   51  H51 UNL     1       7.650  10.290  17.668  1.00  0.00     0.209 HD
ENDBRANCH  49  50
ENDBRANCH  47  49
ENDBRANCH  45  47
ENDBRANCH  44  45
ENDBRANCH  41  43
ENDBRANCH  16  41
TORSDOF 15
ENDMDL
MODEL 6
REMARK minimizedAffinity -8.13631248
REMARK CNNscore 0.389356017
REMARK CNNaffinity 6.4457221
REMARK  15 active torsions:
REMARK  status: ('A' for Active; 'I' for Inactive)
REMARK    1  A    between atoms: O1_2  and  C2_3 
REMARK    2  A    between atoms: C3_4  and  O2_5 
REMARK    3  A    between atoms: C5_7  and  O3_8 
REMARK    4  A    between atoms: O3_8  and  C6_9 
REMARK    5  A    between atoms: C12_15  and  O4_16 
REMARK    6  A    between atoms: C13_17  and  O5_18 
REMARK    7  A    between atoms: C15_20  and  O6_21 
REMARK    8  A    between atoms: C21_27  and  C22_28 
REMARK    9  A    between atoms: C22_28  and  C24_30 
REMARK   10  A    between atoms: C25_31  and  C26_32 
REMARK   11  A    between atoms: C26_32  and  C28_34 
REMARK   12  A    between atoms: C28_34  and  C30_36 
REMARK   13  A    between atoms: C30_36  and  O7_37 
REMARK   14  A    between atoms: C32_39  and  O8_40 
REMARK   15  A    between atoms: C35_44  and  O10_45 
ROOT
HETATM    1  C6  UNL     1       6.351  10.322  12.965  1.00  0.00     0.154 C 
HETATM    2  C7  UNL     1       5.686  10.151  11.595  1.00  0.00     0.035 C 
HETATM    3  C8  UNL     1       4.180   9.864  11.683  1.00  0.00     0.012 C 
HETATM    4  C9  UNL     1       3.829   8.662  12.603  1.00  0.00    -0.029 C 
HETATM    5  C10 UNL     1       4.378   7.383  11.928  1.00  0.00     0.016 C 
HETATM    6  C11 UNL     1       4.455   8.977  14.004  1.00  0.00     0.054 C 
HETATM    7  C12 UNL     1       5.972   9.201  13.961  1.00  0.00     0.154 C 
HETATM    8  C13 UNL     1       3.937   8.081  15.159  1.00  0.00     0.128 C 
HETATM    9  C14 UNL     1       2.942   6.974  14.801  1.00  0.00     0.071 C 
HETATM   10  C15 UNL     1       1.907   7.282  13.694  1.00  0.00     0.071 C 
HETATM   11  C16 UNL     1       2.290   8.562  12.877  1.00  0.00     0.029 C 
HETATM   12  C17 UNL     1       1.354   8.754  11.667  1.00  0.00     0.009 C 
HETATM   13  C18 UNL     1      -0.121   8.870  12.118  1.00  0.00     0.010 C 
HETATM   14  C19 UNL     1      -0.585   7.680  12.984  1.00  0.00    -0.031 C 
HETATM   15  C20 UNL     1      -0.779   6.443  12.067  1.00  0.00     0.016 C 
HETATM   16  C21 UNL     1      -1.876   7.906  13.838  1.00  0.00     0.004 C 
HETATM   17  C31 UNL     1      -1.735   6.824  14.951  1.00  0.00     0.038 C 
HETATM   18  C32 UNL     1      -0.239   6.487  15.067  1.00  0.00     0.126 C 
HETATM   19  C33 UNL     1       0.446   7.503  14.157  1.00  0.00     0.058 C 
ENDROOT
BRANCH   1  20
HETATM   20  O3  UNL     1       7.788  10.296  12.853  1.00  0.00    -0.351 OA
BRANCH  20  21
HETATM   21  C5  UNL     1       8.467  11.002  13.897  1.00  0.00     0.291 C 
HETATM   22  C3  UNL     1       9.560  10.085  14.505  1.00  0.00     0.207 C 
HETATM   23  C2  UNL     1      10.918  10.234  13.771  1.00  0.00     0.185 C 
HETATM   24  C35 UNL     1      10.722  10.760  12.340  1.00  0.00     0.176 C 
HETATM   25  C34 UNL     1       9.971  12.096  12.395  1.00  0.00     0.205 C 
HETATM   26  O9  UNL     1       9.013  12.231  13.441  1.00  0.00    -0.356 OA
BRANCH  22  27
HETATM   27  O2  UNL     1       9.803  10.407  15.896  1.00  0.00    -0.383 OA
HETATM   28  C4  UNL     1      10.899  11.294  16.085  1.00  0.00     0.202 C 
ENDBRANCH  22  27
BRANCH  23  29
HETATM   29  O1  UNL     1      11.578   8.946  13.710  1.00  0.00    -0.385 OA
HETATM   30  C1  UNL     1      10.694   7.855  13.937  1.00  0.00     0.202 C 
ENDBRANCH  23  29
BRANCH  24  31
HETATM   31  O10 UNL     1      11.968  11.027  11.675  1.00  0.00    -0.386 OA
HETATM   32  C36 UNL     1      12.715  12.085  12.257  1.00  0.00     0.202 C 
ENDBRANCH  24  31
ENDBRANCH  20  21
ENDBRANCH   1  20
BRANCH   7  33
HETATM   33  O4  UNL     1       6.652   7.981  13.653  1.00  0.00    -0.393 OA
HETATM   34  H20 UNL     1       7.529   8.255  13.315  1.00  0.00     0.210 HD
ENDBRANCH   7  33
BRANCH   8  35
HETATM   35  O5  UNL     1       5.007   7.493  15.898  1.00  0.00    -0.395 OA
HETATM   36  H22 UNL     1       5.628   7.110  15.241  1.00  0.00     0.210 HD
ENDBRANCH   8  35
BRANCH  10  37
HETATM   37  O6  UNL     1       1.925   6.142  12.822  1.00  0.00    -0.389 OA
HETATM   38  H25 UNL     1       1.850   5.338  13.366  1.00  0.00     0.210 HD
ENDBRANCH  10  37
BRANCH  18  39
HETATM   39  O8  UNL     1       0.183   6.643  16.412  1.00  0.00    -0.395 OA
HETATM   40  H55 UNL     1      -0.361   6.056  16.965  1.00  0.00     0.210 HD
ENDBRANCH  18  39
BRANCH  16  41
HETATM   41  C22 UNL     1      -3.276   7.870  13.160  1.00  0.00     0.009 C 
HETATM   42  C23 UNL     1      -4.388   8.423  14.057  1.00  0.00     0.014 C 
BRANCH  41  43
HETATM   43  C24 UNL     1      -3.573   6.467  12.645  1.00  0.00    -0.026 C 
HETATM   44  C25 UNL     1      -4.661   5.712  12.887  1.00  0.00    -0.026 C 
BRANCH  44  45
HETATM   45  C26 UNL     1      -4.946   4.314  12.352  1.00  0.00     0.009 C 
HETATM   46  C27 UNL     1      -3.994   3.253  12.928  1.00  0.00     0.014 C 
BRANCH  45  47
HETATM   47  C28 UNL     1      -6.449   3.928  12.525  1.00  0.00     0.012 C 
HETATM   48  C29 UNL     1      -6.957   4.180  13.955  1.00  0.00     0.012 C 
BRANCH  47  49
HETATM   49  C30 UNL     1      -6.698   2.459  12.125  1.00  0.00     0.168 C 
BRANCH  49  50
HETATM   50  O7  UNL     1      -7.838   1.916  12.786  1.00  0.00    -0.400 OA
HETATM   51  H51 UNL     1      -7.562   1.650  13.679  1.00  0.00     0.209 HD
ENDBRANCH  49  50
ENDBRANCH  47  49
ENDBRANCH  45  47
ENDBRANCH  44  45
ENDBRANCH  41  43
ENDBRANCH  16  41
TORSDOF 15
ENDMDL
MODEL 7
REMARK minimizedAffinity -8.08310699
REMARK CNNscore 0.377182156
REMARK CNNaffinity 6.76456881
REMARK  15 active torsions:
REMARK  status: ('A' for Active; 'I' for Inactive)
REMARK    1  A    between atoms: O1_2  and  C2_3 
REMARK    2  A    between atoms: C3_4  and  O2_5 
REMARK    3  A    between atoms: C5_7  and  O3_8 
REMARK    4  A    between atoms: O3_8  and  C6_9 
REMARK    5  A    between atoms: C12_15  and  O4_16 
REMARK    6  A    between atoms: C13_17  and  O5_18 
REMARK    7  A    between atoms: C15_20  and  O6_21 
REMARK    8  A    between atoms: C21_27  and  C22_28 
REMARK    9  A    between atoms: C22_28  and  C24_30 
REMARK   10  A    between atoms: C25_31  and  C26_32 
REMARK   11  A    between atoms: C26_32  and  C28_34 
REMARK   12  A    between atoms: C28_34  and  C30_36 
REMARK   13  A    between atoms: C30_36  and  O7_37 
REMARK   14  A    between atoms: C32_39  and  O8_40 
REMARK   15  A    between atoms: C35_44  and  O10_45 
ROOT
HETATM    1  C6  UNL     1     -12.122  11.642  14.297  1.00  0.00     0.154 C 
HETATM    2  C7  UNL     1     -11.169  11.777  15.490  1.00  0.00     0.035 C 
HETATM    3  C8  UNL     1      -9.913  10.904  15.363  1.00  0.00     0.012 C 
HETATM    4  C9  UNL     1     -10.222   9.405  15.091  1.00  0.00    -0.029 C 
HETATM    5  C10 UNL     1     -10.905   8.833  16.356  1.00  0.00     0.016 C 
HETATM    6  C11 UNL     1     -11.106   9.362  13.799  1.00  0.00     0.054 C 
HETATM    7  C12 UNL     1     -12.404  10.171  13.917  1.00  0.00     0.154 C 
HETATM    8  C13 UNL     1     -11.241   7.957  13.156  1.00  0.00     0.128 C 
HETATM    9  C14 UNL     1     -10.563   6.786  13.871  1.00  0.00     0.071 C 
HETATM   10  C15 UNL     1      -9.208   7.065  14.560  1.00  0.00     0.071 C 
HETATM   11  C16 UNL     1      -8.934   8.599  14.710  1.00  0.00     0.029 C 
HETATM   12  C17 UNL     1      -7.673   8.862  15.557  1.00  0.00     0.009 C 
HETATM   13  C18 UNL     1      -6.430   8.192  14.926  1.00  0.00     0.010 C 
HETATM   14  C19 UNL     1      -6.617   6.679  14.682  1.00  0.00    -0.031 C 
HETATM   15  C20 UNL     1      -6.543   5.941  16.044  1.00  0.00     0.016 C 
HETATM   16  C21 UNL     1      -5.626   6.013  13.671  1.00  0.00     0.004 C 
HETATM   17  C31 UNL     1      -6.404   4.734  13.233  1.00  0.00     0.038 C 
HETATM   18  C32 UNL     1      -7.897   5.008  13.478  1.00  0.00     0.126 C 
HETATM   19  C33 UNL     1      -7.950   6.481  13.871  1.00  0.00     0.058 C 
ENDROOT
BRANCH   1  20
HETATM   20  O3  UNL     1     -13.402  12.239  14.585  1.00  0.00    -0.351 OA
BRANCH  20  21
HETATM   21  C5  UNL     1     -13.322  13.580  15.082  1.00  0.00     0.291 C 
HETATM   22  C3  UNL     1     -13.197  14.559  13.886  1.00  0.00     0.207 C 
HETATM   23  C2  UNL     1     -14.583  15.028  13.370  1.00  0.00     0.185 C 
HETATM   24  C35 UNL     1     -15.683  14.021  13.740  1.00  0.00     0.176 C 
HETATM   25  C34 UNL     1     -15.693  13.825  15.261  1.00  0.00     0.205 C 
HETATM   26  O9  UNL     1     -14.428  13.908  15.910  1.00  0.00    -0.356 OA
BRANCH  22  27
HETATM   27  O2  UNL     1     -12.467  15.754  14.257  1.00  0.00    -0.383 OA
HETATM   28  C4  UNL     1     -11.323  15.487  15.059  1.00  0.00     0.202 C 
ENDBRANCH  22  27
BRANCH  23  29
HETATM   29  O1  UNL     1     -14.540  15.167  11.929  1.00  0.00    -0.385 OA
HETATM   30  C1  UNL     1     -13.738  14.179  11.297  1.00  0.00     0.202 C 
ENDBRANCH  23  29
BRANCH  24  31
HETATM   31  O10 UNL     1     -16.997  14.484  13.386  1.00  0.00    -0.386 OA
HETATM   32  C36 UNL     1     -17.378  15.685  14.042  1.00  0.00     0.202 C 
ENDBRANCH  24  31
ENDBRANCH  20  21
ENDBRANCH   1  20
BRANCH   7  33
HETATM   33  O4  UNL     1     -13.297   9.555  14.850  1.00  0.00    -0.393 OA
HETATM   34  H20 UNL     1     -13.912  10.265  15.122  1.00  0.00     0.210 HD
ENDBRANCH   7  33
BRANCH   8  35
HETATM   35  O5  UNL     1     -12.605   7.606  12.924  1.00  0.00    -0.395 OA
HETATM   36  H22 UNL     1     -13.091   7.797  13.755  1.00  0.00     0.210 HD
ENDBRANCH   8  35
BRANCH  10  37
HETATM   37  O6  UNL     1      -9.310   6.474  15.865  1.00  0.00    -0.389 OA
HETATM   38  H25 UNL     1      -9.642   5.564  15.764  1.00  0.00     0.210 HD
ENDBRANCH  10  37
BRANCH  18  39
HETATM   39  O8  UNL     1      -8.627   4.773  12.284  1.00  0.00    -0.395 OA
HETATM   40  H55 UNL     1      -8.470   3.852  12.015  1.00  0.00     0.210 HD
ENDBRANCH  18  39
BRANCH  16  41
HETATM   41  C22 UNL     1      -4.168   5.692  14.105  1.00  0.00     0.009 C 
HETATM   42  C23 UNL     1      -3.803   6.296  15.465  1.00  0.00     0.014 C 
BRANCH  41  43
HETATM   43  C24 UNL     1      -3.194   6.086  13.001  1.00  0.00    -0.026 C 
HETATM   44  C25 UNL     1      -2.007   6.706  13.131  1.00  0.00    -0.026 C 
BRANCH  44  45
HETATM   45  C26 UNL     1      -1.040   7.080  12.014  1.00  0.00     0.009 C 
HETATM   46  C27 UNL     1      -0.977   8.597  11.767  1.00  0.00     0.014 C 
BRANCH  45  47
HETATM   47  C28 UNL     1       0.371   6.450  12.241  1.00  0.00     0.012 C 
HETATM   48  C29 UNL     1       0.784   5.511  11.096  1.00  0.00     0.012 C 
BRANCH  47  49
HETATM   49  C30 UNL     1       0.438   5.702  13.589  1.00  0.00     0.168 C 
BRANCH  49  50
HETATM   50  O7  UNL     1       1.577   6.090  14.353  1.00  0.00    -0.400 OA
HETATM   51  H51 UNL     1       2.341   5.594  14.015  1.00  0.00     0.209 HD
ENDBRANCH  49  50
ENDBRANCH  47  49
ENDBRANCH  45  47
ENDBRANCH  44  45
ENDBRANCH  41  43
ENDBRANCH  16  41
TORSDOF 15
ENDMDL
MODEL 8
REMARK minimizedAffinity -8.4679966
REMARK CNNscore 0.348661512
REMARK CNNaffinity 7.0550561
REMARK  15 active torsions:
REMARK  status: ('A' for Active; 'I' for Inactive)
REMARK    1  A    between atoms: O1_2  and  C2_3 
REMARK    2  A    between atoms: C3_4  and  O2_5 
REMARK    3  A    between atoms: C5_7  and  O3_8 
REMARK    4  A    between atoms: O3_8  and  C6_9 
REMARK    5  A    between atoms: C12_15  and  O4_16 
REMARK    6  A    between atoms: C13_17  and  O5_18 
REMARK    7  A    between atoms: C15_20  and  O6_21 
REMARK    8  A    between atoms: C21_27  and  C22_28 
REMARK    9  A    between atoms: C22_28  and  C24_30 
REMARK   10  A    between atoms: C25_31  and  C26_32 
REMARK   11  A    between atoms: C26_32  and  C28_34 
REMARK   12  A    between atoms: C28_34  and  C30_36 
REMARK   13  A    between atoms: C30_36  and  O7_37 
REMARK   14  A    between atoms: C32_39  and  O8_40 
REMARK   15  A    between atoms: C35_44  and  O10_45 
ROOT
HETATM    1  C6  UNL     1      -1.646   7.502  12.677  1.00  0.00     0.154 C 
HETATM    2  C7  UNL     1      -2.236   6.105  12.894  1.00  0.00     0.035 C 
HETATM    3  C8  UNL     1      -3.766   6.107  13.026  1.00  0.00     0.012 C 
HETATM    4  C9  UNL     1      -4.296   7.087  14.110  1.00  0.00    -0.029 C 
HETATM    5  C10 UNL     1      -3.838   6.550  15.487  1.00  0.00     0.016 C 
HETATM    6  C11 UNL     1      -3.730   8.501  13.744  1.00  0.00     0.054 C 
HETATM    7  C12 UNL     1      -2.199   8.550  13.671  1.00  0.00     0.154 C 
HETATM    8  C13 UNL     1      -4.410   9.680  14.489  1.00  0.00     0.128 C 
HETATM    9  C14 UNL     1      -5.487   9.336  15.519  1.00  0.00     0.071 C 
HETATM   10  C15 UNL     1      -6.413   8.139  15.205  1.00  0.00     0.071 C 
HETATM   11  C16 UNL     1      -5.851   7.257  14.038  1.00  0.00     0.029 C 
HETATM   12  C17 UNL     1      -6.684   5.973  13.857  1.00  0.00     0.009 C 
HETATM   13  C18 UNL     1      -8.165   6.308  13.562  1.00  0.00     0.010 C 
HETATM   14  C19 UNL     1      -8.802   7.225  14.628  1.00  0.00    -0.031 C 
HETATM   15  C20 UNL     1      -9.062   6.392  15.911  1.00  0.00     0.016 C 
HETATM   16  C21 UNL     1     -10.115   7.965  14.210  1.00  0.00     0.004 C 
HETATM   17  C31 UNL     1     -10.155   9.164  15.205  1.00  0.00     0.038 C 
HETATM   18  C32 UNL     1      -8.711   9.411  15.674  1.00  0.00     0.126 C 
HETATM   19  C33 UNL     1      -7.870   8.479  14.807  1.00  0.00     0.058 C 
ENDROOT
BRANCH   1  20
HETATM   20  O3  UNL     1      -0.215   7.495  12.850  1.00  0.00    -0.351 OA
BRANCH  20  21
HETATM   21  C5  UNL     1       0.406   6.249  12.515  1.00  0.00     0.291 C 
HETATM   22  C3  UNL     1       0.331   6.040  10.980  1.00  0.00     0.207 C 
HETATM   23  C2  UNL     1       1.560   6.640  10.250  1.00  0.00     0.185 C 
HETATM   24  C35 UNL     1       2.216   7.750  11.086  1.00  0.00     0.176 C 
HETATM   25  C34 UNL     1       2.607   7.181  12.456  1.00  0.00     0.205 C 
HETATM   26  O9  UNL     1       1.744   6.178  12.985  1.00  0.00    -0.356 OA
BRANCH  22  27
HETATM   27  O2  UNL     1       0.294   4.632  10.642  1.00  0.00    -0.383 OA
HETATM   28  C4  UNL     1      -0.092   3.802  11.731  1.00  0.00     0.202 C 
ENDBRANCH  22  27
BRANCH  23  29
HETATM   29  O1  UNL     1       1.142   7.195   8.979  1.00  0.00    -0.385 OA
HETATM   30  C1  UNL     1       0.190   8.242   9.113  1.00  0.00     0.202 C 
ENDBRANCH  23  29
BRANCH  24  31
HETATM   31  O10 UNL     1       3.430   8.241  10.494  1.00  0.00    -0.386 OA
HETATM   32  C36 UNL     1       4.417   8.623  11.442  1.00  0.00     0.202 C 
ENDBRANCH  24  31
ENDBRANCH  20  21
ENDBRANCH   1  20
BRANCH   7  33
HETATM   33  O4  UNL     1      -1.629   8.383  14.972  1.00  0.00    -0.393 OA
HETATM   34  H20 UNL     1      -0.709   8.089  14.812  1.00  0.00     0.210 HD
ENDBRANCH   7  33
BRANCH   8  35
HETATM   35  O5  UNL     1      -3.454  10.535  15.115  1.00  0.00    -0.395 OA
HETATM   36  H22 UNL     1      -2.835   9.955  15.608  1.00  0.00     0.210 HD
ENDBRANCH   8  35
BRANCH  10  37
HETATM   37  O6  UNL     1      -6.456   7.357  16.409  1.00  0.00    -0.389 OA
HETATM   38  H25 UNL     1      -6.646   7.953  17.155  1.00  0.00     0.210 HD
ENDBRANCH  10  37
BRANCH  18  39
HETATM   39  O8  UNL     1      -8.362  10.767  15.450  1.00  0.00    -0.395 OA
HETATM   40  H55 UNL     1      -8.997  11.322  15.935  1.00  0.00     0.210 HD
ENDBRANCH  18  39
BRANCH  16  41
HETATM   41  C22 UNL     1     -11.465   7.195  14.165  1.00  0.00     0.009 C 
HETATM   42  C23 UNL     1     -11.673   6.430  12.854  1.00  0.00     0.014 C 
BRANCH  41  43
HETATM   43  C24 UNL     1     -12.618   8.137  14.491  1.00  0.00    -0.026 C 
HETATM   44  C25 UNL     1     -13.402   8.810  13.630  1.00  0.00    -0.026 C 
BRANCH  44  45
HETATM   45  C26 UNL     1     -14.559   9.739  13.976  1.00  0.00     0.009 C 
HETATM   46  C27 UNL     1     -14.227  11.219  13.725  1.00  0.00     0.014 C 
BRANCH  45  47
HETATM   47  C28 UNL     1     -15.882   9.294  13.276  1.00  0.00     0.012 C 
HETATM   48  C29 UNL     1     -16.255   7.838  13.601  1.00  0.00     0.012 C 
BRANCH  47  49
HETATM   49  C30 UNL     1     -15.797   9.490  11.747  1.00  0.00     0.168 C 
BRANCH  49  50
HETATM   50  O7  UNL     1     -16.035   8.275  11.044  1.00  0.00    -0.400 OA
HETATM   51  H51 UNL     1     -15.208   7.765  11.046  1.00  0.00     0.209 HD
ENDBRANCH  49  50
ENDBRANCH  47  49
ENDBRANCH  45  47
ENDBRANCH  44  45
ENDBRANCH  41  43
ENDBRANCH  16  41
TORSDOF 15
ENDMDL
MODEL 9
REMARK minimizedAffinity -8.56828308
REMARK CNNscore 0.347667754
REMARK CNNaffinity 7.09168768
REMARK  15 active torsions:
REMARK  status: ('A' for Active; 'I' for Inactive)
REMARK    1  A    between atoms: O1_2  and  C2_3 
REMARK    2  A    between atoms: C3_4  and  O2_5 
REMARK    3  A    between atoms: C5_7  and  O3_8 
REMARK    4  A    between atoms: O3_8  and  C6_9 
REMARK    5  A    between atoms: C12_15  and  O4_16 
REMARK    6  A    between atoms: C13_17  and  O5_18 
REMARK    7  A    between atoms: C15_20  and  O6_21 
REMARK    8  A    between atoms: C21_27  and  C22_28 
REMARK    9  A    between atoms: C22_28  and  C24_30 
REMARK   10  A    between atoms: C25_31  and  C26_32 
REMARK   11  A    between atoms: C26_32  and  C28_34 
REMARK   12  A    between atoms: C28_34  and  C30_36 
REMARK   13  A    between atoms: C30_36  and  O7_37 
REMARK   14  A    between atoms: C32_39  and  O8_40 
REMARK   15  A    between atoms: C35_44  and  O10_45 
ROOT
HETATM    1  C6  UNL     1     -12.134  11.586  14.282  1.00  0.00     0.154 C 
HETATM    2  C7  UNL     1     -11.206  11.719  15.494  1.00  0.00     0.035 C 
HETATM    3  C8  UNL     1      -9.942  10.854  15.388  1.00  0.00     0.012 C 
HETATM    4  C9  UNL     1     -10.236   9.355  15.100  1.00  0.00    -0.029 C 
HETATM    5  C10 UNL     1     -10.942   8.771  16.348  1.00  0.00     0.016 C 
HETATM    6  C11 UNL     1     -11.094   9.315  13.791  1.00  0.00     0.054 C 
HETATM    7  C12 UNL     1     -12.399  10.115  13.887  1.00  0.00     0.154 C 
HETATM    8  C13 UNL     1     -11.206   7.913  13.136  1.00  0.00     0.128 C 
HETATM    9  C14 UNL     1     -10.536   6.742  13.858  1.00  0.00     0.071 C 
HETATM   10  C15 UNL     1      -9.197   7.024  14.577  1.00  0.00     0.071 C 
HETATM   11  C16 UNL     1      -8.935   8.560  14.741  1.00  0.00     0.029 C 
HETATM   12  C17 UNL     1      -7.694   8.825  15.615  1.00  0.00     0.009 C 
HETATM   13  C18 UNL     1      -6.434   8.165  15.007  1.00  0.00     0.010 C 
HETATM   14  C19 UNL     1      -6.607   6.654  14.749  1.00  0.00    -0.031 C 
HETATM   15  C20 UNL     1      -6.557   5.907  16.108  1.00  0.00     0.016 C 
HETATM   16  C21 UNL     1      -5.592   5.999  13.755  1.00  0.00     0.004 C 
HETATM   17  C31 UNL     1      -6.352   4.719  13.293  1.00  0.00     0.038 C 
HETATM   18  C32 UNL     1      -7.852   4.982  13.509  1.00  0.00     0.126 C 
HETATM   19  C33 UNL     1      -7.922   6.452  13.910  1.00  0.00     0.058 C 
ENDROOT
BRANCH   1  20
HETATM   20  O3  UNL     1     -13.423  12.173  14.547  1.00  0.00    -0.351 OA
BRANCH  20  21
HETATM   21  C5  UNL     1     -13.359  13.489  15.108  1.00  0.00     0.291 C 
HETATM   22  C3  UNL     1     -13.034  14.507  13.984  1.00  0.00     0.207 C 
HETATM   23  C2  UNL     1     -14.317  15.056  13.307  1.00  0.00     0.185 C 
HETATM   24  C35 UNL     1     -15.496  14.085  13.480  1.00  0.00     0.176 C 
HETATM   25  C34 UNL     1     -15.722  13.831  14.976  1.00  0.00     0.205 C 
HETATM   26  O9  UNL     1     -14.555  13.834  15.793  1.00  0.00    -0.356 OA
BRANCH  22  27
HETATM   27  O2  UNL     1     -12.317  15.653  14.504  1.00  0.00    -0.383 OA
HETATM   28  C4  UNL     1     -12.727  16.884  13.922  1.00  0.00     0.202 C 
ENDBRANCH  22  27
BRANCH  23  29
HETATM   29  O1  UNL     1     -14.072  15.249  11.893  1.00  0.00    -0.385 OA
HETATM   30  C1  UNL     1     -13.496  14.110  11.266  1.00  0.00     0.202 C 
ENDBRANCH  23  29
BRANCH  24  31
HETATM   31  O10 UNL     1     -16.729  14.619  12.972  1.00  0.00    -0.386 OA
HETATM   32  C36 UNL     1     -17.173  14.001  11.772  1.00  0.00     0.202 C 
ENDBRANCH  24  31
ENDBRANCH  20  21
ENDBRANCH   1  20
BRANCH   7  33
HETATM   33  O4  UNL     1     -13.306   9.488  14.797  1.00  0.00    -0.393 OA
HETATM   34  H20 UNL     1     -13.932  10.193  15.061  1.00  0.00     0.210 HD
ENDBRANCH   7  33
BRANCH   8  35
HETATM   35  O5  UNL     1     -12.563   7.555  12.874  1.00  0.00    -0.395 OA
HETATM   36  H22 UNL     1     -13.067   7.738  13.697  1.00  0.00     0.210 HD
ENDBRANCH   8  35
BRANCH  10  37
HETATM   37  O6  UNL     1      -9.322   6.424  15.875  1.00  0.00    -0.389 OA
HETATM   38  H25 UNL     1      -9.646   5.513  15.763  1.00  0.00     0.210 HD
ENDBRANCH  10  37
BRANCH  18  39
HETATM   39  O8  UNL     1      -8.556   4.750  12.299  1.00  0.00    -0.395 OA
HETATM   40  H55 UNL     1      -8.388   3.831  12.028  1.00  0.00     0.210 HD
ENDBRANCH  18  39
BRANCH  16  41
HETATM   41  C22 UNL     1      -4.141   5.684  14.216  1.00  0.00     0.009 C 
HETATM   42  C23 UNL     1      -3.514   6.820  15.032  1.00  0.00     0.014 C 
BRANCH  41  43
HETATM   43  C24 UNL     1      -3.288   5.273  13.022  1.00  0.00    -0.026 C 
HETATM   44  C25 UNL     1      -3.255   4.078  12.405  1.00  0.00    -0.026 C 
BRANCH  44  45
HETATM   45  C26 UNL     1      -2.403   3.690  11.202  1.00  0.00     0.009 C 
HETATM   46  C27 UNL     1      -0.934   4.119  11.352  1.00  0.00     0.014 C 
BRANCH  45  47
HETATM   47  C28 UNL     1      -2.553   2.173  10.858  1.00  0.00     0.012 C 
HETATM   48  C29 UNL     1      -3.519   1.450  11.810  1.00  0.00     0.012 C 
BRANCH  47  49
HETATM   49  C30 UNL     1      -1.182   1.464  10.854  1.00  0.00     0.168 C 
BRANCH  49  50
HETATM   50  O7  UNL     1      -0.869   0.926   9.573  1.00  0.00    -0.400 OA
HETATM   51  H51 UNL     1      -1.333   0.076   9.488  1.00  0.00     0.209 HD
ENDBRANCH  49  50
ENDBRANCH  47  49
ENDBRANCH  45  47
ENDBRANCH  44  45
ENDBRANCH  41  43
ENDBRANCH  16  41
TORSDOF 15
ENDMDL
