MODEL 1
REMARK minimizedAffinity -7.72786856
REMARK CNNscore 0.41232875
REMARK CNNaffinity 6.51425123
REMARK  13 active torsions:
REMARK  status: ('A' for Active; 'I' for Inactive)
REMARK    1  A    between atoms: C2_2  and  O2_4 
REMARK    2  A    between atoms: O2_4  and  C3_5 
REMARK    3  A    between atoms: C3_5  and  C6_8 
REMARK    4  A    between atoms: C7_9  and  C8_10 
REMARK    5  A    between atoms: C8_10  and  C9_11 
REMARK    6  A    between atoms: C9_11  and  C11_13 
REMARK    7  A    between atoms: C20_22  and  O3_23 
REMARK    8  A    between atoms: O3_23  and  C21_24 
REMARK    9  A    between atoms: C23_27  and  O5_28 
REMARK   10  A    between atoms: C24_29  and  O6_30 
REMARK   11  A    between atoms: C25_31  and  O7_32 
REMARK   12  A    between atoms: C28_35  and  C29_36 
REMARK   13  A    between atoms: C29_36  and  O8_37 
ROOT
HETATM    1  C11 UNL     1     -13.365  45.255 -26.645  1.00  0.00    -0.002 C 
HETATM    2  C12 UNL     1     -13.000  43.879 -27.219  1.00  0.00     0.006 C 
HETATM    3  C13 UNL     1     -11.534  44.027 -27.578  1.00  0.00     0.006 C 
HETATM    4  C14 UNL     1     -11.384  45.468 -28.103  1.00  0.00    -0.001 C 
HETATM    5  C15 UNL     1     -10.060  46.154 -27.678  1.00  0.00    -0.001 C 
HETATM    6  C16 UNL     1      -8.828  45.308 -28.022  1.00  0.00     0.033 C 
HETATM    7  C17 UNL     1      -7.597  46.079 -27.681  1.00  0.00    -0.023 C 
HETATM    8  C18 UNL     1      -7.530  46.864 -26.592  1.00  0.00    -0.070 C 
HETATM    9  C19 UNL     1      -6.340  47.783 -26.403  1.00  0.00     0.066 C 
HETATM   10  C20 UNL     1      -6.020  48.122 -24.941  1.00  0.00     0.128 C 
HETATM   11  C26 UNL     1      -7.266  48.615 -24.185  1.00  0.00     0.033 C 
HETATM   12  C27 UNL     1      -8.604  48.288 -24.862  1.00  0.00     0.019 C 
HETATM   13  C28 UNL     1      -8.661  46.901 -25.552  1.00  0.00     0.008 C 
HETATM   14  C30 UNL     1     -10.093  46.569 -26.185  1.00  0.00     0.005 C 
HETATM   15  C31 UNL     1     -11.222  47.598 -25.952  1.00  0.00     0.007 C 
HETATM   16  C32 UNL     1     -12.307  47.611 -27.034  1.00  0.00     0.010 C 
HETATM   17  C33 UNL     1     -12.679  46.242 -27.645  1.00  0.00    -0.036 C 
HETATM   18  C34 UNL     1     -13.540  46.524 -28.894  1.00  0.00     0.016 C 
ENDROOT
BRANCH  10  19
HETATM   19  O3  UNL     1      -5.035  49.156 -24.804  1.00  0.00    -0.353 OA
BRANCH  19  20
HETATM   20  C21 UNL     1      -4.873  49.679 -23.486  1.00  0.00     0.291 C 
HETATM   21  O4  UNL     1      -3.805  49.061 -22.771  1.00  0.00    -0.356 OA
HETATM   22  C22 UNL     1      -2.527  49.315 -23.360  1.00  0.00     0.205 C 
HETATM   23  C23 UNL     1      -2.193  50.807 -23.344  1.00  0.00     0.173 C 
HETATM   24  C24 UNL     1      -3.283  51.605 -24.060  1.00  0.00     0.182 C 
HETATM   25  C25 UNL     1      -4.677  51.216 -23.553  1.00  0.00     0.204 C 
BRANCH  23  26
HETATM   26  O5  UNL     1      -0.933  51.041 -23.975  1.00  0.00    -0.391 OA
HETATM   27  H35 UNL     1      -1.137  51.094 -24.934  1.00  0.00     0.210 HD
ENDBRANCH  23  26
BRANCH  24  28
HETATM   28  O6  UNL     1      -3.161  51.382 -25.478  1.00  0.00    -0.390 OA
HETATM   29  H37 UNL     1      -4.030  51.641 -25.848  1.00  0.00     0.210 HD
ENDBRANCH  24  28
BRANCH  25  30
HETATM   30  O7  UNL     1      -5.651  51.867 -24.385  1.00  0.00    -0.388 OA
HETATM   31  H39 UNL     1      -6.441  51.296 -24.423  1.00  0.00     0.210 HD
ENDBRANCH  25  30
ENDBRANCH  19  20
ENDBRANCH  10  19
BRANCH  13  32
HETATM   32  C29 UNL     1      -8.369  45.782 -24.493  1.00  0.00     0.178 C 
BRANCH  32  33
HETATM   33  O8  UNL     1      -9.383  44.781 -24.513  1.00  0.00    -0.400 OA
HETATM   34  H46 UNL     1      -9.101  44.077 -23.903  1.00  0.00     0.209 HD
ENDBRANCH  32  33
ENDBRANCH  13  32
BRANCH   1  35
HETATM   35  C9  UNL     1     -14.872  45.358 -26.247  1.00  0.00    -0.011 C 
HETATM   36  C10 UNL     1     -15.887  45.187 -27.388  1.00  0.00     0.010 C 
BRANCH  35  37
HETATM   37  C8  UNL     1     -15.175  46.618 -25.407  1.00  0.00     0.031 C 
BRANCH  37  38
HETATM   38  C7  UNL     1     -16.463  46.519 -24.633  1.00  0.00    -0.027 C 
HETATM   39  C6  UNL     1     -16.873  45.406 -24.000  1.00  0.00     0.007 C 
BRANCH  39  40
HETATM   40  C3  UNL     1     -18.169  45.213 -23.235  1.00  0.00     0.081 C 
HETATM   41  C4  UNL     1     -18.656  46.400 -22.387  1.00  0.00     0.051 C 
HETATM   42  C5  UNL     1     -17.973  44.014 -22.290  1.00  0.00     0.051 C 
BRANCH  40  43
HETATM   43  O2  UNL     1     -19.205  44.785 -24.158  1.00  0.00    -0.307 OA
BRANCH  43  44
HETATM   44  C2  UNL     1     -19.559  45.580 -25.201  1.00  0.00     0.255 C 
HETATM   45  C1  UNL     1     -19.450  44.810 -26.482  1.00  0.00     0.126 C 
HETATM   46  O1  UNL     1     -19.941  46.740 -25.140  1.00  0.00    -0.266 OA
ENDBRANCH  43  44
ENDBRANCH  40  43
ENDBRANCH  39  40
ENDBRANCH  37  38
ENDBRANCH  35  37
ENDBRANCH   1  35
TORSDOF 13
ENDMDL
MODEL 2
REMARK minimizedAffinity -9.25671577
REMARK CNNscore 0.370103389
REMARK CNNaffinity 6.78296089
REMARK  13 active torsions:
REMARK  status: ('A' for Active; 'I' for Inactive)
REMARK    1  A    between atoms: C2_2  and  O2_4 
REMARK    2  A    between atoms: O2_4  and  C3_5 
REMARK    3  A    between atoms: C3_5  and  C6_8 
REMARK    4  A    between atoms: C7_9  and  C8_10 
REMARK    5  A    between atoms: C8_10  and  C9_11 
REMARK    6  A    between atoms: C9_11  and  C11_13 
REMARK    7  A    between atoms: C20_22  and  O3_23 
REMARK    8  A    between atoms: O3_23  and  C21_24 
REMARK    9  A    between atoms: C23_27  and  O5_28 
REMARK   10  A    between atoms: C24_29  and  O6_30 
REMARK   11  A    between atoms: C25_31  and  O7_32 
REMARK   12  A    between atoms: C28_35  and  C29_36 
REMARK   13  A    between atoms: C29_36  and  O8_37 
ROOT
HETATM    1  C11 UNL     1      -0.696  50.740 -20.329  1.00  0.00    -0.002 C 
HETATM    2  C12 UNL     1       0.164  49.471 -20.254  1.00  0.00     0.006 C 
HETATM    3  C13 UNL     1      -0.833  48.356 -20.504  1.00  0.00     0.006 C 
HETATM    4  C14 UNL     1      -2.131  48.801 -19.801  1.00  0.00    -0.001 C 
HETATM    5  C15 UNL     1      -3.422  48.436 -20.577  1.00  0.00    -0.001 C 
HETATM    6  C16 UNL     1      -3.476  46.949 -20.951  1.00  0.00     0.033 C 
HETATM    7  C17 UNL     1      -4.789  46.657 -21.598  1.00  0.00    -0.023 C 
HETATM    8  C18 UNL     1      -5.380  47.532 -22.430  1.00  0.00    -0.070 C 
HETATM    9  C19 UNL     1      -6.801  47.281 -22.895  1.00  0.00     0.066 C 
HETATM   10  C20 UNL     1      -7.147  47.902 -24.254  1.00  0.00     0.128 C 
HETATM   11  C26 UNL     1      -6.766  49.391 -24.314  1.00  0.00     0.033 C 
HETATM   12  C27 UNL     1      -5.778  49.850 -23.232  1.00  0.00     0.019 C 
HETATM   13  C28 UNL     1      -4.674  48.819 -22.884  1.00  0.00     0.008 C 
HETATM   14  C30 UNL     1      -3.623  49.360 -21.804  1.00  0.00     0.005 C 
HETATM   15  C31 UNL     1      -3.786  50.824 -21.336  1.00  0.00     0.007 C 
HETATM   16  C32 UNL     1      -3.251  51.106 -19.928  1.00  0.00     0.010 C 
HETATM   17  C33 UNL     1      -1.973  50.344 -19.517  1.00  0.00    -0.036 C 
HETATM   18  C34 UNL     1      -1.799  50.540 -17.996  1.00  0.00     0.016 C 
ENDROOT
BRANCH  10  19
HETATM   19  O3  UNL     1      -8.547  47.836 -24.565  1.00  0.00    -0.353 OA
BRANCH  19  20
HETATM   20  C21 UNL     1      -8.921  46.828 -25.502  1.00  0.00     0.291 C 
HETATM   21  O4  UNL     1     -10.244  46.339 -25.294  1.00  0.00    -0.356 OA
HETATM   22  C22 UNL     1     -11.243  47.340 -25.507  1.00  0.00     0.205 C 
HETATM   23  C23 UNL     1     -11.235  47.835 -26.954  1.00  0.00     0.173 C 
HETATM   24  C24 UNL     1      -9.851  48.368 -27.328  1.00  0.00     0.182 C 
HETATM   25  C25 UNL     1      -8.752  47.368 -26.947  1.00  0.00     0.204 C 
BRANCH  23  26
HETATM   26  O5  UNL     1     -12.210  48.864 -27.132  1.00  0.00    -0.391 OA
HETATM   27  H35 UNL     1     -11.762  49.688 -26.844  1.00  0.00     0.210 HD
ENDBRANCH  23  26
BRANCH  24  28
HETATM   28  O6  UNL     1      -9.655  49.636 -26.675  1.00  0.00    -0.390 OA
HETATM   29  H37 UNL     1      -8.685  49.775 -26.684  1.00  0.00     0.210 HD
ENDBRANCH  24  28
BRANCH  25  30
HETATM   30  O7  UNL     1      -7.481  48.003 -27.161  1.00  0.00    -0.388 OA
HETATM   31  H39 UNL     1      -6.852  47.637 -26.510  1.00  0.00     0.210 HD
ENDBRANCH  25  30
ENDBRANCH  19  20
ENDBRANCH  10  19
BRANCH  13  32
HETATM   32  C29 UNL     1      -3.853  48.480 -24.176  1.00  0.00     0.178 C 
BRANCH  32  33
HETATM   33  O8  UNL     1      -2.692  49.300 -24.276  1.00  0.00    -0.400 OA
HETATM   34  H46 UNL     1      -2.184  48.984 -25.043  1.00  0.00     0.209 HD
ENDBRANCH  32  33
ENDBRANCH  13  32
BRANCH   1  35
HETATM   35  C9  UNL     1       0.124  52.038 -20.045  1.00  0.00    -0.011 C 
HETATM   36  C10 UNL     1      -0.648  53.200 -19.401  1.00  0.00     0.010 C 
BRANCH  35  37
HETATM   37  C8  UNL     1       0.928  52.509 -21.277  1.00  0.00     0.031 C 
BRANCH  37  38
HETATM   38  C7  UNL     1       0.104  52.570 -22.536  1.00  0.00    -0.027 C 
HETATM   39  C6  UNL     1       0.624  52.507 -23.775  1.00  0.00     0.007 C 
BRANCH  39  40
HETATM   40  C3  UNL     1      -0.129  52.600 -25.088  1.00  0.00     0.081 C 
HETATM   41  C4  UNL     1       0.108  53.861 -25.936  1.00  0.00     0.051 C 
HETATM   42  C5  UNL     1      -1.633  52.532 -24.765  1.00  0.00     0.051 C 
BRANCH  40  43
HETATM   43  O2  UNL     1       0.130  51.403 -25.869  1.00  0.00    -0.307 OA
BRANCH  43  44
HETATM   44  C2  UNL     1       0.871  51.480 -27.006  1.00  0.00     0.255 C 
HETATM   45  C1  UNL     1       2.329  51.434 -26.661  1.00  0.00     0.126 C 
HETATM   46  O1  UNL     1       0.450  51.547 -28.151  1.00  0.00    -0.266 OA
ENDBRANCH  43  44
ENDBRANCH  40  43
ENDBRANCH  39  40
ENDBRANCH  37  38
ENDBRANCH  35  37
ENDBRANCH   1  35
TORSDOF 13
ENDMDL
MODEL 3
REMARK minimizedAffinity -7.35397911
REMARK CNNscore 0.361574322
REMARK CNNaffinity 6.29216623
REMARK  13 active torsions:
REMARK  status: ('A' for Active; 'I' for Inactive)
REMARK    1  A    between atoms: C2_2  and  O2_4 
REMARK    2  A    between atoms: O2_4  and  C3_5 
REMARK    3  A    between atoms: C3_5  and  C6_8 
REMARK    4  A    between atoms: C7_9  and  C8_10 
REMARK    5  A    between atoms: C8_10  and  C9_11 
REMARK    6  A    between atoms: C9_11  and  C11_13 
REMARK    7  A    between atoms: C20_22  and  O3_23 
REMARK    8  A    between atoms: O3_23  and  C21_24 
REMARK    9  A    between atoms: C23_27  and  O5_28 
REMARK   10  A    between atoms: C24_29  and  O6_30 
REMARK   11  A    between atoms: C25_31  and  O7_32 
REMARK   12  A    between atoms: C28_35  and  C29_36 
REMARK   13  A    between atoms: C29_36  and  O8_37 
ROOT
HETATM    1  C11 UNL     1      -7.701  47.367 -24.867  1.00  0.00    -0.002 C 
HETATM    2  C12 UNL     1      -7.187  46.947 -26.251  1.00  0.00     0.006 C 
HETATM    3  C13 UNL     1      -8.318  46.101 -26.803  1.00  0.00     0.006 C 
HETATM    4  C14 UNL     1      -8.874  45.321 -25.596  1.00  0.00    -0.001 C 
HETATM    5  C15 UNL     1     -10.415  45.158 -25.611  1.00  0.00    -0.001 C 
HETATM    6  C16 UNL     1     -10.927  44.573 -26.934  1.00  0.00     0.033 C 
HETATM    7  C17 UNL     1     -12.399  44.350 -26.830  1.00  0.00    -0.023 C 
HETATM    8  C18 UNL     1     -13.202  45.206 -26.174  1.00  0.00    -0.070 C 
HETATM    9  C19 UNL     1     -14.649  44.830 -25.920  1.00  0.00     0.066 C 
HETATM   10  C20 UNL     1     -15.603  46.023 -25.779  1.00  0.00     0.128 C 
HETATM   11  C26 UNL     1     -15.079  47.054 -24.765  1.00  0.00     0.033 C 
HETATM   12  C27 UNL     1     -13.588  46.926 -24.423  1.00  0.00     0.019 C 
HETATM   13  C28 UNL     1     -12.680  46.540 -25.619  1.00  0.00     0.008 C 
HETATM   14  C30 UNL     1     -11.126  46.484 -25.239  1.00  0.00     0.005 C 
HETATM   15  C31 UNL     1     -10.737  46.901 -23.802  1.00  0.00     0.007 C 
HETATM   16  C32 UNL     1      -9.450  46.256 -23.278  1.00  0.00     0.010 C 
HETATM   17  C33 UNL     1      -8.321  46.044 -24.309  1.00  0.00    -0.036 C 
HETATM   18  C34 UNL     1      -7.273  45.123 -23.650  1.00  0.00     0.016 C 
ENDROOT
BRANCH  10  19
HETATM   19  O3  UNL     1     -16.912  45.648 -25.326  1.00  0.00    -0.353 OA
BRANCH  19  20
HETATM   20  C21 UNL     1     -17.424  46.407 -24.232  1.00  0.00     0.291 C 
HETATM   21  O4  UNL     1     -18.681  47.016 -24.518  1.00  0.00    -0.356 OA
HETATM   22  C22 UNL     1     -19.721  46.060 -24.739  1.00  0.00     0.205 C 
HETATM   23  C23 UNL     1     -19.975  45.214 -23.491  1.00  0.00     0.173 C 
HETATM   24  C24 UNL     1     -18.688  44.517 -23.048  1.00  0.00     0.182 C 
HETATM   25  C25 UNL     1     -17.520  45.508 -22.971  1.00  0.00     0.204 C 
BRANCH  23  26
HETATM   26  O5  UNL     1     -20.985  44.239 -23.748  1.00  0.00    -0.391 OA
HETATM   27  H35 UNL     1     -20.510  43.487 -24.165  1.00  0.00     0.210 HD
ENDBRANCH  23  26
BRANCH  24  28
HETATM   28  O6  UNL     1     -18.405  43.446 -23.968  1.00  0.00    -0.390 OA
HETATM   29  H37 UNL     1     -17.455  43.247 -23.838  1.00  0.00     0.210 HD
ENDBRANCH  24  28
BRANCH  25  30
HETATM   30  O7  UNL     1     -16.318  44.760 -22.725  1.00  0.00    -0.388 OA
HETATM   31  H39 UNL     1     -15.578  45.238 -23.146  1.00  0.00     0.210 HD
ENDBRANCH  25  30
ENDBRANCH  19  20
ENDBRANCH  10  19
BRANCH  13  32
HETATM   32  C29 UNL     1     -12.826  47.615 -26.751  1.00  0.00     0.178 C 
BRANCH  32  33
HETATM   33  O8  UNL     1     -11.837  48.632 -26.623  1.00  0.00    -0.400 OA
HETATM   34  H46 UNL     1     -11.924  49.214 -27.397  1.00  0.00     0.209 HD
ENDBRANCH  32  33
ENDBRANCH  13  32
BRANCH   1  35
HETATM   35  C9  UNL     1      -6.661  48.220 -24.074  1.00  0.00    -0.011 C 
HETATM   36  C10 UNL     1      -7.173  49.548 -23.496  1.00  0.00     0.010 C 
BRANCH  35  37
HETATM   37  C8  UNL     1      -5.342  48.415 -24.853  1.00  0.00     0.031 C 
BRANCH  37  38
HETATM   38  C7  UNL     1      -4.623  49.688 -24.492  1.00  0.00    -0.027 C 
HETATM   39  C6  UNL     1      -3.425  50.039 -24.993  1.00  0.00     0.007 C 
BRANCH  39  40
HETATM   40  C3  UNL     1      -2.620  51.279 -24.654  1.00  0.00     0.081 C 
HETATM   41  C4  UNL     1      -3.143  52.152 -23.501  1.00  0.00     0.051 C 
HETATM   42  C5  UNL     1      -2.569  52.157 -25.917  1.00  0.00     0.051 C 
BRANCH  40  43
HETATM   43  O2  UNL     1      -1.238  50.898 -24.419  1.00  0.00    -0.307 OA
BRANCH  43  44
HETATM   44  C2  UNL     1      -0.240  51.798 -24.621  1.00  0.00     0.255 C 
HETATM   45  C1  UNL     1       0.157  52.412 -23.313  1.00  0.00     0.126 C 
HETATM   46  O1  UNL     1       0.296  52.069 -25.685  1.00  0.00    -0.266 OA
ENDBRANCH  43  44
ENDBRANCH  40  43
ENDBRANCH  39  40
ENDBRANCH  37  38
ENDBRANCH  35  37
ENDBRANCH   1  35
TORSDOF 13
ENDMDL
MODEL 4
REMARK minimizedAffinity -8.43371105
REMARK CNNscore 0.311364502
REMARK CNNaffinity 6.64574003
REMARK  13 active torsions:
REMARK  status: ('A' for Active; 'I' for Inactive)
REMARK    1  A    between atoms: C2_2  and  O2_4 
REMARK    2  A    between atoms: O2_4  and  C3_5 
REMARK    3  A    between atoms: C3_5  and  C6_8 
REMARK    4  A    between atoms: C7_9  and  C8_10 
REMARK    5  A    between atoms: C8_10  and  C9_11 
REMARK    6  A    between atoms: C9_11  and  C11_13 
REMARK    7  A    between atoms: C20_22  and  O3_23 
REMARK    8  A    between atoms: O3_23  and  C21_24 
REMARK    9  A    between atoms: C23_27  and  O5_28 
REMARK   10  A    between atoms: C24_29  and  O6_30 
REMARK   11  A    between atoms: C25_31  and  O7_32 
REMARK   12  A    between atoms: C28_35  and  C29_36 
REMARK   13  A    between atoms: C29_36  and  O8_37 
ROOT
HETATM    1  C11 UNL     1      -7.623  47.149 -20.787  1.00  0.00    -0.002 C 
HETATM    2  C12 UNL     1      -6.990  47.189 -19.389  1.00  0.00     0.006 C 
HETATM    3  C13 UNL     1      -5.553  47.587 -19.666  1.00  0.00     0.006 C 
HETATM    4  C14 UNL     1      -5.177  46.876 -20.981  1.00  0.00    -0.001 C 
HETATM    5  C15 UNL     1      -4.278  47.724 -21.917  1.00  0.00    -0.001 C 
HETATM    6  C16 UNL     1      -3.032  48.260 -21.200  1.00  0.00     0.033 C 
HETATM    7  C17 UNL     1      -2.170  48.972 -22.188  1.00  0.00    -0.023 C 
HETATM    8  C18 UNL     1      -2.692  49.721 -23.176  1.00  0.00    -0.070 C 
HETATM    9  C19 UNL     1      -1.788  50.250 -24.271  1.00  0.00     0.066 C 
HETATM   10  C20 UNL     1      -2.279  51.543 -24.935  1.00  0.00     0.128 C 
HETATM   11  C26 UNL     1      -3.745  51.429 -25.389  1.00  0.00     0.033 C 
HETATM   12  C27 UNL     1      -4.531  50.276 -24.751  1.00  0.00     0.019 C 
HETATM   13  C28 UNL     1      -4.198  50.011 -23.260  1.00  0.00     0.008 C 
HETATM   14  C30 UNL     1      -5.088  48.849 -22.611  1.00  0.00     0.005 C 
HETATM   15  C31 UNL     1      -6.191  48.228 -23.498  1.00  0.00     0.007 C 
HETATM   16  C32 UNL     1      -6.557  46.784 -23.143  1.00  0.00     0.010 C 
HETATM   17  C33 UNL     1      -6.534  46.421 -21.642  1.00  0.00    -0.036 C 
HETATM   18  C34 UNL     1      -6.626  44.884 -21.546  1.00  0.00     0.016 C 
ENDROOT
BRANCH  10  19
HETATM   19  O3  UNL     1      -1.526  51.899 -26.104  1.00  0.00    -0.353 OA
BRANCH  19  20
HETATM   20  C21 UNL     1      -0.609  52.979 -25.938  1.00  0.00     0.291 C 
HETATM   21  O4  UNL     1       0.558  52.609 -25.207  1.00  0.00    -0.356 OA
HETATM   22  C22 UNL     1       1.352  51.636 -25.890  1.00  0.00     0.205 C 
HETATM   23  C23 UNL     1       1.882  52.181 -27.217  1.00  0.00     0.173 C 
HETATM   24  C24 UNL     1       0.725  52.647 -28.102  1.00  0.00     0.182 C 
HETATM   25  C25 UNL     1      -0.231  53.562 -27.325  1.00  0.00     0.204 C 
BRANCH  23  26
HETATM   26  O5  UNL     1       2.635  51.178 -27.901  1.00  0.00    -0.391 OA
HETATM   27  H35 UNL     1       1.966  50.645 -28.382  1.00  0.00     0.210 HD
ENDBRANCH  23  26
BRANCH  24  28
HETATM   28  O6  UNL     1       0.041  51.488 -28.613  1.00  0.00    -0.390 OA
HETATM   29  H37 UNL     1      -0.837  51.819 -28.895  1.00  0.00     0.210 HD
ENDBRANCH  24  28
BRANCH  25  30
HETATM   30  O7  UNL     1      -1.376  53.815 -28.156  1.00  0.00    -0.388 OA
HETATM   31  H39 UNL     1      -2.147  53.939 -27.570  1.00  0.00     0.210 HD
ENDBRANCH  25  30
ENDBRANCH  19  20
ENDBRANCH  10  19
BRANCH  13  32
HETATM   32  C29 UNL     1      -4.479  51.308 -22.425  1.00  0.00     0.178 C 
BRANCH  32  33
HETATM   33  O8  UNL     1      -5.715  51.906 -22.807  1.00  0.00    -0.400 OA
HETATM   34  H46 UNL     1      -5.873  52.648 -22.198  1.00  0.00     0.209 HD
ENDBRANCH  32  33
ENDBRANCH  13  32
BRANCH   1  35
HETATM   35  C9  UNL     1      -9.119  46.701 -20.755  1.00  0.00    -0.011 C 
HETATM   36  C10 UNL     1      -9.921  46.926 -22.047  1.00  0.00     0.010 C 
BRANCH  35  37
HETATM   37  C8  UNL     1      -9.872  47.247 -19.522  1.00  0.00     0.031 C 
BRANCH  37  38
HETATM   38  C7  UNL     1     -11.328  46.864 -19.498  1.00  0.00    -0.027 C 
HETATM   39  C6  UNL     1     -12.148  47.102 -18.459  1.00  0.00     0.007 C 
BRANCH  39  40
HETATM   40  C3  UNL     1     -13.610  46.715 -18.341  1.00  0.00     0.081 C 
HETATM   41  C4  UNL     1     -14.253  46.850 -16.950  1.00  0.00     0.051 C 
HETATM   42  C5  UNL     1     -13.736  45.243 -18.771  1.00  0.00     0.051 C 
BRANCH  40  43
HETATM   43  O2  UNL     1     -14.377  47.451 -19.331  1.00  0.00    -0.307 OA
BRANCH  43  44
HETATM   44  C2  UNL     1     -14.405  48.809 -19.298  1.00  0.00     0.255 C 
HETATM   45  C1  UNL     1     -15.380  49.268 -18.256  1.00  0.00     0.126 C 
HETATM   46  O1  UNL     1     -13.733  49.572 -19.976  1.00  0.00    -0.266 OA
ENDBRANCH  43  44
ENDBRANCH  40  43
ENDBRANCH  39  40
ENDBRANCH  37  38
ENDBRANCH  35  37
ENDBRANCH   1  35
TORSDOF 13
ENDMDL
MODEL 5
REMARK minimizedAffinity -8.3288269
REMARK CNNscore 0.298089802
REMARK CNNaffinity 6.36521339
REMARK  13 active torsions:
REMARK  status: ('A' for Active; 'I' for Inactive)
REMARK    1  A    between atoms: C2_2  and  O2_4 
REMARK    2  A    between atoms: O2_4  and  C3_5 
REMARK    3  A    between atoms: C3_5  and  C6_8 
REMARK    4  A    between atoms: C7_9  and  C8_10 
REMARK    5  A    between atoms: C8_10  and  C9_11 
REMARK    6  A    between atoms: C9_11  and  C11_13 
REMARK    7  A    between atoms: C20_22  and  O3_23 
REMARK    8  A    between atoms: O3_23  and  C21_24 
REMARK    9  A    between atoms: C23_27  and  O5_28 
REMARK   10  A    between atoms: C24_29  and  O6_30 
REMARK   11  A    between atoms: C25_31  and  O7_32 
REMARK   12  A    between atoms: C28_35  and  C29_36 
REMARK   13  A    between atoms: C29_36  and  O8_37 
ROOT
HETATM    1  C11 UNL     1      -7.043  47.048 -29.862  1.00  0.00    -0.002 C 
HETATM    2  C12 UNL     1      -7.308  45.708 -29.161  1.00  0.00     0.006 C 
HETATM    3  C13 UNL     1      -8.533  45.174 -29.878  1.00  0.00     0.006 C 
HETATM    4  C14 UNL     1      -9.407  46.409 -30.172  1.00  0.00    -0.001 C 
HETATM    5  C15 UNL     1     -10.123  46.357 -31.546  1.00  0.00    -0.001 C 
HETATM    6  C16 UNL     1     -10.914  45.058 -31.743  1.00  0.00     0.033 C 
HETATM    7  C17 UNL     1     -11.656  45.130 -33.036  1.00  0.00    -0.023 C 
HETATM    8  C18 UNL     1     -11.124  45.708 -34.127  1.00  0.00    -0.070 C 
HETATM    9  C19 UNL     1     -11.991  45.941 -35.349  1.00  0.00     0.066 C 
HETATM   10  C20 UNL     1     -11.225  45.981 -36.677  1.00  0.00     0.128 C 
HETATM   11  C26 UNL     1     -10.028  46.945 -36.616  1.00  0.00     0.033 C 
HETATM   12  C27 UNL     1      -9.586  47.339 -35.200  1.00  0.00     0.019 C 
HETATM   13  C28 UNL     1      -9.667  46.197 -34.155  1.00  0.00     0.008 C 
HETATM   14  C30 UNL     1      -9.133  46.627 -32.708  1.00  0.00     0.005 C 
HETATM   15  C31 UNL     1      -8.538  48.046 -32.570  1.00  0.00     0.007 C 
HETATM   16  C32 UNL     1      -8.643  48.648 -31.165  1.00  0.00     0.010 C 
HETATM   17  C33 UNL     1      -8.474  47.666 -29.986  1.00  0.00    -0.036 C 
HETATM   18  C34 UNL     1      -8.917  48.411 -28.709  1.00  0.00     0.016 C 
ENDROOT
BRANCH  10  19
HETATM   19  O3  UNL     1     -12.032  46.416 -37.781  1.00  0.00    -0.353 OA
BRANCH  19  20
HETATM   20  C21 UNL     1     -11.453  47.427 -38.604  1.00  0.00     0.291 C 
HETATM   21  O4  UNL     1     -11.224  46.992 -39.942  1.00  0.00    -0.356 OA
HETATM   22  C22 UNL     1     -12.435  46.688 -40.639  1.00  0.00     0.205 C 
HETATM   23  C23 UNL     1     -13.322  47.925 -40.779  1.00  0.00     0.173 C 
HETATM   24  C24 UNL     1     -13.628  48.522 -39.405  1.00  0.00     0.182 C 
HETATM   25  C25 UNL     1     -12.346  48.696 -38.581  1.00  0.00     0.204 C 
BRANCH  23  26
HETATM   26  O5  UNL     1     -14.544  47.589 -41.439  1.00  0.00    -0.391 OA
HETATM   27  H35 UNL     1     -15.128  47.247 -40.728  1.00  0.00     0.210 HD
ENDBRANCH  23  26
BRANCH  24  28
HETATM   28  O6  UNL     1     -14.571  47.668 -38.732  1.00  0.00    -0.390 OA
HETATM   29  H37 UNL     1     -14.493  47.904 -37.785  1.00  0.00     0.210 HD
ENDBRANCH  24  28
BRANCH  25  30
HETATM   30  O7  UNL     1     -12.723  49.088 -37.251  1.00  0.00    -0.388 OA
HETATM   31  H39 UNL     1     -12.054  48.735 -36.634  1.00  0.00     0.210 HD
ENDBRANCH  25  30
ENDBRANCH  19  20
ENDBRANCH  10  19
BRANCH  13  32
HETATM   32  C29 UNL     1      -8.773  44.998 -34.624  1.00  0.00     0.178 C 
BRANCH  32  33
HETATM   33  O8  UNL     1      -7.630  44.852 -33.786  1.00  0.00    -0.400 OA
HETATM   34  H46 UNL     1      -7.168  44.045 -34.072  1.00  0.00     0.209 HD
ENDBRANCH  32  33
ENDBRANCH  13  32
BRANCH   1  35
HETATM   35  C9  UNL     1      -5.833  47.819 -29.244  1.00  0.00    -0.011 C 
HETATM   36  C10 UNL     1      -4.473  47.604 -29.926  1.00  0.00     0.010 C 
BRANCH  35  37
HETATM   37  C8  UNL     1      -5.734  47.631 -27.715  1.00  0.00     0.031 C 
BRANCH  37  38
HETATM   38  C7  UNL     1      -4.582  48.381 -27.098  1.00  0.00    -0.027 C 
HETATM   39  C6  UNL     1      -4.527  48.735 -25.802  1.00  0.00     0.007 C 
BRANCH  39  40
HETATM   40  C3  UNL     1      -3.427  49.521 -25.115  1.00  0.00     0.081 C 
HETATM   41  C4  UNL     1      -2.155  49.797 -25.935  1.00  0.00     0.051 C 
HETATM   42  C5  UNL     1      -3.010  48.733 -23.860  1.00  0.00     0.051 C 
BRANCH  40  43
HETATM   43  O2  UNL     1      -3.981  50.761 -24.599  1.00  0.00    -0.307 OA
BRANCH  43  44
HETATM   44  C2  UNL     1      -3.364  51.943 -24.863  1.00  0.00     0.255 C 
HETATM   45  C1  UNL     1      -2.615  52.402 -23.648  1.00  0.00     0.126 C 
HETATM   46  O1  UNL     1      -3.371  52.552 -25.922  1.00  0.00    -0.266 OA
ENDBRANCH  43  44
ENDBRANCH  40  43
ENDBRANCH  39  40
ENDBRANCH  37  38
ENDBRANCH  35  37
ENDBRANCH   1  35
TORSDOF 13
ENDMDL
MODEL 6
REMARK minimizedAffinity -8.02881622
REMARK CNNscore 0.288621813
REMARK CNNaffinity 6.37177229
REMARK  13 active torsions:
REMARK  status: ('A' for Active; 'I' for Inactive)
REMARK    1  A    between atoms: C2_2  and  O2_4 
REMARK    2  A    between atoms: O2_4  and  C3_5 
REMARK    3  A    between atoms: C3_5  and  C6_8 
REMARK    4  A    between atoms: C7_9  and  C8_10 
REMARK    5  A    between atoms: C8_10  and  C9_11 
REMARK    6  A    between atoms: C9_11  and  C11_13 
REMARK    7  A    between atoms: C20_22  and  O3_23 
REMARK    8  A    between atoms: O3_23  and  C21_24 
REMARK    9  A    between atoms: C23_27  and  O5_28 
REMARK   10  A    between atoms: C24_29  and  O6_30 
REMARK   11  A    between atoms: C25_31  and  O7_32 
REMARK   12  A    between atoms: C28_35  and  C29_36 
REMARK   13  A    between atoms: C29_36  and  O8_37 
ROOT
HETATM    1  C11 UNL     1      -7.459  47.908 -24.099  1.00  0.00    -0.002 C 
HETATM    2  C12 UNL     1      -6.550  47.838 -25.335  1.00  0.00     0.006 C 
HETATM    3  C13 UNL     1      -7.365  47.029 -26.324  1.00  0.00     0.006 C 
HETATM    4  C14 UNL     1      -8.094  45.964 -25.481  1.00  0.00    -0.001 C 
HETATM    5  C15 UNL     1      -9.539  45.668 -25.958  1.00  0.00    -0.001 C 
HETATM    6  C16 UNL     1      -9.603  45.332 -27.453  1.00  0.00     0.033 C 
HETATM    7  C17 UNL     1     -11.004  44.958 -27.809  1.00  0.00    -0.023 C 
HETATM    8  C18 UNL     1     -12.064  45.580 -27.263  1.00  0.00    -0.070 C 
HETATM    9  C19 UNL     1     -13.457  45.029 -27.497  1.00  0.00     0.066 C 
HETATM   10  C20 UNL     1     -14.578  46.073 -27.420  1.00  0.00     0.128 C 
HETATM   11  C26 UNL     1     -14.488  46.911 -26.133  1.00  0.00     0.033 C 
HETATM   12  C27 UNL     1     -13.133  46.849 -25.414  1.00  0.00     0.019 C 
HETATM   13  C28 UNL     1     -11.901  46.809 -26.355  1.00  0.00     0.008 C 
HETATM   14  C30 UNL     1     -10.506  46.816 -25.570  1.00  0.00     0.005 C 
HETATM   15  C31 UNL     1     -10.565  46.954 -24.032  1.00  0.00     0.007 C 
HETATM   16  C32 UNL     1      -9.377  46.332 -23.290  1.00  0.00     0.010 C 
HETATM   17  C33 UNL     1      -8.002  46.446 -23.984  1.00  0.00    -0.036 C 
HETATM   18  C34 UNL     1      -7.037  45.507 -23.231  1.00  0.00     0.016 C 
ENDROOT
BRANCH  10  19
HETATM   19  O3  UNL     1     -15.891  45.493 -27.427  1.00  0.00    -0.353 OA
BRANCH  19  20
HETATM   20  C21 UNL     1     -15.934  44.072 -27.310  1.00  0.00     0.291 C 
HETATM   21  O4  UNL     1     -15.967  43.627 -25.956  1.00  0.00    -0.356 OA
HETATM   22  C22 UNL     1     -17.158  44.026 -25.272  1.00  0.00     0.205 C 
HETATM   23  C23 UNL     1     -18.402  43.412 -25.913  1.00  0.00     0.173 C 
HETATM   24  C24 UNL     1     -18.481  43.787 -27.393  1.00  0.00     0.182 C 
HETATM   25  C25 UNL     1     -17.148  43.519 -28.103  1.00  0.00     0.204 C 
BRANCH  23  26
HETATM   26  O5  UNL     1     -19.580  43.859 -25.241  1.00  0.00    -0.391 OA
HETATM   27  H35 UNL     1     -19.792  44.724 -25.652  1.00  0.00     0.210 HD
ENDBRANCH  23  26
BRANCH  24  28
HETATM   28  O6  UNL     1     -18.859  45.173 -27.497  1.00  0.00    -0.390 OA
HETATM   29  H37 UNL     1     -18.596  45.438 -28.402  1.00  0.00     0.210 HD
ENDBRANCH  24  28
BRANCH  25  30
HETATM   30  O7  UNL     1     -17.237  44.056 -29.433  1.00  0.00    -0.388 OA
HETATM   31  H39 UNL     1     -16.343  44.341 -29.700  1.00  0.00     0.210 HD
ENDBRANCH  25  30
ENDBRANCH  19  20
ENDBRANCH  10  19
BRANCH  13  32
HETATM   32  C29 UNL     1     -11.905  48.080 -27.273  1.00  0.00     0.178 C 
BRANCH  32  33
HETATM   33  O8  UNL     1     -11.389  49.214 -26.580  1.00  0.00    -0.400 OA
HETATM   34  H46 UNL     1     -11.336  49.941 -27.224  1.00  0.00     0.209 HD
ENDBRANCH  32  33
ENDBRANCH  13  32
BRANCH   1  35
HETATM   35  C9  UNL     1      -6.792  48.665 -22.907  1.00  0.00    -0.011 C 
HETATM   36  C10 UNL     1      -7.628  48.773 -21.622  1.00  0.00     0.010 C 
BRANCH  35  37
HETATM   37  C8  UNL     1      -6.221  50.038 -23.325  1.00  0.00     0.031 C 
BRANCH  37  38
HETATM   38  C7  UNL     1      -4.715  50.082 -23.312  1.00  0.00    -0.027 C 
HETATM   39  C6  UNL     1      -3.981  50.806 -24.175  1.00  0.00     0.007 C 
BRANCH  39  40
HETATM   40  C3  UNL     1      -2.467  50.875 -24.254  1.00  0.00     0.081 C 
HETATM   41  C4  UNL     1      -1.688  50.465 -22.993  1.00  0.00     0.051 C 
HETATM   42  C5  UNL     1      -2.087  52.329 -24.585  1.00  0.00     0.051 C 
BRANCH  40  43
HETATM   43  O2  UNL     1      -2.017  50.110 -25.404  1.00  0.00    -0.307 OA
BRANCH  43  44
HETATM   44  C2  UNL     1      -2.821  49.980 -26.491  1.00  0.00     0.255 C 
HETATM   45  C1  UNL     1      -3.220  48.544 -26.654  1.00  0.00     0.126 C 
HETATM   46  O1  UNL     1      -3.205  50.876 -27.229  1.00  0.00    -0.266 OA
ENDBRANCH  43  44
ENDBRANCH  40  43
ENDBRANCH  39  40
ENDBRANCH  37  38
ENDBRANCH  35  37
ENDBRANCH   1  35
TORSDOF 13
ENDMDL
MODEL 7
REMARK minimizedAffinity -7.49947739
REMARK CNNscore 0.279641151
REMARK CNNaffinity 5.88694954
REMARK  13 active torsions:
REMARK  status: ('A' for Active; 'I' for Inactive)
REMARK    1  A    between atoms: C2_2  and  O2_4 
REMARK    2  A    between atoms: O2_4  and  C3_5 
REMARK    3  A    between atoms: C3_5  and  C6_8 
REMARK    4  A    between atoms: C7_9  and  C8_10 
REMARK    5  A    between atoms: C8_10  and  C9_11 
REMARK    6  A    between atoms: C9_11  and  C11_13 
REMARK    7  A    between atoms: C20_22  and  O3_23 
REMARK    8  A    between atoms: O3_23  and  C21_24 
REMARK    9  A    between atoms: C23_27  and  O5_28 
REMARK   10  A    between atoms: C24_29  and  O6_30 
REMARK   11  A    between atoms: C25_31  and  O7_32 
REMARK   12  A    between atoms: C28_35  and  C29_36 
REMARK   13  A    between atoms: C29_36  and  O8_37 
ROOT
HETATM    1  C11 UNL     1      -7.794  45.400 -31.439  1.00  0.00    -0.002 C 
HETATM    2  C12 UNL     1      -6.800  46.087 -30.491  1.00  0.00     0.006 C 
HETATM    3  C13 UNL     1      -7.698  46.777 -29.482  1.00  0.00     0.006 C 
HETATM    4  C14 UNL     1      -8.913  47.276 -30.288  1.00  0.00    -0.001 C 
HETATM    5  C15 UNL     1     -10.260  47.154 -29.530  1.00  0.00    -0.001 C 
HETATM    6  C16 UNL     1     -10.209  47.805 -28.142  1.00  0.00     0.033 C 
HETATM    7  C17 UNL     1     -11.566  47.740 -27.524  1.00  0.00    -0.023 C 
HETATM    8  C18 UNL     1     -12.368  46.672 -27.683  1.00  0.00    -0.070 C 
HETATM    9  C19 UNL     1     -13.807  46.740 -27.213  1.00  0.00     0.066 C 
HETATM   10  C20 UNL     1     -14.422  45.385 -26.840  1.00  0.00     0.128 C 
HETATM   11  C26 UNL     1     -14.217  44.342 -27.951  1.00  0.00     0.033 C 
HETATM   12  C27 UNL     1     -13.132  44.694 -28.978  1.00  0.00     0.019 C 
HETATM   13  C28 UNL     1     -11.882  45.395 -28.385  1.00  0.00     0.008 C 
HETATM   14  C30 UNL     1     -10.744  45.683 -29.474  1.00  0.00     0.005 C 
HETATM   15  C31 UNL     1     -10.992  45.158 -30.906  1.00  0.00     0.007 C 
HETATM   16  C32 UNL     1     -10.282  45.952 -32.008  1.00  0.00     0.010 C 
HETATM   17  C33 UNL     1      -8.882  46.502 -31.661  1.00  0.00    -0.036 C 
HETATM   18  C34 UNL     1      -8.501  47.503 -32.771  1.00  0.00     0.016 C 
ENDROOT
BRANCH  10  19
HETATM   19  O3  UNL     1     -15.837  45.451 -26.610  1.00  0.00    -0.353 OA
BRANCH  19  20
HETATM   20  C21 UNL     1     -16.297  44.803 -25.425  1.00  0.00     0.291 C 
HETATM   21  O4  UNL     1     -16.552  45.714 -24.357  1.00  0.00    -0.356 OA
HETATM   22  C22 UNL     1     -17.621  46.617 -24.646  1.00  0.00     0.205 C 
HETATM   23  C23 UNL     1     -18.942  45.873 -24.845  1.00  0.00     0.173 C 
HETATM   24  C24 UNL     1     -18.804  44.831 -25.956  1.00  0.00     0.182 C 
HETATM   25  C25 UNL     1     -17.559  43.960 -25.746  1.00  0.00     0.204 C 
BRANCH  23  26
HETATM   26  O5  UNL     1     -19.985  46.791 -25.175  1.00  0.00    -0.391 OA
HETATM   27  H35 UNL     1     -19.909  46.922 -26.144  1.00  0.00     0.210 HD
ENDBRANCH  23  26
BRANCH  24  28
HETATM   28  O6  UNL     1     -18.759  45.512 -27.223  1.00  0.00    -0.390 OA
HETATM   29  H37 UNL     1     -18.368  44.863 -27.843  1.00  0.00     0.210 HD
ENDBRANCH  24  28
BRANCH  25  30
HETATM   30  O7  UNL     1     -17.396  43.131 -26.908  1.00  0.00    -0.388 OA
HETATM   31  H39 UNL     1     -16.441  42.970 -27.027  1.00  0.00     0.210 HD
ENDBRANCH  25  30
ENDBRANCH  19  20
ENDBRANCH  10  19
BRANCH  13  32
HETATM   32  C29 UNL     1     -11.236  44.471 -27.296  1.00  0.00     0.178 C 
BRANCH  32  33
HETATM   33  O8  UNL     1     -10.170  43.700 -27.844  1.00  0.00    -0.400 OA
HETATM   34  H46 UNL     1      -9.757  43.219 -27.106  1.00  0.00     0.209 HD
ENDBRANCH  32  33
ENDBRANCH  13  32
BRANCH   1  35
HETATM   35  C9  UNL     1      -7.085  44.655 -32.614  1.00  0.00    -0.011 C 
HETATM   36  C10 UNL     1      -7.873  43.505 -33.260  1.00  0.00     0.010 C 
BRANCH  35  37
HETATM   37  C8  UNL     1      -5.647  44.222 -32.255  1.00  0.00     0.031 C 
BRANCH  37  38
HETATM   38  C7  UNL     1      -5.118  43.126 -33.143  1.00  0.00    -0.027 C 
HETATM   39  C6  UNL     1      -4.220  42.208 -32.745  1.00  0.00     0.007 C 
BRANCH  39  40
HETATM   40  C3  UNL     1      -3.611  41.101 -33.584  1.00  0.00     0.081 C 
HETATM   41  C4  UNL     1      -3.743  41.235 -35.111  1.00  0.00     0.051 C 
HETATM   42  C5  UNL     1      -4.288  39.782 -33.172  1.00  0.00     0.051 C 
BRANCH  40  43
HETATM   43  O2  UNL     1      -2.219  40.929 -33.206  1.00  0.00    -0.307 OA
BRANCH  43  44
HETATM   44  C2  UNL     1      -1.804  39.761 -32.651  1.00  0.00     0.255 C 
HETATM   45  C1  UNL     1      -1.035  38.968 -33.664  1.00  0.00     0.126 C 
HETATM   46  O1  UNL     1      -1.985  39.392 -31.500  1.00  0.00    -0.266 OA
ENDBRANCH  43  44
ENDBRANCH  40  43
ENDBRANCH  39  40
ENDBRANCH  37  38
ENDBRANCH  35  37
ENDBRANCH   1  35
TORSDOF 13
ENDMDL
MODEL 8
REMARK minimizedAffinity -7.49933481
REMARK CNNscore 0.2723369
REMARK CNNaffinity 6.15463018
REMARK  13 active torsions:
REMARK  status: ('A' for Active; 'I' for Inactive)
REMARK    1  A    between atoms: C2_2  and  O2_4 
REMARK    2  A    between atoms: O2_4  and  C3_5 
REMARK    3  A    between atoms: C3_5  and  C6_8 
REMARK    4  A    between atoms: C7_9  and  C8_10 
REMARK    5  A    between atoms: C8_10  and  C9_11 
REMARK    6  A    between atoms: C9_11  and  C11_13 
REMARK    7  A    between atoms: C20_22  and  O3_23 
REMARK    8  A    between atoms: O3_23  and  C21_24 
REMARK    9  A    between atoms: C23_27  and  O5_28 
REMARK   10  A    between atoms: C24_29  and  O6_30 
REMARK   11  A    between atoms: C25_31  and  O7_32 
REMARK   12  A    between atoms: C28_35  and  C29_36 
REMARK   13  A    between atoms: C29_36  and  O8_37 
ROOT
HETATM    1  C11 UNL     1      -2.260  50.094 -20.998  1.00  0.00    -0.002 C 
HETATM    2  C12 UNL     1      -1.415  48.812 -21.032  1.00  0.00     0.006 C 
HETATM    3  C13 UNL     1      -2.442  47.722 -21.270  1.00  0.00     0.006 C 
HETATM    4  C14 UNL     1      -3.687  48.150 -20.469  1.00  0.00    -0.001 C 
HETATM    5  C15 UNL     1      -5.028  47.835 -21.180  1.00  0.00    -0.001 C 
HETATM    6  C16 UNL     1      -5.127  46.368 -21.616  1.00  0.00     0.033 C 
HETATM    7  C17 UNL     1      -6.481  46.121 -22.193  1.00  0.00    -0.023 C 
HETATM    8  C18 UNL     1      -7.108  47.039 -22.948  1.00  0.00    -0.070 C 
HETATM    9  C19 UNL     1      -8.558  46.826 -23.336  1.00  0.00     0.066 C 
HETATM   10  C20 UNL     1      -8.978  47.512 -24.642  1.00  0.00     0.128 C 
HETATM   11  C26 UNL     1      -8.579  48.998 -24.659  1.00  0.00     0.033 C 
HETATM   12  C27 UNL     1      -7.521  49.395 -23.620  1.00  0.00     0.019 C 
HETATM   13  C28 UNL     1      -6.412  48.337 -23.387  1.00  0.00     0.008 C 
HETATM   14  C30 UNL     1      -5.290  48.817 -22.350  1.00  0.00     0.005 C 
HETATM   15  C31 UNL     1      -5.403  50.260 -21.809  1.00  0.00     0.007 C 
HETATM   16  C32 UNL     1      -4.780  50.472 -20.425  1.00  0.00     0.010 C 
HETATM   17  C33 UNL     1      -3.490  49.676 -20.127  1.00  0.00    -0.036 C 
HETATM   18  C34 UNL     1      -3.222  49.801 -18.613  1.00  0.00     0.016 C 
ENDROOT
BRANCH  10  19
HETATM   19  O3  UNL     1     -10.394  47.476 -24.869  1.00  0.00    -0.353 OA
BRANCH  19  20
HETATM   20  C21 UNL     1     -10.981  46.176 -24.884  1.00  0.00     0.291 C 
HETATM   21  O4  UNL     1     -11.851  45.947 -23.777  1.00  0.00    -0.356 OA
HETATM   22  C22 UNL     1     -12.999  46.800 -23.792  1.00  0.00     0.205 C 
HETATM   23  C23 UNL     1     -13.865  46.548 -25.026  1.00  0.00     0.173 C 
HETATM   24  C24 UNL     1     -13.042  46.732 -26.302  1.00  0.00     0.182 C 
HETATM   25  C25 UNL     1     -11.724  45.953 -26.227  1.00  0.00     0.204 C 
BRANCH  23  26
HETATM   26  O5  UNL     1     -14.980  47.440 -25.041  1.00  0.00    -0.391 OA
HETATM   27  H35 UNL     1     -14.637  48.266 -25.445  1.00  0.00     0.210 HD
ENDBRANCH  23  26
BRANCH  24  28
HETATM   28  O6  UNL     1     -12.808  48.140 -26.499  1.00  0.00    -0.390 OA
HETATM   29  H37 UNL     1     -12.047  48.183 -27.114  1.00  0.00     0.210 HD
ENDBRANCH  24  28
BRANCH  25  30
HETATM   30  O7  UNL     1     -10.930  46.311 -27.370  1.00  0.00    -0.388 OA
HETATM   31  H39 UNL     1      -9.991  46.250 -27.112  1.00  0.00     0.210 HD
ENDBRANCH  25  30
ENDBRANCH  19  20
ENDBRANCH  10  19
BRANCH  13  32
HETATM   32  C29 UNL     1      -5.676  48.047 -24.741  1.00  0.00     0.178 C 
BRANCH  32  33
HETATM   33  O8  UNL     1      -5.052  49.224 -25.247  1.00  0.00    -0.400 OA
HETATM   34  H46 UNL     1      -4.544  48.961 -26.034  1.00  0.00     0.209 HD
ENDBRANCH  32  33
ENDBRANCH  13  32
BRANCH   1  35
HETATM   35  C9  UNL     1      -1.405  51.368 -20.707  1.00  0.00    -0.011 C 
HETATM   36  C10 UNL     1       0.079  51.292 -21.098  1.00  0.00     0.010 C 
BRANCH  35  37
HETATM   37  C8  UNL     1      -1.581  51.879 -19.261  1.00  0.00     0.031 C 
BRANCH  37  38
HETATM   38  C7  UNL     1      -0.360  51.669 -18.404  1.00  0.00    -0.027 C 
HETATM   39  C6  UNL     1      -0.389  51.608 -17.061  1.00  0.00     0.007 C 
BRANCH  39  40
HETATM   40  C3  UNL     1       0.794  51.439 -16.127  1.00  0.00     0.081 C 
HETATM   41  C4  UNL     1       0.620  51.950 -14.687  1.00  0.00     0.051 C 
HETATM   42  C5  UNL     1       1.984  52.192 -16.748  1.00  0.00     0.051 C 
BRANCH  40  43
HETATM   43  O2  UNL     1       1.204  50.045 -16.128  1.00  0.00    -0.307 OA
BRANCH  43  44
HETATM   44  C2  UNL     1       1.045  49.289 -15.011  1.00  0.00     0.255 C 
HETATM   45  C1  UNL     1      -0.230  48.507 -15.110  1.00  0.00     0.126 C 
HETATM   46  O1  UNL     1       1.815  49.209 -14.065  1.00  0.00    -0.266 OA
ENDBRANCH  43  44
ENDBRANCH  40  43
ENDBRANCH  39  40
ENDBRANCH  37  38
ENDBRANCH  35  37
ENDBRANCH   1  35
TORSDOF 13
ENDMDL
MODEL 9
REMARK minimizedAffinity -7.6943059
REMARK CNNscore 0.271532327
REMARK CNNaffinity 6.62219095
REMARK  13 active torsions:
REMARK  status: ('A' for Active; 'I' for Inactive)
REMARK    1  A    between atoms: C2_2  and  O2_4 
REMARK    2  A    between atoms: O2_4  and  C3_5 
REMARK    3  A    between atoms: C3_5  and  C6_8 
REMARK    4  A    between atoms: C7_9  and  C8_10 
REMARK    5  A    between atoms: C8_10  and  C9_11 
REMARK    6  A    between atoms: C9_11  and  C11_13 
REMARK    7  A    between atoms: C20_22  and  O3_23 
REMARK    8  A    between atoms: O3_23  and  C21_24 
REMARK    9  A    between atoms: C23_27  and  O5_28 
REMARK   10  A    between atoms: C24_29  and  O6_30 
REMARK   11  A    between atoms: C25_31  and  O7_32 
REMARK   12  A    between atoms: C28_35  and  C29_36 
REMARK   13  A    between atoms: C29_36  and  O8_37 
ROOT
HETATM    1  C11 UNL     1      -0.713  49.733 -14.103  1.00  0.00    -0.002 C 
HETATM    2  C12 UNL     1      -0.510  51.093 -13.421  1.00  0.00     0.006 C 
HETATM    3  C13 UNL     1       0.078  51.954 -14.523  1.00  0.00     0.006 C 
HETATM    4  C14 UNL     1       1.007  51.019 -15.322  1.00  0.00    -0.001 C 
HETATM    5  C15 UNL     1       0.985  51.271 -16.851  1.00  0.00    -0.001 C 
HETATM    6  C16 UNL     1       1.241  52.742 -17.203  1.00  0.00     0.033 C 
HETATM    7  C17 UNL     1       1.310  52.882 -18.688  1.00  0.00    -0.023 C 
HETATM    8  C18 UNL     1       0.509  52.176 -19.505  1.00  0.00    -0.070 C 
HETATM    9  C19 UNL     1       0.758  52.198 -21.000  1.00  0.00     0.066 C 
HETATM   10  C20 UNL     1      -0.487  51.941 -21.858  1.00  0.00     0.128 C 
HETATM   11  C26 UNL     1      -1.238  50.676 -21.409  1.00  0.00     0.033 C 
HETATM   12  C27 UNL     1      -0.875  50.174 -20.004  1.00  0.00     0.019 C 
HETATM   13  C28 UNL     1      -0.624  51.292 -18.960  1.00  0.00     0.008 C 
HETATM   14  C30 UNL     1      -0.318  50.730 -17.493  1.00  0.00     0.005 C 
HETATM   15  C31 UNL     1      -0.404  49.200 -17.294  1.00  0.00     0.007 C 
HETATM   16  C32 UNL     1       0.474  48.654 -16.163  1.00  0.00     0.010 C 
HETATM   17  C33 UNL     1       0.613  49.548 -14.912  1.00  0.00    -0.036 C 
HETATM   18  C34 UNL     1       1.757  48.961 -14.061  1.00  0.00     0.016 C 
ENDROOT
BRANCH  10  19
HETATM   19  O3  UNL     1      -0.185  51.753 -23.249  1.00  0.00    -0.353 OA
BRANCH  19  20
HETATM   20  C21 UNL     1       0.013  52.949 -24.001  1.00  0.00     0.291 C 
HETATM   21  O4  UNL     1       1.269  52.979 -24.675  1.00  0.00    -0.356 OA
HETATM   22  C22 UNL     1       1.382  51.965 -25.678  1.00  0.00     0.205 C 
HETATM   23  C23 UNL     1       0.343  52.155 -26.783  1.00  0.00     0.173 C 
HETATM   24  C24 UNL     1      -1.067  52.173 -26.192  1.00  0.00     0.182 C 
HETATM   25  C25 UNL     1      -1.157  53.136 -25.003  1.00  0.00     0.204 C 
BRANCH  23  26
HETATM   26  O5  UNL     1       0.447  51.108 -27.748  1.00  0.00    -0.391 OA
HETATM   27  H35 UNL     1      -0.080  50.369 -27.376  1.00  0.00     0.210 HD
ENDBRANCH  23  26
BRANCH  24  28
HETATM   28  O6  UNL     1      -1.421  50.831 -25.807  1.00  0.00    -0.390 OA
HETATM   29  H37 UNL     1      -2.161  50.939 -25.174  1.00  0.00     0.210 HD
ENDBRANCH  24  28
BRANCH  25  30
HETATM   30  O7  UNL     1      -2.447  52.970 -24.392  1.00  0.00    -0.388 OA
HETATM   31  H39 UNL     1      -2.352  53.156 -23.439  1.00  0.00     0.210 HD
ENDBRANCH  25  30
ENDBRANCH  19  20
ENDBRANCH  10  19
BRANCH  13  32
HETATM   32  C29 UNL     1      -1.906  52.187 -18.838  1.00  0.00     0.178 C 
BRANCH  32  33
HETATM   33  O8  UNL     1      -2.946  51.502 -18.145  1.00  0.00    -0.400 OA
HETATM   34  H46 UNL     1      -3.674  52.135 -18.026  1.00  0.00     0.209 HD
ENDBRANCH  32  33
ENDBRANCH  13  32
BRANCH   1  35
HETATM   35  C9  UNL     1      -1.271  48.650 -13.126  1.00  0.00    -0.011 C 
HETATM   36  C10 UNL     1      -0.288  47.547 -12.705  1.00  0.00     0.010 C 
BRANCH  35  37
HETATM   37  C8  UNL     1      -2.612  48.056 -13.609  1.00  0.00     0.031 C 
BRANCH  37  38
HETATM   38  C7  UNL     1      -3.720  48.193 -12.598  1.00  0.00    -0.027 C 
HETATM   39  C6  UNL     1      -4.504  47.175 -12.203  1.00  0.00     0.007 C 
BRANCH  39  40
HETATM   40  C3  UNL     1      -5.661  47.237 -11.223  1.00  0.00     0.081 C 
HETATM   41  C4  UNL     1      -6.365  48.596 -11.068  1.00  0.00     0.051 C 
HETATM   42  C5  UNL     1      -5.119  46.833  -9.841  1.00  0.00     0.051 C 
BRANCH  40  43
HETATM   43  O2  UNL     1      -6.621  46.199 -11.556  1.00  0.00    -0.307 OA
BRANCH  43  44
HETATM   44  C2  UNL     1      -6.936  45.956 -12.855  1.00  0.00     0.255 C 
HETATM   45  C1  UNL     1      -6.511  44.567 -13.225  1.00  0.00     0.126 C 
HETATM   46  O1  UNL     1      -7.505  46.716 -13.625  1.00  0.00    -0.266 OA
ENDBRANCH  43  44
ENDBRANCH  40  43
ENDBRANCH  39  40
ENDBRANCH  37  38
ENDBRANCH  35  37
ENDBRANCH   1  35
TORSDOF 13
ENDMDL
