MODEL 1
REMARK minimizedAffinity -8.47349644
REMARK CNNscore 0.844287574
REMARK CNNaffinity 6.78566599
REMARK  12 active torsions:
REMARK  status: ('A' for Active; 'I' for Inactive)
REMARK    1  A    between atoms: O1_2  and  C2_3 
REMARK    2  A    between atoms: C2_3  and  C3_4 
REMARK    3  A    between atoms: C3_4  and  C4_5 
REMARK    4  A    between atoms: C4_5  and  O2_6 
REMARK    5  A    between atoms: O2_6  and  C5_7 
REMARK    6  A    between atoms: C20_23  and  C21_24 
REMARK    7  A    between atoms: C21_24  and  O4_26 
REMARK    8  A    between atoms: C21_24  and  C23_27 
REMARK    9  A    between atoms: C23_27  and  O5_28 
REMARK   10  A    between atoms: C23_27  and  C24_29 
REMARK   11  A    between atoms: C29_36  and  O7_37 
REMARK   12  A    between atoms: C36_44  and  O8_45 
ROOT
HETATM    1  C5  UNL     1       6.671  12.773  22.358  1.00  0.00     0.122 C 
HETATM    2  C6  UNL     1       5.860  11.637  22.987  1.00  0.00     0.033 C 
HETATM    3  C7  UNL     1       4.738  11.135  22.080  1.00  0.00     0.013 C 
HETATM    4  C8  UNL     1       3.783  12.264  21.570  1.00  0.00    -0.026 C 
HETATM    5  C9  UNL     1       3.032  12.848  22.792  1.00  0.00     0.016 C 
HETATM    6  C10 UNL     1       4.652  13.366  20.898  1.00  0.00     0.071 C 
HETATM    7  C11 UNL     1       5.757  13.891  21.835  1.00  0.00     0.045 C 
HETATM    8  C12 UNL     1       5.285  12.880  19.586  1.00  0.00     0.161 C 
HETATM    9  O3  UNL     1       6.427  13.188  19.242  1.00  0.00    -0.292 OA
HETATM   10  C13 UNL     1       4.443  12.084  18.660  1.00  0.00    -0.006 C 
HETATM   11  C14 UNL     1       3.254  11.644  19.105  1.00  0.00    -0.030 C 
HETATM   12  C15 UNL     1       2.762  11.634  20.545  1.00  0.00     0.027 C 
HETATM   13  C16 UNL     1       1.283  12.108  20.620  1.00  0.00     0.011 C 
HETATM   14  C17 UNL     1       0.353  11.364  19.615  1.00  0.00     0.014 C 
HETATM   15  C18 UNL     1       0.845  11.533  18.162  1.00  0.00    -0.002 C 
HETATM   16  C19 UNL     1       0.731  13.045  17.807  1.00  0.00     0.019 C 
HETATM   17  C20 UNL     1       0.252  10.595  17.027  1.00  0.00     0.034 C 
HETATM   18  C32 UNL     1       1.479  10.478  15.998  1.00  0.00     0.016 C 
HETATM   19  C33 UNL     1       2.652  11.192  16.671  1.00  0.00     0.026 C 
HETATM   20  C34 UNL     1       4.104  10.848  16.404  1.00  0.00     0.013 C 
HETATM   21  C35 UNL     1       4.973  11.814  17.258  1.00  0.00     0.043 C 
HETATM   22  C36 UNL     1       2.312  11.010  18.142  1.00  0.00     0.094 C 
ENDROOT
BRANCH  17  23
HETATM   23  C21 UNL     1      -1.104  10.855  16.284  1.00  0.00     0.087 C 
HETATM   24  C22 UNL     1      -1.411  12.371  16.283  1.00  0.00     0.049 C 
BRANCH  23  25
HETATM   25  O4  UNL     1      -2.175  10.256  17.041  1.00  0.00    -0.387 OA
HETATM   26  H33 UNL     1      -2.240   9.337  16.705  1.00  0.00     0.210 HD
ENDBRANCH  23  25
BRANCH  23  27
HETATM   27  C23 UNL     1      -1.260  10.321  14.816  1.00  0.00     0.181 C 
BRANCH  27  28
HETATM   28  O5  UNL     1      -1.387  11.462  13.957  1.00  0.00    -0.390 OA
HETATM   29  H35 UNL     1      -0.973  11.250  13.103  1.00  0.00     0.210 HD
ENDBRANCH  27  28
BRANCH  27  30
HETATM   30  C24 UNL     1      -2.358   9.250  14.603  1.00  0.00     0.158 C 
HETATM   31  O6  UNL     1      -3.659   9.827  14.512  1.00  0.00    -0.373 OA
HETATM   32  C25 UNL     1      -4.561   8.834  13.994  1.00  0.00     0.185 C 
HETATM   33  C26 UNL     1      -3.719   7.923  13.098  1.00  0.00     0.027 C 
HETATM   34  C29 UNL     1      -5.291   8.083  15.141  1.00  0.00     0.383 C 
HETATM   35  C27 UNL     1      -4.035   6.444  13.320  1.00  0.00     0.038 C 
HETATM   36  C30 UNL     1      -2.255   8.309  13.391  1.00  0.00     0.020 C 
HETATM   37  C28 UNL     1      -4.006   6.027  14.792  1.00  0.00     0.273 C 
HETATM   38  N1  UNL     1      -4.494   7.026  15.738  1.00  0.00     0.114 N 
HETATM   39  H43 UNL     1      -4.995   6.579  16.501  1.00  0.00     0.319 HD
HETATM   40  C31 UNL     1      -1.606   8.886  12.134  1.00  0.00     0.013 C 
BRANCH  34  41
HETATM   41  O7  UNL     1      -6.509   7.530  14.677  1.00  0.00    -0.366 OA
HETATM   42  H45 UNL     1      -6.955   7.177  15.465  1.00  0.00     0.212 HD
ENDBRANCH  34  41
ENDBRANCH  27  30
ENDBRANCH  23  27
ENDBRANCH  17  23
BRANCH  22  43
HETATM   43  O8  UNL     1       2.346   9.611  18.484  1.00  0.00    -0.384 OA
HETATM   44  H57 UNL     1       3.258   9.299  18.366  1.00  0.00     0.211 HD
ENDBRANCH  22  43
BRANCH   1  45
HETATM   45  O2  UNL     1       7.558  13.261  23.374  1.00  0.00    -0.386 OA
BRANCH  45  46
HETATM   46  C4  UNL     1       8.262  14.446  22.995  1.00  0.00     0.170 C 
BRANCH  46  47
HETATM   47  C3  UNL     1       7.769  15.601  23.865  1.00  0.00     0.052 C 
BRANCH  47  48
HETATM   48  C2  UNL     1       8.798  15.990  24.924  1.00  0.00     0.169 C 
BRANCH  48  49
HETATM   49  O1  UNL     1       9.928  16.579  24.280  1.00  0.00    -0.396 OA
HETATM   50  C1  UNL     1       9.639  17.881  23.791  1.00  0.00     0.201 C 
ENDBRANCH  48  49
ENDBRANCH  47  48
ENDBRANCH  46  47
ENDBRANCH  45  46
ENDBRANCH   1  45
TORSDOF 12
ENDMDL
MODEL 2
REMARK minimizedAffinity -7.86706781
REMARK CNNscore 0.60383302
REMARK CNNaffinity 7.31904745
REMARK  12 active torsions:
REMARK  status: ('A' for Active; 'I' for Inactive)
REMARK    1  A    between atoms: O1_2  and  C2_3 
REMARK    2  A    between atoms: C2_3  and  C3_4 
REMARK    3  A    between atoms: C3_4  and  C4_5 
REMARK    4  A    between atoms: C4_5  and  O2_6 
REMARK    5  A    between atoms: O2_6  and  C5_7 
REMARK    6  A    between atoms: C20_23  and  C21_24 
REMARK    7  A    between atoms: C21_24  and  O4_26 
REMARK    8  A    between atoms: C21_24  and  C23_27 
REMARK    9  A    between atoms: C23_27  and  O5_28 
REMARK   10  A    between atoms: C23_27  and  C24_29 
REMARK   11  A    between atoms: C29_36  and  O7_37 
REMARK   12  A    between atoms: C36_44  and  O8_45 
ROOT
HETATM    1  C5  UNL     1     -12.771   9.042  14.195  1.00  0.00     0.122 C 
HETATM    2  C6  UNL     1     -11.889  10.273  13.974  1.00  0.00     0.033 C 
HETATM    3  C7  UNL     1     -10.399   9.936  13.929  1.00  0.00     0.013 C 
HETATM    4  C8  UNL     1      -9.895   9.125  15.168  1.00  0.00    -0.026 C 
HETATM    5  C9  UNL     1     -10.030  10.026  16.421  1.00  0.00     0.016 C 
HETATM    6  C10 UNL     1     -10.793   7.863  15.317  1.00  0.00     0.071 C 
HETATM    7  C11 UNL     1     -12.290   8.216  15.398  1.00  0.00     0.045 C 
HETATM    8  C12 UNL     1     -10.568   6.858  14.176  1.00  0.00     0.161 C 
HETATM    9  O3  UNL     1     -11.483   6.212  13.667  1.00  0.00    -0.292 OA
HETATM   10  C13 UNL     1      -9.173   6.598  13.744  1.00  0.00    -0.006 C 
HETATM   11  C14 UNL     1      -8.205   7.403  14.210  1.00  0.00    -0.030 C 
HETATM   12  C15 UNL     1      -8.385   8.731  14.931  1.00  0.00     0.027 C 
HETATM   13  C16 UNL     1      -7.419   8.831  16.144  1.00  0.00     0.011 C 
HETATM   14  C17 UNL     1      -5.943   8.493  15.775  1.00  0.00     0.014 C 
HETATM   15  C18 UNL     1      -5.823   7.077  15.173  1.00  0.00    -0.002 C 
HETATM   16  C19 UNL     1      -6.226   6.064  16.284  1.00  0.00     0.019 C 
HETATM   17  C20 UNL     1      -4.485   6.661  14.426  1.00  0.00     0.034 C 
HETATM   18  C32 UNL     1      -5.012   5.616  13.327  1.00  0.00     0.016 C 
HETATM   19  C33 UNL     1      -6.538   5.641  13.432  1.00  0.00     0.026 C 
HETATM   20  C34 UNL     1      -7.460   5.319  12.273  1.00  0.00     0.013 C 
HETATM   21  C35 UNL     1      -8.919   5.431  12.798  1.00  0.00     0.043 C 
HETATM   22  C36 UNL     1      -6.782   7.051  13.946  1.00  0.00     0.094 C 
ENDROOT
BRANCH  17  23
HETATM   23  C21 UNL     1      -3.195   6.141  15.147  1.00  0.00     0.087 C 
HETATM   24  C22 UNL     1      -2.782   4.776  14.547  1.00  0.00     0.049 C 
BRANCH  23  25
HETATM   25  O4  UNL     1      -3.509   5.863  16.527  1.00  0.00    -0.387 OA
HETATM   26  H33 UNL     1      -3.354   6.709  16.997  1.00  0.00     0.210 HD
ENDBRANCH  23  25
BRANCH  23  27
HETATM   27  C23 UNL     1      -1.930   7.070  15.170  1.00  0.00     0.181 C 
BRANCH  27  28
HETATM   28  O5  UNL     1      -2.381   8.399  15.465  1.00  0.00    -0.390 OA
HETATM   29  H35 UNL     1      -1.692   8.849  15.982  1.00  0.00     0.210 HD
ENDBRANCH  27  28
BRANCH  27  30
HETATM   30  C24 UNL     1      -1.007   6.981  13.931  1.00  0.00     0.158 C 
HETATM   31  O6  UNL     1      -1.169   5.749  13.230  1.00  0.00    -0.373 OA
HETATM   32  C25 UNL     1      -0.543   5.874  11.941  1.00  0.00     0.185 C 
HETATM   33  C26 UNL     1      -0.646   7.353  11.563  1.00  0.00     0.027 C 
HETATM   34  C29 UNL     1       0.914   5.333  11.967  1.00  0.00     0.383 C 
HETATM   35  C27 UNL     1       0.661   7.890  10.977  1.00  0.00     0.038 C 
HETATM   36  C30 UNL     1      -1.105   8.069  12.849  1.00  0.00     0.020 C 
HETATM   37  C28 UNL     1       1.889   7.577  11.833  1.00  0.00     0.273 C 
HETATM   38  N1  UNL     1       1.871   6.282  12.507  1.00  0.00     0.114 N 
HETATM   39  H43 UNL     1       2.805   5.881  12.533  1.00  0.00     0.319 HD
HETATM   40  C31 UNL     1      -2.482   8.694  12.635  1.00  0.00     0.013 C 
BRANCH  34  41
HETATM   41  O7  UNL     1       1.326   4.957  10.667  1.00  0.00    -0.366 OA
HETATM   42  H45 UNL     1       2.194   4.532  10.778  1.00  0.00     0.212 HD
ENDBRANCH  34  41
ENDBRANCH  27  30
ENDBRANCH  23  27
ENDBRANCH  17  23
BRANCH  22  43
HETATM   43  O8  UNL     1      -6.357   8.013  12.961  1.00  0.00    -0.384 OA
HETATM   44  H57 UNL     1      -6.916   7.900  12.176  1.00  0.00     0.211 HD
ENDBRANCH  22  43
BRANCH   1  45
HETATM   45  O2  UNL     1     -14.108   9.520  14.394  1.00  0.00    -0.386 OA
BRANCH  45  46
HETATM   46  C4  UNL     1     -15.112   8.557  14.066  1.00  0.00     0.170 C 
BRANCH  46  47
HETATM   47  C3  UNL     1     -14.998   8.225  12.579  1.00  0.00     0.052 C 
BRANCH  47  48
HETATM   48  C2  UNL     1     -16.245   7.513  12.060  1.00  0.00     0.169 C 
BRANCH  48  49
HETATM   49  O1  UNL     1     -16.800   8.272  10.986  1.00  0.00    -0.396 OA
HETATM   50  C1  UNL     1     -18.073   8.807  11.318  1.00  0.00     0.201 C 
ENDBRANCH  48  49
ENDBRANCH  47  48
ENDBRANCH  46  47
ENDBRANCH  45  46
ENDBRANCH   1  45
TORSDOF 12
ENDMDL
MODEL 3
REMARK minimizedAffinity -9.91553497
REMARK CNNscore 0.603758633
REMARK CNNaffinity 7.7008462
REMARK  12 active torsions:
REMARK  status: ('A' for Active; 'I' for Inactive)
REMARK    1  A    between atoms: O1_2  and  C2_3 
REMARK    2  A    between atoms: C2_3  and  C3_4 
REMARK    3  A    between atoms: C3_4  and  C4_5 
REMARK    4  A    between atoms: C4_5  and  O2_6 
REMARK    5  A    between atoms: O2_6  and  C5_7 
REMARK    6  A    between atoms: C20_23  and  C21_24 
REMARK    7  A    between atoms: C21_24  and  O4_26 
REMARK    8  A    between atoms: C21_24  and  C23_27 
REMARK    9  A    between atoms: C23_27  and  O5_28 
REMARK   10  A    between atoms: C23_27  and  C24_29 
REMARK   11  A    between atoms: C29_36  and  O7_37 
REMARK   12  A    between atoms: C36_44  and  O8_45 
ROOT
HETATM    1  C5  UNL     1       2.490   7.336  12.233  1.00  0.00     0.122 C 
HETATM    2  C6  UNL     1       2.546   7.342  13.762  1.00  0.00     0.033 C 
HETATM    3  C7  UNL     1       1.177   7.128  14.407  1.00  0.00     0.013 C 
HETATM    4  C8  UNL     1       0.077   8.118  13.902  1.00  0.00    -0.026 C 
HETATM    5  C9  UNL     1       0.472   9.548  14.349  1.00  0.00     0.016 C 
HETATM    6  C10 UNL     1       0.029   8.036  12.349  1.00  0.00     0.071 C 
HETATM    7  C11 UNL     1       1.407   8.290  11.707  1.00  0.00     0.045 C 
HETATM    8  C12 UNL     1      -0.520   6.687  11.860  1.00  0.00     0.161 C 
HETATM    9  O3  UNL     1      -0.074   6.104  10.871  1.00  0.00    -0.292 OA
HETATM   10  C13 UNL     1      -1.697   6.119  12.561  1.00  0.00    -0.006 C 
HETATM   11  C14 UNL     1      -2.084   6.692  13.713  1.00  0.00    -0.030 C 
HETATM   12  C15 UNL     1      -1.305   7.703  14.541  1.00  0.00     0.027 C 
HETATM   13  C16 UNL     1      -2.240   8.843  15.033  1.00  0.00     0.011 C 
HETATM   14  C17 UNL     1      -3.538   8.315  15.714  1.00  0.00     0.014 C 
HETATM   15  C18 UNL     1      -4.342   7.403  14.764  1.00  0.00    -0.002 C 
HETATM   16  C19 UNL     1      -4.817   8.282  13.569  1.00  0.00     0.019 C 
HETATM   17  C20 UNL     1      -5.505   6.498  15.354  1.00  0.00     0.034 C 
HETATM   18  C32 UNL     1      -5.489   5.228  14.372  1.00  0.00     0.016 C 
HETATM   19  C33 UNL     1      -4.284   5.433  13.452  1.00  0.00     0.026 C 
HETATM   20  C34 UNL     1      -3.523   4.292  12.806  1.00  0.00     0.013 C 
HETATM   21  C35 UNL     1      -2.399   4.921  11.935  1.00  0.00     0.043 C 
HETATM   22  C36 UNL     1      -3.368   6.265  14.336  1.00  0.00     0.094 C 
ENDROOT
BRANCH  17  23
HETATM   23  C21 UNL     1      -6.965   7.000  15.626  1.00  0.00     0.087 C 
HETATM   24  C22 UNL     1      -7.234   8.279  14.798  1.00  0.00     0.049 C 
BRANCH  23  25
HETATM   25  O4  UNL     1      -7.069   7.416  17.002  1.00  0.00    -0.387 OA
HETATM   26  H33 UNL     1      -7.324   6.607  17.493  1.00  0.00     0.210 HD
ENDBRANCH  23  25
BRANCH  23  27
HETATM   27  C23 UNL     1      -8.151   6.001  15.385  1.00  0.00     0.181 C 
BRANCH  27  28
HETATM   28  O5  UNL     1      -7.678   4.981  14.494  1.00  0.00    -0.390 OA
HETATM   29  H35 UNL     1      -8.118   4.145  14.724  1.00  0.00     0.210 HD
ENDBRANCH  27  28
BRANCH  27  30
HETATM   30  C24 UNL     1      -9.492   6.640  14.951  1.00  0.00     0.158 C 
HETATM   31  O6  UNL     1      -9.483   8.059  15.103  1.00  0.00    -0.373 OA
HETATM   32  C25 UNL     1     -10.607   8.599  14.386  1.00  0.00     0.185 C 
HETATM   33  C26 UNL     1     -10.868   7.640  13.223  1.00  0.00     0.027 C 
HETATM   34  C29 UNL     1     -11.831   8.797  15.323  1.00  0.00     0.383 C 
HETATM   35  C27 UNL     1     -12.358   7.343  13.045  1.00  0.00     0.038 C 
HETATM   36  C30 UNL     1     -10.005   6.398  13.521  1.00  0.00     0.020 C 
HETATM   37  C28 UNL     1     -13.055   6.917  14.339  1.00  0.00     0.273 C 
HETATM   38  N1  UNL     1     -12.584   7.577  15.553  1.00  0.00     0.114 N 
HETATM   39  H43 UNL     1     -13.357   7.742  16.191  1.00  0.00     0.319 HD
HETATM   40  C31 UNL     1      -8.943   6.228  12.437  1.00  0.00     0.013 C 
BRANCH  34  41
HETATM   41  O7  UNL     1     -12.702   9.781  14.799  1.00  0.00    -0.366 OA
HETATM   42  H45 UNL     1     -13.377   9.927  15.484  1.00  0.00     0.212 HD
ENDBRANCH  34  41
ENDBRANCH  27  30
ENDBRANCH  23  27
ENDBRANCH  17  23
BRANCH  22  43
HETATM   43  O8  UNL     1      -2.964   5.497  15.486  1.00  0.00    -0.384 OA
HETATM   44  H57 UNL     1      -2.440   4.744  15.170  1.00  0.00     0.211 HD
ENDBRANCH  22  43
BRANCH   1  45
HETATM   45  O2  UNL     1       3.791   7.723  11.769  1.00  0.00    -0.386 OA
BRANCH  45  46
HETATM   46  C4  UNL     1       4.508   6.662  11.134  1.00  0.00     0.170 C 
BRANCH  46  47
HETATM   47  C3  UNL     1       5.951   6.685  11.634  1.00  0.00     0.052 C 
BRANCH  47  48
HETATM   48  C2  UNL     1       6.145   7.703  12.756  1.00  0.00     0.169 C 
BRANCH  48  49
HETATM   49  O1  UNL     1       7.212   7.269  13.599  1.00  0.00    -0.396 OA
HETATM   50  C1  UNL     1       8.280   8.205  13.626  1.00  0.00     0.201 C 
ENDBRANCH  48  49
ENDBRANCH  47  48
ENDBRANCH  46  47
ENDBRANCH  45  46
ENDBRANCH   1  45
TORSDOF 12
ENDMDL
MODEL 4
REMARK minimizedAffinity -7.39810276
REMARK CNNscore 0.562067509
REMARK CNNaffinity 6.02998686
REMARK  12 active torsions:
REMARK  status: ('A' for Active; 'I' for Inactive)
REMARK    1  A    between atoms: O1_2  and  C2_3 
REMARK    2  A    between atoms: C2_3  and  C3_4 
REMARK    3  A    between atoms: C3_4  and  C4_5 
REMARK    4  A    between atoms: C4_5  and  O2_6 
REMARK    5  A    between atoms: O2_6  and  C5_7 
REMARK    6  A    between atoms: C20_23  and  C21_24 
REMARK    7  A    between atoms: C21_24  and  O4_26 
REMARK    8  A    between atoms: C21_24  and  C23_27 
REMARK    9  A    between atoms: C23_27  and  O5_28 
REMARK   10  A    between atoms: C23_27  and  C24_29 
REMARK   11  A    between atoms: C29_36  and  O7_37 
REMARK   12  A    between atoms: C36_44  and  O8_45 
ROOT
HETATM    1  C5  UNL     1       8.847  16.620  24.454  1.00  0.00     0.122 C 
HETATM    2  C6  UNL     1       7.467  17.223  24.727  1.00  0.00     0.033 C 
HETATM    3  C7  UNL     1       6.325  16.368  24.179  1.00  0.00     0.013 C 
HETATM    4  C8  UNL     1       6.470  16.014  22.662  1.00  0.00    -0.026 C 
HETATM    5  C9  UNL     1       6.366  17.328  21.848  1.00  0.00     0.016 C 
HETATM    6  C10 UNL     1       7.867  15.361  22.449  1.00  0.00     0.071 C 
HETATM    7  C11 UNL     1       9.013  16.249  22.972  1.00  0.00     0.045 C 
HETATM    8  C12 UNL     1       7.959  13.973  23.101  1.00  0.00     0.161 C 
HETATM    9  O3  UNL     1       8.975  13.568  23.667  1.00  0.00    -0.292 OA
HETATM   10  C13 UNL     1       6.802  13.057  22.954  1.00  0.00    -0.006 C 
HETATM   11  C14 UNL     1       5.658  13.557  22.457  1.00  0.00    -0.030 C 
HETATM   12  C15 UNL     1       5.307  15.025  22.262  1.00  0.00     0.027 C 
HETATM   13  C16 UNL     1       4.618  15.245  20.887  1.00  0.00     0.011 C 
HETATM   14  C17 UNL     1       3.437  14.260  20.633  1.00  0.00     0.014 C 
HETATM   15  C18 UNL     1       3.901  12.791  20.716  1.00  0.00    -0.002 C 
HETATM   16  C19 UNL     1       4.907  12.556  19.550  1.00  0.00     0.019 C 
HETATM   17  C20 UNL     1       2.815  11.638  20.824  1.00  0.00     0.034 C 
HETATM   18  C32 UNL     1       3.585  10.514  21.673  1.00  0.00     0.016 C 
HETATM   19  C33 UNL     1       4.914  11.148  22.086  1.00  0.00     0.026 C 
HETATM   20  C34 UNL     1       5.678  10.749  23.333  1.00  0.00     0.013 C 
HETATM   21  C35 UNL     1       6.977  11.604  23.374  1.00  0.00     0.043 C 
HETATM   22  C36 UNL     1       4.547  12.623  22.123  1.00  0.00     0.094 C 
ENDROOT
BRANCH  17  23
HETATM   23  C21 UNL     1       2.057  11.020  19.599  1.00  0.00     0.087 C 
HETATM   24  C22 UNL     1       0.533  11.048  19.865  1.00  0.00     0.049 C 
BRANCH  23  25
HETATM   25  O4  UNL     1       2.393   9.621  19.498  1.00  0.00    -0.387 OA
HETATM   26  H33 UNL     1       3.195   9.593  18.935  1.00  0.00     0.210 HD
ENDBRANCH  23  25
BRANCH  23  27
HETATM   27  C23 UNL     1       2.319  11.631  18.177  1.00  0.00     0.181 C 
BRANCH  27  28
HETATM   28  O5  UNL     1       1.482  12.789  18.048  1.00  0.00    -0.390 OA
HETATM   29  H35 UNL     1       1.947  13.444  17.500  1.00  0.00     0.210 HD
ENDBRANCH  27  28
BRANCH  27  30
HETATM   30  C24 UNL     1       2.212  10.644  16.990  1.00  0.00     0.158 C 
HETATM   31  O6  UNL     1       2.185   9.285  17.424  1.00  0.00    -0.373 OA
HETATM   32  C25 UNL     1       1.759   8.465  16.322  1.00  0.00     0.185 C 
HETATM   33  C26 UNL     1       0.841   9.345  15.470  1.00  0.00     0.027 C 
HETATM   34  C29 UNL     1       2.975   7.890  15.544  1.00  0.00     0.383 C 
HETATM   35  C27 UNL     1       1.131   9.202  13.975  1.00  0.00     0.038 C 
HETATM   36  C30 UNL     1       1.027  10.774  16.018  1.00  0.00     0.020 C 
HETATM   37  C28 UNL     1       2.611   9.364  13.622  1.00  0.00     0.273 C 
HETATM   38  N1  UNL     1       3.553   8.830  14.600  1.00  0.00     0.114 N 
HETATM   39  H43 UNL     1       4.361   8.427  14.134  1.00  0.00     0.319 HD
HETATM   40  C31 UNL     1      -0.287  11.280  16.610  1.00  0.00     0.013 C 
BRANCH  34  41
HETATM   41  O7  UNL     1       2.608   6.713  14.850  1.00  0.00    -0.366 OA
HETATM   42  H45 UNL     1       3.433   6.355  14.482  1.00  0.00     0.212 HD
ENDBRANCH  34  41
ENDBRANCH  27  30
ENDBRANCH  23  27
ENDBRANCH  17  23
BRANCH  22  43
HETATM   43  O8  UNL     1       3.566  12.859  23.152  1.00  0.00    -0.384 OA
HETATM   44  H57 UNL     1       3.977  12.652  24.006  1.00  0.00     0.211 HD
ENDBRANCH  22  43
BRANCH   1  45
HETATM   45  O2  UNL     1       9.814  17.599  24.854  1.00  0.00    -0.386 OA
BRANCH  45  46
HETATM   46  C4  UNL     1      10.469  18.237  23.755  1.00  0.00     0.170 C 
BRANCH  46  47
HETATM   47  C3  UNL     1      10.281  19.747  23.889  1.00  0.00     0.052 C 
BRANCH  47  48
HETATM   48  C2  UNL     1      10.942  20.504  22.740  1.00  0.00     0.169 C 
BRANCH  48  49
HETATM   49  O1  UNL     1      12.360  20.382  22.858  1.00  0.00    -0.396 OA
HETATM   50  C1  UNL     1      12.934  21.507  23.508  1.00  0.00     0.201 C 
ENDBRANCH  48  49
ENDBRANCH  47  48
ENDBRANCH  46  47
ENDBRANCH  45  46
ENDBRANCH   1  45
TORSDOF 12
ENDMDL
MODEL 5
REMARK minimizedAffinity -8.53399372
REMARK CNNscore 0.422466397
REMARK CNNaffinity 6.63902664
REMARK  12 active torsions:
REMARK  status: ('A' for Active; 'I' for Inactive)
REMARK    1  A    between atoms: O1_2  and  C2_3 
REMARK    2  A    between atoms: C2_3  and  C3_4 
REMARK    3  A    between atoms: C3_4  and  C4_5 
REMARK    4  A    between atoms: C4_5  and  O2_6 
REMARK    5  A    between atoms: O2_6  and  C5_7 
REMARK    6  A    between atoms: C20_23  and  C21_24 
REMARK    7  A    between atoms: C21_24  and  O4_26 
REMARK    8  A    between atoms: C21_24  and  C23_27 
REMARK    9  A    between atoms: C23_27  and  O5_28 
REMARK   10  A    between atoms: C23_27  and  C24_29 
REMARK   11  A    between atoms: C29_36  and  O7_37 
REMARK   12  A    between atoms: C36_44  and  O8_45 
ROOT
HETATM    1  C5  UNL     1      -6.081   7.396  14.477  1.00  0.00     0.122 C 
HETATM    2  C6  UNL     1      -5.548   6.005  14.826  1.00  0.00     0.033 C 
HETATM    3  C7  UNL     1      -4.037   5.986  15.050  1.00  0.00     0.013 C 
HETATM    4  C8  UNL     1      -3.213   6.600  13.870  1.00  0.00    -0.026 C 
HETATM    5  C9  UNL     1      -3.410   5.699  12.625  1.00  0.00     0.016 C 
HETATM    6  C10 UNL     1      -3.762   8.028  13.590  1.00  0.00     0.071 C 
HETATM    7  C11 UNL     1      -5.280   8.031  13.328  1.00  0.00     0.045 C 
HETATM    8  C12 UNL     1      -3.440   9.004  14.733  1.00  0.00     0.161 C 
HETATM    9  O3  UNL     1      -4.229   9.869  15.113  1.00  0.00    -0.292 OA
HETATM   10  C13 UNL     1      -2.084   8.951  15.331  1.00  0.00    -0.006 C 
HETATM   11  C14 UNL     1      -1.286   7.921  15.002  1.00  0.00    -0.030 C 
HETATM   12  C15 UNL     1      -1.691   6.640  14.286  1.00  0.00     0.027 C 
HETATM   13  C16 UNL     1      -0.641   6.262  13.205  1.00  0.00     0.011 C 
HETATM   14  C17 UNL     1       0.820   6.263  13.749  1.00  0.00     0.014 C 
HETATM   15  C18 UNL     1       1.200   7.637  14.338  1.00  0.00    -0.002 C 
HETATM   16  C19 UNL     1       1.183   8.665  13.168  1.00  0.00     0.019 C 
HETATM   17  C20 UNL     1       2.502   7.763  15.239  1.00  0.00     0.034 C 
HETATM   18  C32 UNL     1       2.113   8.951  16.246  1.00  0.00     0.016 C 
HETATM   19  C33 UNL     1       0.648   9.279  15.952  1.00  0.00     0.026 C 
HETATM   20  C34 UNL     1      -0.300   9.860  16.982  1.00  0.00     0.013 C 
HETATM   21  C35 UNL     1      -1.673  10.068  16.280  1.00  0.00     0.043 C 
HETATM   22  C36 UNL     1       0.138   7.943  15.435  1.00  0.00     0.094 C 
ENDROOT
BRANCH  17  23
HETATM   23  C21 UNL     1       3.954   7.935  14.675  1.00  0.00     0.087 C 
HETATM   24  C22 UNL     1       3.965   7.601  13.164  1.00  0.00     0.049 C 
BRANCH  23  25
HETATM   25  O4  UNL     1       4.813   6.949  15.283  1.00  0.00    -0.387 OA
HETATM   26  H33 UNL     1       5.148   7.374  16.099  1.00  0.00     0.210 HD
ENDBRANCH  23  25
BRANCH  23  27
HETATM   27  C23 UNL     1       4.672   9.317  14.877  1.00  0.00     0.181 C 
BRANCH  27  28
HETATM   28  O5  UNL     1       4.163  10.213  13.880  1.00  0.00    -0.390 OA
HETATM   29  H35 UNL     1       4.144  11.110  14.255  1.00  0.00     0.210 HD
ENDBRANCH  27  28
BRANCH  27  30
HETATM   30  C24 UNL     1       6.217   9.268  14.948  1.00  0.00     0.158 C 
HETATM   31  O6  UNL     1       6.823   9.734  13.744  1.00  0.00    -0.373 OA
HETATM   32  C25 UNL     1       8.219   9.969  14.001  1.00  0.00     0.185 C 
HETATM   33  C26 UNL     1       8.319  10.353  15.479  1.00  0.00     0.027 C 
HETATM   34  C29 UNL     1       9.079   8.735  13.614  1.00  0.00     0.383 C 
HETATM   35  C27 UNL     1       9.484   9.652  16.178  1.00  0.00     0.038 C 
HETATM   36  C30 UNL     1       6.935  10.030  16.075  1.00  0.00     0.020 C 
HETATM   37  C28 UNL     1       9.513   8.139  15.950  1.00  0.00     0.273 C 
HETATM   38  N1  UNL     1       9.084   7.695  14.628  1.00  0.00     0.114 N 
HETATM   39  H43 UNL     1       9.633   6.895  14.326  1.00  0.00     0.319 HD
HETATM   40  C31 UNL     1       6.265  11.313  16.563  1.00  0.00     0.013 C 
BRANCH  34  41
HETATM   41  O7  UNL     1      10.414   9.122  13.350  1.00  0.00    -0.366 OA
HETATM   42  H45 UNL     1      10.858   8.326  13.013  1.00  0.00     0.212 HD
ENDBRANCH  34  41
ENDBRANCH  27  30
ENDBRANCH  23  27
ENDBRANCH  17  23
BRANCH  22  43
HETATM   43  O8  UNL     1       0.204   6.955  16.481  1.00  0.00    -0.384 OA
HETATM   44  H57 UNL     1      -0.400   7.231  17.189  1.00  0.00     0.211 HD
ENDBRANCH  22  43
BRANCH   1  45
HETATM   45  O2  UNL     1      -7.460   7.235  14.120  1.00  0.00    -0.386 OA
BRANCH  45  46
HETATM   46  C4  UNL     1      -8.355   7.376  15.226  1.00  0.00     0.170 C 
BRANCH  46  47
HETATM   47  C3  UNL     1      -9.328   8.513  14.920  1.00  0.00     0.052 C 
BRANCH  47  48
HETATM   48  C2  UNL     1     -10.775   8.108  15.194  1.00  0.00     0.169 C 
BRANCH  48  49
HETATM   49  O1  UNL     1     -11.468   9.217  15.765  1.00  0.00    -0.396 OA
HETATM   50  C1  UNL     1     -10.897   9.617  17.003  1.00  0.00     0.201 C 
ENDBRANCH  48  49
ENDBRANCH  47  48
ENDBRANCH  46  47
ENDBRANCH  45  46
ENDBRANCH   1  45
TORSDOF 12
ENDMDL
MODEL 6
REMARK minimizedAffinity -7.93857336
REMARK CNNscore 0.421762288
REMARK CNNaffinity 6.82629824
REMARK  12 active torsions:
REMARK  status: ('A' for Active; 'I' for Inactive)
REMARK    1  A    between atoms: O1_2  and  C2_3 
REMARK    2  A    between atoms: C2_3  and  C3_4 
REMARK    3  A    between atoms: C3_4  and  C4_5 
REMARK    4  A    between atoms: C4_5  and  O2_6 
REMARK    5  A    between atoms: O2_6  and  C5_7 
REMARK    6  A    between atoms: C20_23  and  C21_24 
REMARK    7  A    between atoms: C21_24  and  O4_26 
REMARK    8  A    between atoms: C21_24  and  C23_27 
REMARK    9  A    between atoms: C23_27  and  O5_28 
REMARK   10  A    between atoms: C23_27  and  C24_29 
REMARK   11  A    between atoms: C29_36  and  O7_37 
REMARK   12  A    between atoms: C36_44  and  O8_45 
ROOT
HETATM    1  C5  UNL     1       8.689   9.866  12.811  1.00  0.00     0.122 C 
HETATM    2  C6  UNL     1       8.633   8.535  13.566  1.00  0.00     0.033 C 
HETATM    3  C7  UNL     1       7.282   7.833  13.431  1.00  0.00     0.013 C 
HETATM    4  C8  UNL     1       6.061   8.729  13.821  1.00  0.00    -0.026 C 
HETATM    5  C9  UNL     1       6.159   9.046  15.334  1.00  0.00     0.016 C 
HETATM    6  C10 UNL     1       6.140  10.043  12.992  1.00  0.00     0.071 C 
HETATM    7  C11 UNL     1       7.492  10.762  13.164  1.00  0.00     0.045 C 
HETATM    8  C12 UNL     1       5.880   9.797  11.497  1.00  0.00     0.161 C 
HETATM    9  O3  UNL     1       6.494  10.387  10.608  1.00  0.00    -0.292 OA
HETATM   10  C13 UNL     1       4.778   8.878  11.125  1.00  0.00    -0.006 C 
HETATM   11  C14 UNL     1       4.211   8.143  12.096  1.00  0.00    -0.030 C 
HETATM   12  C15 UNL     1       4.734   7.933  13.510  1.00  0.00     0.027 C 
HETATM   13  C16 UNL     1       3.576   8.036  14.542  1.00  0.00     0.011 C 
HETATM   14  C17 UNL     1       2.349   7.150  14.170  1.00  0.00     0.014 C 
HETATM   15  C18 UNL     1       1.793   7.514  12.777  1.00  0.00    -0.002 C 
HETATM   16  C19 UNL     1       1.255   8.973  12.860  1.00  0.00     0.019 C 
HETATM   17  C20 UNL     1       0.773   6.528  12.066  1.00  0.00     0.034 C 
HETATM   18  C32 UNL     1       1.088   6.766  10.510  1.00  0.00     0.016 C 
HETATM   19  C33 UNL     1       2.299   7.699  10.472  1.00  0.00     0.026 C 
HETATM   20  C34 UNL     1       3.297   7.727   9.332  1.00  0.00     0.013 C 
HETATM   21  C35 UNL     1       4.350   8.822   9.665  1.00  0.00     0.043 C 
HETATM   22  C36 UNL     1       2.984   7.358  11.786  1.00  0.00     0.094 C 
ENDROOT
BRANCH  17  23
HETATM   23  C21 UNL     1      -0.770   6.499  12.346  1.00  0.00     0.087 C 
HETATM   24  C22 UNL     1      -1.025   5.978  13.779  1.00  0.00     0.049 C 
BRANCH  23  25
HETATM   25  O4  UNL     1      -1.385   5.525  11.478  1.00  0.00    -0.387 OA
HETATM   26  H33 UNL     1      -1.607   6.018  10.661  1.00  0.00     0.210 HD
ENDBRANCH  23  25
BRANCH  23  27
HETATM   27  C23 UNL     1      -1.585   7.826  12.152  1.00  0.00     0.181 C 
BRANCH  27  28
HETATM   28  O5  UNL     1      -0.916   8.596  11.144  1.00  0.00    -0.390 OA
HETATM   29  H35 UNL     1      -1.586   9.093  10.644  1.00  0.00     0.210 HD
ENDBRANCH  27  28
BRANCH  27  30
HETATM   30  C24 UNL     1      -1.896   8.619  13.445  1.00  0.00     0.158 C 
HETATM   31  O6  UNL     1      -1.665  10.017  13.284  1.00  0.00    -0.373 OA
HETATM   32  C25 UNL     1      -2.277  10.708  14.388  1.00  0.00     0.185 C 
HETATM   33  C26 UNL     1      -3.473   9.853  14.811  1.00  0.00     0.027 C 
HETATM   34  C29 UNL     1      -1.254  10.965  15.529  1.00  0.00     0.383 C 
HETATM   35  C27 UNL     1      -3.572   9.713  16.331  1.00  0.00     0.038 C 
HETATM   36  C30 UNL     1      -3.301   8.517  14.062  1.00  0.00     0.020 C 
HETATM   37  C28 UNL     1      -2.263   9.277  16.991  1.00  0.00     0.273 C 
HETATM   38  N1  UNL     1      -1.046   9.812  16.387  1.00  0.00     0.114 N 
HETATM   39  H43 UNL     1      -0.352  10.010  17.101  1.00  0.00     0.319 HD
HETATM   40  C31 UNL     1      -4.459   8.313  13.087  1.00  0.00     0.013 C 
BRANCH  34  41
HETATM   41  O7  UNL     1      -1.665  12.059  16.327  1.00  0.00    -0.366 OA
HETATM   42  H45 UNL     1      -0.932  12.227  16.942  1.00  0.00     0.212 HD
ENDBRANCH  34  41
ENDBRANCH  27  30
ENDBRANCH  23  27
ENDBRANCH  17  23
BRANCH  22  43
HETATM   43  O8  UNL     1       3.436   5.990  11.763  1.00  0.00    -0.384 OA
HETATM   44  H57 UNL     1       4.109   5.912  11.068  1.00  0.00     0.211 HD
ENDBRANCH  22  43
BRANCH   1  45
HETATM   45  O2  UNL     1       9.929  10.493  13.167  1.00  0.00    -0.386 OA
BRANCH  45  46
HETATM   46  C4  UNL     1      10.545   9.921  14.323  1.00  0.00     0.170 C 
BRANCH  46  47
HETATM   47  C3  UNL     1      12.019   9.668  14.012  1.00  0.00     0.052 C 
BRANCH  47  48
HETATM   48  C2  UNL     1      12.708  10.923  13.478  1.00  0.00     0.169 C 
BRANCH  48  49
HETATM   49  O1  UNL     1      13.076  10.706  12.115  1.00  0.00    -0.396 OA
HETATM   50  C1  UNL     1      13.956  11.715  11.639  1.00  0.00     0.201 C 
ENDBRANCH  48  49
ENDBRANCH  47  48
ENDBRANCH  46  47
ENDBRANCH  45  46
ENDBRANCH   1  45
TORSDOF 12
ENDMDL
MODEL 7
REMARK minimizedAffinity -7.94150734
REMARK CNNscore 0.409170598
REMARK CNNaffinity 6.54737282
REMARK  12 active torsions:
REMARK  status: ('A' for Active; 'I' for Inactive)
REMARK    1  A    between atoms: O1_2  and  C2_3 
REMARK    2  A    between atoms: C2_3  and  C3_4 
REMARK    3  A    between atoms: C3_4  and  C4_5 
REMARK    4  A    between atoms: C4_5  and  O2_6 
REMARK    5  A    between atoms: O2_6  and  C5_7 
REMARK    6  A    between atoms: C20_23  and  C21_24 
REMARK    7  A    between atoms: C21_24  and  O4_26 
REMARK    8  A    between atoms: C21_24  and  C23_27 
REMARK    9  A    between atoms: C23_27  and  O5_28 
REMARK   10  A    between atoms: C23_27  and  C24_29 
REMARK   11  A    between atoms: C29_36  and  O7_37 
REMARK   12  A    between atoms: C36_44  and  O8_45 
ROOT
HETATM    1  C5  UNL     1       6.414  12.705  22.363  1.00  0.00     0.122 C 
HETATM    2  C6  UNL     1       5.679  11.488  22.929  1.00  0.00     0.033 C 
HETATM    3  C7  UNL     1       4.598  10.957  21.990  1.00  0.00     0.013 C 
HETATM    4  C8  UNL     1       3.571  12.042  21.528  1.00  0.00    -0.026 C 
HETATM    5  C9  UNL     1       2.776  12.514  22.771  1.00  0.00     0.016 C 
HETATM    6  C10 UNL     1       4.366  13.232  20.917  1.00  0.00     0.071 C 
HETATM    7  C11 UNL     1       5.429  13.784  21.887  1.00  0.00     0.045 C 
HETATM    8  C12 UNL     1       5.037  12.854  19.588  1.00  0.00     0.161 C 
HETATM    9  O3  UNL     1       6.157  13.254  19.268  1.00  0.00    -0.292 OA
HETATM   10  C13 UNL     1       4.255  12.050  18.617  1.00  0.00    -0.006 C 
HETATM   11  C14 UNL     1       3.097  11.509  19.031  1.00  0.00    -0.030 C 
HETATM   12  C15 UNL     1       2.599  11.396  20.465  1.00  0.00     0.027 C 
HETATM   13  C16 UNL     1       1.092  11.765  20.552  1.00  0.00     0.011 C 
HETATM   14  C17 UNL     1       0.219  11.010  19.504  1.00  0.00     0.014 C 
HETATM   15  C18 UNL     1       0.705  11.283  18.065  1.00  0.00    -0.002 C 
HETATM   16  C19 UNL     1       0.491  12.799  17.783  1.00  0.00     0.019 C 
HETATM   17  C20 UNL     1       0.182  10.363  16.881  1.00  0.00     0.034 C 
HETATM   18  C32 UNL     1       1.419  10.380  15.857  1.00  0.00     0.016 C 
HETATM   19  C33 UNL     1       2.537  11.137  16.574  1.00  0.00     0.026 C 
HETATM   20  C34 UNL     1       4.011  10.905  16.302  1.00  0.00     0.013 C 
HETATM   21  C35 UNL     1       4.808  11.884  17.208  1.00  0.00     0.043 C 
HETATM   22  C36 UNL     1       2.204  10.861  18.031  1.00  0.00     0.094 C 
ENDROOT
BRANCH  17  23
HETATM   23  C21 UNL     1      -1.185  10.567  16.141  1.00  0.00     0.087 C 
HETATM   24  C22 UNL     1      -1.033  11.672  15.069  1.00  0.00     0.049 C 
BRANCH  23  25
HETATM   25  O4  UNL     1      -2.152  11.083  17.077  1.00  0.00    -0.387 OA
HETATM   26  H33 UNL     1      -2.562  10.290  17.482  1.00  0.00     0.210 HD
ENDBRANCH  23  25
BRANCH  23  27
HETATM   27  C23 UNL     1      -1.858   9.319  15.468  1.00  0.00     0.181 C 
BRANCH  27  28
HETATM   28  O5  UNL     1      -2.208   8.404  16.515  1.00  0.00    -0.390 OA
HETATM   29  H35 UNL     1      -3.022   7.939  16.257  1.00  0.00     0.210 HD
ENDBRANCH  27  28
BRANCH  27  30
HETATM   30  C24 UNL     1      -1.065   8.671  14.307  1.00  0.00     0.158 C 
HETATM   31  O6  UNL     1      -0.699   7.322  14.596  1.00  0.00    -0.373 OA
HETATM   32  C25 UNL     1      -0.270   6.697  13.374  1.00  0.00     0.185 C 
HETATM   33  C26 UNL     1      -1.045   7.388  12.250  1.00  0.00     0.027 C 
HETATM   34  C29 UNL     1       1.274   6.776  13.212  1.00  0.00     0.383 C 
HETATM   35  C27 UNL     1      -0.153   7.717  11.053  1.00  0.00     0.038 C 
HETATM   36  C30 UNL     1      -1.701   8.618  12.908  1.00  0.00     0.020 C 
HETATM   37  C28 UNL     1       1.133   8.455  11.433  1.00  0.00     0.273 C 
HETATM   38  N1  UNL     1       1.735   8.055  12.701  1.00  0.00     0.114 N 
HETATM   39  H43 UNL     1       2.749   8.076  12.636  1.00  0.00     0.319 HD
HETATM   40  C31 UNL     1      -3.222   8.487  12.857  1.00  0.00     0.013 C 
BRANCH  34  41
HETATM   41  O7  UNL     1       1.736   5.748  12.356  1.00  0.00    -0.366 OA
HETATM   42  H45 UNL     1       2.706   5.794  12.390  1.00  0.00     0.212 HD
ENDBRANCH  34  41
ENDBRANCH  27  30
ENDBRANCH  23  27
ENDBRANCH  17  23
BRANCH  22  43
HETATM   43  O8  UNL     1       2.331   9.452  18.306  1.00  0.00    -0.384 OA
HETATM   44  H57 UNL     1       3.262   9.209  18.180  1.00  0.00     0.211 HD
ENDBRANCH  22  43
BRANCH   1  45
HETATM   45  O2  UNL     1       7.262  13.201  23.408  1.00  0.00    -0.386 OA
BRANCH  45  46
HETATM   46  C4  UNL     1       8.325  14.031  22.934  1.00  0.00     0.170 C 
BRANCH  46  47
HETATM   47  C3  UNL     1       8.778  13.507  21.572  1.00  0.00     0.052 C 
BRANCH  47  48
HETATM   48  C2  UNL     1       9.969  12.560  21.697  1.00  0.00     0.169 C 
BRANCH  48  49
HETATM   49  O1  UNL     1      10.927  12.883  20.689  1.00  0.00    -0.396 OA
HETATM   50  C1  UNL     1      10.441  13.875  19.796  1.00  0.00     0.201 C 
ENDBRANCH  48  49
ENDBRANCH  47  48
ENDBRANCH  46  47
ENDBRANCH  45  46
ENDBRANCH   1  45
TORSDOF 12
ENDMDL
MODEL 8
REMARK minimizedAffinity -9.69395447
REMARK CNNscore 0.3923406
REMARK CNNaffinity 7.17497969
REMARK  12 active torsions:
REMARK  status: ('A' for Active; 'I' for Inactive)
REMARK    1  A    between atoms: O1_2  and  C2_3 
REMARK    2  A    between atoms: C2_3  and  C3_4 
REMARK    3  A    between atoms: C3_4  and  C4_5 
REMARK    4  A    between atoms: C4_5  and  O2_6 
REMARK    5  A    between atoms: O2_6  and  C5_7 
REMARK    6  A    between atoms: C20_23  and  C21_24 
REMARK    7  A    between atoms: C21_24  and  O4_26 
REMARK    8  A    between atoms: C21_24  and  C23_27 
REMARK    9  A    between atoms: C23_27  and  O5_28 
REMARK   10  A    between atoms: C23_27  and  C24_29 
REMARK   11  A    between atoms: C29_36  and  O7_37 
REMARK   12  A    between atoms: C36_44  and  O8_45 
ROOT
HETATM    1  C5  UNL     1      -5.833   6.990  14.683  1.00  0.00     0.122 C 
HETATM    2  C6  UNL     1      -5.637   8.337  13.983  1.00  0.00     0.033 C 
HETATM    3  C7  UNL     1      -4.299   8.437  13.251  1.00  0.00     0.013 C 
HETATM    4  C8  UNL     1      -3.060   8.107  14.146  1.00  0.00    -0.026 C 
HETATM    5  C9  UNL     1      -2.958   9.193  15.246  1.00  0.00     0.016 C 
HETATM    6  C10 UNL     1      -3.289   6.710  14.793  1.00  0.00     0.071 C 
HETATM    7  C11 UNL     1      -4.623   6.632  15.560  1.00  0.00     0.045 C 
HETATM    8  C12 UNL     1      -3.231   5.579  13.754  1.00  0.00     0.161 C 
HETATM    9  O3  UNL     1      -3.977   4.600  13.792  1.00  0.00    -0.292 OA
HETATM   10  C13 UNL     1      -2.166   5.635  12.724  1.00  0.00    -0.006 C 
HETATM   11  C14 UNL     1      -1.451   6.767  12.612  1.00  0.00    -0.030 C 
HETATM   12  C15 UNL     1      -1.768   8.116  13.240  1.00  0.00     0.027 C 
HETATM   13  C16 UNL     1      -0.482   8.760  13.830  1.00  0.00     0.011 C 
HETATM   14  C17 UNL     1       0.706   8.781  12.821  1.00  0.00     0.014 C 
HETATM   15  C18 UNL     1       1.054   7.360  12.331  1.00  0.00    -0.002 C 
HETATM   16  C19 UNL     1       1.559   6.555  13.565  1.00  0.00     0.019 C 
HETATM   17  C20 UNL     1       1.992   7.183  11.063  1.00  0.00     0.034 C 
HETATM   18  C32 UNL     1       1.459   5.810  10.425  1.00  0.00     0.016 C 
HETATM   19  C33 UNL     1       0.230   5.423  11.249  1.00  0.00     0.026 C 
HETATM   20  C34 UNL     1      -0.917   4.596  10.700  1.00  0.00     0.013 C 
HETATM   21  C35 UNL     1      -1.942   4.405  11.853  1.00  0.00     0.043 C 
HETATM   22  C36 UNL     1      -0.258   6.783  11.721  1.00  0.00     0.094 C 
ENDROOT
BRANCH  17  23
HETATM   23  C21 UNL     1       3.559   7.230  11.109  1.00  0.00     0.087 C 
HETATM   24  C22 UNL     1       4.132   6.660   9.790  1.00  0.00     0.049 C 
BRANCH  23  25
HETATM   25  O4  UNL     1       4.024   6.333  12.138  1.00  0.00    -0.387 OA
HETATM   26  H33 UNL     1       4.047   6.875  12.954  1.00  0.00     0.210 HD
ENDBRANCH  23  25
BRANCH  23  27
HETATM   27  C23 UNL     1       4.253   8.610  11.391  1.00  0.00     0.181 C 
BRANCH  27  28
HETATM   28  O5  UNL     1       4.676   9.142  10.128  1.00  0.00    -0.390 OA
HETATM   29  H35 UNL     1       4.610  10.111  10.166  1.00  0.00     0.210 HD
ENDBRANCH  27  28
BRANCH  27  30
HETATM   30  C24 UNL     1       5.362   8.596  12.470  1.00  0.00     0.158 C 
HETATM   31  O6  UNL     1       5.024   7.760  13.576  1.00  0.00    -0.373 OA
HETATM   32  C25 UNL     1       6.211   7.540  14.358  1.00  0.00     0.185 C 
HETATM   33  C26 UNL     1       7.384   7.611  13.377  1.00  0.00     0.027 C 
HETATM   34  C29 UNL     1       6.311   8.555  15.529  1.00  0.00     0.383 C 
HETATM   35  C27 UNL     1       8.551   8.428  13.933  1.00  0.00     0.038 C 
HETATM   36  C30 UNL     1       6.785   8.170  12.071  1.00  0.00     0.020 C 
HETATM   37  C28 UNL     1       8.136   9.800  14.470  1.00  0.00     0.273 C 
HETATM   38  N1  UNL     1       6.834   9.849  15.128  1.00  0.00     0.114 N 
HETATM   39  H43 UNL     1       6.857  10.492  15.914  1.00  0.00     0.319 HD
HETATM   40  C31 UNL     1       6.897   7.129  10.959  1.00  0.00     0.013 C 
BRANCH  34  41
HETATM   41  O7  UNL     1       7.120   8.037  16.568  1.00  0.00    -0.366 OA
HETATM   42  H45 UNL     1       7.046   8.672  17.301  1.00  0.00     0.212 HD
ENDBRANCH  34  41
ENDBRANCH  27  30
ENDBRANCH  23  27
ENDBRANCH  17  23
BRANCH  22  43
HETATM   43  O8  UNL     1      -0.672   7.575  10.591  1.00  0.00    -0.384 OA
HETATM   44  H57 UNL     1      -1.432   7.132  10.181  1.00  0.00     0.211 HD
ENDBRANCH  22  43
BRANCH   1  45
HETATM   45  O2  UNL     1      -7.028   7.100  15.468  1.00  0.00    -0.386 OA
BRANCH  45  46
HETATM   46  C4  UNL     1      -7.994   6.087  15.179  1.00  0.00     0.170 C 
BRANCH  46  47
HETATM   47  C3  UNL     1      -8.510   6.300  13.757  1.00  0.00     0.052 C 
BRANCH  47  48
HETATM   48  C2  UNL     1      -8.622   4.983  12.992  1.00  0.00     0.169 C 
BRANCH  48  49
HETATM   49  O1  UNL     1      -7.328   4.388  12.898  1.00  0.00    -0.396 OA
HETATM   50  C1  UNL     1      -7.357   3.004  13.216  1.00  0.00     0.201 C 
ENDBRANCH  48  49
ENDBRANCH  47  48
ENDBRANCH  46  47
ENDBRANCH  45  46
ENDBRANCH   1  45
TORSDOF 12
ENDMDL
MODEL 9
REMARK minimizedAffinity -7.27811193
REMARK CNNscore 0.365726054
REMARK CNNaffinity 6.01110649
REMARK  12 active torsions:
REMARK  status: ('A' for Active; 'I' for Inactive)
REMARK    1  A    between atoms: O1_2  and  C2_3 
REMARK    2  A    between atoms: C2_3  and  C3_4 
REMARK    3  A    between atoms: C3_4  and  C4_5 
REMARK    4  A    between atoms: C4_5  and  O2_6 
REMARK    5  A    between atoms: O2_6  and  C5_7 
REMARK    6  A    between atoms: C20_23  and  C21_24 
REMARK    7  A    between atoms: C21_24  and  O4_26 
REMARK    8  A    between atoms: C21_24  and  C23_27 
REMARK    9  A    between atoms: C23_27  and  O5_28 
REMARK   10  A    between atoms: C23_27  and  C24_29 
REMARK   11  A    between atoms: C29_36  and  O7_37 
REMARK   12  A    between atoms: C36_44  and  O8_45 
ROOT
HETATM    1  C5  UNL     1      -4.167  13.232  18.502  1.00  0.00     0.122 C 
HETATM    2  C6  UNL     1      -4.096  11.868  19.193  1.00  0.00     0.033 C 
HETATM    3  C7  UNL     1      -2.827  11.092  18.845  1.00  0.00     0.013 C 
HETATM    4  C8  UNL     1      -2.583  10.933  17.309  1.00  0.00    -0.026 C 
HETATM    5  C9  UNL     1      -3.720  10.055  16.728  1.00  0.00     0.016 C 
HETATM    6  C10 UNL     1      -2.617  12.348  16.665  1.00  0.00     0.071 C 
HETATM    7  C11 UNL     1      -3.917  13.109  16.991  1.00  0.00     0.045 C 
HETATM    8  C12 UNL     1      -1.409  13.201  17.084  1.00  0.00     0.161 C 
HETATM    9  O3  UNL     1      -1.492  14.407  17.315  1.00  0.00    -0.292 OA
HETATM   10  C13 UNL     1      -0.076  12.551  17.117  1.00  0.00    -0.006 C 
HETATM   11  C14 UNL     1      -0.021  11.214  16.996  1.00  0.00    -0.030 C 
HETATM   12  C15 UNL     1      -1.183  10.236  17.091  1.00  0.00     0.027 C 
HETATM   13  C16 UNL     1      -1.084   9.157  15.977  1.00  0.00     0.011 C 
HETATM   14  C17 UNL     1       0.321   8.485  15.904  1.00  0.00     0.014 C 
HETATM   15  C18 UNL     1       1.433   9.529  15.672  1.00  0.00    -0.002 C 
HETATM   16  C19 UNL     1       1.192  10.160  14.270  1.00  0.00     0.019 C 
HETATM   17  C20 UNL     1       2.948   9.113  15.900  1.00  0.00     0.034 C 
HETATM   18  C32 UNL     1       3.620  10.493  16.371  1.00  0.00     0.016 C 
HETATM   19  C33 UNL     1       2.466  11.486  16.513  1.00  0.00     0.026 C 
HETATM   20  C34 UNL     1       2.493  12.668  17.462  1.00  0.00     0.013 C 
HETATM   21  C35 UNL     1       1.152  13.435  17.283  1.00  0.00     0.043 C 
HETATM   22  C36 UNL     1       1.306  10.557  16.835  1.00  0.00     0.094 C 
ENDROOT
BRANCH  17  23
HETATM   23  C21 UNL     1       3.831   8.372  14.838  1.00  0.00     0.087 C 
HETATM   24  C22 UNL     1       2.919   7.635  13.829  1.00  0.00     0.049 C 
BRANCH  23  25
HETATM   25  O4  UNL     1       4.582   7.331  15.495  1.00  0.00    -0.387 OA
HETATM   26  H33 UNL     1       5.410   7.763  15.789  1.00  0.00     0.210 HD
ENDBRANCH  23  25
BRANCH  23  27
HETATM   27  C23 UNL     1       4.880   9.214  14.026  1.00  0.00     0.181 C 
BRANCH  27  28
HETATM   28  O5  UNL     1       4.678   8.924  12.637  1.00  0.00    -0.390 OA
HETATM   29  H35 UNL     1       4.880   9.725  12.124  1.00  0.00     0.210 HD
ENDBRANCH  27  28
BRANCH  27  30
HETATM   30  C24 UNL     1       6.351   9.082  14.488  1.00  0.00     0.158 C 
HETATM   31  O6  UNL     1       6.450   8.673  15.852  1.00  0.00    -0.373 OA
HETATM   32  C25 UNL     1       7.804   8.259  16.104  1.00  0.00     0.185 C 
HETATM   33  C26 UNL     1       8.337   7.721  14.775  1.00  0.00     0.027 C 
HETATM   34  C29 UNL     1       8.648   9.423  16.694  1.00  0.00     0.383 C 
HETATM   35  C27 UNL     1       9.754   8.215  14.480  1.00  0.00     0.038 C 
HETATM   36  C30 UNL     1       7.290   8.136  13.721  1.00  0.00     0.020 C 
HETATM   37  C28 UNL     1       9.915   9.730  14.619  1.00  0.00     0.273 C 
HETATM   38  N1  UNL     1       9.136  10.349  15.687  1.00  0.00     0.114 N 
HETATM   39  H43 UNL     1       9.658  11.108  16.115  1.00  0.00     0.319 HD
HETATM   40  C31 UNL     1       6.650   6.894  13.105  1.00  0.00     0.013 C 
BRANCH  34  41
HETATM   41  O7  UNL     1       9.751   8.916  17.421  1.00  0.00    -0.366 OA
HETATM   42  H45 UNL     1      10.164   9.687  17.846  1.00  0.00     0.212 HD
ENDBRANCH  34  41
ENDBRANCH  27  30
ENDBRANCH  23  27
ENDBRANCH  17  23
BRANCH  22  43
HETATM   43  O8  UNL     1       1.534   9.908  18.101  1.00  0.00    -0.384 OA
HETATM   44  H57 UNL     1       1.543  10.593  18.788  1.00  0.00     0.211 HD
ENDBRANCH  22  43
BRANCH   1  45
HETATM   45  O2  UNL     1      -5.471  13.765  18.769  1.00  0.00    -0.386 OA
BRANCH  45  46
HETATM   46  C4  UNL     1      -5.752  13.914  20.163  1.00  0.00     0.170 C 
BRANCH  46  47
HETATM   47  C3  UNL     1      -7.241  13.659  20.388  1.00  0.00     0.052 C 
BRANCH  47  48
HETATM   48  C2  UNL     1      -7.538  13.283  21.838  1.00  0.00     0.169 C 
BRANCH  48  49
HETATM   49  O1  UNL     1      -8.696  13.995  22.275  1.00  0.00    -0.396 OA
HETATM   50  C1  UNL     1      -8.562  14.450  23.614  1.00  0.00     0.201 C 
ENDBRANCH  48  49
ENDBRANCH  47  48
ENDBRANCH  46  47
ENDBRANCH  45  46
ENDBRANCH   1  45
TORSDOF 12
ENDMDL
