MODEL 1
REMARK minimizedAffinity -9.89779091
REMARK CNNscore 0.75814563
REMARK CNNaffinity 7.52394247
REMARK  12 active torsions:
REMARK  status: ('A' for Active; 'I' for Inactive)
REMARK    1  A    between atoms: C2_2  and  C3_3 
REMARK    2  A    between atoms: C2_2  and  C26_31 
REMARK    3  A    between atoms: C3_3  and  C4_4 
REMARK    4  A    between atoms: C4_4  and  C5_5 
REMARK    5  A    between atoms: C5_5  and  C7_7 
REMARK    6  A    between atoms: C8_8  and  O1_9 
REMARK    7  A    between atoms: C9_10  and  O2_11 
REMARK    8  A    between atoms: C20_22  and  O3_23 
REMARK    9  A    between atoms: C23_26  and  O4_27 
REMARK   10  A    between atoms: C25_29  and  O5_30 
REMARK   11  A    between atoms: C26_31  and  C28_33 
REMARK   12  A    between atoms: C28_33  and  O6_34 
ROOT
HETATM    1  C7  UNL     1      -1.374  48.454 -19.728  1.00  0.00     0.029 C 
HETATM    2  C8  UNL     1      -2.551  47.484 -20.104  1.00  0.00     0.152 C 
HETATM    3  C9  UNL     1      -3.000  47.861 -21.540  1.00  0.00     0.155 C 
HETATM    4  C10 UNL     1      -1.961  48.877 -21.997  1.00  0.00     0.060 C 
HETATM    5  C11 UNL     1      -1.596  49.668 -20.697  1.00  0.00    -0.029 C 
HETATM    6  C12 UNL     1      -2.683  50.615 -20.133  1.00  0.00     0.016 C 
HETATM    7  C13 UNL     1      -0.341  50.499 -21.041  1.00  0.00     0.011 C 
HETATM    8  C14 UNL     1      -0.553  51.406 -22.271  1.00  0.00     0.009 C 
HETATM    9  C15 UNL     1      -1.007  50.623 -23.526  1.00  0.00     0.029 C 
HETATM   10  C16 UNL     1      -1.123  51.490 -24.840  1.00  0.00    -0.031 C 
HETATM   11  C17 UNL     1      -2.170  52.622 -24.700  1.00  0.00     0.016 C 
HETATM   12  C18 UNL     1       0.251  52.150 -25.172  1.00  0.00     0.012 C 
HETATM   13  C19 UNL     1       0.306  52.811 -26.552  1.00  0.00     0.032 C 
HETATM   14  C20 UNL     1      -0.146  51.881 -27.672  1.00  0.00     0.118 C 
HETATM   15  C21 UNL     1      -1.494  51.223 -27.376  1.00  0.00     0.039 C 
HETATM   16  C22 UNL     1      -1.466  50.515 -26.013  1.00  0.00     0.025 C 
HETATM   17  C23 UNL     1      -2.741  49.695 -25.746  1.00  0.00     0.126 C 
HETATM   18  C24 UNL     1      -2.613  48.881 -24.453  1.00  0.00     0.071 C 
HETATM   19  C25 UNL     1      -2.271  49.749 -23.232  1.00  0.00     0.071 C 
ENDROOT
BRANCH   1  20
HETATM   20  C5  UNL     1      -1.218  48.697 -18.197  1.00  0.00    -0.011 C 
HETATM   21  C6  UNL     1      -2.406  48.165 -17.385  1.00  0.00     0.010 C 
BRANCH  20  22
HETATM   22  C4  UNL     1      -1.058  50.218 -17.908  1.00  0.00     0.009 C 
BRANCH  22  23
HETATM   23  C3  UNL     1       0.307  50.569 -17.288  1.00  0.00     0.034 C 
BRANCH  23  24
HETATM   24  C2  UNL     1       0.805  51.999 -17.473  1.00  0.00    -0.083 C 
HETATM   25  C1  UNL     1       0.617  52.701 -18.606  1.00  0.00     0.015 C 
BRANCH  24  26
HETATM   26  C26 UNL     1       1.520  52.575 -16.240  1.00  0.00     0.033 C 
HETATM   27  C27 UNL     1       3.055  52.525 -16.299  1.00  0.00     0.017 C 
BRANCH  26  28
HETATM   28  C28 UNL     1       1.018  51.945 -14.919  1.00  0.00     0.172 C 
BRANCH  28  29
HETATM   29  O6  UNL     1       0.703  52.914 -13.924  1.00  0.00    -0.400 OA
HETATM   30  H48 UNL     1       0.121  53.580 -14.325  1.00  0.00     0.209 HD
ENDBRANCH  28  29
ENDBRANCH  26  28
ENDBRANCH  24  26
ENDBRANCH  23  24
ENDBRANCH  22  23
ENDBRANCH  20  22
ENDBRANCH   1  20
BRANCH   2  31
HETATM   31  O1  UNL     1      -3.686  47.586 -19.243  1.00  0.00    -0.393 OA
HETATM   32  H13 UNL     1      -3.475  47.128 -18.411  1.00  0.00     0.210 HD
ENDBRANCH   2  31
BRANCH   3  33
HETATM   33  O2  UNL     1      -4.313  48.420 -21.560  1.00  0.00    -0.392 OA
HETATM   34  H15 UNL     1      -4.687  48.191 -20.678  1.00  0.00     0.210 HD
ENDBRANCH   3  33
BRANCH  19  35
HETATM   35  O5  UNL     1      -3.405  50.565 -22.970  1.00  0.00    -0.389 OA
HETATM   36  H41 UNL     1      -4.084  49.980 -22.564  1.00  0.00     0.210 HD
ENDBRANCH  19  35
BRANCH  17  37
HETATM   37  O4  UNL     1      -2.964  48.782 -26.825  1.00  0.00    -0.395 OA
HETATM   38  H38 UNL     1      -2.209  48.170 -26.867  1.00  0.00     0.210 HD
ENDBRANCH  17  37
BRANCH  14  39
HETATM   39  O3  UNL     1      -0.226  52.629 -28.880  1.00  0.00    -0.396 OA
HETATM   40  H33 UNL     1      -0.574  52.039 -29.570  1.00  0.00     0.210 HD
ENDBRANCH  14  39
TORSDOF 12
ENDMDL
MODEL 2
REMARK minimizedAffinity -7.55626583
REMARK CNNscore 0.694820702
REMARK CNNaffinity 6.70700455
REMARK  12 active torsions:
REMARK  status: ('A' for Active; 'I' for Inactive)
REMARK    1  A    between atoms: C2_2  and  C3_3 
REMARK    2  A    between atoms: C2_2  and  C26_31 
REMARK    3  A    between atoms: C3_3  and  C4_4 
REMARK    4  A    between atoms: C4_4  and  C5_5 
REMARK    5  A    between atoms: C5_5  and  C7_7 
REMARK    6  A    between atoms: C8_8  and  O1_9 
REMARK    7  A    between atoms: C9_10  and  O2_11 
REMARK    8  A    between atoms: C20_22  and  O3_23 
REMARK    9  A    between atoms: C23_26  and  O4_27 
REMARK   10  A    between atoms: C25_29  and  O5_30 
REMARK   11  A    between atoms: C26_31  and  C28_33 
REMARK   12  A    between atoms: C28_33  and  O6_34 
ROOT
HETATM    1  C7  UNL     1      -0.683  52.217 -13.064  1.00  0.00     0.029 C 
HETATM    2  C8  UNL     1      -2.123  52.488 -12.494  1.00  0.00     0.152 C 
HETATM    3  C9  UNL     1      -1.939  53.261 -11.163  1.00  0.00     0.155 C 
HETATM    4  C10 UNL     1      -0.448  53.568 -11.116  1.00  0.00     0.060 C 
HETATM    5  C11 UNL     1       0.225  52.325 -11.788  1.00  0.00    -0.029 C 
HETATM    6  C12 UNL     1       0.189  51.001 -10.988  1.00  0.00     0.016 C 
HETATM    7  C13 UNL     1       1.697  52.717 -12.035  1.00  0.00     0.011 C 
HETATM    8  C14 UNL     1       2.410  53.178 -10.747  1.00  0.00     0.009 C 
HETATM    9  C15 UNL     1       1.682  54.346 -10.040  1.00  0.00     0.029 C 
HETATM   10  C16 UNL     1       2.435  54.929  -8.781  1.00  0.00    -0.031 C 
HETATM   11  C17 UNL     1       2.619  53.868  -7.669  1.00  0.00     0.016 C 
HETATM   12  C18 UNL     1       3.851  55.441  -9.191  1.00  0.00     0.012 C 
HETATM   13  C19 UNL     1       4.563  56.241  -8.098  1.00  0.00     0.032 C 
HETATM   14  C20 UNL     1       3.707  57.372  -7.539  1.00  0.00     0.118 C 
HETATM   15  C21 UNL     1       2.314  56.899  -7.124  1.00  0.00     0.039 C 
HETATM   16  C22 UNL     1       1.620  56.167  -8.283  1.00  0.00     0.025 C 
HETATM   17  C23 UNL     1       0.153  55.823  -7.971  1.00  0.00     0.126 C 
HETATM   18  C24 UNL     1      -0.550  55.236  -9.201  1.00  0.00     0.071 C 
HETATM   19  C25 UNL     1       0.177  54.008  -9.775  1.00  0.00     0.071 C 
ENDROOT
BRANCH   1  20
HETATM   20  C5  UNL     1      -0.591  50.963 -13.982  1.00  0.00    -0.011 C 
HETATM   21  C6  UNL     1      -0.576  49.647 -13.195  1.00  0.00     0.010 C 
BRANCH  20  22
HETATM   22  C4  UNL     1       0.691  51.033 -14.860  1.00  0.00     0.009 C 
BRANCH  22  23
HETATM   23  C3  UNL     1       0.383  51.074 -16.369  1.00  0.00     0.034 C 
BRANCH  23  24
HETATM   24  C2  UNL     1       1.111  52.128 -17.197  1.00  0.00    -0.083 C 
HETATM   25  C1  UNL     1       2.330  52.601 -16.876  1.00  0.00     0.015 C 
BRANCH  24  26
HETATM   26  C26 UNL     1       0.338  52.585 -18.445  1.00  0.00     0.033 C 
HETATM   27  C27 UNL     1      -0.766  51.623 -18.911  1.00  0.00     0.017 C 
BRANCH  26  28
HETATM   28  C28 UNL     1       1.276  52.930 -19.626  1.00  0.00     0.172 C 
BRANCH  28  29
HETATM   29  O6  UNL     1       1.306  54.321 -19.927  1.00  0.00    -0.400 OA
HETATM   30  H48 UNL     1       1.468  54.804 -19.100  1.00  0.00     0.209 HD
ENDBRANCH  28  29
ENDBRANCH  26  28
ENDBRANCH  24  26
ENDBRANCH  23  24
ENDBRANCH  22  23
ENDBRANCH  20  22
ENDBRANCH   1  20
BRANCH   2  31
HETATM   31  O1  UNL     1      -2.871  51.303 -12.220  1.00  0.00    -0.393 OA
HETATM   32  H13 UNL     1      -3.192  50.947 -13.068  1.00  0.00     0.210 HD
ENDBRANCH   2  31
BRANCH   3  33
HETATM   33  O2  UNL     1      -2.341  52.484 -10.034  1.00  0.00    -0.392 OA
HETATM   34  H15 UNL     1      -2.863  51.746 -10.423  1.00  0.00     0.210 HD
ENDBRANCH   3  33
BRANCH  19  35
HETATM   35  O5  UNL     1       0.048  52.963  -8.822  1.00  0.00    -0.389 OA
HETATM   36  H41 UNL     1      -0.880  52.641  -8.881  1.00  0.00     0.210 HD
ENDBRANCH  19  35
BRANCH  17  37
HETATM   37  O4  UNL     1      -0.550  57.006  -7.581  1.00  0.00    -0.395 OA
HETATM   38  H38 UNL     1      -0.535  57.629  -8.327  1.00  0.00     0.210 HD
ENDBRANCH  17  37
BRANCH  14  39
HETATM   39  O3  UNL     1       4.379  57.942  -6.422  1.00  0.00    -0.396 OA
HETATM   40  H33 UNL     1       3.795  58.619  -6.040  1.00  0.00     0.210 HD
ENDBRANCH  14  39
TORSDOF 12
ENDMDL
MODEL 3
REMARK minimizedAffinity -8.06704426
REMARK CNNscore 0.678629041
REMARK CNNaffinity 6.28133917
REMARK  12 active torsions:
REMARK  status: ('A' for Active; 'I' for Inactive)
REMARK    1  A    between atoms: C2_2  and  C3_3 
REMARK    2  A    between atoms: C2_2  and  C26_31 
REMARK    3  A    between atoms: C3_3  and  C4_4 
REMARK    4  A    between atoms: C4_4  and  C5_5 
REMARK    5  A    between atoms: C5_5  and  C7_7 
REMARK    6  A    between atoms: C8_8  and  O1_9 
REMARK    7  A    between atoms: C9_10  and  O2_11 
REMARK    8  A    between atoms: C20_22  and  O3_23 
REMARK    9  A    between atoms: C23_26  and  O4_27 
REMARK   10  A    between atoms: C25_29  and  O5_30 
REMARK   11  A    between atoms: C26_31  and  C28_33 
REMARK   12  A    between atoms: C28_33  and  O6_34 
ROOT
HETATM    1  C7  UNL     1      -6.865  47.638 -29.487  1.00  0.00     0.029 C 
HETATM    2  C8  UNL     1      -5.631  48.246 -30.247  1.00  0.00     0.152 C 
HETATM    3  C9  UNL     1      -5.867  47.993 -31.758  1.00  0.00     0.155 C 
HETATM    4  C10 UNL     1      -7.284  47.438 -31.824  1.00  0.00     0.060 C 
HETATM    5  C11 UNL     1      -7.429  46.593 -30.514  1.00  0.00    -0.029 C 
HETATM    6  C12 UNL     1      -6.617  45.277 -30.444  1.00  0.00     0.016 C 
HETATM    7  C13 UNL     1      -8.930  46.259 -30.385  1.00  0.00     0.011 C 
HETATM    8  C14 UNL     1      -9.487  45.549 -31.636  1.00  0.00     0.009 C 
HETATM    9  C15 UNL     1      -9.252  46.351 -32.939  1.00  0.00     0.029 C 
HETATM   10  C16 UNL     1      -9.906  45.721 -34.230  1.00  0.00    -0.031 C 
HETATM   11  C17 UNL     1      -9.340  44.314 -34.543  1.00  0.00     0.016 C 
HETATM   12  C18 UNL     1     -11.448  45.582 -34.038  1.00  0.00     0.012 C 
HETATM   13  C19 UNL     1     -12.203  45.209 -35.316  1.00  0.00     0.032 C 
HETATM   14  C20 UNL     1     -11.872  46.126 -36.488  1.00  0.00     0.118 C 
HETATM   15  C21 UNL     1     -10.366  46.278 -36.703  1.00  0.00     0.039 C 
HETATM   16  C22 UNL     1      -9.673  46.724 -35.406  1.00  0.00     0.025 C 
HETATM   17  C23 UNL     1      -8.184  47.054 -35.615  1.00  0.00     0.126 C 
HETATM   18  C24 UNL     1      -7.566  47.641 -34.341  1.00  0.00     0.071 C 
HETATM   19  C25 UNL     1      -7.744  46.730 -33.115  1.00  0.00     0.071 C 
ENDROOT
BRANCH   1  20
HETATM   20  C5  UNL     1      -6.556  47.204 -28.023  1.00  0.00    -0.011 C 
HETATM   21  C6  UNL     1      -7.755  47.382 -27.084  1.00  0.00     0.010 C 
BRANCH  20  22
HETATM   22  C4  UNL     1      -5.357  48.021 -27.463  1.00  0.00     0.009 C 
BRANCH  22  23
HETATM   23  C3  UNL     1      -5.382  48.144 -25.928  1.00  0.00     0.034 C 
BRANCH  23  24
HETATM   24  C2  UNL     1      -4.072  48.522 -25.242  1.00  0.00    -0.083 C 
HETATM   25  C1  UNL     1      -2.907  48.651 -25.904  1.00  0.00     0.015 C 
BRANCH  24  26
HETATM   26  C26 UNL     1      -4.207  48.765 -23.729  1.00  0.00     0.033 C 
HETATM   27  C27 UNL     1      -3.036  48.242 -22.882  1.00  0.00     0.017 C 
BRANCH  26  28
HETATM   28  C28 UNL     1      -5.548  48.239 -23.165  1.00  0.00     0.172 C 
BRANCH  28  29
HETATM   29  O6  UNL     1      -5.399  47.058 -22.383  1.00  0.00    -0.400 OA
HETATM   30  H48 UNL     1      -4.696  47.215 -21.732  1.00  0.00     0.209 HD
ENDBRANCH  28  29
ENDBRANCH  26  28
ENDBRANCH  24  26
ENDBRANCH  23  24
ENDBRANCH  22  23
ENDBRANCH  20  22
ENDBRANCH   1  20
BRANCH   2  31
HETATM   31  O1  UNL     1      -4.380  47.657 -29.888  1.00  0.00    -0.393 OA
HETATM   32  H13 UNL     1      -4.117  48.014 -29.021  1.00  0.00     0.210 HD
ENDBRANCH   2  31
BRANCH   3  33
HETATM   33  O2  UNL     1      -4.924  47.068 -32.299  1.00  0.00    -0.392 OA
HETATM   34  H15 UNL     1      -4.214  47.021 -31.618  1.00  0.00     0.210 HD
ENDBRANCH   3  33
BRANCH  19  35
HETATM   35  O5  UNL     1      -6.950  45.574 -33.337  1.00  0.00    -0.389 OA
HETATM   36  H41 UNL     1      -6.014  45.845 -33.198  1.00  0.00     0.210 HD
ENDBRANCH  19  35
BRANCH  17  37
HETATM   37  O4  UNL     1      -8.045  48.020 -36.661  1.00  0.00    -0.395 OA
HETATM   38  H38 UNL     1      -8.503  48.833 -36.389  1.00  0.00     0.210 HD
ENDBRANCH  17  37
BRANCH  14  39
HETATM   39  O3  UNL     1     -12.480  45.602 -37.663  1.00  0.00    -0.396 OA
HETATM   40  H33 UNL     1     -12.209  46.162 -38.410  1.00  0.00     0.210 HD
ENDBRANCH  14  39
TORSDOF 12
ENDMDL
MODEL 4
REMARK minimizedAffinity -7.77765131
REMARK CNNscore 0.61351943
REMARK CNNaffinity 6.5388813
REMARK  12 active torsions:
REMARK  status: ('A' for Active; 'I' for Inactive)
REMARK    1  A    between atoms: C2_2  and  C3_3 
REMARK    2  A    between atoms: C2_2  and  C26_31 
REMARK    3  A    between atoms: C3_3  and  C4_4 
REMARK    4  A    between atoms: C4_4  and  C5_5 
REMARK    5  A    between atoms: C5_5  and  C7_7 
REMARK    6  A    between atoms: C8_8  and  O1_9 
REMARK    7  A    between atoms: C9_10  and  O2_11 
REMARK    8  A    between atoms: C20_22  and  O3_23 
REMARK    9  A    between atoms: C23_26  and  O4_27 
REMARK   10  A    between atoms: C25_29  and  O5_30 
REMARK   11  A    between atoms: C26_31  and  C28_33 
REMARK   12  A    between atoms: C28_33  and  O6_34 
ROOT
HETATM    1  C7  UNL     1      -1.380  50.768 -21.964  1.00  0.00     0.029 C 
HETATM    2  C8  UNL     1      -0.390  51.201 -20.822  1.00  0.00     0.152 C 
HETATM    3  C9  UNL     1      -0.840  50.463 -19.535  1.00  0.00     0.155 C 
HETATM    4  C10 UNL     1      -1.925  49.506 -20.017  1.00  0.00     0.060 C 
HETATM    5  C11 UNL     1      -2.644  50.286 -21.168  1.00  0.00    -0.029 C 
HETATM    6  C12 UNL     1      -3.509  51.499 -20.748  1.00  0.00     0.016 C 
HETATM    7  C13 UNL     1      -3.544  49.257 -21.884  1.00  0.00     0.011 C 
HETATM    8  C14 UNL     1      -4.519  48.552 -20.918  1.00  0.00     0.009 C 
HETATM    9  C15 UNL     1      -3.801  47.865 -19.732  1.00  0.00     0.029 C 
HETATM   10  C16 UNL     1      -4.746  47.032 -18.780  1.00  0.00    -0.031 C 
HETATM   11  C17 UNL     1      -5.825  47.918 -18.109  1.00  0.00     0.016 C 
HETATM   12  C18 UNL     1      -5.479  45.919 -19.590  1.00  0.00     0.012 C 
HETATM   13  C19 UNL     1      -6.229  44.908 -18.720  1.00  0.00     0.032 C 
HETATM   14  C20 UNL     1      -5.356  44.309 -17.622  1.00  0.00     0.118 C 
HETATM   15  C21 UNL     1      -4.628  45.378 -16.808  1.00  0.00     0.039 C 
HETATM   16  C22 UNL     1      -3.835  46.318 -17.729  1.00  0.00     0.025 C 
HETATM   17  C23 UNL     1      -2.950  47.304 -16.946  1.00  0.00     0.126 C 
HETATM   18  C24 UNL     1      -2.060  48.118 -17.893  1.00  0.00     0.071 C 
HETATM   19  C25 UNL     1      -2.861  48.862 -18.975  1.00  0.00     0.071 C 
ENDROOT
BRANCH   1  20
HETATM   20  C5  UNL     1      -1.530  51.818 -23.104  1.00  0.00    -0.011 C 
HETATM   21  C6  UNL     1      -2.994  52.124 -23.443  1.00  0.00     0.010 C 
BRANCH  20  22
HETATM   22  C4  UNL     1      -0.813  51.318 -24.392  1.00  0.00     0.009 C 
BRANCH  22  23
HETATM   23  C3  UNL     1       0.462  52.117 -24.716  1.00  0.00     0.034 C 
BRANCH  23  24
HETATM   24  C2  UNL     1       1.086  51.898 -26.091  1.00  0.00    -0.083 C 
HETATM   25  C1  UNL     1       2.342  51.446 -26.264  1.00  0.00     0.015 C 
BRANCH  24  26
HETATM   26  C26 UNL     1       0.142  52.216 -27.263  1.00  0.00     0.033 C 
HETATM   27  C27 UNL     1       0.676  51.823 -28.650  1.00  0.00     0.017 C 
BRANCH  26  28
HETATM   28  C28 UNL     1      -0.313  53.694 -27.268  1.00  0.00     0.172 C 
BRANCH  28  29
HETATM   29  O6  UNL     1      -1.310  53.967 -28.248  1.00  0.00    -0.400 OA
HETATM   30  H48 UNL     1      -2.014  53.306 -28.153  1.00  0.00     0.209 HD
ENDBRANCH  28  29
ENDBRANCH  26  28
ENDBRANCH  24  26
ENDBRANCH  23  24
ENDBRANCH  22  23
ENDBRANCH  20  22
ENDBRANCH   1  20
BRANCH   2  31
HETATM   31  O1  UNL     1      -0.392  52.603 -20.553  1.00  0.00    -0.393 OA
HETATM   32  H13 UNL     1       0.110  53.046 -21.260  1.00  0.00     0.210 HD
ENDBRANCH   2  31
BRANCH   3  33
HETATM   33  O2  UNL     1      -1.348  51.364 -18.551  1.00  0.00    -0.392 OA
HETATM   34  H15 UNL     1      -1.048  52.250 -18.859  1.00  0.00     0.210 HD
ENDBRANCH   3  33
BRANCH  19  35
HETATM   35  O5  UNL     1      -3.613  49.872 -18.317  1.00  0.00    -0.389 OA
HETATM   36  H41 UNL     1      -2.976  50.582 -18.074  1.00  0.00     0.210 HD
ENDBRANCH  19  35
BRANCH  17  37
HETATM   37  O4  UNL     1      -2.100  46.585 -16.048  1.00  0.00    -0.395 OA
HETATM   38  H38 UNL     1      -1.522  46.006 -16.574  1.00  0.00     0.210 HD
ENDBRANCH  17  37
BRANCH  14  39
HETATM   39  O3  UNL     1      -6.176  43.522 -16.767  1.00  0.00    -0.396 OA
HETATM   40  H33 UNL     1      -5.618  43.198 -16.040  1.00  0.00     0.210 HD
ENDBRANCH  14  39
TORSDOF 12
ENDMDL
MODEL 5
REMARK minimizedAffinity -8.53314304
REMARK CNNscore 0.588704944
REMARK CNNaffinity 6.50978518
REMARK  12 active torsions:
REMARK  status: ('A' for Active; 'I' for Inactive)
REMARK    1  A    between atoms: C2_2  and  C3_3 
REMARK    2  A    between atoms: C2_2  and  C26_31 
REMARK    3  A    between atoms: C3_3  and  C4_4 
REMARK    4  A    between atoms: C4_4  and  C5_5 
REMARK    5  A    between atoms: C5_5  and  C7_7 
REMARK    6  A    between atoms: C8_8  and  O1_9 
REMARK    7  A    between atoms: C9_10  and  O2_11 
REMARK    8  A    between atoms: C20_22  and  O3_23 
REMARK    9  A    between atoms: C23_26  and  O4_27 
REMARK   10  A    between atoms: C25_29  and  O5_30 
REMARK   11  A    between atoms: C26_31  and  C28_33 
REMARK   12  A    between atoms: C28_33  and  O6_34 
ROOT
HETATM    1  C7  UNL     1      -1.689  51.791 -21.423  1.00  0.00     0.029 C 
HETATM    2  C8  UNL     1      -3.113  51.133 -21.326  1.00  0.00     0.152 C 
HETATM    3  C9  UNL     1      -3.274  50.626 -19.870  1.00  0.00     0.155 C 
HETATM    4  C10 UNL     1      -2.046  51.171 -19.151  1.00  0.00     0.060 C 
HETATM    5  C11 UNL     1      -0.914  51.127 -20.231  1.00  0.00    -0.029 C 
HETATM    6  C12 UNL     1      -0.398  49.726 -20.638  1.00  0.00     0.016 C 
HETATM    7  C13 UNL     1       0.262  51.941 -19.650  1.00  0.00     0.011 C 
HETATM    8  C14 UNL     1       0.713  51.424 -18.269  1.00  0.00     0.009 C 
HETATM    9  C15 UNL     1      -0.439  51.382 -17.236  1.00  0.00     0.029 C 
HETATM   10  C16 UNL     1      -0.002  50.971 -15.775  1.00  0.00    -0.031 C 
HETATM   11  C17 UNL     1       0.603  49.546 -15.728  1.00  0.00     0.016 C 
HETATM   12  C18 UNL     1       1.074  51.964 -15.236  1.00  0.00     0.012 C 
HETATM   13  C19 UNL     1       1.384  51.795 -13.746  1.00  0.00     0.032 C 
HETATM   14  C20 UNL     1       0.132  51.810 -12.876  1.00  0.00     0.118 C 
HETATM   15  C21 UNL     1      -0.939  50.842 -13.378  1.00  0.00     0.039 C 
HETATM   16  C22 UNL     1      -1.261  51.106 -14.858  1.00  0.00     0.025 C 
HETATM   17  C23 UNL     1      -2.452  50.272 -15.361  1.00  0.00     0.126 C 
HETATM   18  C24 UNL     1      -2.841  50.673 -16.789  1.00  0.00     0.071 C 
HETATM   19  C25 UNL     1      -1.667  50.578 -17.778  1.00  0.00     0.071 C 
ENDROOT
BRANCH   1  20
HETATM   20  C5  UNL     1      -1.079  51.773 -22.856  1.00  0.00    -0.011 C 
HETATM   21  C6  UNL     1       0.320  52.397 -22.916  1.00  0.00     0.010 C 
BRANCH  20  22
HETATM   22  C4  UNL     1      -2.008  52.535 -23.845  1.00  0.00     0.009 C 
BRANCH  22  23
HETATM   23  C3  UNL     1      -2.133  51.833 -25.210  1.00  0.00     0.034 C 
BRANCH  23  24
HETATM   24  C2  UNL     1      -0.903  51.848 -26.112  1.00  0.00    -0.083 C 
HETATM   25  C1  UNL     1      -0.104  50.779 -26.284  1.00  0.00     0.015 C 
BRANCH  24  26
HETATM   26  C26 UNL     1      -0.671  53.190 -26.828  1.00  0.00     0.033 C 
HETATM   27  C27 UNL     1      -0.130  53.074 -28.262  1.00  0.00     0.017 C 
BRANCH  26  28
HETATM   28  C28 UNL     1       0.213  54.154 -26.002  1.00  0.00     0.172 C 
BRANCH  28  29
HETATM   29  O6  UNL     1       0.179  55.493 -26.485  1.00  0.00    -0.400 OA
HETATM   30  H48 UNL     1      -0.751  55.753 -26.588  1.00  0.00     0.209 HD
ENDBRANCH  28  29
ENDBRANCH  26  28
ENDBRANCH  24  26
ENDBRANCH  23  24
ENDBRANCH  22  23
ENDBRANCH  20  22
ENDBRANCH   1  20
BRANCH   2  31
HETATM   31  O1  UNL     1      -3.301  50.024 -22.206  1.00  0.00    -0.393 OA
HETATM   32  H13 UNL     1      -3.441  50.372 -23.104  1.00  0.00     0.210 HD
ENDBRANCH   2  31
BRANCH   3  33
HETATM   33  O2  UNL     1      -3.320  49.201 -19.802  1.00  0.00    -0.392 OA
HETATM   34  H15 UNL     1      -3.486  48.920 -20.732  1.00  0.00     0.210 HD
ENDBRANCH   3  33
BRANCH  19  35
HETATM   35  O5  UNL     1      -1.352  49.201 -17.921  1.00  0.00    -0.389 OA
HETATM   36  H41 UNL     1      -2.061  48.807 -18.479  1.00  0.00     0.210 HD
ENDBRANCH  19  35
BRANCH  17  37
HETATM   37  O4  UNL     1      -3.586  50.487 -14.516  1.00  0.00    -0.395 OA
HETATM   38  H38 UNL     1      -3.828  51.427 -14.565  1.00  0.00     0.210 HD
ENDBRANCH  17  37
BRANCH  14  39
HETATM   39  O3  UNL     1       0.501  51.477 -11.543  1.00  0.00    -0.396 OA
HETATM   40  H33 UNL     1      -0.314  51.431 -11.015  1.00  0.00     0.210 HD
ENDBRANCH  14  39
TORSDOF 12
ENDMDL
MODEL 6
REMARK minimizedAffinity -8.27067375
REMARK CNNscore 0.579671264
REMARK CNNaffinity 6.69003296
REMARK  12 active torsions:
REMARK  status: ('A' for Active; 'I' for Inactive)
REMARK    1  A    between atoms: C2_2  and  C3_3 
REMARK    2  A    between atoms: C2_2  and  C26_31 
REMARK    3  A    between atoms: C3_3  and  C4_4 
REMARK    4  A    between atoms: C4_4  and  C5_5 
REMARK    5  A    between atoms: C5_5  and  C7_7 
REMARK    6  A    between atoms: C8_8  and  O1_9 
REMARK    7  A    between atoms: C9_10  and  O2_11 
REMARK    8  A    between atoms: C20_22  and  O3_23 
REMARK    9  A    between atoms: C23_26  and  O4_27 
REMARK   10  A    between atoms: C25_29  and  O5_30 
REMARK   11  A    between atoms: C26_31  and  C28_33 
REMARK   12  A    between atoms: C28_33  and  O6_34 
ROOT
HETATM    1  C7  UNL     1      -2.279  50.265 -24.313  1.00  0.00     0.029 C 
HETATM    2  C8  UNL     1      -2.453  51.783 -23.945  1.00  0.00     0.152 C 
HETATM    3  C9  UNL     1      -2.870  51.838 -22.453  1.00  0.00     0.155 C 
HETATM    4  C10 UNL     1      -2.732  50.396 -21.978  1.00  0.00     0.060 C 
HETATM    5  C11 UNL     1      -3.141  49.539 -23.222  1.00  0.00    -0.029 C 
HETATM    6  C12 UNL     1      -4.638  49.560 -23.616  1.00  0.00     0.016 C 
HETATM    7  C13 UNL     1      -2.734  48.087 -22.892  1.00  0.00     0.011 C 
HETATM    8  C14 UNL     1      -3.353  47.585 -21.571  1.00  0.00     0.009 C 
HETATM    9  C15 UNL     1      -3.020  48.496 -20.365  1.00  0.00     0.029 C 
HETATM   10  C16 UNL     1      -3.533  47.961 -18.971  1.00  0.00    -0.031 C 
HETATM   11  C17 UNL     1      -5.076  47.827 -18.931  1.00  0.00     0.016 C 
HETATM   12  C18 UNL     1      -2.925  46.555 -18.678  1.00  0.00     0.012 C 
HETATM   13  C19 UNL     1      -3.168  46.058 -17.250  1.00  0.00     0.032 C 
HETATM   14  C20 UNL     1      -2.751  47.073 -16.192  1.00  0.00     0.118 C 
HETATM   15  C21 UNL     1      -3.336  48.461 -16.451  1.00  0.00     0.039 C 
HETATM   16  C22 UNL     1      -3.000  48.937 -17.873  1.00  0.00     0.025 C 
HETATM   17  C23 UNL     1      -3.420  50.396 -18.123  1.00  0.00     0.126 C 
HETATM   18  C24 UNL     1      -2.931  50.884 -19.492  1.00  0.00     0.071 C 
HETATM   19  C25 UNL     1      -3.400  49.987 -20.649  1.00  0.00     0.071 C 
ENDROOT
BRANCH   1  20
HETATM   20  C5  UNL     1      -2.502  49.949 -25.822  1.00  0.00    -0.011 C 
HETATM   21  C6  UNL     1      -3.012  48.523 -26.062  1.00  0.00     0.010 C 
BRANCH  20  22
HETATM   22  C4  UNL     1      -1.178  50.146 -26.614  1.00  0.00     0.009 C 
BRANCH  22  23
HETATM   23  C3  UNL     1      -0.933  51.612 -27.016  1.00  0.00     0.034 C 
BRANCH  23  24
HETATM   24  C2  UNL     1       0.460  51.968 -27.525  1.00  0.00    -0.083 C 
HETATM   25  C1  UNL     1       0.758  52.083 -28.833  1.00  0.00     0.015 C 
BRANCH  24  26
HETATM   26  C26 UNL     1       1.490  52.207 -26.408  1.00  0.00     0.033 C 
HETATM   27  C27 UNL     1       2.465  51.044 -26.165  1.00  0.00     0.017 C 
BRANCH  26  28
HETATM   28  C28 UNL     1       0.827  52.632 -25.076  1.00  0.00     0.172 C 
BRANCH  28  29
HETATM   29  O6  UNL     1       0.913  54.032 -24.832  1.00  0.00    -0.400 OA
HETATM   30  H48 UNL     1       0.604  54.496 -25.628  1.00  0.00     0.209 HD
ENDBRANCH  28  29
ENDBRANCH  26  28
ENDBRANCH  24  26
ENDBRANCH  23  24
ENDBRANCH  22  23
ENDBRANCH  20  22
ENDBRANCH   1  20
BRANCH   2  31
HETATM   31  O1  UNL     1      -3.455  52.455 -24.710  1.00  0.00    -0.393 OA
HETATM   32  H13 UNL     1      -3.090  52.634 -25.595  1.00  0.00     0.210 HD
ENDBRANCH   2  31
BRANCH   3  33
HETATM   33  O2  UNL     1      -4.207  52.310 -22.287  1.00  0.00    -0.392 OA
HETATM   34  H15 UNL     1      -4.430  52.712 -23.158  1.00  0.00     0.210 HD
ENDBRANCH   3  33
BRANCH  19  35
HETATM   35  O5  UNL     1      -4.809  50.143 -20.753  1.00  0.00    -0.389 OA
HETATM   36  H41 UNL     1      -4.964  51.024 -21.162  1.00  0.00     0.210 HD
ENDBRANCH  19  35
BRANCH  17  37
HETATM   37  O4  UNL     1      -2.850  51.243 -17.121  1.00  0.00    -0.395 OA
HETATM   38  H38 UNL     1      -1.882  51.188 -17.190  1.00  0.00     0.210 HD
ENDBRANCH  17  37
BRANCH  14  39
HETATM   39  O3  UNL     1      -3.170  46.600 -14.917  1.00  0.00    -0.396 OA
HETATM   40  H33 UNL     1      -2.952  47.285 -14.262  1.00  0.00     0.210 HD
ENDBRANCH  14  39
TORSDOF 12
ENDMDL
MODEL 7
REMARK minimizedAffinity -8.15805912
REMARK CNNscore 0.558710992
REMARK CNNaffinity 6.44091463
REMARK  12 active torsions:
REMARK  status: ('A' for Active; 'I' for Inactive)
REMARK    1  A    between atoms: C2_2  and  C3_3 
REMARK    2  A    between atoms: C2_2  and  C26_31 
REMARK    3  A    between atoms: C3_3  and  C4_4 
REMARK    4  A    between atoms: C4_4  and  C5_5 
REMARK    5  A    between atoms: C5_5  and  C7_7 
REMARK    6  A    between atoms: C8_8  and  O1_9 
REMARK    7  A    between atoms: C9_10  and  O2_11 
REMARK    8  A    between atoms: C20_22  and  O3_23 
REMARK    9  A    between atoms: C23_26  and  O4_27 
REMARK   10  A    between atoms: C25_29  and  O5_30 
REMARK   11  A    between atoms: C26_31  and  C28_33 
REMARK   12  A    between atoms: C28_33  and  O6_34 
ROOT
HETATM    1  C7  UNL     1      -4.800  47.745 -22.276  1.00  0.00     0.029 C 
HETATM    2  C8  UNL     1      -6.034  47.732 -23.250  1.00  0.00     0.152 C 
HETATM    3  C9  UNL     1      -5.654  48.616 -24.466  1.00  0.00     0.155 C 
HETATM    4  C10 UNL     1      -4.181  48.937 -24.244  1.00  0.00     0.060 C 
HETATM    5  C11 UNL     1      -4.041  49.055 -22.690  1.00  0.00    -0.029 C 
HETATM    6  C12 UNL     1      -4.698  50.290 -22.027  1.00  0.00     0.016 C 
HETATM    7  C13 UNL     1      -2.526  49.081 -22.398  1.00  0.00     0.011 C 
HETATM    8  C14 UNL     1      -1.796  50.203 -23.166  1.00  0.00     0.009 C 
HETATM    9  C15 UNL     1      -2.021  50.130 -24.696  1.00  0.00     0.029 C 
HETATM   10  C16 UNL     1      -1.200  51.186 -25.535  1.00  0.00    -0.031 C 
HETATM   11  C17 UNL     1      -1.574  52.642 -25.165  1.00  0.00     0.016 C 
HETATM   12  C18 UNL     1       0.328  51.006 -25.278  1.00  0.00     0.012 C 
HETATM   13  C19 UNL     1       1.217  51.816 -26.225  1.00  0.00     0.032 C 
HETATM   14  C20 UNL     1       0.874  51.596 -27.694  1.00  0.00     0.118 C 
HETATM   15  C21 UNL     1      -0.618  51.771 -27.977  1.00  0.00     0.039 C 
HETATM   16  C22 UNL     1      -1.457  50.879 -27.047  1.00  0.00     0.025 C 
HETATM   17  C23 UNL     1      -2.953  50.891 -27.407  1.00  0.00     0.126 C 
HETATM   18  C24 UNL     1      -3.732  49.876 -26.562  1.00  0.00     0.071 C 
HETATM   19  C25 UNL     1      -3.544  50.088 -25.051  1.00  0.00     0.071 C 
ENDROOT
BRANCH   1  20
HETATM   20  C5  UNL     1      -5.168  47.496 -20.784  1.00  0.00    -0.011 C 
HETATM   21  C6  UNL     1      -5.287  48.793 -19.974  1.00  0.00     0.010 C 
BRANCH  20  22
HETATM   22  C4  UNL     1      -4.101  46.584 -20.113  1.00  0.00     0.009 C 
BRANCH  22  23
HETATM   23  C3  UNL     1      -4.465  45.089 -20.176  1.00  0.00     0.034 C 
BRANCH  23  24
HETATM   24  C2  UNL     1      -5.301  44.530 -19.028  1.00  0.00    -0.083 C 
HETATM   25  C1  UNL     1      -6.606  44.815 -18.863  1.00  0.00     0.015 C 
BRANCH  24  26
HETATM   26  C26 UNL     1      -4.523  43.592 -18.090  1.00  0.00     0.033 C 
HETATM   27  C27 UNL     1      -3.182  44.148 -17.584  1.00  0.00     0.017 C 
BRANCH  26  28
HETATM   28  C28 UNL     1      -4.319  42.185 -18.699  1.00  0.00     0.172 C 
BRANCH  28  29
HETATM   29  O6  UNL     1      -3.004  41.983 -19.207  1.00  0.00    -0.400 OA
HETATM   30  H48 UNL     1      -2.372  42.244 -18.518  1.00  0.00     0.209 HD
ENDBRANCH  28  29
ENDBRANCH  26  28
ENDBRANCH  24  26
ENDBRANCH  23  24
ENDBRANCH  22  23
ENDBRANCH  20  22
ENDBRANCH   1  20
BRANCH   2  31
HETATM   31  O1  UNL     1      -7.232  48.257 -22.677  1.00  0.00    -0.393 OA
HETATM   32  H13 UNL     1      -7.601  47.582 -22.079  1.00  0.00     0.210 HD
ENDBRANCH   2  31
BRANCH   3  33
HETATM   33  O2  UNL     1      -6.438  49.807 -24.527  1.00  0.00    -0.392 OA
HETATM   34  H15 UNL     1      -7.189  49.633 -23.913  1.00  0.00     0.210 HD
ENDBRANCH   3  33
BRANCH  19  35
HETATM   35  O5  UNL     1      -4.180  51.314 -24.719  1.00  0.00    -0.389 OA
HETATM   36  H41 UNL     1      -5.149  51.142 -24.737  1.00  0.00     0.210 HD
ENDBRANCH  19  35
BRANCH  17  37
HETATM   37  O4  UNL     1      -3.122  50.544 -28.785  1.00  0.00    -0.395 OA
HETATM   38  H38 UNL     1      -2.783  49.642 -28.915  1.00  0.00     0.210 HD
ENDBRANCH  17  37
BRANCH  14  39
HETATM   39  O3  UNL     1       1.627  52.512 -28.480  1.00  0.00    -0.396 OA
HETATM   40  H33 UNL     1       1.352  52.401 -29.406  1.00  0.00     0.210 HD
ENDBRANCH  14  39
TORSDOF 12
ENDMDL
MODEL 8
REMARK minimizedAffinity -9.41364479
REMARK CNNscore 0.54210186
REMARK CNNaffinity 6.9086585
REMARK  12 active torsions:
REMARK  status: ('A' for Active; 'I' for Inactive)
REMARK    1  A    between atoms: C2_2  and  C3_3 
REMARK    2  A    between atoms: C2_2  and  C26_31 
REMARK    3  A    between atoms: C3_3  and  C4_4 
REMARK    4  A    between atoms: C4_4  and  C5_5 
REMARK    5  A    between atoms: C5_5  and  C7_7 
REMARK    6  A    between atoms: C8_8  and  O1_9 
REMARK    7  A    between atoms: C9_10  and  O2_11 
REMARK    8  A    between atoms: C20_22  and  O3_23 
REMARK    9  A    between atoms: C23_26  and  O4_27 
REMARK   10  A    between atoms: C25_29  and  O5_30 
REMARK   11  A    between atoms: C26_31  and  C28_33 
REMARK   12  A    between atoms: C28_33  and  O6_34 
ROOT
HETATM    1  C7  UNL     1      -0.411  49.809 -18.340  1.00  0.00     0.029 C 
HETATM    2  C8  UNL     1      -1.487  48.664 -18.316  1.00  0.00     0.152 C 
HETATM    3  C9  UNL     1      -2.176  48.669 -19.705  1.00  0.00     0.155 C 
HETATM    4  C10 UNL     1      -1.358  49.661 -20.521  1.00  0.00     0.060 C 
HETATM    5  C11 UNL     1      -0.926  50.752 -19.484  1.00  0.00    -0.029 C 
HETATM    6  C12 UNL     1      -2.042  51.683 -18.952  1.00  0.00     0.016 C 
HETATM    7  C13 UNL     1       0.146  51.611 -20.188  1.00  0.00     0.011 C 
HETATM    8  C14 UNL     1      -0.354  52.199 -21.524  1.00  0.00     0.009 C 
HETATM    9  C15 UNL     1      -0.867  51.117 -22.505  1.00  0.00     0.029 C 
HETATM   10  C16 UNL     1      -1.279  51.659 -23.929  1.00  0.00    -0.031 C 
HETATM   11  C17 UNL     1      -2.440  52.681 -23.850  1.00  0.00     0.016 C 
HETATM   12  C18 UNL     1      -0.066  52.367 -24.607  1.00  0.00     0.012 C 
HETATM   13  C19 UNL     1      -0.291  52.712 -26.081  1.00  0.00     0.032 C 
HETATM   14  C20 UNL     1      -0.765  51.517 -26.903  1.00  0.00     0.118 C 
HETATM   15  C21 UNL     1      -1.958  50.806 -26.264  1.00  0.00     0.039 C 
HETATM   16  C22 UNL     1      -1.647  50.420 -24.809  1.00  0.00     0.025 C 
HETATM   17  C23 UNL     1      -2.750  49.553 -24.179  1.00  0.00     0.126 C 
HETATM   18  C24 UNL     1      -2.336  49.060 -22.787  1.00  0.00     0.071 C 
HETATM   19  C25 UNL     1      -1.949  50.205 -21.838  1.00  0.00     0.071 C 
ENDROOT
BRANCH   1  20
HETATM   20  C5  UNL     1      -0.079  50.396 -16.936  1.00  0.00    -0.011 C 
HETATM   21  C6  UNL     1      -1.301  51.013 -16.245  1.00  0.00     0.010 C 
BRANCH  20  22
HETATM   22  C4  UNL     1       1.028  51.483 -17.056  1.00  0.00     0.009 C 
BRANCH  22  23
HETATM   23  C3  UNL     1       1.417  52.094 -15.697  1.00  0.00     0.034 C 
BRANCH  23  24
HETATM   24  C2  UNL     1       2.789  51.727 -15.140  1.00  0.00    -0.083 C 
HETATM   25  C1  UNL     1       3.942  52.163 -15.681  1.00  0.00     0.015 C 
BRANCH  24  26
HETATM   26  C26 UNL     1       2.736  50.833 -13.889  1.00  0.00     0.033 C 
HETATM   27  C27 UNL     1       2.955  51.569 -12.557  1.00  0.00     0.017 C 
BRANCH  26  28
HETATM   28  C28 UNL     1       3.692  49.621 -13.990  1.00  0.00     0.172 C 
BRANCH  28  29
HETATM   29  O6  UNL     1       4.885  49.788 -13.230  1.00  0.00    -0.400 OA
HETATM   30  H48 UNL     1       4.635  50.059 -12.332  1.00  0.00     0.209 HD
ENDBRANCH  28  29
ENDBRANCH  26  28
ENDBRANCH  24  26
ENDBRANCH  23  24
ENDBRANCH  22  23
ENDBRANCH  20  22
ENDBRANCH   1  20
BRANCH   2  31
HETATM   31  O1  UNL     1      -2.496  48.836 -17.319  1.00  0.00    -0.393 OA
HETATM   32  H13 UNL     1      -2.112  48.595 -16.458  1.00  0.00     0.210 HD
ENDBRANCH   2  31
BRANCH   3  33
HETATM   33  O2  UNL     1      -3.543  49.073 -19.622  1.00  0.00    -0.392 OA
HETATM   34  H15 UNL     1      -3.757  49.006 -18.663  1.00  0.00     0.210 HD
ENDBRANCH   3  33
BRANCH  19  35
HETATM   35  O5  UNL     1      -3.135  50.938 -21.563  1.00  0.00    -0.389 OA
HETATM   36  H41 UNL     1      -3.667  50.389 -20.942  1.00  0.00     0.210 HD
ENDBRANCH  19  35
BRANCH  17  37
HETATM   37  O4  UNL     1      -2.994  48.407 -25.001  1.00  0.00    -0.395 OA
HETATM   38  H38 UNL     1      -2.178  47.882 -25.041  1.00  0.00     0.210 HD
ENDBRANCH  17  37
BRANCH  14  39
HETATM   39  O3  UNL     1      -1.111  51.970 -28.207  1.00  0.00    -0.396 OA
HETATM   40  H33 UNL     1      -1.467  51.210 -28.697  1.00  0.00     0.210 HD
ENDBRANCH  14  39
TORSDOF 12
ENDMDL
MODEL 9
REMARK minimizedAffinity -7.8107543
REMARK CNNscore 0.526331782
REMARK CNNaffinity 6.76853943
REMARK  12 active torsions:
REMARK  status: ('A' for Active; 'I' for Inactive)
REMARK    1  A    between atoms: C2_2  and  C3_3 
REMARK    2  A    between atoms: C2_2  and  C26_31 
REMARK    3  A    between atoms: C3_3  and  C4_4 
REMARK    4  A    between atoms: C4_4  and  C5_5 
REMARK    5  A    between atoms: C5_5  and  C7_7 
REMARK    6  A    between atoms: C8_8  and  O1_9 
REMARK    7  A    between atoms: C9_10  and  O2_11 
REMARK    8  A    between atoms: C20_22  and  O3_23 
REMARK    9  A    between atoms: C23_26  and  O4_27 
REMARK   10  A    between atoms: C25_29  and  O5_30 
REMARK   11  A    between atoms: C26_31  and  C28_33 
REMARK   12  A    between atoms: C28_33  and  O6_34 
ROOT
HETATM    1  C7  UNL     1      -5.986  47.819 -21.611  1.00  0.00     0.029 C 
HETATM    2  C8  UNL     1      -6.821  47.386 -22.871  1.00  0.00     0.152 C 
HETATM    3  C9  UNL     1      -6.184  48.093 -24.094  1.00  0.00     0.155 C 
HETATM    4  C10 UNL     1      -4.920  48.734 -23.535  1.00  0.00     0.060 C 
HETATM    5  C11 UNL     1      -5.312  49.156 -22.080  1.00  0.00    -0.029 C 
HETATM    6  C12 UNL     1      -6.305  50.336 -21.944  1.00  0.00     0.016 C 
HETATM    7  C13 UNL     1      -3.993  49.533 -21.374  1.00  0.00     0.011 C 
HETATM    8  C14 UNL     1      -3.205  50.619 -22.135  1.00  0.00     0.009 C 
HETATM    9  C15 UNL     1      -2.906  50.229 -23.603  1.00  0.00     0.029 C 
HETATM   10  C16 UNL     1      -2.001  51.257 -24.388  1.00  0.00    -0.031 C 
HETATM   11  C17 UNL     1      -2.663  52.653 -24.494  1.00  0.00     0.016 C 
HETATM   12  C18 UNL     1      -0.631  51.432 -23.663  1.00  0.00     0.012 C 
HETATM   13  C19 UNL     1       0.404  52.218 -24.471  1.00  0.00     0.032 C 
HETATM   14  C20 UNL     1       0.592  51.673 -25.882  1.00  0.00     0.118 C 
HETATM   15  C21 UNL     1      -0.735  51.495 -26.620  1.00  0.00     0.039 C 
HETATM   16  C22 UNL     1      -1.707  50.639 -25.794  1.00  0.00     0.025 C 
HETATM   17  C23 UNL     1      -2.991  50.289 -26.567  1.00  0.00     0.126 C 
HETATM   18  C24 UNL     1      -3.864  49.310 -25.773  1.00  0.00     0.071 C 
HETATM   19  C25 UNL     1      -4.210  49.823 -24.366  1.00  0.00     0.071 C 
ENDROOT
BRANCH   1  20
HETATM   20  C5  UNL     1      -6.786  47.775 -20.276  1.00  0.00    -0.011 C 
HETATM   21  C6  UNL     1      -8.161  48.447 -20.382  1.00  0.00     0.010 C 
BRANCH  20  22
HETATM   22  C4  UNL     1      -5.978  48.469 -19.142  1.00  0.00     0.009 C 
BRANCH  22  23
HETATM   23  C3  UNL     1      -5.162  47.475 -18.294  1.00  0.00     0.034 C 
BRANCH  23  24
HETATM   24  C2  UNL     1      -3.663  47.397 -18.569  1.00  0.00    -0.083 C 
HETATM   25  C1  UNL     1      -3.099  46.406 -19.285  1.00  0.00     0.015 C 
BRANCH  24  26
HETATM   26  C26 UNL     1      -2.858  48.565 -17.976  1.00  0.00     0.033 C 
HETATM   27  C27 UNL     1      -1.438  48.727 -18.543  1.00  0.00     0.017 C 
BRANCH  26  28
HETATM   28  C28 UNL     1      -2.811  48.524 -16.431  1.00  0.00     0.172 C 
BRANCH  28  29
HETATM   29  O6  UNL     1      -3.416  49.661 -15.824  1.00  0.00    -0.400 OA
HETATM   30  H48 UNL     1      -4.295  49.782 -16.220  1.00  0.00     0.209 HD
ENDBRANCH  28  29
ENDBRANCH  26  28
ENDBRANCH  24  26
ENDBRANCH  23  24
ENDBRANCH  22  23
ENDBRANCH  20  22
ENDBRANCH   1  20
BRANCH   2  31
HETATM   31  O1  UNL     1      -8.198  47.759 -22.811  1.00  0.00    -0.393 OA
HETATM   32  H13 UNL     1      -8.651  47.143 -22.207  1.00  0.00     0.210 HD
ENDBRANCH   2  31
BRANCH   3  33
HETATM   33  O2  UNL     1      -7.053  49.075 -24.658  1.00  0.00    -0.392 OA
HETATM   34  H15 UNL     1      -7.934  48.870 -24.266  1.00  0.00     0.210 HD
ENDBRANCH   3  33
BRANCH  19  35
HETATM   35  O5  UNL     1      -5.074  50.939 -24.530  1.00  0.00    -0.389 OA
HETATM   36  H41 UNL     1      -5.952  50.579 -24.788  1.00  0.00     0.210 HD
ENDBRANCH  19  35
BRANCH  17  37
HETATM   37  O4  UNL     1      -2.654  49.673 -27.813  1.00  0.00    -0.395 OA
HETATM   38  H38 UNL     1      -2.176  48.848 -27.625  1.00  0.00     0.210 HD
ENDBRANCH  17  37
BRANCH  14  39
HETATM   39  O3  UNL     1       1.434  52.563 -26.606  1.00  0.00    -0.396 OA
HETATM   40  H33 UNL     1       1.494  52.234 -27.519  1.00  0.00     0.210 HD
ENDBRANCH  14  39
TORSDOF 12
ENDMDL
