MODEL 1
REMARK minimizedAffinity -6.91799688
REMARK CNNscore 0.671961606
REMARK CNNaffinity 7.34725523
REMARK  6 active torsions:
REMARK  status: ('A' for Active; 'I' for Inactive)
REMARK    1  A    between atoms: C2_2  and  C30_31 
REMARK    2  A    between atoms: C3_3  and  C4_4 
REMARK    3  A    between atoms: C4_4  and  C5_5 
REMARK    4  A    between atoms: C5_5  and  C6_6 
REMARK    5  A    between atoms: C6_6  and  C8_8 
REMARK    6  A    between atoms: C30_31  and  O2_32 
ROOT
HETATM    1  C8  UNL     1     -10.338   7.591  14.543  1.00  0.00    -0.002 C 
HETATM    2  C9  UNL     1     -11.606   6.751  14.172  1.00  0.00     0.007 C 
HETATM    3  C10 UNL     1     -12.755   7.743  13.883  1.00  0.00     0.015 C 
HETATM    4  C11 UNL     1     -12.051   9.100  13.736  1.00  0.00    -0.013 C 
HETATM    5  C12 UNL     1     -11.457   9.133  12.279  1.00  0.00     0.021 C 
HETATM    6  C13 UNL     1     -12.877  10.388  13.866  1.00  0.00    -0.070 C 
HETATM    7  C14 UNL     1     -13.997  10.560  13.131  1.00  0.00    -0.022 C 
HETATM    8  C15 UNL     1     -14.594  11.905  12.813  1.00  0.00     0.034 C 
HETATM    9  C16 UNL     1     -13.553  13.017  13.062  1.00  0.00     0.013 C 
HETATM   10  C17 UNL     1     -13.943  14.448  12.575  1.00  0.00     0.018 C 
HETATM   11  C18 UNL     1     -15.156  15.062  13.282  1.00  0.00     0.023 C 
HETATM   12  C19 UNL     1     -14.224  14.431  11.058  1.00  0.00     0.023 C 
HETATM   13  C20 UNL     1     -12.739  15.384  12.807  1.00  0.00     0.135 C 
HETATM   14  O1  UNL     1     -12.677  16.504  12.294  1.00  0.00    -0.297 OA
HETATM   15  C21 UNL     1     -11.608  14.880  13.681  1.00  0.00     0.080 C 
HETATM   16  C22 UNL     1     -12.183  14.171  14.896  1.00  0.00     0.017 C 
HETATM   17  C23 UNL     1     -13.016  12.914  14.529  1.00  0.00    -0.031 C 
HETATM   18  C24 UNL     1     -14.160  12.831  15.590  1.00  0.00     0.016 C 
HETATM   19  C25 UNL     1     -12.221  11.547  14.654  1.00  0.00     0.024 C 
HETATM   20  C26 UNL     1     -10.709  11.555  14.358  1.00  0.00     0.010 C 
HETATM   21  C27 UNL     1     -10.008  10.215  14.731  1.00  0.00     0.011 C 
HETATM   22  C28 UNL     1     -10.958   8.993  14.861  1.00  0.00    -0.029 C 
HETATM   23  C29 UNL     1     -11.555   8.917  16.307  1.00  0.00     0.016 C 
ENDROOT
BRANCH   1  24
HETATM   24  C6  UNL     1      -9.436   6.869  15.594  1.00  0.00    -0.014 C 
HETATM   25  C7  UNL     1      -8.805   7.855  16.581  1.00  0.00     0.010 C 
BRANCH  24  26
HETATM   26  C5  UNL     1      -8.331   6.055  14.863  1.00  0.00     0.008 C 
BRANCH  26  27
HETATM   27  C4  UNL     1      -8.498   5.881  13.348  1.00  0.00     0.028 C 
BRANCH  27  28
HETATM   28  C3  UNL     1      -8.204   4.486  12.869  1.00  0.00    -0.022 C 
HETATM   29  C2  UNL     1      -6.994   3.904  12.732  1.00  0.00    -0.064 C 
HETATM   30  C1  UNL     1      -5.682   4.585  13.017  1.00  0.00     0.045 C 
BRANCH  29  31
HETATM   31  C30 UNL     1      -6.874   2.475  12.271  1.00  0.00     0.197 C 
BRANCH  31  32
HETATM   32  O2  UNL     1      -8.076   1.790  12.585  1.00  0.00    -0.397 OA
HETATM   33  H48 UNL     1      -7.951   0.867  12.306  1.00  0.00     0.209 HD
ENDBRANCH  31  32
ENDBRANCH  29  31
ENDBRANCH  27  28
ENDBRANCH  26  27
ENDBRANCH  24  26
ENDBRANCH   1  24
TORSDOF 6
ENDMDL
MODEL 2
REMARK minimizedAffinity -6.79413891
REMARK CNNscore 0.667589009
REMARK CNNaffinity 6.91385221
REMARK  6 active torsions:
REMARK  status: ('A' for Active; 'I' for Inactive)
REMARK    1  A    between atoms: C2_2  and  C30_31 
REMARK    2  A    between atoms: C3_3  and  C4_4 
REMARK    3  A    between atoms: C4_4  and  C5_5 
REMARK    4  A    between atoms: C5_5  and  C6_6 
REMARK    5  A    between atoms: C6_6  and  C8_8 
REMARK    6  A    between atoms: C30_31  and  O2_32 
ROOT
HETATM    1  C8  UNL     1     -13.397 -11.495  26.307  1.00  0.00    -0.002 C 
HETATM    2  C9  UNL     1     -14.890 -11.490  25.836  1.00  0.00     0.007 C 
HETATM    3  C10 UNL     1     -15.650 -10.462  26.705  1.00  0.00     0.015 C 
HETATM    4  C11 UNL     1     -14.538  -9.652  27.387  1.00  0.00    -0.013 C 
HETATM    5  C12 UNL     1     -14.038  -8.606  26.322  1.00  0.00     0.021 C 
HETATM    6  C13 UNL     1     -14.874  -8.828  28.638  1.00  0.00    -0.070 C 
HETATM    7  C14 UNL     1     -15.904  -7.955  28.626  1.00  0.00    -0.022 C 
HETATM    8  C15 UNL     1     -16.027  -6.789  29.570  1.00  0.00     0.034 C 
HETATM    9  C16 UNL     1     -14.662  -6.494  30.226  1.00  0.00     0.013 C 
HETATM   10  C17 UNL     1     -14.569  -5.181  31.067  1.00  0.00     0.018 C 
HETATM   11  C18 UNL     1     -15.469  -5.144  32.307  1.00  0.00     0.023 C 
HETATM   12  C19 UNL     1     -14.913  -3.964  30.183  1.00  0.00     0.023 C 
HETATM   13  C20 UNL     1     -13.111  -5.008  31.537  1.00  0.00     0.135 C 
HETATM   14  O1  UNL     1     -12.700  -3.944  32.006  1.00  0.00    -0.297 OA
HETATM   15  C21 UNL     1     -12.175  -6.192  31.394  1.00  0.00     0.080 C 
HETATM   16  C22 UNL     1     -12.897  -7.463  31.813  1.00  0.00     0.017 C 
HETATM   17  C23 UNL     1     -14.121  -7.790  30.917  1.00  0.00    -0.031 C 
HETATM   18  C24 UNL     1     -15.174  -8.462  31.857  1.00  0.00     0.016 C 
HETATM   19  C25 UNL     1     -13.828  -8.855  29.779  1.00  0.00     0.024 C 
HETATM   20  C26 UNL     1     -12.418  -8.889  29.158  1.00  0.00     0.010 C 
HETATM   21  C27 UNL     1     -12.193 -10.112  28.222  1.00  0.00     0.011 C 
HETATM   22  C28 UNL     1     -13.491 -10.784  27.699  1.00  0.00    -0.029 C 
HETATM   23  C29 UNL     1     -14.009 -11.847  28.726  1.00  0.00     0.016 C 
ENDROOT
BRANCH   1  24
HETATM   24  C6  UNL     1     -12.742 -12.906  26.183  1.00  0.00    -0.014 C 
HETATM   25  C7  UNL     1     -13.408 -13.930  27.108  1.00  0.00     0.010 C 
BRANCH  24  26
HETATM   26  C5  UNL     1     -11.222 -12.807  26.495  1.00  0.00     0.008 C 
BRANCH  26  27
HETATM   27  C4  UNL     1     -10.264 -13.221  25.370  1.00  0.00     0.028 C 
BRANCH  27  28
HETATM   28  C3  UNL     1      -9.707 -12.057  24.598  1.00  0.00    -0.022 C 
HETATM   29  C2  UNL     1      -8.542 -12.006  23.919  1.00  0.00    -0.064 C 
HETATM   30  C1  UNL     1      -7.549 -13.135  23.841  1.00  0.00     0.045 C 
BRANCH  29  31
HETATM   31  C30 UNL     1      -8.145 -10.766  23.162  1.00  0.00     0.197 C 
BRANCH  31  32
HETATM   32  O2  UNL     1      -6.864 -10.970  22.587  1.00  0.00    -0.397 OA
HETATM   33  H48 UNL     1      -6.626 -10.142  22.137  1.00  0.00     0.209 HD
ENDBRANCH  31  32
ENDBRANCH  29  31
ENDBRANCH  27  28
ENDBRANCH  26  27
ENDBRANCH  24  26
ENDBRANCH   1  24
TORSDOF 6
ENDMDL
MODEL 3
REMARK minimizedAffinity -6.92400599
REMARK CNNscore 0.664782941
REMARK CNNaffinity 6.88184786
REMARK  6 active torsions:
REMARK  status: ('A' for Active; 'I' for Inactive)
REMARK    1  A    between atoms: C2_2  and  C30_31 
REMARK    2  A    between atoms: C3_3  and  C4_4 
REMARK    3  A    between atoms: C4_4  and  C5_5 
REMARK    4  A    between atoms: C5_5  and  C6_6 
REMARK    5  A    between atoms: C6_6  and  C8_8 
REMARK    6  A    between atoms: C30_31  and  O2_32 
ROOT
HETATM    1  C8  UNL     1       1.606  11.738  18.078  1.00  0.00    -0.002 C 
HETATM    2  C9  UNL     1       0.856  13.110  18.012  1.00  0.00     0.007 C 
HETATM    3  C10 UNL     1      -0.413  12.907  17.153  1.00  0.00     0.015 C 
HETATM    4  C11 UNL     1      -0.559  11.382  17.052  1.00  0.00    -0.013 C 
HETATM    5  C12 UNL     1      -1.216  10.912  18.402  1.00  0.00     0.021 C 
HETATM    6  C13 UNL     1      -1.439  10.787  15.943  1.00  0.00    -0.070 C 
HETATM    7  C14 UNL     1      -2.710  11.213  15.777  1.00  0.00    -0.022 C 
HETATM    8  C15 UNL     1      -3.780  10.408  15.088  1.00  0.00     0.034 C 
HETATM    9  C16 UNL     1      -3.352   8.928  14.998  1.00  0.00     0.013 C 
HETATM   10  C17 UNL     1      -4.442   7.924  14.505  1.00  0.00     0.018 C 
HETATM   11  C18 UNL     1      -4.922   8.147  13.066  1.00  0.00     0.023 C 
HETATM   12  C19 UNL     1      -5.670   7.978  15.439  1.00  0.00     0.023 C 
HETATM   13  C20 UNL     1      -3.863   6.498  14.593  1.00  0.00     0.135 C 
HETATM   14  O1  UNL     1      -4.579   5.498  14.502  1.00  0.00    -0.297 OA
HETATM   15  C21 UNL     1      -2.370   6.352  14.811  1.00  0.00     0.080 C 
HETATM   16  C22 UNL     1      -1.629   7.352  13.939  1.00  0.00     0.017 C 
HETATM   17  C23 UNL     1      -1.958   8.827  14.292  1.00  0.00    -0.031 C 
HETATM   18  C24 UNL     1      -1.901   9.615  12.944  1.00  0.00     0.016 C 
HETATM   19  C25 UNL     1      -0.891   9.524  15.237  1.00  0.00     0.024 C 
HETATM   20  C26 UNL     1      -0.159   8.653  16.275  1.00  0.00     0.010 C 
HETATM   21  C27 UNL     1       1.013   9.399  16.979  1.00  0.00     0.011 C 
HETATM   22  C28 UNL     1       0.945  10.948  16.898  1.00  0.00    -0.029 C 
HETATM   23  C29 UNL     1       1.609  11.455  15.573  1.00  0.00     0.016 C 
ENDROOT
BRANCH   1  24
HETATM   24  C6  UNL     1       3.157  11.913  18.140  1.00  0.00    -0.014 C 
HETATM   25  C7  UNL     1       3.870  11.089  17.064  1.00  0.00     0.010 C 
BRANCH  24  26
HETATM   26  C5  UNL     1       3.671  11.518  19.553  1.00  0.00     0.008 C 
BRANCH  26  27
HETATM   27  C4  UNL     1       2.646  11.568  20.693  1.00  0.00     0.028 C 
BRANCH  27  28
HETATM   28  C3  UNL     1       2.425  10.238  21.359  1.00  0.00    -0.022 C 
HETATM   29  C2  UNL     1       3.095   9.726  22.412  1.00  0.00    -0.064 C 
HETATM   30  C1  UNL     1       4.241  10.410  23.109  1.00  0.00     0.045 C 
BRANCH  29  31
HETATM   31  C30 UNL     1       2.721   8.384  22.985  1.00  0.00     0.197 C 
BRANCH  31  32
HETATM   32  O2  UNL     1       1.601   7.879  22.276  1.00  0.00    -0.397 OA
HETATM   33  H48 UNL     1       1.366   7.032  22.693  1.00  0.00     0.209 HD
ENDBRANCH  31  32
ENDBRANCH  29  31
ENDBRANCH  27  28
ENDBRANCH  26  27
ENDBRANCH  24  26
ENDBRANCH   1  24
TORSDOF 6
ENDMDL
MODEL 4
REMARK minimizedAffinity -6.71954536
REMARK CNNscore 0.509626627
REMARK CNNaffinity 6.55655098
REMARK  6 active torsions:
REMARK  status: ('A' for Active; 'I' for Inactive)
REMARK    1  A    between atoms: C2_2  and  C30_31 
REMARK    2  A    between atoms: C3_3  and  C4_4 
REMARK    3  A    between atoms: C4_4  and  C5_5 
REMARK    4  A    between atoms: C5_5  and  C6_6 
REMARK    5  A    between atoms: C6_6  and  C8_8 
REMARK    6  A    between atoms: C30_31  and  O2_32 
ROOT
HETATM    1  C8  UNL     1      -2.520  12.317  17.648  1.00  0.00    -0.002 C 
HETATM    2  C9  UNL     1      -2.883  11.306  18.786  1.00  0.00     0.007 C 
HETATM    3  C10 UNL     1      -2.843   9.885  18.178  1.00  0.00     0.015 C 
HETATM    4  C11 UNL     1      -2.119  10.070  16.837  1.00  0.00    -0.013 C 
HETATM    5  C12 UNL     1      -0.583  10.132  17.170  1.00  0.00     0.021 C 
HETATM    6  C13 UNL     1      -2.257   8.987  15.757  1.00  0.00    -0.070 C 
HETATM    7  C14 UNL     1      -2.002   7.693  16.050  1.00  0.00    -0.022 C 
HETATM    8  C15 UNL     1      -1.638   6.657  15.021  1.00  0.00     0.034 C 
HETATM    9  C16 UNL     1      -1.191   7.344  13.714  1.00  0.00     0.013 C 
HETATM   10  C17 UNL     1      -0.576   6.415  12.620  1.00  0.00     0.018 C 
HETATM   11  C18 UNL     1      -1.536   5.365  12.050  1.00  0.00     0.023 C 
HETATM   12  C19 UNL     1       0.660   5.683  13.185  1.00  0.00     0.023 C 
HETATM   13  C20 UNL     1      -0.091   7.295  11.451  1.00  0.00     0.135 C 
HETATM   14  O1  UNL     1       0.651   6.856  10.569  1.00  0.00    -0.297 OA
HETATM   15  C21 UNL     1      -0.544   8.741  11.419  1.00  0.00     0.080 C 
HETATM   16  C22 UNL     1      -2.017   8.820  11.787  1.00  0.00     0.017 C 
HETATM   17  C23 UNL     1      -2.310   8.326  13.228  1.00  0.00    -0.031 C 
HETATM   18  C24 UNL     1      -3.722   7.658  13.175  1.00  0.00     0.016 C 
HETATM   19  C25 UNL     1      -2.430   9.486  14.303  1.00  0.00     0.024 C 
HETATM   20  C26 UNL     1      -1.573  10.751  14.107  1.00  0.00     0.010 C 
HETATM   21  C27 UNL     1      -1.944  11.897  15.094  1.00  0.00     0.011 C 
HETATM   22  C28 UNL     1      -2.717  11.445  16.362  1.00  0.00    -0.029 C 
HETATM   23  C29 UNL     1      -4.256  11.391  16.073  1.00  0.00     0.016 C 
ENDROOT
BRANCH   1  24
HETATM   24  C6  UNL     1      -3.270  13.677  17.803  1.00  0.00    -0.014 C 
HETATM   25  C7  UNL     1      -2.385  14.867  17.418  1.00  0.00     0.010 C 
BRANCH  24  26
HETATM   26  C5  UNL     1      -3.776  13.832  19.265  1.00  0.00     0.008 C 
BRANCH  26  27
HETATM   27  C4  UNL     1      -5.287  13.686  19.485  1.00  0.00     0.028 C 
BRANCH  27  28
HETATM   28  C3  UNL     1      -5.850  14.680  20.462  1.00  0.00    -0.022 C 
HETATM   29  C2  UNL     1      -6.167  14.468  21.757  1.00  0.00    -0.064 C 
HETATM   30  C1  UNL     1      -6.036  13.145  22.462  1.00  0.00     0.045 C 
BRANCH  29  31
HETATM   31  C30 UNL     1      -6.689  15.590  22.616  1.00  0.00     0.197 C 
BRANCH  31  32
HETATM   32  O2  UNL     1      -6.572  15.216  23.979  1.00  0.00    -0.397 OA
HETATM   33  H48 UNL     1      -6.948  15.945  24.501  1.00  0.00     0.209 HD
ENDBRANCH  31  32
ENDBRANCH  29  31
ENDBRANCH  27  28
ENDBRANCH  26  27
ENDBRANCH  24  26
ENDBRANCH   1  24
TORSDOF 6
ENDMDL
MODEL 5
REMARK minimizedAffinity -8.9530983
REMARK CNNscore 0.45809868
REMARK CNNaffinity 7.23601961
REMARK  6 active torsions:
REMARK  status: ('A' for Active; 'I' for Inactive)
REMARK    1  A    between atoms: C2_2  and  C30_31 
REMARK    2  A    between atoms: C3_3  and  C4_4 
REMARK    3  A    between atoms: C4_4  and  C5_5 
REMARK    4  A    between atoms: C5_5  and  C6_6 
REMARK    5  A    between atoms: C6_6  and  C8_8 
REMARK    6  A    between atoms: C30_31  and  O2_32 
ROOT
HETATM    1  C8  UNL     1      -6.309   7.206  14.398  1.00  0.00    -0.002 C 
HETATM    2  C9  UNL     1      -6.147   8.643  14.998  1.00  0.00     0.007 C 
HETATM    3  C10 UNL     1      -4.659   9.040  14.862  1.00  0.00     0.015 C 
HETATM    4  C11 UNL     1      -4.083   8.007  13.882  1.00  0.00    -0.013 C 
HETATM    5  C12 UNL     1      -4.496   8.488  12.442  1.00  0.00     0.021 C 
HETATM    6  C13 UNL     1      -2.562   7.803  13.820  1.00  0.00    -0.070 C 
HETATM    7  C14 UNL     1      -1.737   8.859  13.650  1.00  0.00    -0.022 C 
HETATM    8  C15 UNL     1      -0.337   8.749  13.106  1.00  0.00     0.034 C 
HETATM    9  C16 UNL     1      -0.151   7.392  12.396  1.00  0.00     0.013 C 
HETATM   10  C17 UNL     1       1.175   7.210  11.591  1.00  0.00     0.018 C 
HETATM   11  C18 UNL     1       2.453   7.242  12.436  1.00  0.00     0.023 C 
HETATM   12  C19 UNL     1       1.286   8.302  10.505  1.00  0.00     0.023 C 
HETATM   13  C20 UNL     1       1.121   5.850  10.868  1.00  0.00     0.135 C 
HETATM   14  O1  UNL     1       1.917   5.556   9.973  1.00  0.00    -0.297 OA
HETATM   15  C21 UNL     1       0.040   4.871  11.281  1.00  0.00     0.080 C 
HETATM   16  C22 UNL     1      -0.084   4.860  12.796  1.00  0.00     0.017 C 
HETATM   17  C23 UNL     1      -0.520   6.231  13.379  1.00  0.00    -0.031 C 
HETATM   18  C24 UNL     1       0.195   6.356  14.763  1.00  0.00     0.016 C 
HETATM   19  C25 UNL     1      -2.071   6.341  13.691  1.00  0.00     0.024 C 
HETATM   20  C26 UNL     1      -3.052   5.566  12.791  1.00  0.00     0.010 C 
HETATM   21  C27 UNL     1      -4.512   5.574  13.332  1.00  0.00     0.011 C 
HETATM   22  C28 UNL     1      -4.827   6.703  14.350  1.00  0.00    -0.029 C 
HETATM   23  C29 UNL     1      -4.445   6.253  15.801  1.00  0.00     0.016 C 
ENDROOT
BRANCH   1  24
HETATM   24  C6  UNL     1      -7.402   6.375  15.141  1.00  0.00    -0.014 C 
HETATM   25  C7  UNL     1      -7.213   6.408  16.661  1.00  0.00     0.010 C 
BRANCH  24  26
HETATM   26  C5  UNL     1      -7.382   4.908  14.627  1.00  0.00     0.008 C 
BRANCH  26  27
HETATM   27  C4  UNL     1      -7.793   4.689  13.165  1.00  0.00     0.028 C 
BRANCH  27  28
HETATM   28  C3  UNL     1      -6.714   4.060  12.327  1.00  0.00    -0.022 C 
HETATM   29  C2  UNL     1      -6.533   2.747  12.075  1.00  0.00    -0.064 C 
HETATM   30  C1  UNL     1      -7.391   1.643  12.634  1.00  0.00     0.045 C 
BRANCH  29  31
HETATM   31  C30 UNL     1      -5.416   2.282  11.177  1.00  0.00     0.197 C 
BRANCH  31  32
HETATM   32  O2  UNL     1      -5.620   2.814   9.879  1.00  0.00    -0.397 OA
HETATM   33  H48 UNL     1      -4.903   2.468   9.320  1.00  0.00     0.209 HD
ENDBRANCH  31  32
ENDBRANCH  29  31
ENDBRANCH  27  28
ENDBRANCH  26  27
ENDBRANCH  24  26
ENDBRANCH   1  24
TORSDOF 6
ENDMDL
MODEL 6
REMARK minimizedAffinity -7.46081448
REMARK CNNscore 0.428838938
REMARK CNNaffinity 7.0096283
REMARK  6 active torsions:
REMARK  status: ('A' for Active; 'I' for Inactive)
REMARK    1  A    between atoms: C2_2  and  C30_31 
REMARK    2  A    between atoms: C3_3  and  C4_4 
REMARK    3  A    between atoms: C4_4  and  C5_5 
REMARK    4  A    between atoms: C5_5  and  C6_6 
REMARK    5  A    between atoms: C6_6  and  C8_8 
REMARK    6  A    between atoms: C30_31  and  O2_32 
ROOT
HETATM    1  C8  UNL     1      -5.648   5.406  13.448  1.00  0.00    -0.002 C 
HETATM    2  C9  UNL     1      -6.513   4.101  13.431  1.00  0.00     0.007 C 
HETATM    3  C10 UNL     1      -7.939   4.480  13.888  1.00  0.00     0.015 C 
HETATM    4  C11 UNL     1      -7.965   6.014  13.806  1.00  0.00    -0.013 C 
HETATM    5  C12 UNL     1      -8.196   6.369  12.290  1.00  0.00     0.021 C 
HETATM    6  C13 UNL     1      -9.049   6.785  14.572  1.00  0.00    -0.070 C 
HETATM    7  C14 UNL     1     -10.352   6.463  14.424  1.00  0.00    -0.022 C 
HETATM    8  C15 UNL     1     -11.488   7.407  14.717  1.00  0.00     0.034 C 
HETATM    9  C16 UNL     1     -10.965   8.857  14.785  1.00  0.00     0.013 C 
HETATM   10  C17 UNL     1     -12.049   9.979  14.867  1.00  0.00     0.018 C 
HETATM   11  C18 UNL     1     -12.912   9.951  16.133  1.00  0.00     0.023 C 
HETATM   12  C19 UNL     1     -12.985   9.897  13.642  1.00  0.00     0.023 C 
HETATM   13  C20 UNL     1     -11.339  11.345  14.809  1.00  0.00     0.135 C 
HETATM   14  O1  UNL     1     -11.957  12.393  14.609  1.00  0.00    -0.297 OA
HETATM   15  C21 UNL     1      -9.835  11.370  14.994  1.00  0.00     0.080 C 
HETATM   16  C22 UNL     1      -9.447  10.430  16.124  1.00  0.00     0.017 C 
HETATM   17  C23 UNL     1      -9.805   8.949  15.831  1.00  0.00    -0.031 C 
HETATM   18  C24 UNL     1     -10.180   8.316  17.211  1.00  0.00     0.016 C 
HETATM   19  C25 UNL     1      -8.594   8.082  15.283  1.00  0.00     0.024 C 
HETATM   20  C26 UNL     1      -7.536   8.782  14.408  1.00  0.00     0.010 C 
HETATM   21  C27 UNL     1      -6.294   7.887  14.122  1.00  0.00     0.011 C 
HETATM   22  C28 UNL     1      -6.523   6.365  14.324  1.00  0.00    -0.029 C 
HETATM   23  C29 UNL     1      -6.283   5.970  15.820  1.00  0.00     0.016 C 
ENDROOT
BRANCH   1  24
HETATM   24  C6  UNL     1      -4.160   5.126  13.827  1.00  0.00    -0.014 C 
HETATM   25  C7  UNL     1      -3.256   6.324  13.524  1.00  0.00     0.010 C 
BRANCH  24  26
HETATM   26  C5  UNL     1      -3.656   3.864  13.072  1.00  0.00     0.008 C 
BRANCH  26  27
HETATM   27  C4  UNL     1      -3.232   4.065  11.611  1.00  0.00     0.028 C 
BRANCH  27  28
HETATM   28  C3  UNL     1      -2.682   2.821  10.970  1.00  0.00    -0.022 C 
HETATM   29  C2  UNL     1      -1.410   2.370  11.013  1.00  0.00    -0.064 C 
HETATM   30  C1  UNL     1      -0.277   3.076  11.708  1.00  0.00     0.045 C 
BRANCH  29  31
HETATM   31  C30 UNL     1      -1.029   1.076  10.342  1.00  0.00     0.197 C 
BRANCH  31  32
HETATM   32  O2  UNL     1      -0.016   0.444  11.108  1.00  0.00    -0.397 OA
HETATM   33  H48 UNL     1       0.229  -0.366  10.631  1.00  0.00     0.209 HD
ENDBRANCH  31  32
ENDBRANCH  29  31
ENDBRANCH  27  28
ENDBRANCH  26  27
ENDBRANCH  24  26
ENDBRANCH   1  24
TORSDOF 6
ENDMDL
MODEL 7
REMARK minimizedAffinity -6.72488165
REMARK CNNscore 0.397531301
REMARK CNNaffinity 5.46508455
REMARK  6 active torsions:
REMARK  status: ('A' for Active; 'I' for Inactive)
REMARK    1  A    between atoms: C2_2  and  C30_31 
REMARK    2  A    between atoms: C3_3  and  C4_4 
REMARK    3  A    between atoms: C4_4  and  C5_5 
REMARK    4  A    between atoms: C5_5  and  C6_6 
REMARK    5  A    between atoms: C6_6  and  C8_8 
REMARK    6  A    between atoms: C30_31  and  O2_32 
ROOT
HETATM    1  C8  UNL     1      -4.612  -9.938   6.284  1.00  0.00    -0.002 C 
HETATM    2  C9  UNL     1      -3.428 -10.955   6.159  1.00  0.00     0.007 C 
HETATM    3  C10 UNL     1      -3.479 -11.558   4.737  1.00  0.00     0.015 C 
HETATM    4  C11 UNL     1      -4.436 -10.633   3.971  1.00  0.00    -0.013 C 
HETATM    5  C12 UNL     1      -3.594  -9.367   3.565  1.00  0.00     0.021 C 
HETATM    6  C13 UNL     1      -5.073 -11.132   2.666  1.00  0.00    -0.070 C 
HETATM    7  C14 UNL     1      -4.302 -11.636   1.678  1.00  0.00    -0.022 C 
HETATM    8  C15 UNL     1      -4.723 -11.699   0.234  1.00  0.00     0.034 C 
HETATM    9  C16 UNL     1      -5.917 -10.751  -0.009  1.00  0.00     0.013 C 
HETATM   10  C17 UNL     1      -6.336 -10.536  -1.498  1.00  0.00     0.018 C 
HETATM   11  C18 UNL     1      -6.847 -11.792  -2.213  1.00  0.00     0.023 C 
HETATM   12  C19 UNL     1      -5.146  -9.972  -2.304  1.00  0.00     0.023 C 
HETATM   13  C20 UNL     1      -7.458  -9.480  -1.539  1.00  0.00     0.135 C 
HETATM   14  O1  UNL     1      -7.805  -8.939  -2.592  1.00  0.00    -0.297 OA
HETATM   15  C21 UNL     1      -8.126  -9.105  -0.231  1.00  0.00     0.080 C 
HETATM   16  C22 UNL     1      -8.380 -10.361   0.587  1.00  0.00     0.017 C 
HETATM   17  C23 UNL     1      -7.075 -11.101   0.984  1.00  0.00    -0.031 C 
HETATM   18  C24 UNL     1      -7.430 -12.623   0.992  1.00  0.00     0.016 C 
HETATM   19  C25 UNL     1      -6.563 -10.778   2.451  1.00  0.00     0.024 C 
HETATM   20  C26 UNL     1      -6.827  -9.371   3.020  1.00  0.00     0.010 C 
HETATM   21  C27 UNL     1      -6.480  -9.251   4.533  1.00  0.00     0.011 C 
HETATM   22  C28 UNL     1      -5.519 -10.344   5.074  1.00  0.00    -0.029 C 
HETATM   23  C29 UNL     1      -6.325 -11.615   5.506  1.00  0.00     0.016 C 
ENDROOT
BRANCH   1  24
HETATM   24  C6  UNL     1      -5.199  -9.888   7.730  1.00  0.00    -0.014 C 
HETATM   25  C7  UNL     1      -6.329  -8.862   7.854  1.00  0.00     0.010 C 
BRANCH  24  26
HETATM   26  C5  UNL     1      -4.065  -9.570   8.744  1.00  0.00     0.008 C 
BRANCH  26  27
HETATM   27  C4  UNL     1      -4.188 -10.213  10.132  1.00  0.00     0.028 C 
BRANCH  27  28
HETATM   28  C3  UNL     1      -5.182  -9.525  11.026  1.00  0.00    -0.022 C 
HETATM   29  C2  UNL     1      -6.157 -10.098  11.762  1.00  0.00    -0.064 C 
HETATM   30  C1  UNL     1      -6.449 -11.575  11.791  1.00  0.00     0.045 C 
BRANCH  29  31
HETATM   31  C30 UNL     1      -7.052  -9.263  12.640  1.00  0.00     0.197 C 
BRANCH  31  32
HETATM   32  O2  UNL     1      -6.243  -8.460  13.486  1.00  0.00    -0.397 OA
HETATM   33  H48 UNL     1      -6.850  -7.962  14.059  1.00  0.00     0.209 HD
ENDBRANCH  31  32
ENDBRANCH  29  31
ENDBRANCH  27  28
ENDBRANCH  26  27
ENDBRANCH  24  26
ENDBRANCH   1  24
TORSDOF 6
ENDMDL
MODEL 8
REMARK minimizedAffinity -7.71692705
REMARK CNNscore 0.371705949
REMARK CNNaffinity 6.9150157
REMARK  6 active torsions:
REMARK  status: ('A' for Active; 'I' for Inactive)
REMARK    1  A    between atoms: C2_2  and  C30_31 
REMARK    2  A    between atoms: C3_3  and  C4_4 
REMARK    3  A    between atoms: C4_4  and  C5_5 
REMARK    4  A    between atoms: C5_5  and  C6_6 
REMARK    5  A    between atoms: C6_6  and  C8_8 
REMARK    6  A    between atoms: C30_31  and  O2_32 
ROOT
HETATM    1  C8  UNL     1      -8.007   6.667  14.264  1.00  0.00    -0.002 C 
HETATM    2  C9  UNL     1      -8.042   6.027  15.692  1.00  0.00     0.007 C 
HETATM    3  C10 UNL     1      -6.585   5.936  16.199  1.00  0.00     0.015 C 
HETATM    4  C11 UNL     1      -5.796   6.838  15.238  1.00  0.00    -0.013 C 
HETATM    5  C12 UNL     1      -6.032   8.315  15.727  1.00  0.00     0.021 C 
HETATM    6  C13 UNL     1      -4.272   6.679  15.147  1.00  0.00    -0.070 C 
HETATM    7  C14 UNL     1      -3.513   6.709  16.264  1.00  0.00    -0.022 C 
HETATM    8  C15 UNL     1      -2.045   7.044  16.272  1.00  0.00     0.034 C 
HETATM    9  C16 UNL     1      -1.655   7.740  14.951  1.00  0.00     0.013 C 
HETATM   10  C17 UNL     1      -0.216   8.345  14.889  1.00  0.00     0.018 C 
HETATM   11  C18 UNL     1       0.919   7.321  14.990  1.00  0.00     0.023 C 
HETATM   12  C19 UNL     1      -0.032   9.385  16.014  1.00  0.00     0.023 C 
HETATM   13  C20 UNL     1      -0.061   9.090  13.548  1.00  0.00     0.135 C 
HETATM   14  O1  UNL     1       0.876   9.864  13.337  1.00  0.00    -0.297 OA
HETATM   15  C21 UNL     1      -1.113   8.856  12.482  1.00  0.00     0.080 C 
HETATM   16  C22 UNL     1      -1.455   7.376  12.421  1.00  0.00     0.017 C 
HETATM   17  C23 UNL     1      -2.073   6.841  13.740  1.00  0.00    -0.031 C 
HETATM   18  C24 UNL     1      -1.579   5.365  13.880  1.00  0.00     0.016 C 
HETATM   19  C25 UNL     1      -3.658   6.758  13.729  1.00  0.00     0.024 C 
HETATM   20  C26 UNL     1      -4.436   7.805  12.909  1.00  0.00     0.010 C 
HETATM   21  C27 UNL     1      -5.955   7.485  12.797  1.00  0.00     0.011 C 
HETATM   22  C28 UNL     1      -6.499   6.505  13.872  1.00  0.00    -0.029 C 
HETATM   23  C29 UNL     1      -6.299   5.022  13.411  1.00  0.00     0.016 C 
ENDROOT
BRANCH   1  24
HETATM   24  C6  UNL     1      -9.129   6.106  13.335  1.00  0.00    -0.014 C 
HETATM   25  C7  UNL     1      -8.598   5.751  11.944  1.00  0.00     0.010 C 
BRANCH  24  26
HETATM   26  C5  UNL     1     -10.283   7.142  13.224  1.00  0.00     0.008 C 
BRANCH  26  27
HETATM   27  C4  UNL     1     -11.576   6.811  13.980  1.00  0.00     0.028 C 
BRANCH  27  28
HETATM   28  C3  UNL     1     -12.823   7.143  13.209  1.00  0.00    -0.022 C 
HETATM   29  C2  UNL     1     -14.062   6.642  13.397  1.00  0.00    -0.064 C 
HETATM   30  C1  UNL     1     -14.415   5.605  14.429  1.00  0.00     0.045 C 
BRANCH  29  31
HETATM   31  C30 UNL     1     -15.220   7.112  12.555  1.00  0.00     0.197 C 
BRANCH  31  32
HETATM   32  O2  UNL     1     -14.903   8.381  12.008  1.00  0.00    -0.397 OA
HETATM   33  H48 UNL     1     -15.681   8.668  11.501  1.00  0.00     0.209 HD
ENDBRANCH  31  32
ENDBRANCH  29  31
ENDBRANCH  27  28
ENDBRANCH  26  27
ENDBRANCH  24  26
ENDBRANCH   1  24
TORSDOF 6
ENDMDL
MODEL 9
REMARK minimizedAffinity -6.6429739
REMARK CNNscore 0.370278925
REMARK CNNaffinity 6.50731897
REMARK  6 active torsions:
REMARK  status: ('A' for Active; 'I' for Inactive)
REMARK    1  A    between atoms: C2_2  and  C30_31 
REMARK    2  A    between atoms: C3_3  and  C4_4 
REMARK    3  A    between atoms: C4_4  and  C5_5 
REMARK    4  A    between atoms: C5_5  and  C6_6 
REMARK    5  A    between atoms: C6_6  and  C8_8 
REMARK    6  A    between atoms: C30_31  and  O2_32 
ROOT
HETATM    1  C8  UNL     1      -9.448   7.898  14.337  1.00  0.00    -0.002 C 
HETATM    2  C9  UNL     1     -10.393   6.655  14.227  1.00  0.00     0.007 C 
HETATM    3  C10 UNL     1     -11.845   7.155  14.401  1.00  0.00     0.015 C 
HETATM    4  C11 UNL     1     -11.739   8.678  14.243  1.00  0.00    -0.013 C 
HETATM    5  C12 UNL     1     -11.671   8.956  12.695  1.00  0.00     0.021 C 
HETATM    6  C13 UNL     1     -12.879   9.565  14.764  1.00  0.00    -0.070 C 
HETATM    7  C14 UNL     1     -14.156   9.322  14.399  1.00  0.00    -0.022 C 
HETATM    8  C15 UNL     1     -15.251  10.355  14.438  1.00  0.00     0.034 C 
HETATM    9  C16 UNL     1     -14.640  11.769  14.530  1.00  0.00     0.013 C 
HETATM   10  C17 UNL     1     -15.633  12.962  14.362  1.00  0.00     0.018 C 
HETATM   11  C18 UNL     1     -16.705  13.068  15.453  1.00  0.00     0.023 C 
HETATM   12  C19 UNL     1     -16.342  12.870  12.995  1.00  0.00     0.023 C 
HETATM   13  C20 UNL     1     -14.822  14.273  14.369  1.00  0.00     0.135 C 
HETATM   14  O1  UNL     1     -15.314  15.345  14.011  1.00  0.00    -0.297 OA
HETATM   15  C21 UNL     1     -13.376  14.209  14.821  1.00  0.00     0.080 C 
HETATM   16  C22 UNL     1     -13.266  13.315  16.045  1.00  0.00     0.017 C 
HETATM   17  C23 UNL     1     -13.678  11.846  15.763  1.00  0.00    -0.031 C 
HETATM   18  C24 UNL     1     -14.337  11.323  17.081  1.00  0.00     0.016 C 
HETATM   19  C25 UNL     1     -12.460  10.869  15.483  1.00  0.00     0.024 C 
HETATM   20  C26 UNL     1     -11.214  11.444  14.781  1.00  0.00     0.010 C 
HETATM   21  C27 UNL     1     -10.012  10.453  14.766  1.00  0.00     0.011 C 
HETATM   22  C28 UNL     1     -10.388   8.964  14.995  1.00  0.00    -0.029 C 
HETATM   23  C29 UNL     1     -10.447   8.644  16.527  1.00  0.00     0.016 C 
ENDROOT
BRANCH   1  24
HETATM   24  C6  UNL     1      -8.076   7.544  14.991  1.00  0.00    -0.014 C 
HETATM   25  C7  UNL     1      -7.171   8.772  15.127  1.00  0.00     0.010 C 
BRANCH  24  26
HETATM   26  C5  UNL     1      -7.367   6.441  14.155  1.00  0.00     0.008 C 
BRANCH  26  27
HETATM   27  C4  UNL     1      -7.219   5.067  14.820  1.00  0.00     0.028 C 
BRANCH  27  28
HETATM   28  C3  UNL     1      -7.418   3.917  13.871  1.00  0.00    -0.022 C 
HETATM   29  C2  UNL     1      -6.534   3.429  12.976  1.00  0.00    -0.064 C 
HETATM   30  C1  UNL     1      -5.157   3.991  12.744  1.00  0.00     0.045 C 
BRANCH  29  31
HETATM   31  C30 UNL     1      -6.881   2.239  12.120  1.00  0.00     0.197 C 
BRANCH  31  32
HETATM   32  O2  UNL     1      -8.105   1.687  12.577  1.00  0.00    -0.397 OA
HETATM   33  H48 UNL     1      -8.280   0.905  12.027  1.00  0.00     0.209 HD
ENDBRANCH  31  32
ENDBRANCH  29  31
ENDBRANCH  27  28
ENDBRANCH  26  27
ENDBRANCH  24  26
ENDBRANCH   1  24
TORSDOF 6
ENDMDL
