MODEL 1
REMARK minimizedAffinity -8.90670967
REMARK  12 active torsions:
REMARK  status: ('A' for Active; 'I' for Inactive)
REMARK    1  A    between atoms: C2_2  and  C17_19 
REMARK    2  A    between atoms: C3_3  and  C4_4 
REMARK    3  A    between atoms: C4_4  and  C5_5 
REMARK    4  A    between atoms: C5_5  and  C6_6 
REMARK    5  A    between atoms: C12_12  and  O1_13 
REMARK    6  A    between atoms: C17_19  and  C18_20 
REMARK    7  A    between atoms: C19_21  and  C20_22 
REMARK    8  A    between atoms: C20_22  and  C22_24 
REMARK    9  A    between atoms: C22_24  and  C23_26 
REMARK   10  A    between atoms: C23_26  and  O4_27 
REMARK   11  A    between atoms: C23_26  and  C24_28 
REMARK   12  A    between atoms: C24_28  and  C25_29 
ROOT
HETATM    1  C1  UNL     1      -4.512  47.010 -21.580  1.00  0.00     0.043 C 
HETATM    2  C2  UNL     1      -3.692  47.851 -22.522  1.00  0.00    -0.084 C 
HETATM    3  C3  UNL     1      -2.421  48.231 -22.280  1.00  0.00    -0.024 C 
ENDROOT
BRANCH   3   4
HETATM    4  C4  UNL     1      -1.551  47.823 -21.123  1.00  0.00     0.030 C 
BRANCH   4   5
HETATM    5  C5  UNL     1      -0.899  48.953 -20.316  1.00  0.00     0.042 C 
BRANCH   5   6
HETATM    6  C6  UNL     1      -1.778  50.138 -19.839  1.00  0.00     0.065 C 
HETATM    7  C7  UNL     1      -2.827  49.666 -18.818  1.00  0.00     0.046 C 
HETATM    8  C8  UNL     1      -2.499  50.902 -20.957  1.00  0.00     0.043 C 
HETATM    9  C9  UNL     1      -1.507  51.563 -21.900  1.00  0.00     0.044 C 
HETATM   10  C10 UNL     1      -0.446  52.283 -21.121  1.00  0.00    -0.021 A 
HETATM   11  C11 UNL     1       0.341  53.254 -21.757  1.00  0.00     0.046 A 
HETATM   12  C16 UNL     1      -0.213  51.977 -19.773  1.00  0.00     0.082 A 
HETATM   13  C12 UNL     1       1.326  53.922 -21.038  1.00  0.00     0.066 A 
HETATM   14  C13 UNL     1       1.545  53.635 -19.697  1.00  0.00     0.046 A 
HETATM   15  C14 UNL     1       0.776  52.661 -19.049  1.00  0.00    -0.025 A 
HETATM   16  C15 UNL     1       1.016  52.362 -17.596  1.00  0.00     0.051 C 
HETATM   17  O2  UNL     1      -0.921  51.028 -19.085  1.00  0.00    -0.340 OA
BRANCH  13  18
HETATM   18  O1  UNL     1       2.111  54.875 -21.621  1.00  0.00    -0.361 OA
HETATM   19  H17 UNL     1       1.812  55.005 -22.538  1.00  0.00     0.217 HD
ENDBRANCH  13  18
ENDBRANCH   5   6
ENDBRANCH   4   5
ENDBRANCH   3   4
BRANCH   2  20
HETATM   20  C17 UNL     1      -4.412  48.291 -23.790  1.00  0.00     0.060 C 
BRANCH  20  21
HETATM   21  C18 UNL     1      -3.456  48.425 -24.943  1.00  0.00    -0.026 C 
HETATM   22  C19 UNL     1      -3.129  49.505 -25.675  1.00  0.00    -0.019 C 
BRANCH  22  23
HETATM   23  C20 UNL     1      -3.632  50.929 -25.613  1.00  0.00     0.076 C 
HETATM   24  C21 UNL     1      -4.297  51.330 -24.295  1.00  0.00     0.022 C 
BRANCH  23  25
HETATM   25  C22 UNL     1      -2.504  51.894 -26.009  1.00  0.00     0.162 C 
HETATM   26  O3  UNL     1      -2.694  52.875 -26.740  1.00  0.00    -0.294 OA
BRANCH  25  27
HETATM   27  C23 UNL     1      -1.111  51.678 -25.385  1.00  0.00     0.188 C 
BRANCH  27  28
HETATM   28  O4  UNL     1      -0.556  52.915 -24.942  1.00  0.00    -0.388 OA
HETATM   29  H31 UNL     1      -1.223  53.606 -25.141  1.00  0.00     0.210 HD
ENDBRANCH  27  28
BRANCH  27  30
HETATM   30  C24 UNL     1      -0.095  50.941 -26.270  1.00  0.00     0.043 C 
BRANCH  30  31
HETATM   31  C25 UNL     1       1.110  51.712 -26.859  1.00  0.00    -0.020 C 
HETATM   32  C26 UNL     1       1.088  51.819 -28.387  1.00  0.00     0.009 C 
HETATM   33  C27 UNL     1       2.464  51.193 -26.381  1.00  0.00     0.009 C 
ENDBRANCH  30  31
ENDBRANCH  27  30
ENDBRANCH  25  27
ENDBRANCH  23  25
ENDBRANCH  22  23
ENDBRANCH  20  21
ENDBRANCH   2  20
TORSDOF 12
ENDMDL
MODEL 2
REMARK minimizedAffinity -8.817029
REMARK  12 active torsions:
REMARK  status: ('A' for Active; 'I' for Inactive)
REMARK    1  A    between atoms: C2_2  and  C17_19 
REMARK    2  A    between atoms: C3_3  and  C4_4 
REMARK    3  A    between atoms: C4_4  and  C5_5 
REMARK    4  A    between atoms: C5_5  and  C6_6 
REMARK    5  A    between atoms: C12_12  and  O1_13 
REMARK    6  A    between atoms: C17_19  and  C18_20 
REMARK    7  A    between atoms: C19_21  and  C20_22 
REMARK    8  A    between atoms: C20_22  and  C22_24 
REMARK    9  A    between atoms: C22_24  and  C23_26 
REMARK   10  A    between atoms: C23_26  and  O4_27 
REMARK   11  A    between atoms: C23_26  and  C24_28 
REMARK   12  A    between atoms: C24_28  and  C25_29 
ROOT
HETATM    1  C1  UNL     1      -5.685  49.284 -20.602  1.00  0.00     0.043 C 
HETATM    2  C2  UNL     1      -4.425  49.400 -21.417  1.00  0.00    -0.084 C 
HETATM    3  C3  UNL     1      -3.492  50.357 -21.230  1.00  0.00    -0.024 C 
ENDROOT
BRANCH   3   4
HETATM    4  C4  UNL     1      -3.459  51.399 -20.146  1.00  0.00     0.030 C 
BRANCH   4   5
HETATM    5  C5  UNL     1      -2.579  51.100 -18.926  1.00  0.00     0.042 C 
BRANCH   5   6
HETATM    6  C6  UNL     1      -1.236  50.353 -19.135  1.00  0.00     0.065 C 
HETATM    7  C7  UNL     1      -1.434  48.831 -19.032  1.00  0.00     0.046 C 
HETATM    8  C8  UNL     1      -0.110  50.761 -18.177  1.00  0.00     0.043 C 
HETATM    9  C9  UNL     1       0.272  52.220 -18.367  1.00  0.00     0.044 C 
HETATM   10  C10 UNL     1       0.435  52.532 -19.825  1.00  0.00    -0.021 A 
HETATM   11  C11 UNL     1       1.133  53.685 -20.213  1.00  0.00     0.046 A 
HETATM   12  C16 UNL     1      -0.124  51.698 -20.804  1.00  0.00     0.082 A 
HETATM   13  C12 UNL     1       1.285  53.976 -21.564  1.00  0.00     0.066 A 
HETATM   14  C13 UNL     1       0.749  53.143 -22.536  1.00  0.00     0.046 A 
HETATM   15  C14 UNL     1       0.040  51.993 -22.167  1.00  0.00    -0.025 A 
HETATM   16  C15 UNL     1      -0.531  51.093 -23.226  1.00  0.00     0.051 C 
HETATM   17  O2  UNL     1      -0.838  50.568 -20.510  1.00  0.00    -0.340 OA
BRANCH  13  18
HETATM   18  O1  UNL     1       1.959  55.088 -21.981  1.00  0.00    -0.361 OA
HETATM   19  H17 UNL     1       2.319  55.545 -21.200  1.00  0.00     0.217 HD
ENDBRANCH  13  18
ENDBRANCH   5   6
ENDBRANCH   4   5
ENDBRANCH   3   4
BRANCH   2  20
HETATM   20  C17 UNL     1      -4.270  48.363 -22.521  1.00  0.00     0.060 C 
BRANCH  20  21
HETATM   21  C18 UNL     1      -5.111  48.711 -23.719  1.00  0.00    -0.026 C 
HETATM   22  C19 UNL     1      -4.741  49.105 -24.951  1.00  0.00    -0.019 C 
BRANCH  22  23
HETATM   23  C20 UNL     1      -3.372  49.365 -25.535  1.00  0.00     0.076 C 
HETATM   24  C21 UNL     1      -2.938  48.398 -26.640  1.00  0.00     0.022 C 
BRANCH  23  25
HETATM   25  C22 UNL     1      -3.267  50.832 -25.978  1.00  0.00     0.162 C 
HETATM   26  O3  UNL     1      -3.955  51.730 -25.473  1.00  0.00    -0.294 OA
BRANCH  25  27
HETATM   27  C23 UNL     1      -2.191  51.203 -27.018  1.00  0.00     0.188 C 
BRANCH  27  28
HETATM   28  O4  UNL     1      -2.547  50.718 -28.311  1.00  0.00    -0.388 OA
HETATM   29  H31 UNL     1      -3.414  50.272 -28.212  1.00  0.00     0.210 HD
ENDBRANCH  27  28
BRANCH  27  30
HETATM   30  C24 UNL     1      -0.759  50.763 -26.675  1.00  0.00     0.043 C 
BRANCH  30  31
HETATM   31  C25 UNL     1       0.407  51.768 -26.829  1.00  0.00    -0.020 C 
HETATM   32  C26 UNL     1       0.564  52.319 -28.249  1.00  0.00     0.009 C 
HETATM   33  C27 UNL     1       1.744  51.239 -26.313  1.00  0.00     0.009 C 
ENDBRANCH  30  31
ENDBRANCH  27  30
ENDBRANCH  25  27
ENDBRANCH  23  25
ENDBRANCH  22  23
ENDBRANCH  20  21
ENDBRANCH   2  20
TORSDOF 12
ENDMDL
MODEL 3
REMARK minimizedAffinity -8.75087166
REMARK  12 active torsions:
REMARK  status: ('A' for Active; 'I' for Inactive)
REMARK    1  A    between atoms: C2_2  and  C17_19 
REMARK    2  A    between atoms: C3_3  and  C4_4 
REMARK    3  A    between atoms: C4_4  and  C5_5 
REMARK    4  A    between atoms: C5_5  and  C6_6 
REMARK    5  A    between atoms: C12_12  and  O1_13 
REMARK    6  A    between atoms: C17_19  and  C18_20 
REMARK    7  A    between atoms: C19_21  and  C20_22 
REMARK    8  A    between atoms: C20_22  and  C22_24 
REMARK    9  A    between atoms: C22_24  and  C23_26 
REMARK   10  A    between atoms: C23_26  and  O4_27 
REMARK   11  A    between atoms: C23_26  and  C24_28 
REMARK   12  A    between atoms: C24_28  and  C25_29 
ROOT
HETATM    1  C1  UNL     1      -4.496  48.621 -23.091  1.00  0.00     0.043 C 
HETATM    2  C2  UNL     1      -4.296  49.260 -24.440  1.00  0.00    -0.084 C 
HETATM    3  C3  UNL     1      -4.079  50.579 -24.623  1.00  0.00    -0.024 C 
ENDROOT
BRANCH   3   4
HETATM    4  C4  UNL     1      -3.888  51.628 -23.563  1.00  0.00     0.030 C 
BRANCH   4   5
HETATM    5  C5  UNL     1      -2.551  52.379 -23.565  1.00  0.00     0.042 C 
BRANCH   5   6
HETATM    6  C6  UNL     1      -1.233  51.563 -23.617  1.00  0.00     0.065 C 
HETATM    7  C7  UNL     1      -0.858  51.220 -25.068  1.00  0.00     0.046 C 
HETATM    8  C8  UNL     1      -1.241  50.266 -22.798  1.00  0.00     0.043 C 
HETATM    9  C9  UNL     1      -1.413  50.551 -21.316  1.00  0.00     0.044 C 
HETATM   10  C10 UNL     1      -0.492  51.655 -20.885  1.00  0.00    -0.021 A 
HETATM   11  C11 UNL     1      -0.211  51.831 -19.523  1.00  0.00     0.046 A 
HETATM   12  C16 UNL     1       0.070  52.529 -21.827  1.00  0.00     0.082 A 
HETATM   13  C12 UNL     1       0.641  52.853 -19.121  1.00  0.00     0.066 A 
HETATM   14  C13 UNL     1       1.214  53.708 -20.053  1.00  0.00     0.046 A 
HETATM   15  C14 UNL     1       0.936  53.554 -21.417  1.00  0.00    -0.025 A 
HETATM   16  C15 UNL     1       1.567  54.480 -22.419  1.00  0.00     0.051 C 
HETATM   17  O2  UNL     1      -0.171  52.440 -23.172  1.00  0.00    -0.340 OA
BRANCH  13  18
HETATM   18  O1  UNL     1       0.940  53.055 -17.805  1.00  0.00    -0.361 OA
HETATM   19  H17 UNL     1       0.513  52.357 -17.278  1.00  0.00     0.217 HD
ENDBRANCH  13  18
ENDBRANCH   5   6
ENDBRANCH   4   5
ENDBRANCH   3   4
BRANCH   2  20
HETATM   20  C17 UNL     1      -4.388  48.310 -25.626  1.00  0.00     0.060 C 
BRANCH  20  21
HETATM   21  C18 UNL     1      -3.848  48.945 -26.878  1.00  0.00    -0.026 C 
HETATM   22  C19 UNL     1      -4.211  48.771 -28.162  1.00  0.00    -0.019 C 
BRANCH  22  23
HETATM   23  C20 UNL     1      -5.248  47.864 -28.781  1.00  0.00     0.076 C 
HETATM   24  C21 UNL     1      -6.645  47.949 -28.161  1.00  0.00     0.022 C 
BRANCH  23  25
HETATM   25  C22 UNL     1      -5.278  48.073 -30.303  1.00  0.00     0.162 C 
HETATM   26  O3  UNL     1      -4.925  49.133 -30.835  1.00  0.00    -0.294 OA
BRANCH  25  27
HETATM   27  C23 UNL     1      -5.667  46.876 -31.193  1.00  0.00     0.188 C 
BRANCH  27  28
HETATM   28  O4  UNL     1      -6.139  45.787 -30.403  1.00  0.00    -0.388 OA
HETATM   29  H31 UNL     1      -6.107  46.087 -29.470  1.00  0.00     0.210 HD
ENDBRANCH  27  28
BRANCH  27  30
HETATM   30  C24 UNL     1      -4.576  46.384 -32.156  1.00  0.00     0.043 C 
BRANCH  30  31
HETATM   31  C25 UNL     1      -4.478  46.990 -33.576  1.00  0.00    -0.020 C 
HETATM   32  C26 UNL     1      -3.240  47.867 -33.789  1.00  0.00     0.009 C 
HETATM   33  C27 UNL     1      -5.738  47.732 -34.014  1.00  0.00     0.009 C 
ENDBRANCH  30  31
ENDBRANCH  27  30
ENDBRANCH  25  27
ENDBRANCH  23  25
ENDBRANCH  22  23
ENDBRANCH  20  21
ENDBRANCH   2  20
TORSDOF 12
ENDMDL
MODEL 4
REMARK minimizedAffinity -8.68340588
REMARK  12 active torsions:
REMARK  status: ('A' for Active; 'I' for Inactive)
REMARK    1  A    between atoms: C2_2  and  C17_19 
REMARK    2  A    between atoms: C3_3  and  C4_4 
REMARK    3  A    between atoms: C4_4  and  C5_5 
REMARK    4  A    between atoms: C5_5  and  C6_6 
REMARK    5  A    between atoms: C12_12  and  O1_13 
REMARK    6  A    between atoms: C17_19  and  C18_20 
REMARK    7  A    between atoms: C19_21  and  C20_22 
REMARK    8  A    between atoms: C20_22  and  C22_24 
REMARK    9  A    between atoms: C22_24  and  C23_26 
REMARK   10  A    between atoms: C23_26  and  O4_27 
REMARK   11  A    between atoms: C23_26  and  C24_28 
REMARK   12  A    between atoms: C24_28  and  C25_29 
ROOT
HETATM    1  C1  UNL     1      -2.201  49.620 -26.180  1.00  0.00     0.043 C 
HETATM    2  C2  UNL     1      -3.268  48.859 -25.439  1.00  0.00    -0.084 C 
HETATM    3  C3  UNL     1      -3.289  48.703 -24.099  1.00  0.00    -0.024 C 
ENDROOT
BRANCH   3   4
HETATM    4  C4  UNL     1      -2.356  49.321 -23.094  1.00  0.00     0.030 C 
BRANCH   4   5
HETATM    5  C5  UNL     1      -2.942  49.648 -21.715  1.00  0.00     0.042 C 
BRANCH   5   6
HETATM    6  C6  UNL     1      -3.012  51.129 -21.263  1.00  0.00     0.065 C 
HETATM    7  C7  UNL     1      -3.397  51.230 -19.776  1.00  0.00     0.046 C 
HETATM    8  C8  UNL     1      -3.972  52.010 -22.073  1.00  0.00     0.043 C 
HETATM    9  C9  UNL     1      -3.533  52.112 -23.524  1.00  0.00     0.044 C 
HETATM   10  C10 UNL     1      -2.064  52.404 -23.606  1.00  0.00    -0.021 A 
HETATM   11  C11 UNL     1      -1.522  52.900 -24.800  1.00  0.00     0.046 A 
HETATM   12  C16 UNL     1      -1.221  52.160 -22.512  1.00  0.00     0.082 A 
HETATM   13  C12 UNL     1      -0.161  53.170 -24.880  1.00  0.00     0.066 A 
HETATM   14  C13 UNL     1       0.673  52.949 -23.792  1.00  0.00     0.046 A 
HETATM   15  C14 UNL     1       0.151  52.443 -22.595  1.00  0.00    -0.025 A 
HETATM   16  C15 UNL     1       1.060  52.212 -21.420  1.00  0.00     0.051 C 
HETATM   17  O2  UNL     1      -1.666  51.657 -21.319  1.00  0.00    -0.340 OA
BRANCH  13  18
HETATM   18  O1  UNL     1       0.404  53.656 -26.024  1.00  0.00    -0.361 OA
HETATM   19  H17 UNL     1      -0.301  53.808 -26.678  1.00  0.00     0.217 HD
ENDBRANCH  13  18
ENDBRANCH   5   6
ENDBRANCH   4   5
ENDBRANCH   3   4
BRANCH   2  20
HETATM   20  C17 UNL     1      -4.339  48.226 -26.317  1.00  0.00     0.060 C 
BRANCH  20  21
HETATM   21  C18 UNL     1      -4.149  48.592 -27.762  1.00  0.00    -0.026 C 
HETATM   22  C19 UNL     1      -4.898  48.288 -28.838  1.00  0.00    -0.019 C 
BRANCH  22  23
HETATM   23  C20 UNL     1      -6.153  47.456 -28.965  1.00  0.00     0.076 C 
HETATM   24  C21 UNL     1      -6.846  47.115 -27.644  1.00  0.00     0.022 C 
BRANCH  23  25
HETATM   25  C22 UNL     1      -7.112  48.115 -29.968  1.00  0.00     0.162 C 
HETATM   26  O3  UNL     1      -8.064  48.822 -29.612  1.00  0.00    -0.294 OA
BRANCH  25  27
HETATM   27  C23 UNL     1      -6.807  47.963 -31.472  1.00  0.00     0.188 C 
BRANCH  27  28
HETATM   28  O4  UNL     1      -7.350  46.746 -31.980  1.00  0.00    -0.388 OA
HETATM   29  H31 UNL     1      -7.803  46.309 -31.228  1.00  0.00     0.210 HD
ENDBRANCH  27  28
BRANCH  27  30
HETATM   30  C24 UNL     1      -5.325  48.073 -31.861  1.00  0.00     0.043 C 
BRANCH  30  31
HETATM   31  C25 UNL     1      -4.708  47.032 -32.826  1.00  0.00    -0.020 C 
HETATM   32  C26 UNL     1      -4.150  45.792 -32.121  1.00  0.00     0.009 C 
HETATM   33  C27 UNL     1      -3.667  47.619 -33.776  1.00  0.00     0.009 C 
ENDBRANCH  30  31
ENDBRANCH  27  30
ENDBRANCH  25  27
ENDBRANCH  23  25
ENDBRANCH  22  23
ENDBRANCH  20  21
ENDBRANCH   2  20
TORSDOF 12
ENDMDL
MODEL 5
REMARK minimizedAffinity -8.60444736
REMARK  12 active torsions:
REMARK  status: ('A' for Active; 'I' for Inactive)
REMARK    1  A    between atoms: C2_2  and  C17_19 
REMARK    2  A    between atoms: C3_3  and  C4_4 
REMARK    3  A    between atoms: C4_4  and  C5_5 
REMARK    4  A    between atoms: C5_5  and  C6_6 
REMARK    5  A    between atoms: C12_12  and  O1_13 
REMARK    6  A    between atoms: C17_19  and  C18_20 
REMARK    7  A    between atoms: C19_21  and  C20_22 
REMARK    8  A    between atoms: C20_22  and  C22_24 
REMARK    9  A    between atoms: C22_24  and  C23_26 
REMARK   10  A    between atoms: C23_26  and  O4_27 
REMARK   11  A    between atoms: C23_26  and  C24_28 
REMARK   12  A    between atoms: C24_28  and  C25_29 
ROOT
HETATM    1  C1  UNL     1      -1.828  49.693 -26.041  1.00  0.00     0.043 C 
HETATM    2  C2  UNL     1      -3.044  48.850 -25.763  1.00  0.00    -0.084 C 
HETATM    3  C3  UNL     1      -3.426  48.464 -24.528  1.00  0.00    -0.024 C 
ENDROOT
BRANCH   3   4
HETATM    4  C4  UNL     1      -2.811  48.866 -23.216  1.00  0.00     0.030 C 
BRANCH   4   5
HETATM    5  C5  UNL     1      -3.775  49.126 -22.051  1.00  0.00     0.042 C 
BRANCH   5   6
HETATM    6  C6  UNL     1      -3.704  50.486 -21.309  1.00  0.00     0.065 C 
HETATM    7  C7  UNL     1      -3.983  50.305 -19.807  1.00  0.00     0.046 C 
HETATM    8  C8  UNL     1      -4.644  51.570 -21.850  1.00  0.00     0.043 C 
HETATM    9  C9  UNL     1      -4.292  51.939 -23.281  1.00  0.00     0.044 C 
HETATM   10  C10 UNL     1      -2.813  52.151 -23.418  1.00  0.00    -0.021 A 
HETATM   11  C11 UNL     1      -2.312  52.846 -24.528  1.00  0.00     0.046 A 
HETATM   12  C16 UNL     1      -1.923  51.638 -22.463  1.00  0.00     0.082 A 
HETATM   13  C12 UNL     1      -0.942  53.043 -24.658  1.00  0.00     0.066 A 
HETATM   14  C13 UNL     1      -0.060  52.554 -23.704  1.00  0.00     0.046 A 
HETATM   15  C14 UNL     1      -0.541  51.847 -22.595  1.00  0.00    -0.025 A 
HETATM   16  C15 UNL     1       0.420  51.327 -21.564  1.00  0.00     0.051 C 
HETATM   17  O2  UNL     1      -2.327  50.930 -21.364  1.00  0.00    -0.340 OA
BRANCH  13  18
HETATM   18  O1  UNL     1      -0.417  53.716 -25.723  1.00  0.00    -0.361 OA
HETATM   19  H17 UNL     1      -1.148  54.042 -26.277  1.00  0.00     0.217 HD
ENDBRANCH  13  18
ENDBRANCH   5   6
ENDBRANCH   4   5
ENDBRANCH   3   4
BRANCH   2  20
HETATM   20  C17 UNL     1      -3.826  48.415 -26.995  1.00  0.00     0.060 C 
BRANCH  20  21
HETATM   21  C18 UNL     1      -5.292  48.275 -26.690  1.00  0.00    -0.026 C 
HETATM   22  C19 UNL     1      -6.266  47.660 -27.387  1.00  0.00    -0.019 C 
BRANCH  22  23
HETATM   23  C20 UNL     1      -6.227  46.940 -28.714  1.00  0.00     0.076 C 
HETATM   24  C21 UNL     1      -7.174  45.744 -28.837  1.00  0.00     0.022 C 
BRANCH  23  25
HETATM   25  C22 UNL     1      -6.418  47.948 -29.857  1.00  0.00     0.162 C 
HETATM   26  O3  UNL     1      -7.474  48.572 -30.024  1.00  0.00    -0.294 OA
BRANCH  25  27
HETATM   27  C23 UNL     1      -5.208  48.260 -30.761  1.00  0.00     0.188 C 
BRANCH  27  28
HETATM   28  O4  UNL     1      -4.696  49.563 -30.491  1.00  0.00    -0.388 OA
HETATM   29  H31 UNL     1      -5.248  49.936 -29.772  1.00  0.00     0.210 HD
ENDBRANCH  27  28
BRANCH  27  30
HETATM   30  C24 UNL     1      -5.450  48.099 -32.269  1.00  0.00     0.043 C 
BRANCH  30  31
HETATM   31  C25 UNL     1      -4.626  47.063 -33.070  1.00  0.00    -0.020 C 
HETATM   32  C26 UNL     1      -4.210  45.838 -32.251  1.00  0.00     0.009 C 
HETATM   33  C27 UNL     1      -3.416  47.662 -33.784  1.00  0.00     0.009 C 
ENDBRANCH  30  31
ENDBRANCH  27  30
ENDBRANCH  25  27
ENDBRANCH  23  25
ENDBRANCH  22  23
ENDBRANCH  20  21
ENDBRANCH   2  20
TORSDOF 12
ENDMDL
MODEL 6
REMARK minimizedAffinity -8.5928793
REMARK  12 active torsions:
REMARK  status: ('A' for Active; 'I' for Inactive)
REMARK    1  A    between atoms: C2_2  and  C17_19 
REMARK    2  A    between atoms: C3_3  and  C4_4 
REMARK    3  A    between atoms: C4_4  and  C5_5 
REMARK    4  A    between atoms: C5_5  and  C6_6 
REMARK    5  A    between atoms: C12_12  and  O1_13 
REMARK    6  A    between atoms: C17_19  and  C18_20 
REMARK    7  A    between atoms: C19_21  and  C20_22 
REMARK    8  A    between atoms: C20_22  and  C22_24 
REMARK    9  A    between atoms: C22_24  and  C23_26 
REMARK   10  A    between atoms: C23_26  and  O4_27 
REMARK   11  A    between atoms: C23_26  and  C24_28 
REMARK   12  A    between atoms: C24_28  and  C25_29 
ROOT
HETATM    1  C1  UNL     1      -6.635  47.606 -26.515  1.00  0.00     0.043 C 
HETATM    2  C2  UNL     1      -5.379  47.928 -27.280  1.00  0.00    -0.084 C 
HETATM    3  C3  UNL     1      -4.242  48.375 -26.707  1.00  0.00    -0.024 C 
ENDROOT
BRANCH   3   4
HETATM    4  C4  UNL     1      -3.963  48.534 -25.238  1.00  0.00     0.030 C 
BRANCH   4   5
HETATM    5  C5  UNL     1      -2.805  49.463 -24.851  1.00  0.00     0.042 C 
BRANCH   5   6
HETATM    6  C6  UNL     1      -2.918  50.976 -25.171  1.00  0.00     0.065 C 
HETATM    7  C7  UNL     1      -4.110  51.605 -24.429  1.00  0.00     0.046 C 
HETATM    8  C8  UNL     1      -3.040  51.317 -26.662  1.00  0.00     0.043 C 
HETATM    9  C9  UNL     1      -1.797  50.893 -27.426  1.00  0.00     0.044 C 
HETATM   10  C10 UNL     1      -0.561  51.332 -26.699  1.00  0.00    -0.021 A 
HETATM   11  C11 UNL     1       0.663  51.383 -27.381  1.00  0.00     0.046 A 
HETATM   12  C16 UNL     1      -0.610  51.666 -25.338  1.00  0.00     0.082 A 
HETATM   13  C12 UNL     1       1.810  51.789 -26.709  1.00  0.00     0.066 A 
HETATM   14  C13 UNL     1       1.762  52.139 -25.366  1.00  0.00     0.046 A 
HETATM   15  C14 UNL     1       0.550  52.083 -24.666  1.00  0.00    -0.025 A 
HETATM   16  C15 UNL     1       0.505  52.471 -23.215  1.00  0.00     0.051 C 
HETATM   17  O2  UNL     1      -1.758  51.622 -24.594  1.00  0.00    -0.340 OA
BRANCH  13  18
HETATM   18  O1  UNL     1       3.020  51.853 -27.339  1.00  0.00    -0.361 OA
HETATM   19  H17 UNL     1       2.894  51.632 -28.278  1.00  0.00     0.217 HD
ENDBRANCH  13  18
ENDBRANCH   5   6
ENDBRANCH   4   5
ENDBRANCH   3   4
BRANCH   2  20
HETATM   20  C17 UNL     1      -5.475  47.747 -28.789  1.00  0.00     0.060 C 
BRANCH  20  21
HETATM   21  C18 UNL     1      -6.512  46.720 -29.152  1.00  0.00    -0.026 C 
HETATM   22  C19 UNL     1      -6.624  45.955 -30.253  1.00  0.00    -0.019 C 
BRANCH  22  23
HETATM   23  C20 UNL     1      -5.776  45.891 -31.501  1.00  0.00     0.076 C 
HETATM   24  C21 UNL     1      -5.934  44.616 -32.333  1.00  0.00     0.022 C 
BRANCH  23  25
HETATM   25  C22 UNL     1      -5.993  47.159 -32.340  1.00  0.00     0.162 C 
HETATM   26  O3  UNL     1      -5.238  48.138 -32.274  1.00  0.00    -0.294 OA
BRANCH  25  27
HETATM   27  C23 UNL     1      -7.139  47.161 -33.373  1.00  0.00     0.188 C 
BRANCH  27  28
HETATM   28  O4  UNL     1      -6.704  47.713 -34.613  1.00  0.00    -0.388 OA
HETATM   29  H31 UNL     1      -5.759  47.947 -34.497  1.00  0.00     0.210 HD
ENDBRANCH  27  28
BRANCH  27  30
HETATM   30  C24 UNL     1      -8.435  47.852 -32.922  1.00  0.00     0.043 C 
BRANCH  30  31
HETATM   31  C25 UNL     1      -9.355  47.156 -31.892  1.00  0.00    -0.020 C 
HETATM   32  C26 UNL     1     -10.584  46.486 -32.514  1.00  0.00     0.009 C 
HETATM   33  C27 UNL     1      -9.771  48.058 -30.733  1.00  0.00     0.009 C 
ENDBRANCH  30  31
ENDBRANCH  27  30
ENDBRANCH  25  27
ENDBRANCH  23  25
ENDBRANCH  22  23
ENDBRANCH  20  21
ENDBRANCH   2  20
TORSDOF 12
ENDMDL
MODEL 7
REMARK minimizedAffinity -8.53575706
REMARK  12 active torsions:
REMARK  status: ('A' for Active; 'I' for Inactive)
REMARK    1  A    between atoms: C2_2  and  C17_19 
REMARK    2  A    between atoms: C3_3  and  C4_4 
REMARK    3  A    between atoms: C4_4  and  C5_5 
REMARK    4  A    between atoms: C5_5  and  C6_6 
REMARK    5  A    between atoms: C12_12  and  O1_13 
REMARK    6  A    between atoms: C17_19  and  C18_20 
REMARK    7  A    between atoms: C19_21  and  C20_22 
REMARK    8  A    between atoms: C20_22  and  C22_24 
REMARK    9  A    between atoms: C22_24  and  C23_26 
REMARK   10  A    between atoms: C23_26  and  O4_27 
REMARK   11  A    between atoms: C23_26  and  C24_28 
REMARK   12  A    between atoms: C24_28  and  C25_29 
ROOT
HETATM    1  C1  UNL     1      -3.501  49.087 -27.413  1.00  0.00     0.043 C 
HETATM    2  C2  UNL     1      -4.579  48.432 -26.592  1.00  0.00    -0.084 C 
HETATM    3  C3  UNL     1      -5.651  47.804 -27.119  1.00  0.00    -0.024 C 
ENDROOT
BRANCH   3   4
HETATM    4  C4  UNL     1      -5.929  47.539 -28.572  1.00  0.00     0.030 C 
BRANCH   4   5
HETATM    5  C5  UNL     1      -7.229  46.796 -28.904  1.00  0.00     0.042 C 
BRANCH   5   6
HETATM    6  C6  UNL     1      -7.776  46.851 -30.354  1.00  0.00     0.065 C 
HETATM    7  C7  UNL     1      -8.335  48.247 -30.676  1.00  0.00     0.046 C 
HETATM    8  C8  UNL     1      -8.853  45.809 -30.681  1.00  0.00     0.043 C 
HETATM    9  C9  UNL     1      -8.304  44.396 -30.571  1.00  0.00     0.044 C 
HETATM   10  C10 UNL     1      -6.982  44.293 -31.274  1.00  0.00    -0.021 A 
HETATM   11  C11 UNL     1      -6.478  43.031 -31.620  1.00  0.00     0.046 A 
HETATM   12  C16 UNL     1      -6.233  45.442 -31.565  1.00  0.00     0.082 A 
HETATM   13  C12 UNL     1      -5.254  42.932 -32.270  1.00  0.00     0.066 A 
HETATM   14  C13 UNL     1      -4.518  44.069 -32.577  1.00  0.00     0.046 A 
HETATM   15  C14 UNL     1      -5.001  45.337 -32.230  1.00  0.00    -0.025 A 
HETATM   16  C15 UNL     1      -4.201  46.562 -32.572  1.00  0.00     0.051 C 
HETATM   17  O2  UNL     1      -6.642  46.708 -31.243  1.00  0.00    -0.340 OA
BRANCH  13  18
HETATM   18  O1  UNL     1      -4.731  41.722 -32.624  1.00  0.00    -0.361 OA
HETATM   19  H17 UNL     1      -5.372  41.027 -32.395  1.00  0.00     0.217 HD
ENDBRANCH  13  18
ENDBRANCH   5   6
ENDBRANCH   4   5
ENDBRANCH   3   4
BRANCH   2  20
HETATM   20  C17 UNL     1      -4.405  48.549 -25.084  1.00  0.00     0.060 C 
BRANCH  20  21
HETATM   21  C18 UNL     1      -2.986  48.888 -24.722  1.00  0.00    -0.026 C 
HETATM   22  C19 UNL     1      -2.414  50.084 -24.484  1.00  0.00    -0.019 C 
BRANCH  22  23
HETATM   23  C20 UNL     1      -2.989  51.480 -24.533  1.00  0.00     0.076 C 
HETATM   24  C21 UNL     1      -3.192  52.151 -23.173  1.00  0.00     0.022 C 
BRANCH  23  25
HETATM   25  C22 UNL     1      -2.158  52.349 -25.489  1.00  0.00     0.162 C 
HETATM   26  O3  UNL     1      -2.633  52.847 -26.518  1.00  0.00    -0.294 OA
BRANCH  25  27
HETATM   27  C23 UNL     1      -0.708  52.687 -25.088  1.00  0.00     0.188 C 
BRANCH  27  28
HETATM   28  O4  UNL     1      -0.381  54.027 -25.451  1.00  0.00    -0.388 OA
HETATM   29  H31 UNL     1      -1.185  54.408 -25.862  1.00  0.00     0.210 HD
ENDBRANCH  27  28
BRANCH  27  30
HETATM   30  C24 UNL     1       0.367  51.728 -25.620  1.00  0.00     0.043 C 
BRANCH  30  31
HETATM   31  C25 UNL     1       1.179  52.111 -26.881  1.00  0.00    -0.020 C 
HETATM   32  C26 UNL     1       0.482  51.752 -28.197  1.00  0.00     0.009 C 
HETATM   33  C27 UNL     1       2.610  51.578 -26.874  1.00  0.00     0.009 C 
ENDBRANCH  30  31
ENDBRANCH  27  30
ENDBRANCH  25  27
ENDBRANCH  23  25
ENDBRANCH  22  23
ENDBRANCH  20  21
ENDBRANCH   2  20
TORSDOF 12
ENDMDL
MODEL 8
REMARK minimizedAffinity -8.48460865
REMARK  12 active torsions:
REMARK  status: ('A' for Active; 'I' for Inactive)
REMARK    1  A    between atoms: C2_2  and  C17_19 
REMARK    2  A    between atoms: C3_3  and  C4_4 
REMARK    3  A    between atoms: C4_4  and  C5_5 
REMARK    4  A    between atoms: C5_5  and  C6_6 
REMARK    5  A    between atoms: C12_12  and  O1_13 
REMARK    6  A    between atoms: C17_19  and  C18_20 
REMARK    7  A    between atoms: C19_21  and  C20_22 
REMARK    8  A    between atoms: C20_22  and  C22_24 
REMARK    9  A    between atoms: C22_24  and  C23_26 
REMARK   10  A    between atoms: C23_26  and  O4_27 
REMARK   11  A    between atoms: C23_26  and  C24_28 
REMARK   12  A    between atoms: C24_28  and  C25_29 
ROOT
HETATM    1  C1  UNL     1      -1.896  49.859 -26.486  1.00  0.00     0.043 C 
HETATM    2  C2  UNL     1      -2.988  48.934 -26.020  1.00  0.00    -0.084 C 
HETATM    3  C3  UNL     1      -3.238  48.657 -24.723  1.00  0.00    -0.024 C 
ENDROOT
BRANCH   3   4
HETATM    4  C4  UNL     1      -2.582  49.269 -23.517  1.00  0.00     0.030 C 
BRANCH   4   5
HETATM    5  C5  UNL     1      -3.476  49.522 -22.296  1.00  0.00     0.042 C 
BRANCH   5   6
HETATM    6  C6  UNL     1      -3.520  50.944 -21.681  1.00  0.00     0.065 C 
HETATM    7  C7  UNL     1      -4.079  50.904 -20.248  1.00  0.00     0.046 C 
HETATM    8  C8  UNL     1      -4.322  51.975 -22.486  1.00  0.00     0.043 C 
HETATM    9  C9  UNL     1      -3.702  52.209 -23.853  1.00  0.00     0.044 C 
HETATM   10  C10 UNL     1      -2.219  52.405 -23.728  1.00  0.00    -0.021 A 
HETATM   11  C11 UNL     1      -1.507  52.994 -24.783  1.00  0.00     0.046 A 
HETATM   12  C16 UNL     1      -1.533  51.983 -22.580  1.00  0.00     0.082 A 
HETATM   13  C12 UNL     1      -0.134  53.177 -24.670  1.00  0.00     0.066 A 
HETATM   14  C13 UNL     1       0.545  52.777 -23.527  1.00  0.00     0.046 A 
HETATM   15  C14 UNL     1      -0.148  52.178 -22.468  1.00  0.00    -0.025 A 
HETATM   16  C15 UNL     1       0.594  51.755 -21.232  1.00  0.00     0.051 C 
HETATM   17  O2  UNL     1      -2.149  51.381 -21.516  1.00  0.00    -0.340 OA
BRANCH  13  18
HETATM   18  O1  UNL     1       0.593  53.747 -25.675  1.00  0.00    -0.361 OA
HETATM   19  H17 UNL     1      -0.015  54.021 -26.383  1.00  0.00     0.217 HD
ENDBRANCH  13  18
ENDBRANCH   5   6
ENDBRANCH   4   5
ENDBRANCH   3   4
BRANCH   2  20
HETATM   20  C17 UNL     1      -3.802  48.282 -27.129  1.00  0.00     0.060 C 
BRANCH  20  21
HETATM   21  C18 UNL     1      -5.250  48.158 -26.745  1.00  0.00    -0.026 C 
HETATM   22  C19 UNL     1      -6.284  47.627 -27.425  1.00  0.00    -0.019 C 
BRANCH  22  23
HETATM   23  C20 UNL     1      -6.348  47.014 -28.804  1.00  0.00     0.076 C 
HETATM   24  C21 UNL     1      -7.278  45.806 -28.939  1.00  0.00     0.022 C 
BRANCH  23  25
HETATM   25  C22 UNL     1      -6.660  48.103 -29.841  1.00  0.00     0.162 C 
HETATM   26  O3  UNL     1      -5.835  48.470 -30.689  1.00  0.00    -0.294 OA
BRANCH  25  27
HETATM   27  C23 UNL     1      -8.089  48.681 -29.882  1.00  0.00     0.188 C 
BRANCH  27  28
HETATM   28  O4  UNL     1      -8.495  49.121 -28.588  1.00  0.00    -0.388 OA
HETATM   29  H31 UNL     1      -7.739  48.952 -27.987  1.00  0.00     0.210 HD
ENDBRANCH  27  28
BRANCH  27  30
HETATM   30  C24 UNL     1      -9.161  47.754 -30.475  1.00  0.00     0.043 C 
BRANCH  30  31
HETATM   31  C25 UNL     1      -8.910  47.070 -31.841  1.00  0.00    -0.020 C 
HETATM   32  C26 UNL     1      -8.384  48.021 -32.920  1.00  0.00     0.009 C 
HETATM   33  C27 UNL     1     -10.111  46.285 -32.362  1.00  0.00     0.009 C 
ENDBRANCH  30  31
ENDBRANCH  27  30
ENDBRANCH  25  27
ENDBRANCH  23  25
ENDBRANCH  22  23
ENDBRANCH  20  21
ENDBRANCH   2  20
TORSDOF 12
ENDMDL
MODEL 9
REMARK minimizedAffinity -8.41292953
REMARK  12 active torsions:
REMARK  status: ('A' for Active; 'I' for Inactive)
REMARK    1  A    between atoms: C2_2  and  C17_19 
REMARK    2  A    between atoms: C3_3  and  C4_4 
REMARK    3  A    between atoms: C4_4  and  C5_5 
REMARK    4  A    between atoms: C5_5  and  C6_6 
REMARK    5  A    between atoms: C12_12  and  O1_13 
REMARK    6  A    between atoms: C17_19  and  C18_20 
REMARK    7  A    between atoms: C19_21  and  C20_22 
REMARK    8  A    between atoms: C20_22  and  C22_24 
REMARK    9  A    between atoms: C22_24  and  C23_26 
REMARK   10  A    between atoms: C23_26  and  O4_27 
REMARK   11  A    between atoms: C23_26  and  C24_28 
REMARK   12  A    between atoms: C24_28  and  C25_29 
ROOT
HETATM    1  C1  UNL     1      -5.515  48.265 -24.982  1.00  0.00     0.043 C 
HETATM    2  C2  UNL     1      -5.220  48.099 -26.449  1.00  0.00    -0.084 C 
HETATM    3  C3  UNL     1      -4.014  48.332 -27.006  1.00  0.00    -0.024 C 
ENDROOT
BRANCH   3   4
HETATM    4  C4  UNL     1      -2.735  48.684 -26.298  1.00  0.00     0.030 C 
BRANCH   4   5
HETATM    5  C5  UNL     1      -2.842  49.662 -25.121  1.00  0.00     0.042 C 
BRANCH   5   6
HETATM    6  C6  UNL     1      -2.881  51.185 -25.413  1.00  0.00     0.065 C 
HETATM    7  C7  UNL     1      -4.078  51.847 -24.709  1.00  0.00     0.046 C 
HETATM    8  C8  UNL     1      -2.924  51.560 -26.899  1.00  0.00     0.043 C 
HETATM    9  C9  UNL     1      -1.666  51.101 -27.619  1.00  0.00     0.044 C 
HETATM   10  C10 UNL     1      -0.446  51.475 -26.829  1.00  0.00    -0.021 A 
HETATM   11  C11 UNL     1       0.808  51.489 -27.457  1.00  0.00     0.046 A 
HETATM   12  C16 UNL     1      -0.541  51.783 -25.465  1.00  0.00     0.082 A 
HETATM   13  C12 UNL     1       1.940  51.834 -26.728  1.00  0.00     0.066 A 
HETATM   14  C13 UNL     1       1.846  52.159 -25.381  1.00  0.00     0.046 A 
HETATM   15  C14 UNL     1       0.604  52.139 -24.735  1.00  0.00    -0.025 A 
HETATM   16  C15 UNL     1       0.511  52.499 -23.279  1.00  0.00     0.051 C 
HETATM   17  O2  UNL     1      -1.722  51.771 -24.773  1.00  0.00    -0.340 OA
BRANCH  13  18
HETATM   18  O1  UNL     1       3.177  51.861 -27.304  1.00  0.00    -0.361 OA
HETATM   19  H17 UNL     1       3.083  51.664 -28.252  1.00  0.00     0.217 HD
ENDBRANCH  13  18
ENDBRANCH   5   6
ENDBRANCH   4   5
ENDBRANCH   3   4
BRANCH   2  20
HETATM   20  C17 UNL     1      -6.406  47.671 -27.303  1.00  0.00     0.060 C 
BRANCH  20  21
HETATM   21  C18 UNL     1      -6.000  47.453 -28.734  1.00  0.00    -0.026 C 
HETATM   22  C19 UNL     1      -6.550  46.671 -29.681  1.00  0.00    -0.019 C 
BRANCH  22  23
HETATM   23  C20 UNL     1      -7.729  45.729 -29.620  1.00  0.00     0.076 C 
HETATM   24  C21 UNL     1      -7.441  44.360 -28.999  1.00  0.00     0.022 C 
BRANCH  23  25
HETATM   25  C22 UNL     1      -8.919  46.430 -28.947  1.00  0.00     0.162 C 
HETATM   26  O3  UNL     1      -9.458  45.990 -27.923  1.00  0.00    -0.294 OA
BRANCH  25  27
HETATM   27  C23 UNL     1      -9.384  47.784 -29.521  1.00  0.00     0.188 C 
BRANCH  27  28
HETATM   28  O4  UNL     1     -10.140  48.511 -28.556  1.00  0.00    -0.388 OA
HETATM   29  H31 UNL     1     -10.163  47.958 -27.747  1.00  0.00     0.210 HD
ENDBRANCH  27  28
BRANCH  27  30
HETATM   30  C24 UNL     1     -10.163  47.709 -30.843  1.00  0.00     0.043 C 
BRANCH  30  31
HETATM   31  C25 UNL     1     -11.474  46.890 -30.914  1.00  0.00    -0.020 C 
HETATM   32  C26 UNL     1     -12.455  47.194 -29.778  1.00  0.00     0.009 C 
HETATM   33  C27 UNL     1     -11.249  45.384 -31.035  1.00  0.00     0.009 C 
ENDBRANCH  30  31
ENDBRANCH  27  30
ENDBRANCH  25  27
ENDBRANCH  23  25
ENDBRANCH  22  23
ENDBRANCH  20  21
ENDBRANCH   2  20
TORSDOF 12
ENDMDL
