MODEL 1
REMARK minimizedAffinity -8.92134094
REMARK CNNscore 0.690990746
REMARK CNNaffinity 7.29534292
REMARK  12 active torsions:
REMARK  status: ('A' for Active; 'I' for Inactive)
REMARK    1  A    between atoms: C12_13  and  O2_14 
REMARK    2  A    between atoms: C19_21  and  O3_22 
REMARK    3  A    between atoms: C19_21  and  C20_23 
REMARK    4  A    between atoms: C20_23  and  C21_25 
REMARK    5  A    between atoms: C21_25  and  O5_26 
REMARK    6  A    between atoms: O5_26  and  C22_27 
REMARK    7  A    between atoms: C22_27  and  C23_29 
REMARK    8  A    between atoms: C23_29  and  C24_30 
REMARK    9  A    between atoms: C24_30  and  C25_31 
REMARK       I    between atoms: C25_31  and  N1_33 
REMARK   10  A    between atoms: N1_33  and  C26_34 
REMARK   11  A    between atoms: C26_34  and  C27_35 
REMARK   12  A    between atoms: C27_35  and  C28_36 
ROOT
HETATM    1  C1  UNL     1       4.282   8.357   9.804  1.00  0.00     0.020 C 
HETATM    2  C2  UNL     1       3.390   7.092   9.707  1.00  0.00    -0.014 C 
HETATM    3  C3  UNL     1       4.377   5.890   9.688  1.00  0.00     0.022 C 
HETATM    4  C4  UNL     1       3.766   4.602   9.165  1.00  0.00     0.084 C 
HETATM    5  C5  UNL     1       3.213   4.827   7.782  1.00  0.00     0.149 C 
HETATM    6  O1  UNL     1       3.206   3.947   6.926  1.00  0.00    -0.293 OA
HETATM    7  C6  UNL     1       2.555   6.126   7.504  1.00  0.00     0.053 C 
HETATM    8  C7  UNL     1       2.586   7.127   8.400  1.00  0.00    -0.068 C 
HETATM    9  C8  UNL     1       1.674   8.317   8.242  1.00  0.00     0.035 C 
HETATM   10  C9  UNL     1       0.648   8.308   9.377  1.00  0.00     0.010 C 
HETATM   11  C10 UNL     1       1.288   8.190  10.778  1.00  0.00    -0.002 C 
HETATM   12  C11 UNL     1       2.310   6.997  10.849  1.00  0.00     0.031 C 
HETATM   13  C12 UNL     1       2.856   6.777  12.287  1.00  0.00     0.124 C 
HETATM   14  C13 UNL     1       1.750   6.740  13.364  1.00  0.00     0.045 C 
HETATM   15  C14 UNL     1       0.776   7.940  13.298  1.00  0.00     0.001 C 
HETATM   16  C15 UNL     1       1.496   9.254  13.707  1.00  0.00     0.019 C 
HETATM   17  C16 UNL     1       0.214   7.979  11.855  1.00  0.00     0.002 C 
HETATM   18  C17 UNL     1      -0.931   8.978  11.941  1.00  0.00     0.009 C 
HETATM   19  C18 UNL     1      -1.520   8.770  13.348  1.00  0.00     0.047 C 
HETATM   20  C19 UNL     1      -0.560   7.802  14.103  1.00  0.00     0.128 C 
ENDROOT
BRANCH  20  21
HETATM   21  O3  UNL     1      -1.123   6.495  13.932  1.00  0.00    -0.381 OA
HETATM   22  H27 UNL     1      -0.663   5.889  14.540  1.00  0.00     0.211 HD
ENDBRANCH  20  21
BRANCH  20  23
HETATM   23  C20 UNL     1      -0.464   8.157  15.614  1.00  0.00     0.185 C 
HETATM   24  O4  UNL     1       0.157   7.458  16.419  1.00  0.00    -0.292 OA
BRANCH  23  25
HETATM   25  C21 UNL     1      -1.246   9.369  16.111  1.00  0.00     0.260 C 
BRANCH  25  26
HETATM   26  O5  UNL     1      -0.821   9.777  17.413  1.00  0.00    -0.314 OA
BRANCH  26  27
HETATM   27  C22 UNL     1      -1.385  10.940  17.845  1.00  0.00     0.259 C 
HETATM   28  O6  UNL     1      -0.822  12.026  17.838  1.00  0.00    -0.265 OA
BRANCH  27  29
HETATM   29  C23 UNL     1      -2.743  10.707  18.467  1.00  0.00     0.120 C 
BRANCH  29  30
HETATM   30  C24 UNL     1      -3.892  11.433  17.776  1.00  0.00     0.112 C 
BRANCH  30  31
HETATM   31  C25 UNL     1      -4.115  10.934  16.364  1.00  0.00     0.218 C 
HETATM   32  O7  UNL     1      -3.907  11.619  15.371  1.00  0.00    -0.274 OA
HETATM   33  N1  UNL     1      -4.563   9.634  16.314  1.00  0.00    -0.361 N 
HETATM   34  H34 UNL     1      -4.772   9.142  17.173  1.00  0.00     0.162 HD
BRANCH  33  35
HETATM   35  C26 UNL     1      -4.869   8.978  15.054  1.00  0.00     0.127 C 
BRANCH  35  36
HETATM   36  C27 UNL     1      -4.993   7.459  15.204  1.00  0.00     0.060 C 
BRANCH  36  37
HETATM   37  C28 UNL     1      -6.183   6.920  14.476  1.00  0.00    -0.029 A 
HETATM   38  C29 UNL     1      -6.163   6.013  13.435  1.00  0.00     0.096 A 
HETATM   39  N2  UNL     1      -7.453   5.769  13.052  1.00  0.00    -0.365 N 
HETATM   40  C30 UNL     1      -8.326   6.496  13.827  1.00  0.00     0.042 A 
HETATM   41  H40 UNL     1      -7.732   5.140  12.312  1.00  0.00     0.165 HD
HETATM   42  C31 UNL     1      -9.724   6.554  13.797  1.00  0.00     0.030 A 
HETATM   43  C35 UNL     1      -7.558   7.235  14.726  1.00  0.00    -0.002 A 
HETATM   44  C32 UNL     1     -10.356   7.397  14.716  1.00  0.00     0.002 A 
HETATM   45  C33 UNL     1      -9.619   8.151  15.626  1.00  0.00     0.001 A 
HETATM   46  C34 UNL     1      -8.222   8.078  15.641  1.00  0.00     0.014 A 
ENDBRANCH  36  37
ENDBRANCH  35  36
ENDBRANCH  33  35
ENDBRANCH  30  31
ENDBRANCH  29  30
ENDBRANCH  27  29
ENDBRANCH  26  27
ENDBRANCH  25  26
ENDBRANCH  23  25
ENDBRANCH  20  23
BRANCH  13  47
HETATM   47  O2  UNL     1       3.818   7.762  12.631  1.00  0.00    -0.395 OA
HETATM   48  H16 UNL     1       4.239   7.494  13.467  1.00  0.00     0.210 HD
ENDBRANCH  13  47
TORSDOF 12
ENDMDL
MODEL 2
REMARK minimizedAffinity -8.70632839
REMARK CNNscore 0.335317433
REMARK CNNaffinity 7.08992577
REMARK  12 active torsions:
REMARK  status: ('A' for Active; 'I' for Inactive)
REMARK    1  A    between atoms: C12_13  and  O2_14 
REMARK    2  A    between atoms: C19_21  and  O3_22 
REMARK    3  A    between atoms: C19_21  and  C20_23 
REMARK    4  A    between atoms: C20_23  and  C21_25 
REMARK    5  A    between atoms: C21_25  and  O5_26 
REMARK    6  A    between atoms: O5_26  and  C22_27 
REMARK    7  A    between atoms: C22_27  and  C23_29 
REMARK    8  A    between atoms: C23_29  and  C24_30 
REMARK    9  A    between atoms: C24_30  and  C25_31 
REMARK       I    between atoms: C25_31  and  N1_33 
REMARK   10  A    between atoms: N1_33  and  C26_34 
REMARK   11  A    between atoms: C26_34  and  C27_35 
REMARK   12  A    between atoms: C27_35  and  C28_36 
ROOT
HETATM    1  C1  UNL     1       3.279   8.300   9.578  1.00  0.00     0.020 C 
HETATM    2  C2  UNL     1       3.929   7.582  10.790  1.00  0.00    -0.014 C 
HETATM    3  C3  UNL     1       5.130   8.478  11.206  1.00  0.00     0.022 C 
HETATM    4  C4  UNL     1       6.155   7.767  12.071  1.00  0.00     0.084 C 
HETATM    5  C5  UNL     1       6.661   6.542  11.357  1.00  0.00     0.149 C 
HETATM    6  O1  UNL     1       7.810   6.131  11.490  1.00  0.00    -0.293 OA
HETATM    7  C6  UNL     1       5.688   5.754  10.563  1.00  0.00     0.053 C 
HETATM    8  C7  UNL     1       4.436   6.198  10.358  1.00  0.00    -0.068 C 
HETATM    9  C8  UNL     1       3.378   5.271   9.817  1.00  0.00     0.035 C 
HETATM   10  C9  UNL     1       2.333   5.024  10.906  1.00  0.00     0.010 C 
HETATM   11  C10 UNL     1       1.771   6.326  11.519  1.00  0.00    -0.002 C 
HETATM   12  C11 UNL     1       2.921   7.300  11.966  1.00  0.00     0.031 C 
HETATM   13  C12 UNL     1       2.376   8.549  12.712  1.00  0.00     0.124 C 
HETATM   14  C13 UNL     1       1.358   8.206  13.821  1.00  0.00     0.045 C 
HETATM   15  C14 UNL     1       0.216   7.275  13.352  1.00  0.00     0.001 C 
HETATM   16  C15 UNL     1      -0.721   8.014  12.357  1.00  0.00     0.019 C 
HETATM   17  C16 UNL     1       0.887   6.021  12.737  1.00  0.00     0.002 C 
HETATM   18  C17 UNL     1      -0.266   5.041  12.568  1.00  0.00     0.009 C 
HETATM   19  C18 UNL     1      -1.189   5.322  13.768  1.00  0.00     0.047 C 
HETATM   20  C19 UNL     1      -0.641   6.599  14.474  1.00  0.00     0.128 C 
ENDROOT
BRANCH  20  21
HETATM   21  O3  UNL     1       0.197   6.119  15.533  1.00  0.00    -0.381 OA
HETATM   22  H27 UNL     1       0.408   6.873  16.113  1.00  0.00     0.211 HD
ENDBRANCH  20  21
BRANCH  20  23
HETATM   23  C20 UNL     1      -1.793   7.472  15.047  1.00  0.00     0.185 C 
HETATM   24  O4  UNL     1      -2.939   7.435  14.591  1.00  0.00    -0.292 OA
BRANCH  23  25
HETATM   25  C21 UNL     1      -1.451   8.465  16.153  1.00  0.00     0.260 C 
BRANCH  25  26
HETATM   26  O5  UNL     1      -1.002   9.714  15.624  1.00  0.00    -0.314 OA
BRANCH  26  27
HETATM   27  C22 UNL     1      -1.002  10.735  16.528  1.00  0.00     0.259 C 
HETATM   28  O6  UNL     1       0.004  11.208  17.036  1.00  0.00    -0.265 OA
BRANCH  27  29
HETATM   29  C23 UNL     1      -2.405  11.123  16.935  1.00  0.00     0.120 C 
BRANCH  29  30
HETATM   30  C24 UNL     1      -3.357   9.948  17.133  1.00  0.00     0.112 C 
BRANCH  30  31
HETATM   31  C25 UNL     1      -4.548  10.015  16.200  1.00  0.00     0.218 C 
HETATM   32  O7  UNL     1      -4.884  11.036  15.614  1.00  0.00    -0.274 OA
HETATM   33  N1  UNL     1      -5.201   8.811  16.071  1.00  0.00    -0.361 N 
HETATM   34  H34 UNL     1      -4.909   8.019  16.629  1.00  0.00     0.162 HD
BRANCH  33  35
HETATM   35  C26 UNL     1      -6.389   8.669  15.246  1.00  0.00     0.127 C 
BRANCH  35  36
HETATM   36  C27 UNL     1      -6.099   7.953  13.925  1.00  0.00     0.060 C 
BRANCH  36  37
HETATM   37  C28 UNL     1      -6.901   6.699  13.779  1.00  0.00    -0.029 A 
HETATM   38  C29 UNL     1      -8.232   6.539  14.108  1.00  0.00     0.096 A 
HETATM   39  N2  UNL     1      -8.595   5.252  13.817  1.00  0.00    -0.365 N 
HETATM   40  C30 UNL     1      -7.526   4.561  13.297  1.00  0.00     0.042 A 
HETATM   41  H40 UNL     1      -9.516   4.861  13.955  1.00  0.00     0.165 HD
HETATM   42  C31 UNL     1      -7.436   3.236  12.857  1.00  0.00     0.030 A 
HETATM   43  C35 UNL     1      -6.444   5.442  13.268  1.00  0.00    -0.002 A 
HETATM   44  C32 UNL     1      -6.201   2.797  12.372  1.00  0.00     0.002 A 
HETATM   45  C33 UNL     1      -5.100   3.650  12.332  1.00  0.00     0.001 A 
HETATM   46  C34 UNL     1      -5.209   4.972  12.776  1.00  0.00     0.014 A 
ENDBRANCH  36  37
ENDBRANCH  35  36
ENDBRANCH  33  35
ENDBRANCH  30  31
ENDBRANCH  29  30
ENDBRANCH  27  29
ENDBRANCH  26  27
ENDBRANCH  25  26
ENDBRANCH  23  25
ENDBRANCH  20  23
BRANCH  13  47
HETATM   47  O2  UNL     1       1.796   9.478  11.808  1.00  0.00    -0.395 OA
HETATM   48  H16 UNL     1       1.614  10.300  12.296  1.00  0.00     0.210 HD
ENDBRANCH  13  47
TORSDOF 12
ENDMDL
MODEL 3
REMARK minimizedAffinity -7.92460632
REMARK CNNscore 0.327073246
REMARK CNNaffinity 6.40841246
REMARK  12 active torsions:
REMARK  status: ('A' for Active; 'I' for Inactive)
REMARK    1  A    between atoms: C12_13  and  O2_14 
REMARK    2  A    between atoms: C19_21  and  O3_22 
REMARK    3  A    between atoms: C19_21  and  C20_23 
REMARK    4  A    between atoms: C20_23  and  C21_25 
REMARK    5  A    between atoms: C21_25  and  O5_26 
REMARK    6  A    between atoms: O5_26  and  C22_27 
REMARK    7  A    between atoms: C22_27  and  C23_29 
REMARK    8  A    between atoms: C23_29  and  C24_30 
REMARK    9  A    between atoms: C24_30  and  C25_31 
REMARK       I    between atoms: C25_31  and  N1_33 
REMARK   10  A    between atoms: N1_33  and  C26_34 
REMARK   11  A    between atoms: C26_34  and  C27_35 
REMARK   12  A    between atoms: C27_35  and  C28_36 
ROOT
HETATM    1  C1  UNL     1     -15.791   4.683  23.671  1.00  0.00     0.020 C 
HETATM    2  C2  UNL     1     -14.348   4.569  24.229  1.00  0.00    -0.014 C 
HETATM    3  C3  UNL     1     -13.711   3.361  23.485  1.00  0.00     0.022 C 
HETATM    4  C4  UNL     1     -12.479   2.798  24.170  1.00  0.00     0.084 C 
HETATM    5  C5  UNL     1     -12.819   2.401  25.583  1.00  0.00     0.149 C 
HETATM    6  O1  UNL     1     -12.279   1.455  26.148  1.00  0.00    -0.293 OA
HETATM    7  C6  UNL     1     -13.756   3.268  26.337  1.00  0.00     0.053 C 
HETATM    8  C7  UNL     1     -14.401   4.284  25.737  1.00  0.00    -0.068 C 
HETATM    9  C8  UNL     1     -15.106   5.330  26.562  1.00  0.00     0.035 C 
HETATM   10  C9  UNL     1     -14.372   6.663  26.402  1.00  0.00     0.010 C 
HETATM   11  C10 UNL     1     -14.155   7.068  24.927  1.00  0.00    -0.002 C 
HETATM   12  C11 UNL     1     -13.516   5.898  24.093  1.00  0.00     0.031 C 
HETATM   13  C12 UNL     1     -13.162   6.335  22.644  1.00  0.00     0.124 C 
HETATM   14  C13 UNL     1     -12.386   7.669  22.579  1.00  0.00     0.045 C 
HETATM   15  C14 UNL     1     -13.050   8.815  23.377  1.00  0.00     0.001 C 
HETATM   16  C15 UNL     1     -14.382   9.252  22.705  1.00  0.00     0.019 C 
HETATM   17  C16 UNL     1     -13.242   8.298  24.824  1.00  0.00     0.002 C 
HETATM   18  C17 UNL     1     -13.620   9.547  25.607  1.00  0.00     0.009 C 
HETATM   19  C18 UNL     1     -12.818  10.679  24.938  1.00  0.00     0.047 C 
HETATM   20  C19 UNL     1     -12.166  10.076  23.657  1.00  0.00     0.128 C 
ENDROOT
BRANCH  20  21
HETATM   21  O3  UNL     1     -10.842   9.691  24.048  1.00  0.00    -0.381 OA
HETATM   22  H27 UNL     1     -10.339   9.486  23.240  1.00  0.00     0.211 HD
ENDBRANCH  20  21
BRANCH  20  23
HETATM   23  C20 UNL     1     -12.109  11.117  22.503  1.00  0.00     0.185 C 
HETATM   24  O4  UNL     1     -12.969  11.991  22.358  1.00  0.00    -0.292 OA
BRANCH  23  25
HETATM   25  C21 UNL     1     -10.990  10.980  21.475  1.00  0.00     0.260 C 
BRANCH  25  26
HETATM   26  O5  UNL     1     -11.256   9.935  20.538  1.00  0.00    -0.314 OA
BRANCH  26  27
HETATM   27  C22 UNL     1     -11.560  10.375  19.284  1.00  0.00     0.259 C 
HETATM   28  O6  UNL     1     -12.419  11.209  19.033  1.00  0.00    -0.265 OA
BRANCH  27  29
HETATM   29  C23 UNL     1     -10.806   9.607  18.222  1.00  0.00     0.120 C 
BRANCH  29  30
HETATM   30  C24 UNL     1     -10.939  10.172  16.813  1.00  0.00     0.112 C 
BRANCH  30  31
HETATM   31  C25 UNL     1     -10.749   9.110  15.751  1.00  0.00     0.218 C 
HETATM   32  O7  UNL     1     -11.354   9.110  14.686  1.00  0.00    -0.274 OA
HETATM   33  N1  UNL     1      -9.822   8.156  16.100  1.00  0.00    -0.361 N 
HETATM   34  H34 UNL     1      -9.399   8.179  17.019  1.00  0.00     0.162 HD
BRANCH  33  35
HETATM   35  C26 UNL     1      -9.516   7.031  15.232  1.00  0.00     0.127 C 
BRANCH  35  36
HETATM   36  C27 UNL     1      -8.560   6.032  15.888  1.00  0.00     0.060 C 
BRANCH  36  37
HETATM   37  C28 UNL     1      -7.230   5.999  15.208  1.00  0.00    -0.029 A 
HETATM   38  C29 UNL     1      -6.169   6.851  15.445  1.00  0.00     0.096 A 
HETATM   39  N2  UNL     1      -5.134   6.487  14.629  1.00  0.00    -0.365 N 
HETATM   40  C30 UNL     1      -5.491   5.405  13.859  1.00  0.00     0.042 A 
HETATM   41  H40 UNL     1      -4.231   6.939  14.596  1.00  0.00     0.165 HD
HETATM   42  C31 UNL     1      -4.757   4.699  12.900  1.00  0.00     0.030 A 
HETATM   43  C35 UNL     1      -6.805   5.080  14.195  1.00  0.00    -0.002 A 
HETATM   44  C32 UNL     1      -5.387   3.625  12.264  1.00  0.00     0.002 A 
HETATM   45  C33 UNL     1      -6.699   3.276  12.573  1.00  0.00     0.001 A 
HETATM   46  C34 UNL     1      -7.417   3.994  13.536  1.00  0.00     0.014 A 
ENDBRANCH  36  37
ENDBRANCH  35  36
ENDBRANCH  33  35
ENDBRANCH  30  31
ENDBRANCH  29  30
ENDBRANCH  27  29
ENDBRANCH  26  27
ENDBRANCH  25  26
ENDBRANCH  23  25
ENDBRANCH  20  23
BRANCH  13  47
HETATM   47  O2  UNL     1     -14.323   6.422  21.832  1.00  0.00    -0.395 OA
HETATM   48  H16 UNL     1     -14.038   6.544  20.910  1.00  0.00     0.210 HD
ENDBRANCH  13  47
TORSDOF 12
ENDMDL
MODEL 4
REMARK minimizedAffinity -8.28987694
REMARK CNNscore 0.283104926
REMARK CNNaffinity 6.30460787
REMARK  12 active torsions:
REMARK  status: ('A' for Active; 'I' for Inactive)
REMARK    1  A    between atoms: C12_13  and  O2_14 
REMARK    2  A    between atoms: C19_21  and  O3_22 
REMARK    3  A    between atoms: C19_21  and  C20_23 
REMARK    4  A    between atoms: C20_23  and  C21_25 
REMARK    5  A    between atoms: C21_25  and  O5_26 
REMARK    6  A    between atoms: O5_26  and  C22_27 
REMARK    7  A    between atoms: C22_27  and  C23_29 
REMARK    8  A    between atoms: C23_29  and  C24_30 
REMARK    9  A    between atoms: C24_30  and  C25_31 
REMARK       I    between atoms: C25_31  and  N1_33 
REMARK   10  A    between atoms: N1_33  and  C26_34 
REMARK   11  A    between atoms: C26_34  and  C27_35 
REMARK   12  A    between atoms: C27_35  and  C28_36 
ROOT
HETATM    1  C1  UNL     1       9.653  13.342  14.630  1.00  0.00     0.020 C 
HETATM    2  C2  UNL     1       9.590  12.413  15.870  1.00  0.00    -0.014 C 
HETATM    3  C3  UNL     1       9.279  13.349  17.073  1.00  0.00     0.022 C 
HETATM    4  C4  UNL     1       9.601  12.738  18.425  1.00  0.00     0.084 C 
HETATM    5  C5  UNL     1      11.049  12.325  18.465  1.00  0.00     0.149 C 
HETATM    6  O1  UNL     1      11.714  12.362  19.496  1.00  0.00    -0.293 OA
HETATM    7  C6  UNL     1      11.637  11.748  17.233  1.00  0.00     0.053 C 
HETATM    8  C7  UNL     1      10.953  11.735  16.075  1.00  0.00    -0.068 C 
HETATM    9  C8  UNL     1      11.427  10.890  14.921  1.00  0.00     0.035 C 
HETATM   10  C9  UNL     1      10.418   9.764  14.686  1.00  0.00     0.010 C 
HETATM   11  C10 UNL     1       8.965  10.267  14.540  1.00  0.00    -0.002 C 
HETATM   12  C11 UNL     1       8.563  11.229  15.716  1.00  0.00     0.031 C 
HETATM   13  C12 UNL     1       7.063  11.631  15.661  1.00  0.00     0.124 C 
HETATM   14  C13 UNL     1       6.114  10.430  15.462  1.00  0.00     0.045 C 
HETATM   15  C14 UNL     1       6.506   9.515  14.279  1.00  0.00     0.001 C 
HETATM   16  C15 UNL     1       6.290  10.246  12.925  1.00  0.00     0.019 C 
HETATM   17  C16 UNL     1       7.978   9.091  14.512  1.00  0.00     0.002 C 
HETATM   18  C17 UNL     1       8.200   7.983  13.492  1.00  0.00     0.009 C 
HETATM   19  C18 UNL     1       6.844   7.259  13.408  1.00  0.00     0.047 C 
HETATM   20  C19 UNL     1       5.825   8.106  14.229  1.00  0.00     0.128 C 
ENDROOT
BRANCH  20  21
HETATM   21  O3  UNL     1       5.795   7.509  15.531  1.00  0.00    -0.381 OA
HETATM   22  H27 UNL     1       5.038   7.886  16.015  1.00  0.00     0.211 HD
ENDBRANCH  20  21
BRANCH  20  23
HETATM   23  C20 UNL     1       4.409   8.076  13.585  1.00  0.00     0.185 C 
HETATM   24  O4  UNL     1       3.376   8.120  14.259  1.00  0.00    -0.292 OA
BRANCH  23  25
HETATM   25  C21 UNL     1       4.318   7.897  12.073  1.00  0.00     0.260 C 
BRANCH  25  26
HETATM   26  O5  UNL     1       4.036   6.542  11.715  1.00  0.00    -0.314 OA
BRANCH  26  27
HETATM   27  C22 UNL     1       3.308   6.408  10.570  1.00  0.00     0.259 C 
HETATM   28  O6  UNL     1       3.789   6.368   9.447  1.00  0.00    -0.265 OA
BRANCH  27  29
HETATM   29  C23 UNL     1       1.822   6.453  10.842  1.00  0.00     0.120 C 
BRANCH  29  30
HETATM   30  C24 UNL     1       1.304   5.331  11.735  1.00  0.00     0.112 C 
BRANCH  30  31
HETATM   31  C25 UNL     1      -0.197   5.163  11.629  1.00  0.00     0.218 C 
HETATM   32  O7  UNL     1      -0.732   4.392  10.842  1.00  0.00    -0.274 OA
HETATM   33  N1  UNL     1      -0.893   5.954  12.514  1.00  0.00    -0.361 N 
HETATM   34  H34 UNL     1      -0.394   6.613  13.097  1.00  0.00     0.162 HD
BRANCH  33  35
HETATM   35  C26 UNL     1      -2.346   5.966  12.551  1.00  0.00     0.127 C 
BRANCH  35  36
HETATM   36  C27 UNL     1      -2.915   4.854  13.436  1.00  0.00     0.060 C 
BRANCH  36  37
HETATM   37  C28 UNL     1      -4.228   4.351  12.928  1.00  0.00    -0.029 A 
HETATM   38  C29 UNL     1      -4.426   3.234  12.139  1.00  0.00     0.096 A 
HETATM   39  N2  UNL     1      -5.767   3.109  11.899  1.00  0.00    -0.365 N 
HETATM   40  C30 UNL     1      -6.459   4.123  12.519  1.00  0.00     0.042 A 
HETATM   41  H40 UNL     1      -6.194   2.377  11.351  1.00  0.00     0.165 HD
HETATM   42  C31 UNL     1      -7.832   4.388  12.553  1.00  0.00     0.030 A 
HETATM   43  C35 UNL     1      -5.519   4.924  13.168  1.00  0.00    -0.002 A 
HETATM   44  C32 UNL     1      -8.258   5.509  13.272  1.00  0.00     0.002 A 
HETATM   45  C33 UNL     1      -7.345   6.330  13.929  1.00  0.00     0.001 A 
HETATM   46  C34 UNL     1      -5.975   6.049  13.885  1.00  0.00     0.014 A 
ENDBRANCH  36  37
ENDBRANCH  35  36
ENDBRANCH  33  35
ENDBRANCH  30  31
ENDBRANCH  29  30
ENDBRANCH  27  29
ENDBRANCH  26  27
ENDBRANCH  25  26
ENDBRANCH  23  25
ENDBRANCH  20  23
BRANCH  13  47
HETATM   47  O2  UNL     1       6.824  12.596  14.648  1.00  0.00    -0.395 OA
HETATM   48  H16 UNL     1       5.915  12.927  14.755  1.00  0.00     0.210 HD
ENDBRANCH  13  47
TORSDOF 12
ENDMDL
MODEL 5
REMARK minimizedAffinity -10.3534737
REMARK CNNscore 0.276679486
REMARK CNNaffinity 6.90904379
REMARK  12 active torsions:
REMARK  status: ('A' for Active; 'I' for Inactive)
REMARK    1  A    between atoms: C12_13  and  O2_14 
REMARK    2  A    between atoms: C19_21  and  O3_22 
REMARK    3  A    between atoms: C19_21  and  C20_23 
REMARK    4  A    between atoms: C20_23  and  C21_25 
REMARK    5  A    between atoms: C21_25  and  O5_26 
REMARK    6  A    between atoms: O5_26  and  C22_27 
REMARK    7  A    between atoms: C22_27  and  C23_29 
REMARK    8  A    between atoms: C23_29  and  C24_30 
REMARK    9  A    between atoms: C24_30  and  C25_31 
REMARK       I    between atoms: C25_31  and  N1_33 
REMARK   10  A    between atoms: N1_33  and  C26_34 
REMARK   11  A    between atoms: C26_34  and  C27_35 
REMARK   12  A    between atoms: C27_35  and  C28_36 
ROOT
HETATM    1  C1  UNL     1       4.210   8.092   9.784  1.00  0.00     0.020 C 
HETATM    2  C2  UNL     1       3.275   6.879   9.539  1.00  0.00    -0.014 C 
HETATM    3  C3  UNL     1       4.195   5.627   9.608  1.00  0.00     0.022 C 
HETATM    4  C4  UNL     1       3.592   4.386   8.975  1.00  0.00     0.084 C 
HETATM    5  C5  UNL     1       3.232   4.671   7.540  1.00  0.00     0.149 C 
HETATM    6  O1  UNL     1       3.289   3.813   6.665  1.00  0.00    -0.293 OA
HETATM    7  C6  UNL     1       2.680   6.010   7.220  1.00  0.00     0.053 C 
HETATM    8  C7  UNL     1       2.646   6.987   8.142  1.00  0.00    -0.068 C 
HETATM    9  C8  UNL     1       1.822   8.228   7.906  1.00  0.00     0.035 C 
HETATM   10  C9  UNL     1       0.662   8.247   8.903  1.00  0.00     0.010 C 
HETATM   11  C10 UNL     1       1.112   8.062  10.369  1.00  0.00    -0.002 C 
HETATM   12  C11 UNL     1       2.056   6.816  10.533  1.00  0.00     0.031 C 
HETATM   13  C12 UNL     1       2.403   6.534  12.021  1.00  0.00     0.124 C 
HETATM   14  C13 UNL     1       1.169   6.531  12.949  1.00  0.00     0.045 C 
HETATM   15  C14 UNL     1       0.273   7.782  12.797  1.00  0.00     0.001 C 
HETATM   16  C15 UNL     1       1.000   9.046  13.332  1.00  0.00     0.019 C 
HETATM   17  C16 UNL     1      -0.099   7.885  11.296  1.00  0.00     0.002 C 
HETATM   18  C17 UNL     1      -1.194   8.941  11.267  1.00  0.00     0.009 C 
HETATM   19  C18 UNL     1      -1.967   8.732  12.583  1.00  0.00     0.047 C 
HETATM   20  C19 UNL     1      -1.159   7.697  13.423  1.00  0.00     0.128 C 
ENDROOT
BRANCH  20  21
HETATM   21  O3  UNL     1      -1.761   6.426  13.144  1.00  0.00    -0.381 OA
HETATM   22  H27 UNL     1      -1.413   5.783  13.787  1.00  0.00     0.211 HD
ENDBRANCH  20  21
BRANCH  20  23
HETATM   23  C20 UNL     1      -1.239   8.012  14.944  1.00  0.00     0.185 C 
HETATM   24  O4  UNL     1      -1.755   7.236  15.753  1.00  0.00    -0.292 OA
BRANCH  23  25
HETATM   25  C21 UNL     1      -0.734   9.371  15.417  1.00  0.00     0.260 C 
BRANCH  25  26
HETATM   26  O5  UNL     1      -1.804  10.300  15.602  1.00  0.00    -0.314 OA
BRANCH  26  27
HETATM   27  C22 UNL     1      -2.248  10.391  16.887  1.00  0.00     0.259 C 
HETATM   28  O6  UNL     1      -1.527  10.588  17.856  1.00  0.00    -0.265 OA
BRANCH  27  29
HETATM   29  C23 UNL     1      -3.723  10.079  16.994  1.00  0.00     0.120 C 
BRANCH  29  30
HETATM   30  C24 UNL     1      -4.526  10.362  15.728  1.00  0.00     0.112 C 
BRANCH  30  31
HETATM   31  C25 UNL     1      -5.304   9.150  15.262  1.00  0.00     0.218 C 
HETATM   32  O7  UNL     1      -6.078   8.532  15.983  1.00  0.00    -0.274 OA
HETATM   33  N1  UNL     1      -5.061   8.825  13.948  1.00  0.00    -0.361 N 
HETATM   34  H34 UNL     1      -4.366   9.339  13.423  1.00  0.00     0.162 HD
BRANCH  33  35
HETATM   35  C26 UNL     1      -5.685   7.674  13.317  1.00  0.00     0.127 C 
BRANCH  35  36
HETATM   36  C27 UNL     1      -5.059   6.351  13.767  1.00  0.00     0.060 C 
BRANCH  36  37
HETATM   37  C28 UNL     1      -6.041   5.224  13.728  1.00  0.00    -0.029 A 
HETATM   38  C29 UNL     1      -7.211   5.135  14.456  1.00  0.00     0.096 A 
HETATM   39  N2  UNL     1      -7.831   3.960  14.132  1.00  0.00    -0.365 N 
HETATM   40  C30 UNL     1      -7.091   3.273  13.198  1.00  0.00     0.042 A 
HETATM   41  H40 UNL     1      -8.709   3.639  14.515  1.00  0.00     0.165 HD
HETATM   42  C31 UNL     1      -7.339   2.043  12.578  1.00  0.00     0.030 A 
HETATM   43  C35 UNL     1      -5.957   4.039  12.929  1.00  0.00    -0.002 A 
HETATM   44  C32 UNL     1      -6.396   1.581  11.655  1.00  0.00     0.002 A 
HETATM   45  C33 UNL     1      -5.252   2.320  11.366  1.00  0.00     0.001 A 
HETATM   46  C34 UNL     1      -5.021   3.548  11.995  1.00  0.00     0.014 A 
ENDBRANCH  36  37
ENDBRANCH  35  36
ENDBRANCH  33  35
ENDBRANCH  30  31
ENDBRANCH  29  30
ENDBRANCH  27  29
ENDBRANCH  26  27
ENDBRANCH  25  26
ENDBRANCH  23  25
ENDBRANCH  20  23
BRANCH  13  47
HETATM   47  O2  UNL     1       3.362   7.458  12.512  1.00  0.00    -0.395 OA
HETATM   48  H16 UNL     1       3.659   7.149  13.386  1.00  0.00     0.210 HD
ENDBRANCH  13  47
TORSDOF 12
ENDMDL
MODEL 6
REMARK minimizedAffinity -8.38325024
REMARK CNNscore 0.270981312
REMARK CNNaffinity 6.15388727
REMARK  12 active torsions:
REMARK  status: ('A' for Active; 'I' for Inactive)
REMARK    1  A    between atoms: C12_13  and  O2_14 
REMARK    2  A    between atoms: C19_21  and  O3_22 
REMARK    3  A    between atoms: C19_21  and  C20_23 
REMARK    4  A    between atoms: C20_23  and  C21_25 
REMARK    5  A    between atoms: C21_25  and  O5_26 
REMARK    6  A    between atoms: O5_26  and  C22_27 
REMARK    7  A    between atoms: C22_27  and  C23_29 
REMARK    8  A    between atoms: C23_29  and  C24_30 
REMARK    9  A    between atoms: C24_30  and  C25_31 
REMARK       I    between atoms: C25_31  and  N1_33 
REMARK   10  A    between atoms: N1_33  and  C26_34 
REMARK   11  A    between atoms: C26_34  and  C27_35 
REMARK   12  A    between atoms: C27_35  and  C28_36 
ROOT
HETATM    1  C1  UNL     1     -17.326  -3.831  13.238  1.00  0.00     0.020 C 
HETATM    2  C2  UNL     1     -15.832  -3.459  13.425  1.00  0.00    -0.014 C 
HETATM    3  C3  UNL     1     -15.119  -3.953  12.134  1.00  0.00     0.022 C 
HETATM    4  C4  UNL     1     -13.613  -4.091  12.279  1.00  0.00     0.084 C 
HETATM    5  C5  UNL     1     -13.295  -5.020  13.421  1.00  0.00     0.149 C 
HETATM    6  O1  UNL     1     -12.309  -5.750  13.419  1.00  0.00    -0.293 OA
HETATM    7  C6  UNL     1     -14.153  -4.949  14.628  1.00  0.00     0.053 C 
HETATM    8  C7  UNL     1     -15.267  -4.196  14.648  1.00  0.00    -0.068 C 
HETATM    9  C8  UNL     1     -15.958  -3.894  15.953  1.00  0.00     0.035 C 
HETATM   10  C9  UNL     1     -15.819  -2.400  16.250  1.00  0.00     0.010 C 
HETATM   11  C10 UNL     1     -16.270  -1.499  15.079  1.00  0.00    -0.002 C 
HETATM   12  C11 UNL     1     -15.598  -1.931  13.724  1.00  0.00     0.031 C 
HETATM   13  C12 UNL     1     -15.930  -0.951  12.565  1.00  0.00     0.124 C 
HETATM   14  C13 UNL     1     -15.723   0.533  12.939  1.00  0.00     0.045 C 
HETATM   15  C14 UNL     1     -16.420   0.946  14.256  1.00  0.00     0.001 C 
HETATM   16  C15 UNL     1     -17.965   0.930  14.088  1.00  0.00     0.019 C 
HETATM   17  C16 UNL     1     -15.920  -0.029  15.351  1.00  0.00     0.002 C 
HETATM   18  C17 UNL     1     -16.406   0.603  16.647  1.00  0.00     0.009 C 
HETATM   19  C18 UNL     1     -16.315   2.119  16.395  1.00  0.00     0.047 C 
HETATM   20  C19 UNL     1     -15.976   2.308  14.886  1.00  0.00     0.128 C 
ENDROOT
BRANCH  20  21
HETATM   21  O3  UNL     1     -14.551   2.453  14.830  1.00  0.00    -0.381 OA
HETATM   22  H27 UNL     1     -14.316   2.760  13.935  1.00  0.00     0.211 HD
ENDBRANCH  20  21
BRANCH  20  23
HETATM   23  C20 UNL     1     -16.672   3.569  14.299  1.00  0.00     0.185 C 
HETATM   24  O4  UNL     1     -17.201   3.574  13.184  1.00  0.00    -0.292 OA
BRANCH  23  25
HETATM   25  C21 UNL     1     -16.610   4.859  15.111  1.00  0.00     0.260 C 
BRANCH  25  26
HETATM   26  O5  UNL     1     -15.320   5.470  15.040  1.00  0.00    -0.314 OA
BRANCH  26  27
HETATM   27  C22 UNL     1     -15.268   6.573  14.242  1.00  0.00     0.259 C 
HETATM   28  O6  UNL     1     -16.215   7.318  14.029  1.00  0.00    -0.265 OA
BRANCH  27  29
HETATM   29  C23 UNL     1     -13.937   6.691  13.536  1.00  0.00     0.120 C 
BRANCH  29  30
HETATM   30  C24 UNL     1     -12.766   6.055  14.276  1.00  0.00     0.112 C 
BRANCH  30  31
HETATM   31  C25 UNL     1     -11.551   6.958  14.308  1.00  0.00     0.218 C 
HETATM   32  O7  UNL     1     -11.470   7.996  13.663  1.00  0.00    -0.274 OA
HETATM   33  N1  UNL     1     -10.558   6.500  15.142  1.00  0.00    -0.361 N 
HETATM   34  H34 UNL     1     -10.662   5.604  15.602  1.00  0.00     0.162 HD
BRANCH  33  35
HETATM   35  C26 UNL     1      -9.296   7.205  15.290  1.00  0.00     0.127 C 
BRANCH  35  36
HETATM   36  C27 UNL     1      -8.346   6.953  14.115  1.00  0.00     0.060 C 
BRANCH  36  37
HETATM   37  C28 UNL     1      -6.917   6.905  14.551  1.00  0.00    -0.029 A 
HETATM   38  C29 UNL     1      -6.334   7.688  15.528  1.00  0.00     0.096 A 
HETATM   39  N2  UNL     1      -5.017   7.333  15.635  1.00  0.00    -0.365 N 
HETATM   40  C30 UNL     1      -4.722   6.324  14.747  1.00  0.00     0.042 A 
HETATM   41  H40 UNL     1      -4.353   7.743  16.275  1.00  0.00     0.165 HD
HETATM   42  C31 UNL     1      -3.517   5.652  14.514  1.00  0.00     0.030 A 
HETATM   43  C35 UNL     1      -5.894   6.039  14.047  1.00  0.00    -0.002 A 
HETATM   44  C32 UNL     1      -3.510   4.656  13.533  1.00  0.00     0.002 A 
HETATM   45  C33 UNL     1      -4.662   4.348  12.814  1.00  0.00     0.001 A 
HETATM   46  C34 UNL     1      -5.858   5.031  13.061  1.00  0.00     0.014 A 
ENDBRANCH  36  37
ENDBRANCH  35  36
ENDBRANCH  33  35
ENDBRANCH  30  31
ENDBRANCH  29  30
ENDBRANCH  27  29
ENDBRANCH  26  27
ENDBRANCH  25  26
ENDBRANCH  23  25
ENDBRANCH  20  23
BRANCH  13  47
HETATM   47  O2  UNL     1     -17.254  -1.140  12.092  1.00  0.00    -0.395 OA
HETATM   48  H16 UNL     1     -17.360  -0.620  11.276  1.00  0.00     0.210 HD
ENDBRANCH  13  47
TORSDOF 12
ENDMDL
MODEL 7
REMARK minimizedAffinity -7.96302891
REMARK CNNscore 0.264863551
REMARK CNNaffinity 6.88704252
REMARK  12 active torsions:
REMARK  status: ('A' for Active; 'I' for Inactive)
REMARK    1  A    between atoms: C12_13  and  O2_14 
REMARK    2  A    between atoms: C19_21  and  O3_22 
REMARK    3  A    between atoms: C19_21  and  C20_23 
REMARK    4  A    between atoms: C20_23  and  C21_25 
REMARK    5  A    between atoms: C21_25  and  O5_26 
REMARK    6  A    between atoms: O5_26  and  C22_27 
REMARK    7  A    between atoms: C22_27  and  C23_29 
REMARK    8  A    between atoms: C23_29  and  C24_30 
REMARK    9  A    between atoms: C24_30  and  C25_31 
REMARK       I    between atoms: C25_31  and  N1_33 
REMARK   10  A    between atoms: N1_33  and  C26_34 
REMARK   11  A    between atoms: C26_34  and  C27_35 
REMARK   12  A    between atoms: C27_35  and  C28_36 
ROOT
HETATM    1  C1  UNL     1      -1.799   8.968  12.673  1.00  0.00     0.020 C 
HETATM    2  C2  UNL     1      -1.683   8.235  14.035  1.00  0.00    -0.014 C 
HETATM    3  C3  UNL     1      -1.063   9.274  15.012  1.00  0.00     0.022 C 
HETATM    4  C4  UNL     1      -0.461   8.659  16.263  1.00  0.00     0.084 C 
HETATM    5  C5  UNL     1       0.580   7.640  15.878  1.00  0.00     0.149 C 
HETATM    6  O1  UNL     1       1.577   7.429  16.562  1.00  0.00    -0.293 OA
HETATM    7  C6  UNL     1       0.313   6.794  14.691  1.00  0.00     0.053 C 
HETATM    8  C7  UNL     1      -0.744   7.028  13.893  1.00  0.00    -0.068 C 
HETATM    9  C8  UNL     1      -1.175   5.999  12.879  1.00  0.00     0.035 C 
HETATM   10  C9  UNL     1      -2.536   5.438  13.294  1.00  0.00     0.010 C 
HETATM   11  C10 UNL     1      -3.592   6.532  13.564  1.00  0.00    -0.002 C 
HETATM   12  C11 UNL     1      -3.047   7.634  14.543  1.00  0.00     0.031 C 
HETATM   13  C12 UNL     1      -4.141   8.665  14.936  1.00  0.00     0.124 C 
HETATM   14  C13 UNL     1      -5.468   8.012  15.380  1.00  0.00     0.045 C 
HETATM   15  C14 UNL     1      -6.005   6.956  14.386  1.00  0.00     0.001 C 
HETATM   16  C15 UNL     1      -6.474   7.631  13.068  1.00  0.00     0.019 C 
HETATM   17  C16 UNL     1      -4.867   5.927  14.169  1.00  0.00     0.002 C 
HETATM   18  C17 UNL     1      -5.548   4.785  13.429  1.00  0.00     0.009 C 
HETATM   19  C18 UNL     1      -6.974   4.746  14.010  1.00  0.00     0.047 C 
HETATM   20  C19 UNL     1      -7.129   6.004  14.916  1.00  0.00     0.128 C 
ENDROOT
BRANCH  20  21
HETATM   21  O3  UNL     1      -6.832   5.557  16.245  1.00  0.00    -0.381 OA
HETATM   22  H27 UNL     1      -7.098   6.260  16.864  1.00  0.00     0.211 HD
ENDBRANCH  20  21
BRANCH  20  23
HETATM   23  C20 UNL     1      -8.573   6.580  14.849  1.00  0.00     0.185 C 
HETATM   24  O4  UNL     1      -9.389   6.220  13.996  1.00  0.00    -0.292 OA
BRANCH  23  25
HETATM   25  C21 UNL     1      -8.943   7.690  15.827  1.00  0.00     0.260 C 
BRANCH  25  26
HETATM   26  O5  UNL     1      -8.785   8.985  15.244  1.00  0.00    -0.314 OA
BRANCH  26  27
HETATM   27  C22 UNL     1      -9.865   9.803  15.400  1.00  0.00     0.259 C 
HETATM   28  O6  UNL     1     -10.130  10.745  14.667  1.00  0.00    -0.265 OA
BRANCH  27  29
HETATM   29  C23 UNL     1     -10.622   9.494  16.671  1.00  0.00     0.120 C 
BRANCH  29  30
HETATM   30  C24 UNL     1     -11.900  10.303  16.863  1.00  0.00     0.112 C 
BRANCH  30  31
HETATM   31  C25 UNL     1     -12.459  10.165  18.263  1.00  0.00     0.218 C 
HETATM   32  O7  UNL     1     -13.468  10.746  18.643  1.00  0.00    -0.274 OA
HETATM   33  N1  UNL     1     -11.727   9.312  19.056  1.00  0.00    -0.361 N 
HETATM   34  H34 UNL     1     -10.869   8.909  18.701  1.00  0.00     0.162 HD
BRANCH  33  35
HETATM   35  C26 UNL     1     -12.078   9.067  20.445  1.00  0.00     0.127 C 
BRANCH  35  36
HETATM   36  C27 UNL     1     -11.190   9.848  21.417  1.00  0.00     0.060 C 
BRANCH  36  37
HETATM   37  C28 UNL     1     -11.706   9.786  22.819  1.00  0.00    -0.029 A 
HETATM   38  C29 UNL     1     -11.622  10.788  23.766  1.00  0.00     0.096 A 
HETATM   39  N2  UNL     1     -12.218  10.345  24.915  1.00  0.00    -0.365 N 
HETATM   40  C30 UNL     1     -12.697   9.068  24.742  1.00  0.00     0.042 A 
HETATM   41  H40 UNL     1     -12.302  10.877  25.769  1.00  0.00     0.165 HD
HETATM   42  C31 UNL     1     -13.377   8.231  25.634  1.00  0.00     0.030 A 
HETATM   43  C35 UNL     1     -12.384   8.686  23.437  1.00  0.00    -0.002 A 
HETATM   44  C32 UNL     1     -13.747   6.962  25.178  1.00  0.00     0.002 A 
HETATM   45  C33 UNL     1     -13.447   6.549  23.882  1.00  0.00     0.001 A 
HETATM   46  C34 UNL     1     -12.768   7.400  23.004  1.00  0.00     0.014 A 
ENDBRANCH  36  37
ENDBRANCH  35  36
ENDBRANCH  33  35
ENDBRANCH  30  31
ENDBRANCH  29  30
ENDBRANCH  27  29
ENDBRANCH  26  27
ENDBRANCH  25  26
ENDBRANCH  23  25
ENDBRANCH  20  23
BRANCH  13  47
HETATM   47  O2  UNL     1      -4.394   9.578  13.879  1.00  0.00    -0.395 OA
HETATM   48  H16 UNL     1      -4.964  10.288  14.223  1.00  0.00     0.210 HD
ENDBRANCH  13  47
TORSDOF 12
ENDMDL
MODEL 8
REMARK minimizedAffinity -7.69980001
REMARK CNNscore 0.258240253
REMARK CNNaffinity 5.75241041
REMARK  12 active torsions:
REMARK  status: ('A' for Active; 'I' for Inactive)
REMARK    1  A    between atoms: C12_13  and  O2_14 
REMARK    2  A    between atoms: C19_21  and  O3_22 
REMARK    3  A    between atoms: C19_21  and  C20_23 
REMARK    4  A    between atoms: C20_23  and  C21_25 
REMARK    5  A    between atoms: C21_25  and  O5_26 
REMARK    6  A    between atoms: O5_26  and  C22_27 
REMARK    7  A    between atoms: C22_27  and  C23_29 
REMARK    8  A    between atoms: C23_29  and  C24_30 
REMARK    9  A    between atoms: C24_30  and  C25_31 
REMARK       I    between atoms: C25_31  and  N1_33 
REMARK   10  A    between atoms: N1_33  and  C26_34 
REMARK   11  A    between atoms: C26_34  and  C27_35 
REMARK   12  A    between atoms: C27_35  and  C28_36 
ROOT
HETATM    1  C1  UNL     1       5.500  15.017  21.377  1.00  0.00     0.020 C 
HETATM    2  C2  UNL     1       5.890  13.518  21.456  1.00  0.00    -0.014 C 
HETATM    3  C3  UNL     1       5.938  13.182  22.973  1.00  0.00     0.022 C 
HETATM    4  C4  UNL     1       6.711  11.916  23.298  1.00  0.00     0.084 C 
HETATM    5  C5  UNL     1       8.113  12.024  22.758  1.00  0.00     0.149 C 
HETATM    6  O1  UNL     1       9.073  11.501  23.315  1.00  0.00    -0.293 OA
HETATM    7  C6  UNL     1       8.299  12.690  21.447  1.00  0.00     0.053 C 
HETATM    8  C7  UNL     1       7.279  13.314  20.832  1.00  0.00    -0.068 C 
HETATM    9  C8  UNL     1       7.396  13.720  19.386  1.00  0.00     0.035 C 
HETATM   10  C9  UNL     1       6.425  12.878  18.556  1.00  0.00     0.010 C 
HETATM   11  C10 UNL     1       4.979  12.902  19.098  1.00  0.00    -0.002 C 
HETATM   12  C11 UNL     1       4.931  12.576  20.635  1.00  0.00     0.031 C 
HETATM   13  C12 UNL     1       3.475  12.457  21.166  1.00  0.00     0.124 C 
HETATM   14  C13 UNL     1       2.576  11.557  20.291  1.00  0.00     0.045 C 
HETATM   15  C14 UNL     1       2.611  11.916  18.787  1.00  0.00     0.001 C 
HETATM   16  C15 UNL     1       1.930  13.291  18.535  1.00  0.00     0.019 C 
HETATM   17  C16 UNL     1       4.098  11.887  18.356  1.00  0.00     0.002 C 
HETATM   18  C17 UNL     1       4.035  11.958  16.837  1.00  0.00     0.009 C 
HETATM   19  C18 UNL     1       2.763  11.172  16.467  1.00  0.00     0.047 C 
HETATM   20  C19 UNL     1       2.023  10.852  17.801  1.00  0.00     0.128 C 
ENDROOT
BRANCH  20  21
HETATM   21  O3  UNL     1       2.447   9.532  18.165  1.00  0.00    -0.381 OA
HETATM   22  H27 UNL     1       1.869   9.222  18.886  1.00  0.00     0.211 HD
ENDBRANCH  20  21
BRANCH  20  23
HETATM   23  C20 UNL     1       0.479  10.895  17.620  1.00  0.00     0.185 C 
HETATM   24  O4  UNL     1      -0.301  10.572  18.520  1.00  0.00    -0.292 OA
BRANCH  23  25
HETATM   25  C21 UNL     1      -0.067  11.270  16.246  1.00  0.00     0.260 C 
BRANCH  25  26
HETATM   26  O5  UNL     1      -0.584  12.602  16.225  1.00  0.00    -0.314 OA
BRANCH  26  27
HETATM   27  C22 UNL     1      -1.831  12.708  15.686  1.00  0.00     0.259 C 
HETATM   28  O6  UNL     1      -2.648  13.564  15.997  1.00  0.00    -0.265 OA
BRANCH  27  29
HETATM   29  C23 UNL     1      -2.140  11.557  14.756  1.00  0.00     0.120 C 
BRANCH  29  30
HETATM   30  C24 UNL     1      -3.377  10.749  15.134  1.00  0.00     0.112 C 
BRANCH  30  31
HETATM   31  C25 UNL     1      -3.274   9.305  14.688  1.00  0.00     0.218 C 
HETATM   32  O7  UNL     1      -3.398   8.954  13.522  1.00  0.00    -0.274 OA
HETATM   33  N1  UNL     1      -3.016   8.437  15.723  1.00  0.00    -0.361 N 
HETATM   34  H34 UNL     1      -2.983   8.783  16.673  1.00  0.00     0.162 HD
BRANCH  33  35
HETATM   35  C26 UNL     1      -2.912   7.003  15.511  1.00  0.00     0.127 C 
BRANCH  35  36
HETATM   36  C27 UNL     1      -4.163   6.420  14.848  1.00  0.00     0.060 C 
BRANCH  36  37
HETATM   37  C28 UNL     1      -3.822   5.419  13.791  1.00  0.00    -0.029 A 
HETATM   38  C29 UNL     1      -2.565   5.165  13.281  1.00  0.00     0.096 A 
HETATM   39  N2  UNL     1      -2.672   4.176  12.342  1.00  0.00    -0.365 N 
HETATM   40  C30 UNL     1      -3.981   3.769  12.227  1.00  0.00     0.042 A 
HETATM   41  H40 UNL     1      -1.904   3.791  11.811  1.00  0.00     0.165 HD
HETATM   42  C31 UNL     1      -4.551   2.789  11.407  1.00  0.00     0.030 A 
HETATM   43  C35 UNL     1      -4.729   4.536  13.120  1.00  0.00    -0.002 A 
HETATM   44  C32 UNL     1      -5.931   2.588  11.503  1.00  0.00     0.002 A 
HETATM   45  C33 UNL     1      -6.708   3.339  12.381  1.00  0.00     0.001 A 
HETATM   46  C34 UNL     1      -6.119   4.314  13.194  1.00  0.00     0.014 A 
ENDBRANCH  36  37
ENDBRANCH  35  36
ENDBRANCH  33  35
ENDBRANCH  30  31
ENDBRANCH  29  30
ENDBRANCH  27  29
ENDBRANCH  26  27
ENDBRANCH  25  26
ENDBRANCH  23  25
ENDBRANCH  20  23
BRANCH  13  47
HETATM   47  O2  UNL     1       2.872  13.734  21.309  1.00  0.00    -0.395 OA
HETATM   48  H16 UNL     1       2.030  13.618  21.785  1.00  0.00     0.210 HD
ENDBRANCH  13  47
TORSDOF 12
ENDMDL
MODEL 9
REMARK minimizedAffinity -8.79897881
REMARK CNNscore 0.249514773
REMARK CNNaffinity 6.05702639
REMARK  12 active torsions:
REMARK  status: ('A' for Active; 'I' for Inactive)
REMARK    1  A    between atoms: C12_13  and  O2_14 
REMARK    2  A    between atoms: C19_21  and  O3_22 
REMARK    3  A    between atoms: C19_21  and  C20_23 
REMARK    4  A    between atoms: C20_23  and  C21_25 
REMARK    5  A    between atoms: C21_25  and  O5_26 
REMARK    6  A    between atoms: O5_26  and  C22_27 
REMARK    7  A    between atoms: C22_27  and  C23_29 
REMARK    8  A    between atoms: C23_29  and  C24_30 
REMARK    9  A    between atoms: C24_30  and  C25_31 
REMARK       I    between atoms: C25_31  and  N1_33 
REMARK   10  A    between atoms: N1_33  and  C26_34 
REMARK   11  A    between atoms: C26_34  and  C27_35 
REMARK   12  A    between atoms: C27_35  and  C28_36 
ROOT
HETATM    1  C1  UNL     1       9.552  13.818  16.960  1.00  0.00     0.020 C 
HETATM    2  C2  UNL     1      10.176  12.575  17.646  1.00  0.00    -0.014 C 
HETATM    3  C3  UNL     1       9.920  12.770  19.168  1.00  0.00     0.022 C 
HETATM    4  C4  UNL     1      10.809  11.916  20.055  1.00  0.00     0.084 C 
HETATM    5  C5  UNL     1      12.256  12.196  19.744  1.00  0.00     0.149 C 
HETATM    6  O1  UNL     1      13.134  12.143  20.600  1.00  0.00    -0.293 OA
HETATM    7  C6  UNL     1      12.626  12.428  18.328  1.00  0.00     0.053 C 
HETATM    8  C7  UNL     1      11.687  12.540  17.372  1.00  0.00    -0.068 C 
HETATM    9  C8  UNL     1      12.071  12.473  15.916  1.00  0.00     0.035 C 
HETATM   10  C9  UNL     1      11.495  11.192  15.311  1.00  0.00     0.010 C 
HETATM   11  C10 UNL     1       9.981  11.021  15.569  1.00  0.00    -0.002 C 
HETATM   12  C11 UNL     1       9.627  11.208  17.089  1.00  0.00     0.031 C 
HETATM   13  C12 UNL     1       8.133  10.902  17.387  1.00  0.00     0.124 C 
HETATM   14  C13 UNL     1       7.647   9.571  16.773  1.00  0.00     0.045 C 
HETATM   15  C14 UNL     1       7.974   9.422  15.269  1.00  0.00     0.001 C 
HETATM   16  C15 UNL     1       7.137  10.421  14.424  1.00  0.00     0.019 C 
HETATM   17  C16 UNL     1       9.501   9.633  15.122  1.00  0.00     0.002 C 
HETATM   18  C17 UNL     1       9.791   9.191  13.694  1.00  0.00     0.009 C 
HETATM   19  C18 UNL     1       8.809   8.033  13.442  1.00  0.00     0.047 C 
HETATM   20  C19 UNL     1       7.842   7.984  14.664  1.00  0.00     0.128 C 
ENDROOT
BRANCH  20  21
HETATM   21  O3  UNL     1       8.398   7.006  15.552  1.00  0.00    -0.381 OA
HETATM   22  H27 UNL     1       7.731   6.808  16.234  1.00  0.00     0.211 HD
ENDBRANCH  20  21
BRANCH  20  23
HETATM   23  C20 UNL     1       6.404   7.573  14.236  1.00  0.00     0.185 C 
HETATM   24  O4  UNL     1       5.428   7.712  14.980  1.00  0.00    -0.292 OA
BRANCH  23  25
HETATM   25  C21 UNL     1       6.230   6.898  12.880  1.00  0.00     0.260 C 
BRANCH  25  26
HETATM   26  O5  UNL     1       5.239   7.551  12.085  1.00  0.00    -0.314 OA
BRANCH  26  27
HETATM   27  C22 UNL     1       4.760   6.794  11.057  1.00  0.00     0.259 C 
HETATM   28  O6  UNL     1       5.461   6.163  10.279  1.00  0.00    -0.265 OA
BRANCH  27  29
HETATM   29  C23 UNL     1       3.263   6.939  10.904  1.00  0.00     0.120 C 
BRANCH  29  30
HETATM   30  C24 UNL     1       2.490   5.625  10.946  1.00  0.00     0.112 C 
BRANCH  30  31
HETATM   31  C25 UNL     1       0.994   5.841  10.869  1.00  0.00     0.218 C 
HETATM   32  O7  UNL     1       0.486   6.872  10.446  1.00  0.00    -0.274 OA
HETATM   33  N1  UNL     1       0.268   4.759  11.310  1.00  0.00    -0.361 N 
HETATM   34  H34 UNL     1       0.747   3.959  11.703  1.00  0.00     0.162 HD
BRANCH  33  35
HETATM   35  C26 UNL     1      -1.185   4.775  11.348  1.00  0.00     0.127 C 
BRANCH  35  36
HETATM   36  C27 UNL     1      -1.731   4.756  12.778  1.00  0.00     0.060 C 
BRANCH  36  37
HETATM   37  C28 UNL     1      -3.225   4.702  12.807  1.00  0.00    -0.029 A 
HETATM   38  C29 UNL     1      -4.069   5.690  13.275  1.00  0.00     0.096 A 
HETATM   39  N2  UNL     1      -5.359   5.263  13.119  1.00  0.00    -0.365 N 
HETATM   40  C30 UNL     1      -5.381   4.010  12.552  1.00  0.00     0.042 A 
HETATM   41  H40 UNL     1      -6.182   5.789  13.376  1.00  0.00     0.165 HD
HETATM   42  C31 UNL     1      -6.465   3.195  12.207  1.00  0.00     0.030 A 
HETATM   43  C35 UNL     1      -4.055   3.628  12.350  1.00  0.00    -0.002 A 
HETATM   44  C32 UNL     1      -6.184   1.950  11.638  1.00  0.00     0.002 A 
HETATM   45  C33 UNL     1      -4.871   1.536  11.426  1.00  0.00     0.001 A 
HETATM   46  C34 UNL     1      -3.800   2.365  11.777  1.00  0.00     0.014 A 
ENDBRANCH  36  37
ENDBRANCH  35  36
ENDBRANCH  33  35
ENDBRANCH  30  31
ENDBRANCH  29  30
ENDBRANCH  27  29
ENDBRANCH  26  27
ENDBRANCH  25  26
ENDBRANCH  23  25
ENDBRANCH  20  23
BRANCH  13  47
HETATM   47  O2  UNL     1       7.292  11.959  16.951  1.00  0.00    -0.395 OA
HETATM   48  H16 UNL     1       6.397  11.793  17.295  1.00  0.00     0.210 HD
ENDBRANCH  13  47
TORSDOF 12
ENDMDL
