MODEL 1
REMARK minimizedAffinity -10.5690928
REMARK CNNscore 0.377597332
REMARK CNNaffinity 8.29784775
REMARK  10 active torsions:
REMARK  status: ('A' for Active; 'I' for Inactive)
REMARK    1  A    between atoms: N1_2  and  C2_3 
REMARK    2  A    between atoms: C2_3  and  O1_4 
REMARK    3  A    between atoms: O1_4  and  C3_5 
REMARK    4  A    between atoms: C8_10  and  C9_11 
REMARK    5  A    between atoms: C9_11  and  C10_12 
REMARK    6  A    between atoms: C20_24  and  O2_25 
REMARK    7  A    between atoms: C26_32  and  C27_33 
REMARK    8  A    between atoms: C27_33  and  O4_34 
REMARK    9  A    between atoms: C36_44  and  O6_45 
REMARK   10  A    between atoms: C43_53  and  N3_54 
ROOT
HETATM    1  C3  UNL     1      -1.565   9.946  15.493  1.00  0.00     0.139 C 
HETATM    2  C4  UNL     1      -1.233   8.515  14.974  1.00  0.00     0.086 C 
HETATM    3  C5  UNL     1      -2.397   7.659  14.558  1.00  0.00    -0.014 C 
HETATM    4  C6  UNL     1      -2.208   6.427  13.878  1.00  0.00    -0.034 C 
HETATM    5  C7  UNL     1      -0.817   5.862  13.648  1.00  0.00     0.050 C 
HETATM    6  C8  UNL     1      -0.684   5.180  12.276  1.00  0.00     0.028 C 
HETATM    7  C18 UNL     1      -1.757   4.115  12.166  1.00  0.00    -0.040 A 
HETATM    8  C19 UNL     1      -1.458   2.903  11.518  1.00  0.00     0.044 A 
HETATM    9  C20 UNL     1      -2.401   1.890  11.468  1.00  0.00     0.066 A 
HETATM   10  C21 UNL     1      -3.641   2.058  12.064  1.00  0.00     0.037 A 
HETATM   11  C22 UNL     1      -3.943   3.266  12.706  1.00  0.00     0.015 A 
HETATM   12  C23 UNL     1      -3.029   4.335  12.753  1.00  0.00    -0.016 A 
HETATM   13  C24 UNL     1      -3.313   5.643  13.432  1.00  0.00     0.016 C 
HETATM   14  C25 UNL     1      -4.605   6.176  13.636  1.00  0.00     0.090 C 
HETATM   15  O3  UNL     1      -5.672   5.503  13.091  1.00  0.00    -0.342 OA
HETATM   16  C26 UNL     1      -6.897   6.237  12.973  1.00  0.00     0.152 C 
HETATM   17  C28 UNL     1      -7.259   6.850  14.315  1.00  0.00     0.039 C 
HETATM   18  C29 UNL     1      -6.185   7.861  14.685  1.00  0.00     0.047 C 
HETATM   19  C30 UNL     1      -4.798   7.344  14.394  1.00  0.00     0.010 C 
HETATM   20  C31 UNL     1      -3.688   8.063  14.862  1.00  0.00     0.086 C 
HETATM   21  O5  UNL     1      -3.966   9.177  15.590  1.00  0.00    -0.337 OA
HETATM   22  C32 UNL     1      -2.896   9.800  16.330  1.00  0.00     0.200 C 
HETATM   23  C33 UNL     1      -3.515  11.116  16.805  1.00  0.00    -0.023 C 
HETATM   24  C34 UNL     1      -3.292  11.575  18.110  1.00  0.00     0.049 C 
HETATM   25  C35 UNL     1      -3.643  12.882  18.443  1.00  0.00     0.102 C 
HETATM   26  C36 UNL     1      -4.417  13.648  17.569  1.00  0.00     0.099 C 
HETATM   27  C37 UNL     1      -4.748  13.172  16.314  1.00  0.00     0.040 C 
HETATM   28  C38 UNL     1      -4.262  11.926  15.922  1.00  0.00     0.013 C 
HETATM   29  O7  UNL     1      -3.189  13.518  19.571  1.00  0.00    -0.347 OA
HETATM   30  C39 UNL     1      -1.761  13.397  19.780  1.00  0.00     0.188 C 
HETATM   31  C40 UNL     1      -0.870  13.860  18.602  1.00  0.00     0.120 C 
HETATM   32  C41 UNL     1      -0.576  12.744  17.680  1.00  0.00    -0.102 C 
HETATM   33  C42 UNL     1      -0.450  11.743  17.021  1.00  0.00    -0.068 C 
HETATM   34  C43 UNL     1      -0.319  10.405  16.403  1.00  0.00     0.336 C 
ENDROOT
BRANCH   6  35
HETATM   35  C9  UNL     1      -0.735   6.209  11.125  1.00  0.00     0.048 C 
BRANCH  35  36
HETATM   36  C10 UNL     1       0.628   6.731  10.727  1.00  0.00    -0.057 A 
HETATM   37  C11 UNL     1       1.741   6.390  11.415  1.00  0.00     0.020 A 
HETATM   38  C12 UNL     1       2.995   6.909  10.989  1.00  0.00    -0.011 A 
HETATM   39  C13 UNL     1       4.250   6.769  11.405  1.00  0.00     0.006 A 
HETATM   40  C15 UNL     1       3.124   7.829   9.850  1.00  0.00     0.038 A 
HETATM   41  C14 UNL     1       5.174   7.583  10.563  1.00  0.00     0.148 A 
HETATM   42  N2  UNL     1       4.315   8.261   9.560  1.00  0.00    -0.386 N 
ATOM     43  H2  UNL     1       4.592   8.909   8.822  1.00  0.00     0.160 HD
HETATM   44  C16 UNL     1       1.870   8.175   9.152  1.00  0.00     0.030 A 
HETATM   45  C17 UNL     1       0.715   7.638   9.582  1.00  0.00     0.009 A 
ENDBRANCH  35  36
ENDBRANCH   6  35
BRANCH   9  46
HETATM   46  O2  UNL     1      -2.065   0.728  10.840  1.00  0.00    -0.361 OA
HETATM   47  H21 UNL     1      -2.830   0.132  10.867  1.00  0.00     0.217 HD
ENDBRANCH   9  46
BRANCH   1  48
HETATM   48  O1  UNL     1      -1.894  10.793  14.367  1.00  0.00    -0.345 OA
BRANCH  48  49
HETATM   49  C2  UNL     1      -2.037  12.187  14.530  1.00  0.00     0.438 C 
BRANCH  49  50
HETATM   50  N1  UNL     1      -0.934  12.846  13.867  1.00  0.00     0.102 N 
HETATM   51  C1  UNL     1      -1.067  14.294  13.916  1.00  0.00     0.309 C 
HETATM   52  H4  UNL     1      -0.079  12.557  14.336  1.00  0.00     0.318 HD
ENDBRANCH  49  50
ENDBRANCH  48  49
ENDBRANCH   1  48
BRANCH  34  53
HETATM   53  N3  UNL     1       1.017  10.263  15.762  1.00  0.00     0.098 N 
HETATM   54  C44 UNL     1       0.980  10.362  14.309  1.00  0.00     0.308 C 
HETATM   55  H42 UNL     1       1.654  10.970  16.113  1.00  0.00     0.317 HD
ENDBRANCH  34  53
BRANCH  16  56
HETATM   56  C27 UNL     1      -7.990   5.262  12.515  1.00  0.00     0.196 C 
BRANCH  56  57
HETATM   57  O4  UNL     1      -8.677   4.679  13.625  1.00  0.00    -0.398 OA
HETATM   58  H27 UNL     1      -8.020   4.234  14.181  1.00  0.00     0.209 HD
ENDBRANCH  56  57
ENDBRANCH  16  56
BRANCH  26  59
HETATM   59  O6  UNL     1      -4.812  14.912  17.907  1.00  0.00    -0.358 OA
HETATM   60  H34 UNL     1      -4.503  15.032  18.828  1.00  0.00     0.217 HD
ENDBRANCH  26  59
TORSDOF 10
ENDMDL
MODEL 2
REMARK minimizedAffinity -8.46281052
REMARK CNNscore 0.344034165
REMARK CNNaffinity 7.9972806
REMARK  10 active torsions:
REMARK  status: ('A' for Active; 'I' for Inactive)
REMARK    1  A    between atoms: N1_2  and  C2_3 
REMARK    2  A    between atoms: C2_3  and  O1_4 
REMARK    3  A    between atoms: O1_4  and  C3_5 
REMARK    4  A    between atoms: C8_10  and  C9_11 
REMARK    5  A    between atoms: C9_11  and  C10_12 
REMARK    6  A    between atoms: C20_24  and  O2_25 
REMARK    7  A    between atoms: C26_32  and  C27_33 
REMARK    8  A    between atoms: C27_33  and  O4_34 
REMARK    9  A    between atoms: C36_44  and  O6_45 
REMARK   10  A    between atoms: C43_53  and  N3_54 
ROOT
HETATM    1  C3  UNL     1     -10.147   8.480  15.407  1.00  0.00     0.139 C 
HETATM    2  C4  UNL     1      -8.668   8.375  15.888  1.00  0.00     0.086 C 
HETATM    3  C5  UNL     1      -7.793   7.384  15.173  1.00  0.00    -0.014 C 
HETATM    4  C6  UNL     1      -6.389   7.348  15.378  1.00  0.00    -0.034 C 
HETATM    5  C7  UNL     1      -5.725   8.233  16.420  1.00  0.00     0.050 C 
HETATM    6  C8  UNL     1      -4.362   8.767  15.948  1.00  0.00     0.028 C 
HETATM    7  C18 UNL     1      -3.493   7.586  15.565  1.00  0.00    -0.040 A 
HETATM    8  C19 UNL     1      -2.117   7.622  15.857  1.00  0.00     0.044 A 
HETATM    9  C20 UNL     1      -1.318   6.525  15.579  1.00  0.00     0.066 A 
HETATM   10  C21 UNL     1      -1.867   5.382  15.021  1.00  0.00     0.037 A 
HETATM   11  C22 UNL     1      -3.236   5.346  14.725  1.00  0.00     0.015 A 
HETATM   12  C23 UNL     1      -4.081   6.447  14.958  1.00  0.00    -0.016 A 
HETATM   13  C24 UNL     1      -5.551   6.447  14.657  1.00  0.00     0.016 C 
HETATM   14  C25 UNL     1      -6.169   5.634  13.681  1.00  0.00     0.090 C 
HETATM   15  O3  UNL     1      -5.361   4.862  12.882  1.00  0.00    -0.342 OA
HETATM   16  C26 UNL     1      -5.949   4.358  11.676  1.00  0.00     0.152 C 
HETATM   17  C28 UNL     1      -7.250   3.644  12.000  1.00  0.00     0.039 C 
HETATM   18  C29 UNL     1      -8.228   4.663  12.563  1.00  0.00     0.047 C 
HETATM   19  C30 UNL     1      -7.568   5.598  13.546  1.00  0.00     0.010 C 
HETATM   20  C31 UNL     1      -8.365   6.462  14.309  1.00  0.00     0.086 C 
HETATM   21  O5  UNL     1      -9.707   6.356  14.119  1.00  0.00    -0.337 OA
HETATM   22  C32 UNL     1     -10.589   7.004  15.058  1.00  0.00     0.200 C 
HETATM   23  C33 UNL     1     -11.964   6.875  14.399  1.00  0.00    -0.023 C 
HETATM   24  C34 UNL     1     -13.088   6.537  15.163  1.00  0.00     0.049 C 
HETATM   25  C35 UNL     1     -14.358   6.674  14.606  1.00  0.00     0.102 C 
HETATM   26  C36 UNL     1     -14.506   6.916  13.239  1.00  0.00     0.099 C 
HETATM   27  C37 UNL     1     -13.403   7.141  12.437  1.00  0.00     0.040 C 
HETATM   28  C38 UNL     1     -12.140   7.160  13.027  1.00  0.00     0.013 C 
HETATM   29  O7  UNL     1     -15.510   6.675  15.352  1.00  0.00    -0.347 OA
HETATM   30  C39 UNL     1     -15.460   7.543  16.510  1.00  0.00     0.188 C 
HETATM   31  C40 UNL     1     -15.098   9.020  16.224  1.00  0.00     0.120 C 
HETATM   32  C41 UNL     1     -13.640   9.242  16.308  1.00  0.00    -0.102 C 
HETATM   33  C42 UNL     1     -12.438   9.250  16.391  1.00  0.00    -0.068 C 
HETATM   34  C43 UNL     1     -10.987   9.094  16.636  1.00  0.00     0.336 C 
ENDROOT
BRANCH   6  35
HETATM   35  C9  UNL     1      -4.522   9.795  14.806  1.00  0.00     0.048 C 
BRANCH  35  36
HETATM   36  C10 UNL     1      -3.667  11.029  14.986  1.00  0.00    -0.057 A 
HETATM   37  C11 UNL     1      -4.150  12.139  15.588  1.00  0.00     0.020 A 
HETATM   38  C12 UNL     1      -3.296  13.267  15.733  1.00  0.00    -0.011 A 
HETATM   39  C13 UNL     1      -3.431  14.473  16.276  1.00  0.00     0.006 A 
HETATM   40  C15 UNL     1      -1.918  13.285  15.223  1.00  0.00     0.038 A 
HETATM   41  C14 UNL     1      -2.174  15.261  16.118  1.00  0.00     0.148 A 
HETATM   42  N2  UNL     1      -1.231  14.376  15.390  1.00  0.00    -0.386 N 
ATOM     43  H2  UNL     1      -0.276  14.575  15.092  1.00  0.00     0.160 HD
HETATM   44  C16 UNL     1      -1.456  12.049  14.562  1.00  0.00     0.030 A 
HETATM   45  C17 UNL     1      -2.297  11.004  14.472  1.00  0.00     0.009 A 
ENDBRANCH  35  36
ENDBRANCH   6  35
BRANCH   9  46
HETATM   46  O2  UNL     1       0.007   6.599  15.889  1.00  0.00    -0.361 OA
HETATM   47  H21 UNL     1       0.433   5.772  15.616  1.00  0.00     0.217 HD
ENDBRANCH   9  46
BRANCH   1  48
HETATM   48  O1  UNL     1     -10.188   9.214  14.161  1.00  0.00    -0.345 OA
BRANCH  48  49
HETATM   49  C2  UNL     1     -10.867  10.448  14.073  1.00  0.00     0.438 C 
BRANCH  49  50
HETATM   50  N1  UNL     1     -11.815  10.378  12.983  1.00  0.00     0.102 N 
HETATM   51  C1  UNL     1     -13.061  11.051  13.313  1.00  0.00     0.309 C 
HETATM   52  H4  UNL     1     -11.383  10.818  12.175  1.00  0.00     0.318 HD
ENDBRANCH  49  50
ENDBRANCH  48  49
ENDBRANCH   1  48
BRANCH  34  53
HETATM   53  N3  UNL     1     -10.427  10.342  17.222  1.00  0.00     0.098 N 
HETATM   54  C44 UNL     1     -11.095  10.763  18.446  1.00  0.00     0.308 C 
HETATM   55  H42 UNL     1      -9.439  10.226  17.422  1.00  0.00     0.317 HD
ENDBRANCH  34  53
BRANCH  16  56
HETATM   56  C27 UNL     1      -4.949   3.388  11.031  1.00  0.00     0.196 C 
BRANCH  56  57
HETATM   57  O4  UNL     1      -5.587   2.517  10.095  1.00  0.00    -0.398 OA
HETATM   58  H27 UNL     1      -6.289   2.038  10.564  1.00  0.00     0.209 HD
ENDBRANCH  56  57
ENDBRANCH  16  56
BRANCH  26  59
HETATM   59  O6  UNL     1     -15.746   6.998  12.671  1.00  0.00    -0.358 OA
HETATM   60  H34 UNL     1     -16.367   6.781  13.396  1.00  0.00     0.217 HD
ENDBRANCH  26  59
TORSDOF 10
ENDMDL
MODEL 3
REMARK minimizedAffinity -10.4325342
REMARK CNNscore 0.316059798
REMARK CNNaffinity 7.77274084
REMARK  10 active torsions:
REMARK  status: ('A' for Active; 'I' for Inactive)
REMARK    1  A    between atoms: N1_2  and  C2_3 
REMARK    2  A    between atoms: C2_3  and  O1_4 
REMARK    3  A    between atoms: O1_4  and  C3_5 
REMARK    4  A    between atoms: C8_10  and  C9_11 
REMARK    5  A    between atoms: C9_11  and  C10_12 
REMARK    6  A    between atoms: C20_24  and  O2_25 
REMARK    7  A    between atoms: C26_32  and  C27_33 
REMARK    8  A    between atoms: C27_33  and  O4_34 
REMARK    9  A    between atoms: C36_44  and  O6_45 
REMARK   10  A    between atoms: C43_53  and  N3_54 
ROOT
HETATM    1  C3  UNL     1      -0.952   8.157  15.560  1.00  0.00     0.139 C 
HETATM    2  C4  UNL     1      -1.424   6.778  15.008  1.00  0.00     0.086 C 
HETATM    3  C5  UNL     1      -2.901   6.611  14.781  1.00  0.00    -0.014 C 
HETATM    4  C6  UNL     1      -3.423   5.486  14.091  1.00  0.00    -0.034 C 
HETATM    5  C7  UNL     1      -2.522   4.343  13.656  1.00  0.00     0.050 C 
HETATM    6  C8  UNL     1      -2.923   3.772  12.285  1.00  0.00     0.028 C 
HETATM    7  C18 UNL     1      -4.380   3.357  12.349  1.00  0.00    -0.040 A 
HETATM    8  C19 UNL     1      -4.793   2.195  11.673  1.00  0.00     0.044 A 
HETATM    9  C20 UNL     1      -6.104   1.760  11.775  1.00  0.00     0.066 A 
HETATM   10  C21 UNL     1      -7.015   2.459  12.551  1.00  0.00     0.037 A 
HETATM   11  C22 UNL     1      -6.607   3.619  13.221  1.00  0.00     0.015 A 
HETATM   12  C23 UNL     1      -5.295   4.118  13.121  1.00  0.00    -0.016 A 
HETATM   13  C24 UNL     1      -4.818   5.355  13.824  1.00  0.00     0.016 C 
HETATM   14  C25 UNL     1      -5.652   6.424  14.218  1.00  0.00     0.090 C 
HETATM   15  O3  UNL     1      -6.974   6.379  13.847  1.00  0.00    -0.342 OA
HETATM   16  C26 UNL     1      -7.699   7.614  13.911  1.00  0.00     0.152 C 
HETATM   17  C28 UNL     1      -7.533   8.235  15.288  1.00  0.00     0.039 C 
HETATM   18  C29 UNL     1      -6.066   8.585  15.481  1.00  0.00     0.047 C 
HETATM   19  C30 UNL     1      -5.153   7.490  14.987  1.00  0.00     0.010 C 
HETATM   20  C31 UNL     1      -3.783   7.560  15.275  1.00  0.00     0.086 C 
HETATM   21  O5  UNL     1      -3.387   8.621  16.028  1.00  0.00    -0.337 OA
HETATM   22  C32 UNL     1      -2.059   8.608  16.592  1.00  0.00     0.200 C 
HETATM   23  C33 UNL     1      -1.897  10.025  17.144  1.00  0.00    -0.023 C 
HETATM   24  C34 UNL     1      -1.304  10.235  18.396  1.00  0.00     0.049 C 
HETATM   25  C35 UNL     1      -0.933  11.526  18.768  1.00  0.00     0.102 C 
HETATM   26  C36 UNL     1      -1.354  12.624  18.015  1.00  0.00     0.099 C 
HETATM   27  C37 UNL     1      -2.042  12.448  16.830  1.00  0.00     0.040 C 
HETATM   28  C38 UNL     1      -2.275  11.150  16.379  1.00  0.00     0.013 C 
HETATM   29  O7  UNL     1      -0.079  11.792  19.809  1.00  0.00    -0.347 OA
HETATM   30  C39 UNL     1       1.128  10.991  19.799  1.00  0.00     0.188 C 
HETATM   31  C40 UNL     1       1.960  11.051  18.496  1.00  0.00     0.120 C 
HETATM   32  C41 UNL     1       1.552   9.994  17.548  1.00  0.00    -0.102 C 
HETATM   33  C42 UNL     1       1.088   9.100  16.886  1.00  0.00    -0.068 C 
HETATM   34  C43 UNL     1       0.473   7.905  16.266  1.00  0.00     0.336 C 
ENDROOT
BRANCH   6  35
HETATM   35  C9  UNL     1      -2.630   4.775  11.147  1.00  0.00     0.048 C 
BRANCH  35  36
HETATM   36  C10 UNL     1      -1.168   5.145  11.036  1.00  0.00    -0.057 A 
HETATM   37  C11 UNL     1      -0.781   6.343  10.544  1.00  0.00     0.020 A 
HETATM   38  C12 UNL     1       0.610   6.636  10.469  1.00  0.00    -0.011 A 
HETATM   39  C13 UNL     1       1.319   7.688  10.073  1.00  0.00     0.006 A 
HETATM   40  C15 UNL     1       1.643   5.672  10.874  1.00  0.00     0.038 A 
HETATM   41  C14 UNL     1       2.780   7.415  10.209  1.00  0.00     0.148 A 
HETATM   42  N2  UNL     1       2.885   6.034  10.743  1.00  0.00    -0.386 N 
ATOM     43  H2  UNL     1       3.727   5.499  10.955  1.00  0.00     0.160 HD
HETATM   44  C16 UNL     1       1.155   4.377  11.387  1.00  0.00     0.030 A 
HETATM   45  C17 UNL     1      -0.170   4.161  11.458  1.00  0.00     0.009 A 
ENDBRANCH  35  36
ENDBRANCH   6  35
BRANCH   9  46
HETATM   46  O2  UNL     1      -6.458   0.623  11.113  1.00  0.00    -0.361 OA
HETATM   47  H21 UNL     1      -7.403   0.463  11.260  1.00  0.00     0.217 HD
ENDBRANCH   9  46
BRANCH   1  48
HETATM   48  O1  UNL     1      -0.983   9.130  14.490  1.00  0.00    -0.345 OA
BRANCH  48  49
HETATM   49  C2  UNL     1      -0.338   8.874  13.262  1.00  0.00     0.438 C 
BRANCH  49  50
HETATM   50  N1  UNL     1      -1.120   9.460  12.197  1.00  0.00     0.102 N 
HETATM   51  C1  UNL     1      -2.481   8.949  12.187  1.00  0.00     0.309 C 
HETATM   52  H4  UNL     1      -1.125  10.467  12.341  1.00  0.00     0.318 HD
ENDBRANCH  49  50
ENDBRANCH  48  49
ENDBRANCH   1  48
BRANCH  34  53
HETATM   53  N3  UNL     1       1.474   7.187  15.430  1.00  0.00     0.098 N 
HETATM   54  C44 UNL     1       2.828   7.705  15.568  1.00  0.00     0.308 C 
HETATM   55  H42 UNL     1       1.485   6.200  15.664  1.00  0.00     0.317 HD
ENDBRANCH  34  53
BRANCH  16  56
HETATM   56  C27 UNL     1      -9.177   7.311  13.632  1.00  0.00     0.196 C 
BRANCH  56  57
HETATM   57  O4  UNL     1      -9.660   6.241  14.449  1.00  0.00    -0.398 OA
HETATM   58  H27 UNL     1      -9.104   5.464  14.281  1.00  0.00     0.209 HD
ENDBRANCH  56  57
ENDBRANCH  16  56
BRANCH  26  59
HETATM   59  O6  UNL     1      -1.042  13.898  18.400  1.00  0.00    -0.358 OA
HETATM   60  H34 UNL     1      -0.590  13.795  19.262  1.00  0.00     0.217 HD
ENDBRANCH  26  59
TORSDOF 10
ENDMDL
MODEL 4
REMARK minimizedAffinity -8.73822689
REMARK CNNscore 0.25823912
REMARK CNNaffinity 6.84765005
REMARK  10 active torsions:
REMARK  status: ('A' for Active; 'I' for Inactive)
REMARK    1  A    between atoms: N1_2  and  C2_3 
REMARK    2  A    between atoms: C2_3  and  O1_4 
REMARK    3  A    between atoms: O1_4  and  C3_5 
REMARK    4  A    between atoms: C8_10  and  C9_11 
REMARK    5  A    between atoms: C9_11  and  C10_12 
REMARK    6  A    between atoms: C20_24  and  O2_25 
REMARK    7  A    between atoms: C26_32  and  C27_33 
REMARK    8  A    between atoms: C27_33  and  O4_34 
REMARK    9  A    between atoms: C36_44  and  O6_45 
REMARK   10  A    between atoms: C43_53  and  N3_54 
ROOT
HETATM    1  C3  UNL     1      -1.858   9.337  15.985  1.00  0.00     0.139 C 
HETATM    2  C4  UNL     1      -0.806  10.453  16.263  1.00  0.00     0.086 C 
HETATM    3  C5  UNL     1      -1.285  11.874  16.161  1.00  0.00    -0.014 C 
HETATM    4  C6  UNL     1      -0.481  12.962  16.593  1.00  0.00    -0.034 C 
HETATM    5  C7  UNL     1       0.946  12.744  17.066  1.00  0.00     0.050 C 
HETATM    6  C8  UNL     1       1.314  13.656  18.249  1.00  0.00     0.028 C 
HETATM    7  C18 UNL     1       1.062  15.094  17.840  1.00  0.00    -0.040 A 
HETATM    8  C19 UNL     1       1.946  16.098  18.275  1.00  0.00     0.044 A 
HETATM    9  C20 UNL     1       1.774  17.406  17.856  1.00  0.00     0.066 A 
HETATM   10  C21 UNL     1       0.737  17.736  16.997  1.00  0.00     0.037 A 
HETATM   11  C22 UNL     1      -0.147  16.739  16.566  1.00  0.00     0.015 A 
HETATM   12  C23 UNL     1      -0.032  15.402  16.991  1.00  0.00    -0.016 A 
HETATM   13  C24 UNL     1      -0.957  14.306  16.551  1.00  0.00     0.016 C 
HETATM   14  C25 UNL     1      -2.288  14.504  16.122  1.00  0.00     0.090 C 
HETATM   15  O3  UNL     1      -2.808  15.773  16.206  1.00  0.00    -0.342 OA
HETATM   16  C26 UNL     1      -4.236  15.884  16.141  1.00  0.00     0.152 C 
HETATM   17  C28 UNL     1      -4.750  15.157  14.910  1.00  0.00     0.039 C 
HETATM   18  C29 UNL     1      -4.440  13.676  15.063  1.00  0.00     0.047 C 
HETATM   19  C30 UNL     1      -3.050  13.443  15.603  1.00  0.00     0.010 C 
HETATM   20  C31 UNL     1      -2.530  12.141  15.612  1.00  0.00     0.086 C 
HETATM   21  O5  UNL     1      -3.331  11.177  15.086  1.00  0.00    -0.337 OA
HETATM   22  C32 UNL     1      -2.760   9.882  14.809  1.00  0.00     0.200 C 
HETATM   23  C33 UNL     1      -3.979   9.022  14.471  1.00  0.00    -0.023 C 
HETATM   24  C34 UNL     1      -3.937   8.119  13.402  1.00  0.00     0.049 C 
HETATM   25  C35 UNL     1      -4.950   7.172  13.268  1.00  0.00     0.102 C 
HETATM   26  C36 UNL     1      -6.109   7.265  14.041  1.00  0.00     0.099 C 
HETATM   27  C37 UNL     1      -6.224   8.222  15.031  1.00  0.00     0.040 C 
HETATM   28  C38 UNL     1      -5.143   9.070  15.270  1.00  0.00     0.013 C 
HETATM   29  O7  UNL     1      -4.842   6.065  12.463  1.00  0.00    -0.347 OA
HETATM   30  C39 UNL     1      -3.601   5.337  12.626  1.00  0.00     0.188 C 
HETATM   31  C40 UNL     1      -3.273   4.888  14.070  1.00  0.00     0.120 C 
HETATM   32  C41 UNL     1      -2.477   5.907  14.783  1.00  0.00    -0.102 C 
HETATM   33  C42 UNL     1      -1.857   6.841  15.226  1.00  0.00    -0.068 C 
HETATM   34  C43 UNL     1      -1.031   8.022  15.562  1.00  0.00     0.336 C 
ENDROOT
BRANCH   6  35
HETATM   35  C9  UNL     1       0.556  13.252  19.532  1.00  0.00     0.048 C 
BRANCH  35  36
HETATM   36  C10 UNL     1       1.402  12.462  20.505  1.00  0.00    -0.057 A 
HETATM   37  C11 UNL     1       1.323  11.113  20.573  1.00  0.00     0.020 A 
HETATM   38  C12 UNL     1       2.148  10.425  21.504  1.00  0.00    -0.011 A 
HETATM   39  C13 UNL     1       2.337   9.145  21.812  1.00  0.00     0.006 A 
HETATM   40  C15 UNL     1       3.060  11.125  22.420  1.00  0.00     0.038 A 
HETATM   41  C14 UNL     1       3.342   9.014  22.907  1.00  0.00     0.148 A 
HETATM   42  N2  UNL     1       3.753  10.399  23.247  1.00  0.00    -0.386 N 
ATOM     43  H2  UNL     1       4.417  10.707  23.957  1.00  0.00     0.160 HD
HETATM   44  C16 UNL     1       3.088  12.596  22.307  1.00  0.00     0.030 A 
HETATM   45  C17 UNL     1       2.304  13.195  21.394  1.00  0.00     0.009 A 
ENDBRANCH  35  36
ENDBRANCH   6  35
BRANCH   9  46
HETATM   46  O2  UNL     1       2.660  18.344  18.294  1.00  0.00    -0.361 OA
HETATM   47  H21 UNL     1       2.396  19.206  17.937  1.00  0.00     0.217 HD
ENDBRANCH   9  46
BRANCH   1  48
HETATM   48  O1  UNL     1      -2.731   9.214  17.133  1.00  0.00    -0.345 OA
BRANCH  48  49
HETATM   49  C2  UNL     1      -2.449   9.905  18.331  1.00  0.00     0.438 C 
BRANCH  49  50
HETATM   50  N1  UNL     1      -3.691  10.390  18.889  1.00  0.00     0.102 N 
HETATM   51  C1  UNL     1      -3.682  11.836  19.044  1.00  0.00     0.309 C 
HETATM   52  H4  UNL     1      -4.439  10.110  18.258  1.00  0.00     0.318 HD
ENDBRANCH  49  50
ENDBRANCH  48  49
ENDBRANCH   1  48
BRANCH  34  53
HETATM   53  N3  UNL     1       0.063   7.636  16.495  1.00  0.00     0.098 N 
HETATM   54  C44 UNL     1       1.380   7.615  15.873  1.00  0.00     0.308 C 
HETATM   55  H42 UNL     1       0.094   8.272  17.285  1.00  0.00     0.317 HD
ENDBRANCH  34  53
BRANCH  16  56
HETATM   56  C27 UNL     1      -4.592  17.375  16.072  1.00  0.00     0.196 C 
BRANCH  56  57
HETATM   57  O4  UNL     1      -4.700  17.831  14.722  1.00  0.00    -0.398 OA
HETATM   58  H27 UNL     1      -3.857  17.651  14.278  1.00  0.00     0.209 HD
ENDBRANCH  56  57
ENDBRANCH  16  56
BRANCH  26  59
HETATM   59  O6  UNL     1      -7.132   6.373  13.881  1.00  0.00    -0.358 OA
HETATM   60  H34 UNL     1      -6.861   5.815  13.124  1.00  0.00     0.217 HD
ENDBRANCH  26  59
TORSDOF 10
ENDMDL
MODEL 5
REMARK minimizedAffinity -10.2473478
REMARK CNNscore 0.169940621
REMARK CNNaffinity 7.11443186
REMARK  10 active torsions:
REMARK  status: ('A' for Active; 'I' for Inactive)
REMARK    1  A    between atoms: N1_2  and  C2_3 
REMARK    2  A    between atoms: C2_3  and  O1_4 
REMARK    3  A    between atoms: O1_4  and  C3_5 
REMARK    4  A    between atoms: C8_10  and  C9_11 
REMARK    5  A    between atoms: C9_11  and  C10_12 
REMARK    6  A    between atoms: C20_24  and  O2_25 
REMARK    7  A    between atoms: C26_32  and  C27_33 
REMARK    8  A    between atoms: C27_33  and  O4_34 
REMARK    9  A    between atoms: C36_44  and  O6_45 
REMARK   10  A    between atoms: C43_53  and  N3_54 
ROOT
HETATM    1  C3  UNL     1       1.452   9.485  13.907  1.00  0.00     0.139 C 
HETATM    2  C4  UNL     1       0.727  10.602  14.717  1.00  0.00     0.086 C 
HETATM    3  C5  UNL     1      -0.770  10.504  14.812  1.00  0.00    -0.014 C 
HETATM    4  C6  UNL     1      -1.515  11.336  15.689  1.00  0.00    -0.034 C 
HETATM    5  C7  UNL     1      -0.841  12.444  16.482  1.00  0.00     0.050 C 
HETATM    6  C8  UNL     1      -1.428  12.589  17.896  1.00  0.00     0.028 C 
HETATM    7  C18 UNL     1      -2.924  12.804  17.772  1.00  0.00    -0.040 A 
HETATM    8  C19 UNL     1      -3.566  13.690  18.656  1.00  0.00     0.044 A 
HETATM    9  C20 UNL     1      -4.918  13.954  18.516  1.00  0.00     0.066 A 
HETATM   10  C21 UNL     1      -5.647  13.357  17.500  1.00  0.00     0.037 A 
HETATM   11  C22 UNL     1      -5.011  12.471  16.621  1.00  0.00     0.015 A 
HETATM   12  C23 UNL     1      -3.647  12.146  16.744  1.00  0.00    -0.016 A 
HETATM   13  C24 UNL     1      -2.928  11.204  15.823  1.00  0.00     0.016 C 
HETATM   14  C25 UNL     1      -3.550  10.166  15.095  1.00  0.00     0.090 C 
HETATM   15  O3  UNL     1      -4.886   9.935  15.317  1.00  0.00    -0.342 OA
HETATM   16  C26 UNL     1      -5.398   8.670  14.881  1.00  0.00     0.152 C 
HETATM   17  C28 UNL     1      -5.034   8.446  13.422  1.00  0.00     0.039 C 
HETATM   18  C29 UNL     1      -3.520   8.359  13.315  1.00  0.00     0.047 C 
HETATM   19  C30 UNL     1      -2.832   9.407  14.154  1.00  0.00     0.010 C 
HETATM   20  C31 UNL     1      -1.451   9.600  14.012  1.00  0.00     0.086 C 
HETATM   21  O5  UNL     1      -0.837   8.828  13.075  1.00  0.00    -0.337 OA
HETATM   22  C32 UNL     1       0.509   9.163  12.682  1.00  0.00     0.200 C 
HETATM   23  C33 UNL     1       0.936   7.968  11.828  1.00  0.00    -0.023 C 
HETATM   24  C34 UNL     1       1.646   8.164  10.636  1.00  0.00     0.049 C 
HETATM   25  C35 UNL     1       2.243   7.072  10.010  1.00  0.00     0.102 C 
HETATM   26  C36 UNL     1       1.949   5.772  10.427  1.00  0.00     0.099 C 
HETATM   27  C37 UNL     1       1.156   5.547  11.536  1.00  0.00     0.040 C 
HETATM   28  C38 UNL     1       0.687   6.646  12.256  1.00  0.00     0.013 C 
HETATM   29  O7  UNL     1       3.203   7.197   9.037  1.00  0.00    -0.347 OA
HETATM   30  C39 UNL     1       4.263   8.125   9.371  1.00  0.00     0.188 C 
HETATM   31  C40 UNL     1       4.996   7.852  10.707  1.00  0.00     0.120 C 
HETATM   32  C41 UNL     1       4.356   8.570  11.828  1.00  0.00    -0.102 C 
HETATM   33  C42 UNL     1       3.708   9.195  12.629  1.00  0.00    -0.068 C 
HETATM   34  C43 UNL     1       2.867  10.099  13.444  1.00  0.00     0.336 C 
ENDROOT
BRANCH   6  35
HETATM   35  C9  UNL     1      -1.064  11.381  18.787  1.00  0.00     0.048 C 
BRANCH  35  36
HETATM   36  C10 UNL     1       0.123  11.637  19.687  1.00  0.00    -0.057 A 
HETATM   37  C11 UNL     1       0.803  10.619  20.262  1.00  0.00     0.020 A 
HETATM   38  C12 UNL     1       1.915  10.923  21.096  1.00  0.00    -0.011 A 
HETATM   39  C13 UNL     1       2.792  10.195  21.779  1.00  0.00     0.006 A 
HETATM   40  C15 UNL     1       2.333  12.302  21.384  1.00  0.00     0.038 A 
HETATM   41  C14 UNL     1       3.755  11.077  22.502  1.00  0.00     0.148 A 
HETATM   42  N2  UNL     1       3.350  12.468  22.177  1.00  0.00    -0.386 N 
ATOM     43  H2  UNL     1       3.768  13.341  22.499  1.00  0.00     0.160 HD
HETATM   44  C16 UNL     1       1.540  13.367  20.739  1.00  0.00     0.030 A 
HETATM   45  C17 UNL     1       0.513  13.024  19.943  1.00  0.00     0.009 A 
ENDBRANCH  35  36
ENDBRANCH   6  35
BRANCH   9  46
HETATM   46  O2  UNL     1      -5.497  14.828  19.388  1.00  0.00    -0.361 OA
HETATM   47  H21 UNL     1      -6.442  14.889  19.178  1.00  0.00     0.217 HD
ENDBRANCH   9  46
BRANCH   1  48
HETATM   48  O1  UNL     1       1.497   8.278  14.703  1.00  0.00    -0.345 OA
BRANCH  48  49
HETATM   49  C2  UNL     1       1.170   8.306  16.076  1.00  0.00     0.438 C 
BRANCH  49  50
HETATM   50  N1  UNL     1       0.612   7.025  16.445  1.00  0.00     0.102 N 
HETATM   51  C1  UNL     1      -0.642   6.767  15.756  1.00  0.00     0.309 C 
HETATM   52  H4  UNL     1       1.297   6.312  16.203  1.00  0.00     0.318 HD
ENDBRANCH  49  50
ENDBRANCH  48  49
ENDBRANCH   1  48
BRANCH  34  53
HETATM   53  N3  UNL     1       3.676  10.712  14.533  1.00  0.00     0.098 N 
HETATM   54  C44 UNL     1       4.567   9.771  15.198  1.00  0.00     0.308 C 
HETATM   55  H42 UNL     1       4.234  11.477  14.170  1.00  0.00     0.317 HD
ENDBRANCH  34  53
BRANCH  16  56
HETATM   56  C27 UNL     1      -6.922   8.688  15.058  1.00  0.00     0.196 C 
BRANCH  56  57
HETATM   57  O4  UNL     1      -7.518   7.457  14.642  1.00  0.00    -0.398 OA
HETATM   58  H27 UNL     1      -7.273   7.306  13.715  1.00  0.00     0.209 HD
ENDBRANCH  56  57
ENDBRANCH  16  56
BRANCH  26  59
HETATM   59  O6  UNL     1       2.487   4.692   9.786  1.00  0.00    -0.358 OA
HETATM   60  H34 UNL     1       2.979   5.070   9.029  1.00  0.00     0.217 HD
ENDBRANCH  26  59
TORSDOF 10
ENDMDL
MODEL 6
REMARK minimizedAffinity -7.11217499
REMARK CNNscore 0.132962927
REMARK CNNaffinity 5.86581755
REMARK  10 active torsions:
REMARK  status: ('A' for Active; 'I' for Inactive)
REMARK    1  A    between atoms: N1_2  and  C2_3 
REMARK    2  A    between atoms: C2_3  and  O1_4 
REMARK    3  A    between atoms: O1_4  and  C3_5 
REMARK    4  A    between atoms: C8_10  and  C9_11 
REMARK    5  A    between atoms: C9_11  and  C10_12 
REMARK    6  A    between atoms: C20_24  and  O2_25 
REMARK    7  A    between atoms: C26_32  and  C27_33 
REMARK    8  A    between atoms: C27_33  and  O4_34 
REMARK    9  A    between atoms: C36_44  and  O6_45 
REMARK   10  A    between atoms: C43_53  and  N3_54 
ROOT
HETATM    1  C3  UNL     1      -9.525 -10.295   4.461  1.00  0.00     0.139 C 
HETATM    2  C4  UNL     1      -8.598 -10.935   3.384  1.00  0.00     0.086 C 
HETATM    3  C5  UNL     1      -8.644 -10.332   2.007  1.00  0.00    -0.014 C 
HETATM    4  C6  UNL     1      -7.702 -10.690   1.008  1.00  0.00    -0.034 C 
HETATM    5  C7  UNL     1      -6.679 -11.787   1.249  1.00  0.00     0.050 C 
HETATM    6  C8  UNL     1      -5.314 -11.460   0.621  1.00  0.00     0.028 C 
HETATM    7  C18 UNL     1      -5.521 -11.188  -0.856  1.00  0.00    -0.040 A 
HETATM    8  C19 UNL     1      -4.554 -11.629  -1.778  1.00  0.00     0.044 A 
HETATM    9  C20 UNL     1      -4.757 -11.453  -3.137  1.00  0.00     0.066 A 
HETATM   10  C21 UNL     1      -5.918 -10.853  -3.600  1.00  0.00     0.037 A 
HETATM   11  C22 UNL     1      -6.880 -10.410  -2.683  1.00  0.00     0.015 A 
HETATM   12  C23 UNL     1      -6.703 -10.536  -1.293  1.00  0.00    -0.016 A 
HETATM   13  C24 UNL     1      -7.709 -10.076  -0.280  1.00  0.00     0.016 C 
HETATM   14  C25 UNL     1      -8.654  -9.049  -0.498  1.00  0.00     0.090 C 
HETATM   15  O3  UNL     1      -8.585  -8.352  -1.680  1.00  0.00    -0.342 OA
HETATM   16  C26 UNL     1      -9.273  -7.096  -1.723  1.00  0.00     0.152 C 
HETATM   17  C28 UNL     1     -10.712  -7.285  -1.277  1.00  0.00     0.039 C 
HETATM   18  C29 UNL     1     -10.709  -7.724   0.178  1.00  0.00     0.047 C 
HETATM   19  C30 UNL     1      -9.648  -8.762   0.453  1.00  0.00     0.010 C 
HETATM   20  C31 UNL     1      -9.642  -9.422   1.690  1.00  0.00     0.086 C 
HETATM   21  O5  UNL     1     -10.643  -9.089   2.547  1.00  0.00    -0.337 OA
HETATM   22  C32 UNL     1     -10.861  -9.917   3.707  1.00  0.00     0.200 C 
HETATM   23  C33 UNL     1     -11.869  -9.115   4.531  1.00  0.00    -0.023 C 
HETATM   24  C34 UNL     1     -12.947  -9.755   5.155  1.00  0.00     0.049 C 
HETATM   25  C35 UNL     1     -13.700  -9.061   6.100  1.00  0.00     0.102 C 
HETATM   26  C36 UNL     1     -13.538  -7.683   6.256  1.00  0.00     0.099 C 
HETATM   27  C37 UNL     1     -12.552  -7.004   5.565  1.00  0.00     0.040 C 
HETATM   28  C38 UNL     1     -11.696  -7.728   4.737  1.00  0.00     0.013 C 
HETATM   29  O7  UNL     1     -14.555  -9.677   6.979  1.00  0.00    -0.347 OA
HETATM   30  C39 UNL     1     -13.980 -10.823   7.654  1.00  0.00     0.188 C 
HETATM   31  C40 UNL     1     -12.656 -10.559   8.410  1.00  0.00     0.120 C 
HETATM   32  C41 UNL     1     -11.485 -10.799   7.543  1.00  0.00    -0.102 C 
HETATM   33  C42 UNL     1     -10.644 -11.013   6.705  1.00  0.00    -0.068 C 
HETATM   34  C43 UNL     1      -9.758 -11.417   5.592  1.00  0.00     0.336 C 
ENDROOT
BRANCH   6  35
HETATM   35  C9  UNL     1      -4.617 -10.294   1.356  1.00  0.00     0.048 C 
BRANCH  35  36
HETATM   36  C10 UNL     1      -4.018 -10.697   2.685  1.00  0.00    -0.057 A 
HETATM   37  C11 UNL     1      -3.960 -11.992   3.067  1.00  0.00     0.020 A 
HETATM   38  C12 UNL     1      -3.380 -12.310   4.327  1.00  0.00    -0.011 A 
HETATM   39  C13 UNL     1      -3.148 -13.440   4.986  1.00  0.00     0.006 A 
HETATM   40  C15 UNL     1      -2.873 -11.280   5.245  1.00  0.00     0.038 A 
HETATM   41  C14 UNL     1      -2.511 -13.155   6.306  1.00  0.00     0.148 A 
HETATM   42  N2  UNL     1      -2.382 -11.678   6.381  1.00  0.00    -0.386 N 
ATOM     43  H2  UNL     1      -2.002 -11.113   7.141  1.00  0.00     0.160 HD
HETATM   44  C16 UNL     1      -2.979  -9.884   4.776  1.00  0.00     0.030 A 
HETATM   45  C17 UNL     1      -3.515  -9.642   3.567  1.00  0.00     0.009 A 
ENDBRANCH  35  36
ENDBRANCH   6  35
BRANCH   9  46
HETATM   46  O2  UNL     1      -3.800 -11.905  -3.994  1.00  0.00    -0.361 OA
HETATM   47  H21 UNL     1      -4.072 -11.690  -4.900  1.00  0.00     0.217 HD
ENDBRANCH   9  46
BRANCH   1  48
HETATM   48  O1  UNL     1      -8.947  -9.042   4.898  1.00  0.00    -0.345 OA
BRANCH  48  49
HETATM   49  C2  UNL     1      -8.257  -8.956   6.125  1.00  0.00     0.438 C 
BRANCH  49  50
HETATM   50  N1  UNL     1      -6.837  -8.911   5.856  1.00  0.00     0.102 N 
HETATM   51  C1  UNL     1      -6.056  -9.041   7.076  1.00  0.00     0.309 C 
HETATM   52  H4  UNL     1      -6.623  -9.675   5.220  1.00  0.00     0.318 HD
ENDBRANCH  49  50
ENDBRANCH  48  49
ENDBRANCH   1  48
BRANCH  34  53
HETATM   53  N3  UNL     1      -8.517 -12.045   6.123  1.00  0.00     0.098 N 
HETATM   54  C44 UNL     1      -8.197 -13.322   5.500  1.00  0.00     0.308 C 
HETATM   55  H42 UNL     1      -7.726 -11.422   6.000  1.00  0.00     0.317 HD
ENDBRANCH  34  53
BRANCH  16  56
HETATM   56  C27 UNL     1      -9.221  -6.576  -3.166  1.00  0.00     0.196 C 
BRANCH  56  57
HETATM   57  O4  UNL     1      -7.899  -6.174  -3.536  1.00  0.00    -0.398 OA
HETATM   58  H27 UNL     1      -7.608  -5.496  -2.907  1.00  0.00     0.209 HD
ENDBRANCH  56  57
ENDBRANCH  16  56
BRANCH  26  59
HETATM   59  O6  UNL     1     -14.308  -6.983   7.142  1.00  0.00    -0.358 OA
HETATM   60  H34 UNL     1     -14.946  -7.638   7.490  1.00  0.00     0.217 HD
ENDBRANCH  26  59
TORSDOF 10
ENDMDL
MODEL 7
REMARK minimizedAffinity -7.46765852
REMARK CNNscore 0.127155885
REMARK CNNaffinity 6.19963026
REMARK  10 active torsions:
REMARK  status: ('A' for Active; 'I' for Inactive)
REMARK    1  A    between atoms: N1_2  and  C2_3 
REMARK    2  A    between atoms: C2_3  and  O1_4 
REMARK    3  A    between atoms: O1_4  and  C3_5 
REMARK    4  A    between atoms: C8_10  and  C9_11 
REMARK    5  A    between atoms: C9_11  and  C10_12 
REMARK    6  A    between atoms: C20_24  and  O2_25 
REMARK    7  A    between atoms: C26_32  and  C27_33 
REMARK    8  A    between atoms: C27_33  and  O4_34 
REMARK    9  A    between atoms: C36_44  and  O6_45 
REMARK   10  A    between atoms: C43_53  and  N3_54 
ROOT
HETATM    1  C3  UNL     1       0.906  11.777  17.263  1.00  0.00     0.139 C 
HETATM    2  C4  UNL     1      -0.332  12.719  17.354  1.00  0.00     0.086 C 
HETATM    3  C5  UNL     1      -1.633  12.178  16.828  1.00  0.00    -0.014 C 
HETATM    4  C6  UNL     1      -2.861  12.855  17.045  1.00  0.00    -0.034 C 
HETATM    5  C7  UNL     1      -2.899  14.218  17.717  1.00  0.00     0.050 C 
HETATM    6  C8  UNL     1      -4.110  14.375  18.651  1.00  0.00     0.028 C 
HETATM    7  C18 UNL     1      -5.368  14.098  17.852  1.00  0.00    -0.040 A 
HETATM    8  C19 UNL     1      -6.524  14.859  18.104  1.00  0.00     0.044 A 
HETATM    9  C20 UNL     1      -7.663  14.671  17.338  1.00  0.00     0.066 A 
HETATM   10  C21 UNL     1      -7.670  13.739  16.312  1.00  0.00     0.037 A 
HETATM   11  C22 UNL     1      -6.521  12.977  16.061  1.00  0.00     0.015 A 
HETATM   12  C23 UNL     1      -5.352  13.110  16.834  1.00  0.00    -0.016 A 
HETATM   13  C24 UNL     1      -4.102  12.314  16.597  1.00  0.00     0.016 C 
HETATM   14  C25 UNL     1      -4.066  11.043  15.984  1.00  0.00     0.090 C 
HETATM   15  O3  UNL     1      -5.263  10.445  15.672  1.00  0.00    -0.342 OA
HETATM   16  C26 UNL     1      -5.227   9.035  15.418  1.00  0.00     0.152 C 
HETATM   17  C28 UNL     1      -4.168   8.729  14.373  1.00  0.00     0.039 C 
HETATM   18  C29 UNL     1      -2.809   9.100  14.945  1.00  0.00     0.047 C 
HETATM   19  C30 UNL     1      -2.845  10.417  15.680  1.00  0.00     0.010 C 
HETATM   20  C31 UNL     1      -1.640  11.004  16.091  1.00  0.00     0.086 C 
HETATM   21  O5  UNL     1      -0.506  10.334  15.750  1.00  0.00    -0.337 OA
HETATM   22  C32 UNL     1       0.761  11.009  15.891  1.00  0.00     0.200 C 
HETATM   23  C33 UNL     1       1.782   9.895  15.657  1.00  0.00    -0.023 C 
HETATM   24  C34 UNL     1       2.921  10.129  14.875  1.00  0.00     0.049 C 
HETATM   25  C35 UNL     1       3.957   9.197  14.882  1.00  0.00     0.102 C 
HETATM   26  C36 UNL     1       3.773   7.943  15.468  1.00  0.00     0.099 C 
HETATM   27  C37 UNL     1       2.610   7.645  16.151  1.00  0.00     0.040 C 
HETATM   28  C38 UNL     1       1.637   8.635  16.278  1.00  0.00     0.013 C 
HETATM   29  O7  UNL     1       5.218   9.472  14.415  1.00  0.00    -0.347 OA
HETATM   30  C39 UNL     1       5.767  10.720  14.902  1.00  0.00     0.188 C 
HETATM   31  C40 UNL     1       5.804  10.879  16.441  1.00  0.00     0.120 C 
HETATM   32  C41 UNL     1       4.570  11.516  16.945  1.00  0.00    -0.102 C 
HETATM   33  C42 UNL     1       3.503  12.018  17.194  1.00  0.00    -0.068 C 
HETATM   34  C43 UNL     1       2.207  12.725  17.298  1.00  0.00     0.336 C 
ENDROOT
BRANCH   6  35
HETATM   35  C9  UNL     1      -3.981  13.477  19.902  1.00  0.00     0.048 C 
BRANCH  35  36
HETATM   36  C10 UNL     1      -4.915  13.874  21.023  1.00  0.00    -0.057 A 
HETATM   37  C11 UNL     1      -5.945  13.080  21.395  1.00  0.00     0.020 A 
HETATM   38  C12 UNL     1      -6.787  13.505  22.460  1.00  0.00    -0.011 A 
HETATM   39  C13 UNL     1      -7.840  12.981  23.078  1.00  0.00     0.006 A 
HETATM   40  C15 UNL     1      -6.601  14.789  23.150  1.00  0.00     0.038 A 
HETATM   41  C14 UNL     1      -8.336  13.905  24.141  1.00  0.00     0.148 A 
HETATM   42  N2  UNL     1      -7.442  15.089  24.095  1.00  0.00    -0.386 N 
ATOM     43  H2  UNL     1      -7.478  15.933  24.667  1.00  0.00     0.160 HD
HETATM   44  C16 UNL     1      -5.470  15.616  22.686  1.00  0.00     0.030 A 
HETATM   45  C17 UNL     1      -4.692  15.157  21.690  1.00  0.00     0.009 A 
ENDBRANCH  35  36
ENDBRANCH   6  35
BRANCH   9  46
HETATM   46  O2  UNL     1      -8.756  15.437  17.610  1.00  0.00    -0.361 OA
HETATM   47  H21 UNL     1      -9.472  15.174  17.012  1.00  0.00     0.217 HD
ENDBRANCH   9  46
BRANCH   1  48
HETATM   48  O1  UNL     1       0.810  10.769  18.297  1.00  0.00    -0.345 OA
BRANCH  48  49
HETATM   49  C2  UNL     1       0.354  11.102  19.590  1.00  0.00     0.438 C 
BRANCH  49  50
HETATM   50  N1  UNL     1       1.082  10.311  20.556  1.00  0.00     0.102 N 
HETATM   51  C1  UNL     1       2.518  10.514  20.441  1.00  0.00     0.309 C 
HETATM   52  H4  UNL     1       0.763  10.588  21.481  1.00  0.00     0.318 HD
ENDBRANCH  49  50
ENDBRANCH  48  49
ENDBRANCH   1  48
BRANCH  34  53
HETATM   53  N3  UNL     1       2.244  13.706  18.417  1.00  0.00     0.098 N 
HETATM   54  C44 UNL     1       3.091  14.861  18.152  1.00  0.00     0.308 C 
HETATM   55  H42 UNL     1       1.309  14.038  18.626  1.00  0.00     0.317 HD
ENDBRANCH  34  53
BRANCH  16  56
HETATM   56  C27 UNL     1      -6.614   8.608  14.920  1.00  0.00     0.196 C 
BRANCH  56  57
HETATM   57  O4  UNL     1      -7.599   9.612  15.173  1.00  0.00    -0.398 OA
HETATM   58  H27 UNL     1      -7.607   9.788  16.127  1.00  0.00     0.209 HD
ENDBRANCH  56  57
ENDBRANCH  16  56
BRANCH  26  59
HETATM   59  O6  UNL     1       4.764   7.002  15.434  1.00  0.00    -0.358 OA
HETATM   60  H34 UNL     1       5.469   7.401  14.887  1.00  0.00     0.217 HD
ENDBRANCH  26  59
TORSDOF 10
ENDMDL
MODEL 8
REMARK minimizedAffinity -8.45395279
REMARK CNNscore 0.122662626
REMARK CNNaffinity 6.32205582
REMARK  10 active torsions:
REMARK  status: ('A' for Active; 'I' for Inactive)
REMARK    1  A    between atoms: N1_2  and  C2_3 
REMARK    2  A    between atoms: C2_3  and  O1_4 
REMARK    3  A    between atoms: O1_4  and  C3_5 
REMARK    4  A    between atoms: C8_10  and  C9_11 
REMARK    5  A    between atoms: C9_11  and  C10_12 
REMARK    6  A    between atoms: C20_24  and  O2_25 
REMARK    7  A    between atoms: C26_32  and  C27_33 
REMARK    8  A    between atoms: C27_33  and  O4_34 
REMARK    9  A    between atoms: C36_44  and  O6_45 
REMARK   10  A    between atoms: C43_53  and  N3_54 
ROOT
HETATM    1  C3  UNL     1       0.101   8.371  14.930  1.00  0.00     0.139 C 
HETATM    2  C4  UNL     1       0.262   8.941  16.372  1.00  0.00     0.086 C 
HETATM    3  C5  UNL     1       1.548   9.658  16.675  1.00  0.00    -0.014 C 
HETATM    4  C6  UNL     1       1.722  10.396  17.876  1.00  0.00    -0.034 C 
HETATM    5  C7  UNL     1       0.657  10.393  18.960  1.00  0.00     0.050 C 
HETATM    6  C8  UNL     1       0.509  11.767  19.635  1.00  0.00     0.028 C 
HETATM    7  C18 UNL     1       1.865  12.186  20.168  1.00  0.00    -0.040 A 
HETATM    8  C19 UNL     1       1.939  12.869  21.396  1.00  0.00     0.044 A 
HETATM    9  C20 UNL     1       3.172  13.199  21.934  1.00  0.00     0.066 A 
HETATM   10  C21 UNL     1       4.340  12.851  21.275  1.00  0.00     0.037 A 
HETATM   11  C22 UNL     1       4.268  12.175  20.050  1.00  0.00     0.015 A 
HETATM   12  C23 UNL     1       3.039  11.848  19.447  1.00  0.00    -0.016 A 
HETATM   13  C24 UNL     1       2.919  11.124  18.139  1.00  0.00     0.016 C 
HETATM   14  C25 UNL     1       3.902  11.135  17.125  1.00  0.00     0.090 C 
HETATM   15  O3  UNL     1       5.000  11.942  17.301  1.00  0.00    -0.342 OA
HETATM   16  C26 UNL     1       5.772  12.236  16.130  1.00  0.00     0.152 C 
HETATM   17  C28 UNL     1       6.145  10.942  15.425  1.00  0.00     0.039 C 
HETATM   18  C29 UNL     1       4.868  10.275  14.942  1.00  0.00     0.047 C 
HETATM   19  C30 UNL     1       3.774  10.328  15.981  1.00  0.00     0.010 C 
HETATM   20  C31 UNL     1       2.603   9.584  15.779  1.00  0.00     0.086 C 
HETATM   21  O5  UNL     1       2.567   8.827  14.650  1.00  0.00    -0.337 OA
HETATM   22  C32 UNL     1       1.529   7.834  14.520  1.00  0.00     0.200 C 
HETATM   23  C33 UNL     1       1.659   7.374  13.067  1.00  0.00    -0.023 C 
HETATM   24  C34 UNL     1       1.565   6.016  12.741  1.00  0.00     0.049 C 
HETATM   25  C35 UNL     1       1.430   5.642  11.405  1.00  0.00     0.102 C 
HETATM   26  C36 UNL     1       1.620   6.580  10.388  1.00  0.00     0.099 C 
HETATM   27  C37 UNL     1       1.829   7.913  10.685  1.00  0.00     0.040 C 
HETATM   28  C38 UNL     1       1.807   8.312  12.021  1.00  0.00     0.013 C 
HETATM   29  O7  UNL     1       1.020   4.392  11.012  1.00  0.00    -0.347 OA
HETATM   30  C39 UNL     1      -0.157   3.913  11.707  1.00  0.00     0.188 C 
HETATM   31  C40 UNL     1      -1.394   4.842  11.647  1.00  0.00     0.120 C 
HETATM   32  C41 UNL     1      -1.414   5.784  12.784  1.00  0.00    -0.102 C 
HETATM   33  C42 UNL     1      -1.272   6.493  13.748  1.00  0.00    -0.068 C 
HETATM   34  C43 UNL     1      -0.991   7.192  15.022  1.00  0.00     0.336 C 
ENDROOT
BRANCH   6  35
HETATM   35  C9  UNL     1      -0.109  12.806  18.674  1.00  0.00     0.048 C 
BRANCH  35  36
HETATM   36  C10 UNL     1      -1.592  13.013  18.887  1.00  0.00    -0.057 A 
HETATM   37  C11 UNL     1      -2.073  14.155  19.428  1.00  0.00     0.020 A 
HETATM   38  C12 UNL     1      -3.479  14.293  19.599  1.00  0.00    -0.011 A 
HETATM   39  C13 UNL     1      -4.270  15.256  20.061  1.00  0.00     0.006 A 
HETATM   40  C15 UNL     1      -4.426  13.227  19.244  1.00  0.00     0.038 A 
HETATM   41  C14 UNL     1      -5.698  14.826  20.016  1.00  0.00     0.148 A 
HETATM   42  N2  UNL     1      -5.688  13.449  19.462  1.00  0.00    -0.386 N 
ATOM     43  H2  UNL     1      -6.480  12.828  19.295  1.00  0.00     0.160 HD
HETATM   44  C16 UNL     1      -3.836  11.999  18.674  1.00  0.00     0.030 A 
HETATM   45  C17 UNL     1      -2.504  11.931  18.513  1.00  0.00     0.009 A 
ENDBRANCH  35  36
ENDBRANCH   6  35
BRANCH   9  46
HETATM   46  O2  UNL     1       3.198  13.850  23.131  1.00  0.00    -0.361 OA
HETATM   47  H21 UNL     1       4.122  14.031  23.362  1.00  0.00     0.217 HD
ENDBRANCH   9  46
BRANCH   1  48
HETATM   48  O1  UNL     1      -0.192   9.458  14.022  1.00  0.00    -0.345 OA
BRANCH  48  49
HETATM   49  C2  UNL     1      -1.198  10.400  14.324  1.00  0.00     0.438 C 
BRANCH  49  50
HETATM   50  N1  UNL     1      -0.598  11.714  14.388  1.00  0.00     0.102 N 
HETATM   51  C1  UNL     1      -1.525  12.701  14.919  1.00  0.00     0.309 C 
HETATM   52  H4  UNL     1       0.222  11.647  14.985  1.00  0.00     0.318 HD
ENDBRANCH  49  50
ENDBRANCH  48  49
ENDBRANCH   1  48
BRANCH  34  53
HETATM   53  N3  UNL     1      -2.265   7.563  15.697  1.00  0.00     0.098 N 
HETATM   54  C44 UNL     1      -3.321   6.571  15.536  1.00  0.00     0.308 C 
HETATM   55  H42 UNL     1      -2.111   7.705  16.689  1.00  0.00     0.317 HD
ENDBRANCH  34  53
BRANCH  16  56
HETATM   56  C27 UNL     1       7.033  12.990  16.572  1.00  0.00     0.196 C 
BRANCH  56  57
HETATM   57  O4  UNL     1       8.216  12.219  16.349  1.00  0.00    -0.398 OA
HETATM   58  H27 UNL     1       8.121  11.382  16.829  1.00  0.00     0.209 HD
ENDBRANCH  56  57
ENDBRANCH  16  56
BRANCH  26  59
HETATM   59  O6  UNL     1       1.543   6.213   9.074  1.00  0.00    -0.358 OA
HETATM   60  H34 UNL     1       1.422   5.243   9.092  1.00  0.00     0.217 HD
ENDBRANCH  26  59
TORSDOF 10
ENDMDL
MODEL 9
REMARK minimizedAffinity -10.6500826
REMARK CNNscore 0.120328613
REMARK CNNaffinity 6.56951904
REMARK  10 active torsions:
REMARK  status: ('A' for Active; 'I' for Inactive)
REMARK    1  A    between atoms: N1_2  and  C2_3 
REMARK    2  A    between atoms: C2_3  and  O1_4 
REMARK    3  A    between atoms: O1_4  and  C3_5 
REMARK    4  A    between atoms: C8_10  and  C9_11 
REMARK    5  A    between atoms: C9_11  and  C10_12 
REMARK    6  A    between atoms: C20_24  and  O2_25 
REMARK    7  A    between atoms: C26_32  and  C27_33 
REMARK    8  A    between atoms: C27_33  and  O4_34 
REMARK    9  A    between atoms: C36_44  and  O6_45 
REMARK   10  A    between atoms: C43_53  and  N3_54 
ROOT
HETATM    1  C3  UNL     1      -1.592  10.456  15.249  1.00  0.00     0.139 C 
HETATM    2  C4  UNL     1      -1.180   9.669  13.968  1.00  0.00     0.086 C 
HETATM    3  C5  UNL     1       0.280   9.340  13.818  1.00  0.00    -0.014 C 
HETATM    4  C6  UNL     1       0.742   8.454  12.809  1.00  0.00    -0.034 C 
HETATM    5  C7  UNL     1      -0.206   7.893  11.763  1.00  0.00     0.050 C 
HETATM    6  C8  UNL     1       0.113   6.430  11.411  1.00  0.00     0.028 C 
HETATM    7  C18 UNL     1       1.561   6.350  10.970  1.00  0.00    -0.040 A 
HETATM    8  C19 UNL     1       1.914   5.479   9.924  1.00  0.00     0.044 A 
HETATM    9  C20 UNL     1       3.218   5.441   9.459  1.00  0.00     0.066 A 
HETATM   10  C21 UNL     1       4.183   6.268  10.013  1.00  0.00     0.037 A 
HETATM   11  C22 UNL     1       3.835   7.134  11.058  1.00  0.00     0.015 A 
HETATM   12  C23 UNL     1       2.531   7.183  11.586  1.00  0.00    -0.016 A 
HETATM   13  C24 UNL     1       2.118   8.096  12.702  1.00  0.00     0.016 C 
HETATM   14  C25 UNL     1       2.995   8.609  13.683  1.00  0.00     0.090 C 
HETATM   15  O3  UNL     1       4.295   8.166  13.679  1.00  0.00    -0.342 OA
HETATM   16  C26 UNL     1       5.050   8.385  14.877  1.00  0.00     0.152 C 
HETATM   17  C28 UNL     1       4.967   9.849  15.274  1.00  0.00     0.039 C 
HETATM   18  C29 UNL     1       3.520  10.173  15.610  1.00  0.00     0.047 C 
HETATM   19  C30 UNL     1       2.559   9.561  14.621  1.00  0.00     0.010 C 
HETATM   20  C31 UNL     1       1.207   9.929  14.664  1.00  0.00     0.086 C 
HETATM   21  O5  UNL     1       0.874  10.860  15.597  1.00  0.00    -0.337 OA
HETATM   22  C32 UNL     1      -0.424  11.484  15.515  1.00  0.00     0.200 C 
HETATM   23  C33 UNL     1      -0.527  12.262  16.828  1.00  0.00    -0.023 C 
HETATM   24  C34 UNL     1      -1.052  13.560  16.846  1.00  0.00     0.049 C 
HETATM   25  C35 UNL     1      -1.373  14.150  18.067  1.00  0.00     0.102 C 
HETATM   26  C36 UNL     1      -0.966  13.559  19.264  1.00  0.00     0.099 C 
HETATM   27  C37 UNL     1      -0.343  12.326  19.268  1.00  0.00     0.040 C 
HETATM   28  C38 UNL     1      -0.162  11.664  18.055  1.00  0.00     0.013 C 
HETATM   29  O7  UNL     1      -2.168  15.264  18.176  1.00  0.00    -0.347 OA
HETATM   30  C39 UNL     1      -3.392  15.192  17.405  1.00  0.00     0.188 C 
HETATM   31  C40 UNL     1      -4.287  13.961  17.682  1.00  0.00     0.120 C 
HETATM   32  C41 UNL     1      -3.951  12.838  16.783  1.00  0.00    -0.102 C 
HETATM   33  C42 UNL     1      -3.541  12.020  15.999  1.00  0.00    -0.068 C 
HETATM   34  C43 UNL     1      -2.985  11.187  14.909  1.00  0.00     0.336 C 
ENDROOT
BRANCH   6  35
HETATM   35  C9  UNL     1      -0.214   5.482  12.585  1.00  0.00     0.048 C 
BRANCH  35  36
HETATM   36  C10 UNL     1      -1.285   4.466  12.255  1.00  0.00    -0.057 A 
HETATM   37  C11 UNL     1      -2.593   4.722  12.482  1.00  0.00     0.020 A 
HETATM   38  C12 UNL     1      -3.554   3.729  12.145  1.00  0.00    -0.011 A 
HETATM   39  C13 UNL     1      -4.880   3.657  12.211  1.00  0.00     0.006 A 
HETATM   40  C15 UNL     1      -3.177   2.421  11.592  1.00  0.00     0.038 A 
HETATM   41  C14 UNL     1      -5.356   2.331  11.719  1.00  0.00     0.148 A 
HETATM   42  N2  UNL     1      -4.135   1.578  11.341  1.00  0.00    -0.386 N 
ATOM     43  H2  UNL     1      -4.064   0.629  10.973  1.00  0.00     0.160 HD
HETATM   44  C16 UNL     1      -1.733   2.197  11.383  1.00  0.00     0.030 A 
HETATM   45  C17 UNL     1      -0.869   3.178  11.697  1.00  0.00     0.009 A 
ENDBRANCH  35  36
ENDBRANCH   6  35
BRANCH   9  46
HETATM   46  O2  UNL     1       3.513   4.590   8.437  1.00  0.00    -0.361 OA
HETATM   47  H21 UNL     1       4.460   4.660   8.242  1.00  0.00     0.217 HD
ENDBRANCH   9  46
BRANCH   1  48
HETATM   48  O1  UNL     1      -1.592   9.552  16.379  1.00  0.00    -0.345 OA
BRANCH  48  49
HETATM   49  C2  UNL     1      -1.417   8.164  16.193  1.00  0.00     0.438 C 
BRANCH  49  50
HETATM   50  N1  UNL     1      -2.614   7.483  16.631  1.00  0.00     0.102 N 
HETATM   51  C1  UNL     1      -3.167   6.642  15.582  1.00  0.00     0.309 C 
HETATM   52  H4  UNL     1      -2.365   6.917  17.439  1.00  0.00     0.318 HD
ENDBRANCH  49  50
ENDBRANCH  48  49
ENDBRANCH   1  48
BRANCH  34  53
HETATM   53  N3  UNL     1      -4.042  10.303  14.346  1.00  0.00     0.098 N 
HETATM   54  C44 UNL     1      -4.928   9.738  15.356  1.00  0.00     0.308 C 
HETATM   55  H42 UNL     1      -4.608  10.812  13.676  1.00  0.00     0.317 HD
ENDBRANCH  34  53
BRANCH  16  56
HETATM   56  C27 UNL     1       6.505   7.984  14.601  1.00  0.00     0.196 C 
BRANCH  56  57
HETATM   57  O4  UNL     1       6.658   6.564  14.533  1.00  0.00    -0.398 OA
HETATM   58  H27 UNL     1       6.343   6.190  15.371  1.00  0.00     0.209 HD
ENDBRANCH  56  57
ENDBRANCH  16  56
BRANCH  26  59
HETATM   59  O6  UNL     1      -1.230  14.155  20.465  1.00  0.00    -0.358 OA
HETATM   60  H34 UNL     1      -1.640  15.013  20.233  1.00  0.00     0.217 HD
ENDBRANCH  26  59
TORSDOF 10
ENDMDL
