MODEL 1
REMARK minimizedAffinity -8.09515953
REMARK CNNscore 0.571629763
REMARK CNNaffinity 7.33268309
REMARK  13 active torsions:
REMARK  status: ('A' for Active; 'I' for Inactive)
REMARK    1  A    between atoms: C2_2  and  C3_3 
REMARK    2  A    between atoms: C3_3  and  C5_5 
REMARK    3  A    between atoms: C5_5  and  N1_6 
REMARK    4  A    between atoms: C5_5  and  C31_39 
REMARK       I    between atoms: N1_6  and  C6_7 
REMARK    5  A    between atoms: C6_7  and  C7_9 
REMARK    6  A    between atoms: C7_9  and  C8_10 
REMARK    7  A    between atoms: C8_10  and  C9_11 
REMARK    8  A    between atoms: C9_11  and  O3_13 
REMARK    9  A    between atoms: O3_13  and  C10_14 
REMARK   10  A    between atoms: C10_14  and  C11_15 
REMARK   11  A    between atoms: C11_15  and  C12_17 
REMARK   12  A    between atoms: C12_17  and  O5_18 
REMARK   13  A    between atoms: C31_39  and  O9_41 
ROOT
HETATM    1  C12 UNL     1     -12.014   8.962  13.860  1.00  0.00     0.128 C 
HETATM    2  C13 UNL     1     -12.144   9.379  15.341  1.00  0.00     0.047 C 
HETATM    3  C14 UNL     1     -10.918   8.784  16.066  1.00  0.00     0.009 C 
HETATM    4  C15 UNL     1     -10.067   8.176  14.955  1.00  0.00     0.002 C 
HETATM    5  C16 UNL     1      -9.031   7.103  15.323  1.00  0.00     0.003 C 
HETATM    6  C17 UNL     1      -8.047   7.630  16.377  1.00  0.00     0.010 C 
HETATM    7  C18 UNL     1      -6.964   6.606  16.695  1.00  0.00     0.035 C 
HETATM    8  C19 UNL     1      -6.246   6.151  15.445  1.00  0.00    -0.067 C 
HETATM    9  C20 UNL     1      -4.904   6.221  15.390  1.00  0.00     0.053 C 
HETATM   10  C21 UNL     1      -4.151   5.716  14.221  1.00  0.00     0.149 C 
HETATM   11  O6  UNL     1      -2.956   5.969  14.109  1.00  0.00    -0.293 OA
HETATM   12  C22 UNL     1      -4.900   4.875  13.227  1.00  0.00     0.084 C 
HETATM   13  C23 UNL     1      -6.279   5.474  12.994  1.00  0.00     0.022 C 
HETATM   14  C24 UNL     1      -7.130   5.629  14.293  1.00  0.00    -0.009 C 
HETATM   15  C25 UNL     1      -7.683   4.248  14.709  1.00  0.00     0.021 C 
HETATM   16  C26 UNL     1      -8.267   6.682  14.033  1.00  0.00     0.072 C 
HETATM   17  C27 UNL     1      -9.275   6.318  12.924  1.00  0.00     0.133 C 
HETATM   18  O7  UNL     1      -9.202   5.290  12.252  1.00  0.00    -0.297 OA
HETATM   19  C28 UNL     1     -10.359   7.347  12.625  1.00  0.00     0.091 C 
HETATM   20  C29 UNL     1     -11.111   7.697  13.914  1.00  0.00     0.005 C 
HETATM   21  C30 UNL     1     -11.914   6.456  14.380  1.00  0.00     0.019 C 
ENDROOT
BRANCH   1  22
HETATM   22  C11 UNL     1     -13.319   8.809  13.060  1.00  0.00     0.185 C 
HETATM   23  O4  UNL     1     -13.371   9.272  11.912  1.00  0.00    -0.292 OA
BRANCH  22  24
HETATM   24  C10 UNL     1     -14.523   8.136  13.712  1.00  0.00     0.260 C 
BRANCH  24  25
HETATM   25  O3  UNL     1     -14.784   6.854  13.135  1.00  0.00    -0.314 OA
BRANCH  25  26
HETATM   26  C9  UNL     1     -16.078   6.666  12.754  1.00  0.00     0.259 C 
HETATM   27  O2  UNL     1     -16.590   7.156  11.758  1.00  0.00    -0.265 OA
BRANCH  26  28
HETATM   28  C8  UNL     1     -16.806   5.823  13.759  1.00  0.00     0.120 C 
BRANCH  28  29
HETATM   29  C7  UNL     1     -15.823   4.870  14.418  1.00  0.00     0.112 C 
BRANCH  29  30
HETATM   30  C6  UNL     1     -16.474   3.552  14.771  1.00  0.00     0.218 C 
HETATM   31  N1  UNL     1     -15.615   2.487  14.658  1.00  0.00    -0.346 N 
HETATM   32  H11 UNL     1     -14.616   2.675  14.599  1.00  0.00     0.163 HD
HETATM   33  O1  UNL     1     -17.651   3.449  15.103  1.00  0.00    -0.274 OA
BRANCH  31  34
HETATM   34  C5  UNL     1     -15.976   1.137  15.098  1.00  0.00     0.186 C 
BRANCH  34  35
HETATM   35  C3  UNL     1     -15.859   0.090  13.964  1.00  0.00     0.014 C 
HETATM   36  C4  UNL     1     -16.171   0.691  12.585  1.00  0.00     0.012 C 
BRANCH  35  37
HETATM   37  C2  UNL     1     -16.743  -1.141  14.259  1.00  0.00     0.002 C 
HETATM   38  C1  UNL     1     -15.949  -2.410  14.536  1.00  0.00     0.005 C 
ENDBRANCH  35  37
ENDBRANCH  34  35
BRANCH  34  39
HETATM   39  C31 UNL     1     -15.105   0.728  16.297  1.00  0.00     0.163 C 
HETATM   40  O8  UNL     1     -15.457   0.667  17.464  1.00  0.00    -0.648 OA
BRANCH  39  41
HETATM   41  O9  UNL     1     -13.841   0.382  15.955  1.00  0.00    -0.775 OA
HETATM   42  H43 UNL     1     -13.425   0.155  16.814  1.00  0.00     0.167 HD
ENDBRANCH  39  41
ENDBRANCH  34  39
ENDBRANCH  31  34
ENDBRANCH  29  30
ENDBRANCH  28  29
ENDBRANCH  26  28
ENDBRANCH  25  26
ENDBRANCH  24  25
ENDBRANCH  22  24
ENDBRANCH   1  22
BRANCH   1  43
HETATM   43  O5  UNL     1     -11.293  10.024  13.201  1.00  0.00    -0.381 OA
HETATM   44  H18 UNL     1     -11.512   9.966  12.247  1.00  0.00     0.211 HD
ENDBRANCH   1  43
TORSDOF 13
ENDMDL
MODEL 2
REMARK minimizedAffinity -8.04336262
REMARK CNNscore 0.556189895
REMARK CNNaffinity 6.71023035
REMARK  13 active torsions:
REMARK  status: ('A' for Active; 'I' for Inactive)
REMARK    1  A    between atoms: C2_2  and  C3_3 
REMARK    2  A    between atoms: C3_3  and  C5_5 
REMARK    3  A    between atoms: C5_5  and  N1_6 
REMARK    4  A    between atoms: C5_5  and  C31_39 
REMARK       I    between atoms: N1_6  and  C6_7 
REMARK    5  A    between atoms: C6_7  and  C7_9 
REMARK    6  A    between atoms: C7_9  and  C8_10 
REMARK    7  A    between atoms: C8_10  and  C9_11 
REMARK    8  A    between atoms: C9_11  and  O3_13 
REMARK    9  A    between atoms: O3_13  and  C10_14 
REMARK   10  A    between atoms: C10_14  and  C11_15 
REMARK   11  A    between atoms: C11_15  and  C12_17 
REMARK   12  A    between atoms: C12_17  and  O5_18 
REMARK   13  A    between atoms: C31_39  and  O9_41 
ROOT
HETATM    1  C12 UNL     1      -5.089   6.726  15.028  1.00  0.00     0.128 C 
HETATM    2  C13 UNL     1      -5.476   5.416  14.308  1.00  0.00     0.047 C 
HETATM    3  C14 UNL     1      -4.335   5.117  13.313  1.00  0.00     0.009 C 
HETATM    4  C15 UNL     1      -3.279   6.181  13.600  1.00  0.00     0.002 C 
HETATM    5  C16 UNL     1      -2.235   6.494  12.519  1.00  0.00     0.003 C 
HETATM    6  C17 UNL     1      -1.467   5.227  12.115  1.00  0.00     0.010 C 
HETATM    7  C18 UNL     1      -0.372   5.534  11.101  1.00  0.00     0.035 C 
HETATM    8  C19 UNL     1       0.562   6.612  11.602  1.00  0.00    -0.067 C 
HETATM    9  C20 UNL     1       1.887   6.384  11.618  1.00  0.00     0.053 C 
HETATM   10  C21 UNL     1       2.848   7.433  12.026  1.00  0.00     0.149 C 
HETATM   11  O6  UNL     1       4.023   7.143  12.222  1.00  0.00    -0.293 OA
HETATM   12  C22 UNL     1       2.326   8.837  12.149  1.00  0.00     0.084 C 
HETATM   13  C23 UNL     1       0.958   8.812  12.815  1.00  0.00     0.022 C 
HETATM   14  C24 UNL     1      -0.093   7.928  12.071  1.00  0.00    -0.009 C 
HETATM   15  C25 UNL     1      -0.596   8.679  10.819  1.00  0.00     0.021 C 
HETATM   16  C26 UNL     1      -1.252   7.569  13.069  1.00  0.00     0.072 C 
HETATM   17  C27 UNL     1      -2.047   8.767  13.629  1.00  0.00     0.133 C 
HETATM   18  O7  UNL     1      -1.795   9.938  13.351  1.00  0.00    -0.297 OA
HETATM   19  C28 UNL     1      -3.147   8.443  14.634  1.00  0.00     0.091 C 
HETATM   20  C29 UNL     1      -4.112   7.415  14.032  1.00  0.00     0.005 C 
HETATM   21  C30 UNL     1      -4.881   8.075  12.860  1.00  0.00     0.019 C 
ENDROOT
BRANCH   1  22
HETATM   22  C11 UNL     1      -6.240   7.608  15.541  1.00  0.00     0.185 C 
HETATM   23  O4  UNL     1      -6.017   8.807  15.765  1.00  0.00    -0.292 OA
BRANCH  22  24
HETATM   24  C10 UNL     1      -7.606   6.980  15.803  1.00  0.00     0.260 C 
BRANCH  24  25
HETATM   25  O3  UNL     1      -8.666   7.908  15.556  1.00  0.00    -0.314 OA
BRANCH  25  26
HETATM   26  C9  UNL     1      -9.605   7.462  14.676  1.00  0.00     0.259 C 
HETATM   27  O2  UNL     1      -9.383   6.701  13.746  1.00  0.00    -0.265 OA
BRANCH  26  28
HETATM   28  C8  UNL     1     -10.939   8.083  14.970  1.00  0.00     0.120 C 
BRANCH  28  29
HETATM   29  C7  UNL     1     -11.786   8.066  13.709  1.00  0.00     0.112 C 
BRANCH  29  30
HETATM   30  C6  UNL     1     -12.903   7.051  13.801  1.00  0.00     0.218 C 
HETATM   31  N1  UNL     1     -14.103   7.537  13.342  1.00  0.00    -0.346 N 
HETATM   32  H11 UNL     1     -14.098   8.386  12.780  1.00  0.00     0.163 HD
HETATM   33  O1  UNL     1     -12.754   5.922  14.257  1.00  0.00    -0.274 OA
BRANCH  31  34
HETATM   34  C5  UNL     1     -15.287   6.688  13.186  1.00  0.00     0.186 C 
BRANCH  34  35
HETATM   35  C3  UNL     1     -16.141   6.615  14.476  1.00  0.00     0.014 C 
HETATM   36  C4  UNL     1     -15.903   7.820  15.398  1.00  0.00     0.012 C 
BRANCH  35  37
HETATM   37  C2  UNL     1     -15.905   5.281  15.216  1.00  0.00     0.002 C 
HETATM   38  C1  UNL     1     -17.151   4.734  15.899  1.00  0.00     0.005 C 
ENDBRANCH  35  37
ENDBRANCH  34  35
BRANCH  34  39
HETATM   39  C31 UNL     1     -16.137   7.187  12.007  1.00  0.00     0.163 C 
HETATM   40  O8  UNL     1     -15.733   7.770  11.014  1.00  0.00    -0.648 OA
BRANCH  39  41
HETATM   41  O9  UNL     1     -17.454   6.891  12.127  1.00  0.00    -0.775 OA
HETATM   42  H43 UNL     1     -17.849   7.273  11.313  1.00  0.00     0.167 HD
ENDBRANCH  39  41
ENDBRANCH  34  39
ENDBRANCH  31  34
ENDBRANCH  29  30
ENDBRANCH  28  29
ENDBRANCH  26  28
ENDBRANCH  25  26
ENDBRANCH  24  25
ENDBRANCH  22  24
ENDBRANCH   1  22
BRANCH   1  43
HETATM   43  O5  UNL     1      -4.358   6.340  16.210  1.00  0.00    -0.381 OA
HETATM   44  H18 UNL     1      -4.422   7.088  16.840  1.00  0.00     0.211 HD
ENDBRANCH   1  43
TORSDOF 13
ENDMDL
MODEL 3
REMARK minimizedAffinity -9.08250618
REMARK CNNscore 0.521348178
REMARK CNNaffinity 7.36774969
REMARK  13 active torsions:
REMARK  status: ('A' for Active; 'I' for Inactive)
REMARK    1  A    between atoms: C2_2  and  C3_3 
REMARK    2  A    between atoms: C3_3  and  C5_5 
REMARK    3  A    between atoms: C5_5  and  N1_6 
REMARK    4  A    between atoms: C5_5  and  C31_39 
REMARK       I    between atoms: N1_6  and  C6_7 
REMARK    5  A    between atoms: C6_7  and  C7_9 
REMARK    6  A    between atoms: C7_9  and  C8_10 
REMARK    7  A    between atoms: C8_10  and  C9_11 
REMARK    8  A    between atoms: C9_11  and  O3_13 
REMARK    9  A    between atoms: O3_13  and  C10_14 
REMARK   10  A    between atoms: C10_14  and  C11_15 
REMARK   11  A    between atoms: C11_15  and  C12_17 
REMARK   12  A    between atoms: C12_17  and  O5_18 
REMARK   13  A    between atoms: C31_39  and  O9_41 
ROOT
HETATM    1  C12 UNL     1      -1.556   6.054  12.975  1.00  0.00     0.128 C 
HETATM    2  C13 UNL     1      -1.571   4.679  12.271  1.00  0.00     0.047 C 
HETATM    3  C14 UNL     1      -3.036   4.194  12.306  1.00  0.00     0.009 C 
HETATM    4  C15 UNL     1      -3.820   5.362  12.894  1.00  0.00     0.002 C 
HETATM    5  C16 UNL     1      -5.199   5.089  13.511  1.00  0.00     0.003 C 
HETATM    6  C17 UNL     1      -6.132   4.418  12.492  1.00  0.00     0.010 C 
HETATM    7  C18 UNL     1      -7.530   4.212  13.062  1.00  0.00     0.035 C 
HETATM    8  C19 UNL     1      -8.115   5.506  13.580  1.00  0.00    -0.067 C 
HETATM    9  C20 UNL     1      -9.325   5.904  13.148  1.00  0.00     0.053 C 
HETATM   10  C21 UNL     1      -9.974   7.122  13.683  1.00  0.00     0.149 C 
HETATM   11  O6  UNL     1     -10.977   7.569  13.137  1.00  0.00    -0.293 OA
HETATM   12  C22 UNL     1      -9.374   7.741  14.913  1.00  0.00     0.084 C 
HETATM   13  C23 UNL     1      -7.856   7.721  14.801  1.00  0.00     0.022 C 
HETATM   14  C24 UNL     1      -7.255   6.296  14.589  1.00  0.00    -0.009 C 
HETATM   15  C25 UNL     1      -7.275   5.529  15.930  1.00  0.00     0.021 C 
HETATM   16  C26 UNL     1      -5.808   6.438  13.993  1.00  0.00     0.072 C 
HETATM   17  C27 UNL     1      -4.790   7.183  14.881  1.00  0.00     0.133 C 
HETATM   18  O7  UNL     1      -5.073   7.668  15.976  1.00  0.00    -0.297 OA
HETATM   19  C28 UNL     1      -3.393   7.372  14.302  1.00  0.00     0.091 C 
HETATM   20  C29 UNL     1      -2.819   6.014  13.882  1.00  0.00     0.005 C 
HETATM   21  C30 UNL     1      -2.568   5.161  15.151  1.00  0.00     0.019 C 
ENDROOT
BRANCH   1  22
HETATM   22  C11 UNL     1      -0.251   6.466  13.677  1.00  0.00     0.185 C 
HETATM   23  O4  UNL     1       0.687   5.655  13.713  1.00  0.00    -0.292 OA
BRANCH  22  24
HETATM   24  C10 UNL     1      -0.159   7.834  14.346  1.00  0.00     0.260 C 
BRANCH  24  25
HETATM   25  O3  UNL     1       0.386   7.738  15.664  1.00  0.00    -0.314 OA
BRANCH  25  26
HETATM   26  C9  UNL     1       1.587   8.361  15.819  1.00  0.00     0.259 C 
HETATM   27  O2  UNL     1       2.167   8.502  16.886  1.00  0.00    -0.265 OA
BRANCH  26  28
HETATM   28  C8  UNL     1       2.072   8.904  14.508  1.00  0.00     0.120 C 
BRANCH  28  29
HETATM   29  C7  UNL     1       3.248   8.070  14.025  1.00  0.00     0.112 C 
BRANCH  29  30
HETATM   30  C6  UNL     1       3.257   7.936  12.520  1.00  0.00     0.218 C 
HETATM   31  N1  UNL     1       2.999   6.654  12.098  1.00  0.00    -0.346 N 
HETATM   32  H11 UNL     1       2.598   5.997  12.764  1.00  0.00     0.163 HD
HETATM   33  O1  UNL     1       3.492   8.870  11.761  1.00  0.00    -0.274 OA
BRANCH  31  34
HETATM   34  C5  UNL     1       2.800   6.318  10.686  1.00  0.00     0.186 C 
BRANCH  34  35
HETATM   35  C3  UNL     1       2.254   7.509   9.861  1.00  0.00     0.014 C 
HETATM   36  C4  UNL     1       0.722   7.485   9.751  1.00  0.00     0.012 C 
BRANCH  35  37
HETATM   37  C2  UNL     1       2.921   7.566   8.470  1.00  0.00     0.002 C 
HETATM   38  C1  UNL     1       1.946   7.361   7.318  1.00  0.00     0.005 C 
ENDBRANCH  35  37
ENDBRANCH  34  35
BRANCH  34  39
HETATM   39  C31 UNL     1       4.116   5.805  10.080  1.00  0.00     0.163 C 
HETATM   40  O8  UNL     1       4.249   4.848   9.334  1.00  0.00    -0.648 OA
BRANCH  39  41
HETATM   41  O9  UNL     1       5.195   6.551  10.420  1.00  0.00    -0.775 OA
HETATM   42  H43 UNL     1       5.938   6.099   9.964  1.00  0.00     0.167 HD
ENDBRANCH  39  41
ENDBRANCH  34  39
ENDBRANCH  31  34
ENDBRANCH  29  30
ENDBRANCH  28  29
ENDBRANCH  26  28
ENDBRANCH  25  26
ENDBRANCH  24  25
ENDBRANCH  22  24
ENDBRANCH   1  22
BRANCH   1  43
HETATM   43  O5  UNL     1      -1.753   7.041  11.941  1.00  0.00    -0.381 OA
HETATM   44  H18 UNL     1      -1.395   7.886  12.284  1.00  0.00     0.211 HD
ENDBRANCH   1  43
TORSDOF 13
ENDMDL
MODEL 4
REMARK minimizedAffinity -8.52224255
REMARK CNNscore 0.489562422
REMARK CNNaffinity 7.60381842
REMARK  13 active torsions:
REMARK  status: ('A' for Active; 'I' for Inactive)
REMARK    1  A    between atoms: C2_2  and  C3_3 
REMARK    2  A    between atoms: C3_3  and  C5_5 
REMARK    3  A    between atoms: C5_5  and  N1_6 
REMARK    4  A    between atoms: C5_5  and  C31_39 
REMARK       I    between atoms: N1_6  and  C6_7 
REMARK    5  A    between atoms: C6_7  and  C7_9 
REMARK    6  A    between atoms: C7_9  and  C8_10 
REMARK    7  A    between atoms: C8_10  and  C9_11 
REMARK    8  A    between atoms: C9_11  and  O3_13 
REMARK    9  A    between atoms: O3_13  and  C10_14 
REMARK   10  A    between atoms: C10_14  and  C11_15 
REMARK   11  A    between atoms: C11_15  and  C12_17 
REMARK   12  A    between atoms: C12_17  and  O5_18 
REMARK   13  A    between atoms: C31_39  and  O9_41 
ROOT
HETATM    1  C12 UNL     1      -7.046   5.173  14.759  1.00  0.00     0.128 C 
HETATM    2  C13 UNL     1      -6.332   5.830  15.960  1.00  0.00     0.047 C 
HETATM    3  C14 UNL     1      -7.279   6.937  16.471  1.00  0.00     0.009 C 
HETATM    4  C15 UNL     1      -8.549   6.777  15.641  1.00  0.00     0.002 C 
HETATM    5  C16 UNL     1      -9.514   7.966  15.533  1.00  0.00     0.003 C 
HETATM    6  C17 UNL     1      -9.968   8.432  16.925  1.00  0.00     0.010 C 
HETATM    7  C18 UNL     1     -10.987   9.560  16.833  1.00  0.00     0.035 C 
HETATM    8  C19 UNL     1     -12.165   9.176  15.967  1.00  0.00    -0.067 C 
HETATM    9  C20 UNL     1     -13.413   9.296  16.454  1.00  0.00     0.053 C 
HETATM   10  C21 UNL     1     -14.600   9.006  15.620  1.00  0.00     0.149 C 
HETATM   11  O6  UNL     1     -15.708   8.932  16.141  1.00  0.00    -0.293 OA
HETATM   12  C22 UNL     1     -14.384   8.847  14.142  1.00  0.00     0.084 C 
HETATM   13  C23 UNL     1     -13.117   8.040  13.900  1.00  0.00     0.022 C 
HETATM   14  C24 UNL     1     -11.838   8.657  14.551  1.00  0.00    -0.009 C 
HETATM   15  C25 UNL     1     -11.364   9.858  13.704  1.00  0.00     0.021 C 
HETATM   16  C26 UNL     1     -10.744   7.537  14.680  1.00  0.00     0.072 C 
HETATM   17  C27 UNL     1     -10.266   6.912  13.353  1.00  0.00     0.133 C 
HETATM   18  O7  UNL     1     -10.716   7.231  12.253  1.00  0.00    -0.297 OA
HETATM   19  C28 UNL     1      -9.237   5.793  13.460  1.00  0.00     0.091 C 
HETATM   20  C29 UNL     1      -8.029   6.275  14.270  1.00  0.00     0.005 C 
HETATM   21  C30 UNL     1      -7.286   7.368  13.460  1.00  0.00     0.019 C 
ENDROOT
BRANCH   1  22
HETATM   22  C11 UNL     1      -6.154   4.553  13.669  1.00  0.00     0.185 C 
HETATM   23  O4  UNL     1      -4.997   4.977  13.535  1.00  0.00    -0.292 OA
BRANCH  22  24
HETATM   24  C10 UNL     1      -6.727   3.471  12.758  1.00  0.00     0.260 C 
BRANCH  24  25
HETATM   25  O3  UNL     1      -5.976   3.353  11.548  1.00  0.00    -0.314 OA
BRANCH  25  26
HETATM   26  C9  UNL     1      -5.392   2.135  11.369  1.00  0.00     0.259 C 
HETATM   27  O2  UNL     1      -5.996   1.104  11.109  1.00  0.00    -0.265 OA
BRANCH  26  28
HETATM   28  C8  UNL     1      -3.912   2.223  11.593  1.00  0.00     0.120 C 
BRANCH  28  29
HETATM   29  C7  UNL     1      -3.364   3.431  10.852  1.00  0.00     0.112 C 
BRANCH  29  30
HETATM   30  C6  UNL     1      -1.858   3.509  10.947  1.00  0.00     0.218 C 
HETATM   31  N1  UNL     1      -1.409   4.766  11.272  1.00  0.00    -0.346 N 
HETATM   32  H11 UNL     1      -2.077   5.436  11.648  1.00  0.00     0.163 HD
HETATM   33  O1  UNL     1      -1.118   2.553  10.735  1.00  0.00    -0.274 OA
BRANCH  31  34
HETATM   34  C5  UNL     1      -0.003   5.044  11.575  1.00  0.00     0.186 C 
BRANCH  34  35
HETATM   35  C3  UNL     1       0.653   5.990  10.539  1.00  0.00     0.014 C 
HETATM   36  C4  UNL     1       2.182   5.843  10.506  1.00  0.00     0.012 C 
BRANCH  35  37
HETATM   37  C2  UNL     1       0.230   7.454  10.787  1.00  0.00     0.002 C 
HETATM   38  C1  UNL     1       0.144   8.288   9.516  1.00  0.00     0.005 C 
ENDBRANCH  35  37
ENDBRANCH  34  35
BRANCH  34  39
HETATM   39  C31 UNL     1       0.122   5.629  12.990  1.00  0.00     0.163 C 
HETATM   40  O8  UNL     1       1.156   5.815  13.612  1.00  0.00    -0.648 OA
BRANCH  39  41
HETATM   41  O9  UNL     1      -1.066   5.986  13.534  1.00  0.00    -0.775 OA
HETATM   42  H43 UNL     1      -0.818   6.331  14.419  1.00  0.00     0.167 HD
ENDBRANCH  39  41
ENDBRANCH  34  39
ENDBRANCH  31  34
ENDBRANCH  29  30
ENDBRANCH  28  29
ENDBRANCH  26  28
ENDBRANCH  25  26
ENDBRANCH  24  25
ENDBRANCH  22  24
ENDBRANCH   1  22
BRANCH   1  43
HETATM   43  O5  UNL     1      -7.807   4.070  15.293  1.00  0.00    -0.381 OA
HETATM   44  H18 UNL     1      -7.960   3.446  14.552  1.00  0.00     0.211 HD
ENDBRANCH   1  43
TORSDOF 13
ENDMDL
MODEL 5
REMARK minimizedAffinity -7.33091545
REMARK CNNscore 0.446280211
REMARK CNNaffinity 6.31021118
REMARK  13 active torsions:
REMARK  status: ('A' for Active; 'I' for Inactive)
REMARK    1  A    between atoms: C2_2  and  C3_3 
REMARK    2  A    between atoms: C3_3  and  C5_5 
REMARK    3  A    between atoms: C5_5  and  N1_6 
REMARK    4  A    between atoms: C5_5  and  C31_39 
REMARK       I    between atoms: N1_6  and  C6_7 
REMARK    5  A    between atoms: C6_7  and  C7_9 
REMARK    6  A    between atoms: C7_9  and  C8_10 
REMARK    7  A    between atoms: C8_10  and  C9_11 
REMARK    8  A    between atoms: C9_11  and  O3_13 
REMARK    9  A    between atoms: O3_13  and  C10_14 
REMARK   10  A    between atoms: C10_14  and  C11_15 
REMARK   11  A    between atoms: C11_15  and  C12_17 
REMARK   12  A    between atoms: C12_17  and  O5_18 
REMARK   13  A    between atoms: C31_39  and  O9_41 
ROOT
HETATM    1  C12 UNL     1       6.844   8.671  15.336  1.00  0.00     0.128 C 
HETATM    2  C13 UNL     1       7.211   7.655  14.232  1.00  0.00     0.047 C 
HETATM    3  C14 UNL     1       8.656   7.988  13.803  1.00  0.00     0.009 C 
HETATM    4  C15 UNL     1       9.107   9.080  14.768  1.00  0.00     0.002 C 
HETATM    5  C16 UNL     1      10.286   9.978  14.366  1.00  0.00     0.003 C 
HETATM    6  C17 UNL     1      11.534   9.139  14.055  1.00  0.00     0.010 C 
HETATM    7  C18 UNL     1      12.735  10.019  13.732  1.00  0.00     0.035 C 
HETATM    8  C19 UNL     1      13.001  11.021  14.832  1.00  0.00    -0.067 C 
HETATM    9  C20 UNL     1      14.229  11.095  15.377  1.00  0.00     0.053 C 
HETATM   10  C21 UNL     1      14.560  12.110  16.401  1.00  0.00     0.149 C 
HETATM   11  O6  UNL     1      15.616  12.031  17.019  1.00  0.00    -0.293 OA
HETATM   12  C22 UNL     1      13.577  13.228  16.609  1.00  0.00     0.084 C 
HETATM   13  C23 UNL     1      12.162  12.669  16.577  1.00  0.00     0.022 C 
HETATM   14  C24 UNL     1      11.812  11.905  15.261  1.00  0.00    -0.009 C 
HETATM   15  C25 UNL     1      11.550  12.927  14.133  1.00  0.00     0.021 C 
HETATM   16  C26 UNL     1      10.578  10.970  15.530  1.00  0.00     0.072 C 
HETATM   17  C27 UNL     1       9.276  11.685  15.947  1.00  0.00     0.133 C 
HETATM   18  O7  UNL     1       9.188  12.903  16.095  1.00  0.00    -0.297 OA
HETATM   19  C28 UNL     1       8.080  10.792  16.256  1.00  0.00     0.091 C 
HETATM   20  C29 UNL     1       7.805   9.865  15.067  1.00  0.00     0.005 C 
HETATM   21  C30 UNL     1       7.315  10.717  13.869  1.00  0.00     0.019 C 
ENDROOT
BRANCH   1  22
HETATM   22  C11 UNL     1       5.357   9.038  15.481  1.00  0.00     0.185 C 
HETATM   23  O4  UNL     1       5.038   9.913  16.299  1.00  0.00    -0.292 OA
BRANCH  22  24
HETATM   24  C10 UNL     1       4.316   8.290  14.654  1.00  0.00     0.260 C 
BRANCH  24  25
HETATM   25  O3  UNL     1       3.608   7.333  15.445  1.00  0.00    -0.314 OA
BRANCH  25  26
HETATM   26  C9  UNL     1       2.337   7.704  15.767  1.00  0.00     0.259 C 
HETATM   27  O2  UNL     1       1.929   7.878  16.906  1.00  0.00    -0.265 OA
BRANCH  26  28
HETATM   28  C8  UNL     1       1.491   7.812  14.533  1.00  0.00     0.120 C 
BRANCH  28  29
HETATM   29  C7  UNL     1       0.584   6.597  14.441  1.00  0.00     0.112 C 
BRANCH  29  30
HETATM   30  C6  UNL     1       0.584   6.003  13.051  1.00  0.00     0.218 C 
HETATM   31  N1  UNL     1       1.077   6.867  12.103  1.00  0.00    -0.346 N 
HETATM   32  H11 UNL     1       1.603   7.681  12.417  1.00  0.00     0.163 HD
HETATM   33  O1  UNL     1       0.168   4.877  12.797  1.00  0.00    -0.274 OA
BRANCH  31  34
HETATM   34  C5  UNL     1       1.321   6.458  10.718  1.00  0.00     0.186 C 
BRANCH  34  35
HETATM   35  C3  UNL     1       1.335   7.656   9.737  1.00  0.00     0.014 C 
HETATM   36  C4  UNL     1      -0.020   8.378   9.685  1.00  0.00     0.012 C 
BRANCH  35  37
HETATM   37  C2  UNL     1       1.794   7.210   8.332  1.00  0.00     0.002 C 
HETATM   38  C1  UNL     1       2.743   8.194   7.660  1.00  0.00     0.005 C 
ENDBRANCH  35  37
ENDBRANCH  34  35
BRANCH  34  39
HETATM   39  C31 UNL     1       2.641   5.676  10.629  1.00  0.00     0.163 C 
HETATM   40  O8  UNL     1       2.864   4.704   9.926  1.00  0.00    -0.648 OA
BRANCH  39  41
HETATM   41  O9  UNL     1       3.626   6.187  11.406  1.00  0.00    -0.775 OA
HETATM   42  H43 UNL     1       4.384   5.586  11.240  1.00  0.00     0.167 HD
ENDBRANCH  39  41
ENDBRANCH  34  39
ENDBRANCH  31  34
ENDBRANCH  29  30
ENDBRANCH  28  29
ENDBRANCH  26  28
ENDBRANCH  25  26
ENDBRANCH  24  25
ENDBRANCH  22  24
ENDBRANCH   1  22
BRANCH   1  43
HETATM   43  O5  UNL     1       7.203   8.055  16.590  1.00  0.00    -0.381 OA
HETATM   44  H18 UNL     1       6.668   8.494  17.284  1.00  0.00     0.211 HD
ENDBRANCH   1  43
TORSDOF 13
ENDMDL
MODEL 6
REMARK minimizedAffinity -9.54318714
REMARK CNNscore 0.39283967
REMARK CNNaffinity 6.78090668
REMARK  13 active torsions:
REMARK  status: ('A' for Active; 'I' for Inactive)
REMARK    1  A    between atoms: C2_2  and  C3_3 
REMARK    2  A    between atoms: C3_3  and  C5_5 
REMARK    3  A    between atoms: C5_5  and  N1_6 
REMARK    4  A    between atoms: C5_5  and  C31_39 
REMARK       I    between atoms: N1_6  and  C6_7 
REMARK    5  A    between atoms: C6_7  and  C7_9 
REMARK    6  A    between atoms: C7_9  and  C8_10 
REMARK    7  A    between atoms: C8_10  and  C9_11 
REMARK    8  A    between atoms: C9_11  and  O3_13 
REMARK    9  A    between atoms: O3_13  and  C10_14 
REMARK   10  A    between atoms: C10_14  and  C11_15 
REMARK   11  A    between atoms: C11_15  and  C12_17 
REMARK   12  A    between atoms: C12_17  and  O5_18 
REMARK   13  A    between atoms: C31_39  and  O9_41 
ROOT
HETATM    1  C12 UNL     1      -1.184   7.553  12.970  1.00  0.00     0.128 C 
HETATM    2  C13 UNL     1      -0.872   6.137  12.440  1.00  0.00     0.047 C 
HETATM    3  C14 UNL     1      -2.182   5.330  12.569  1.00  0.00     0.009 C 
HETATM    4  C15 UNL     1      -3.222   6.347  13.030  1.00  0.00     0.002 C 
HETATM    5  C16 UNL     1      -4.502   5.838  13.708  1.00  0.00     0.003 C 
HETATM    6  C17 UNL     1      -5.245   4.846  12.802  1.00  0.00     0.010 C 
HETATM    7  C18 UNL     1      -6.558   4.391  13.427  1.00  0.00     0.035 C 
HETATM    8  C19 UNL     1      -7.433   5.567  13.797  1.00  0.00    -0.067 C 
HETATM    9  C20 UNL     1      -8.701   5.615  13.349  1.00  0.00     0.053 C 
HETATM   10  C21 UNL     1      -9.621   6.704  13.747  1.00  0.00     0.149 C 
HETATM   11  O6  UNL     1     -10.698   6.833  13.175  1.00  0.00    -0.293 OA
HETATM   12  C22 UNL     1      -9.189   7.594  14.878  1.00  0.00     0.084 C 
HETATM   13  C23 UNL     1      -7.709   7.915  14.732  1.00  0.00     0.022 C 
HETATM   14  C24 UNL     1      -6.789   6.655  14.681  1.00  0.00    -0.009 C 
HETATM   15  C25 UNL     1      -6.634   6.078  16.105  1.00  0.00     0.021 C 
HETATM   16  C26 UNL     1      -5.413   7.057  14.037  1.00  0.00     0.072 C 
HETATM   17  C27 UNL     1      -4.603   8.123  14.803  1.00  0.00     0.133 C 
HETATM   18  O7  UNL     1      -4.997   8.661  15.837  1.00  0.00    -0.297 OA
HETATM   19  C28 UNL     1      -3.286   8.560  14.172  1.00  0.00     0.091 C 
HETATM   20  C29 UNL     1      -2.407   7.332  13.907  1.00  0.00     0.005 C 
HETATM   21  C30 UNL     1      -1.969   6.726  15.264  1.00  0.00     0.019 C 
ENDROOT
BRANCH   1  22
HETATM   22  C11 UNL     1      -0.015   8.343  13.585  1.00  0.00     0.185 C 
HETATM   23  O4  UNL     1       0.555   9.198  12.892  1.00  0.00    -0.292 OA
BRANCH  22  24
HETATM   24  C10 UNL     1       0.439   8.023  15.006  1.00  0.00     0.260 C 
BRANCH  24  25
HETATM   25  O3  UNL     1       0.468   9.196  15.823  1.00  0.00    -0.314 OA
BRANCH  25  26
HETATM   26  C9  UNL     1       1.569   9.296  16.619  1.00  0.00     0.259 C 
HETATM   27  O2  UNL     1       2.319   8.369  16.891  1.00  0.00    -0.265 OA
BRANCH  26  28
HETATM   28  C8  UNL     1       1.700  10.686  17.165  1.00  0.00     0.120 C 
BRANCH  28  29
HETATM   29  C7  UNL     1       1.262  10.696  18.620  1.00  0.00     0.112 C 
BRANCH  29  30
HETATM   30  C6  UNL     1       2.424  10.446  19.555  1.00  0.00     0.218 C 
HETATM   31  N1  UNL     1       2.024  10.132  20.830  1.00  0.00    -0.346 N 
HETATM   32  H11 UNL     1       1.054   9.858  20.979  1.00  0.00     0.163 HD
HETATM   33  O1  UNL     1       3.598  10.538  19.210  1.00  0.00    -0.274 OA
BRANCH  31  34
HETATM   34  C5  UNL     1       2.966   9.696  21.864  1.00  0.00     0.186 C 
BRANCH  34  35
HETATM   35  C3  UNL     1       3.453  10.865  22.756  1.00  0.00     0.014 C 
HETATM   36  C4  UNL     1       2.801  12.200  22.368  1.00  0.00     0.012 C 
BRANCH  35  37
HETATM   37  C2  UNL     1       4.994  10.961  22.740  1.00  0.00     0.002 C 
HETATM   38  C1  UNL     1       5.518  12.375  22.954  1.00  0.00     0.005 C 
ENDBRANCH  35  37
ENDBRANCH  34  35
BRANCH  34  39
HETATM   39  C31 UNL     1       2.325   8.596  22.725  1.00  0.00     0.163 C 
HETATM   40  O8  UNL     1       1.700   7.628  22.322  1.00  0.00    -0.648 OA
BRANCH  39  41
HETATM   41  O9  UNL     1       2.539   8.756  24.053  1.00  0.00    -0.775 OA
HETATM   42  H43 UNL     1       2.073   7.990  24.454  1.00  0.00     0.167 HD
ENDBRANCH  39  41
ENDBRANCH  34  39
ENDBRANCH  31  34
ENDBRANCH  29  30
ENDBRANCH  28  29
ENDBRANCH  26  28
ENDBRANCH  25  26
ENDBRANCH  24  25
ENDBRANCH  22  24
ENDBRANCH   1  22
BRANCH   1  43
HETATM   43  O5  UNL     1      -1.603   8.331  11.829  1.00  0.00    -0.381 OA
HETATM   44  H18 UNL     1      -1.454   9.272  12.058  1.00  0.00     0.211 HD
ENDBRANCH   1  43
TORSDOF 13
ENDMDL
MODEL 7
REMARK minimizedAffinity -8.38712406
REMARK CNNscore 0.388356447
REMARK CNNaffinity 6.75637865
REMARK  13 active torsions:
REMARK  status: ('A' for Active; 'I' for Inactive)
REMARK    1  A    between atoms: C2_2  and  C3_3 
REMARK    2  A    between atoms: C3_3  and  C5_5 
REMARK    3  A    between atoms: C5_5  and  N1_6 
REMARK    4  A    between atoms: C5_5  and  C31_39 
REMARK       I    between atoms: N1_6  and  C6_7 
REMARK    5  A    between atoms: C6_7  and  C7_9 
REMARK    6  A    between atoms: C7_9  and  C8_10 
REMARK    7  A    between atoms: C8_10  and  C9_11 
REMARK    8  A    between atoms: C9_11  and  O3_13 
REMARK    9  A    between atoms: O3_13  and  C10_14 
REMARK   10  A    between atoms: C10_14  and  C11_15 
REMARK   11  A    between atoms: C11_15  and  C12_17 
REMARK   12  A    between atoms: C12_17  and  O5_18 
REMARK   13  A    between atoms: C31_39  and  O9_41 
ROOT
HETATM    1  C12 UNL     1      -7.014   5.107  14.654  1.00  0.00     0.128 C 
HETATM    2  C13 UNL     1      -6.301   5.720  15.879  1.00  0.00     0.047 C 
HETATM    3  C14 UNL     1      -7.243   6.814  16.423  1.00  0.00     0.009 C 
HETATM    4  C15 UNL     1      -8.510   6.690  15.584  1.00  0.00     0.002 C 
HETATM    5  C16 UNL     1      -9.467   7.889  15.511  1.00  0.00     0.003 C 
HETATM    6  C17 UNL     1      -9.924   8.312  16.915  1.00  0.00     0.010 C 
HETATM    7  C18 UNL     1     -10.936   9.449  16.856  1.00  0.00     0.035 C 
HETATM    8  C19 UNL     1     -12.112   9.100  15.974  1.00  0.00    -0.067 C 
HETATM    9  C20 UNL     1     -13.361   9.213  16.460  1.00  0.00     0.053 C 
HETATM   10  C21 UNL     1     -14.547   8.958  15.612  1.00  0.00     0.149 C 
HETATM   11  O6  UNL     1     -15.658   8.874  16.126  1.00  0.00    -0.293 OA
HETATM   12  C22 UNL     1     -14.326   8.846  14.130  1.00  0.00     0.084 C 
HETATM   13  C23 UNL     1     -13.063   8.039  13.867  1.00  0.00     0.022 C 
HETATM   14  C24 UNL     1     -11.784   8.626  14.543  1.00  0.00    -0.009 C 
HETATM   15  C25 UNL     1     -11.298   9.852  13.737  1.00  0.00     0.021 C 
HETATM   16  C26 UNL     1     -10.697   7.496  14.639  1.00  0.00     0.072 C 
HETATM   17  C27 UNL     1     -10.218   6.912  13.294  1.00  0.00     0.133 C 
HETATM   18  O7  UNL     1     -10.661   7.269  12.204  1.00  0.00    -0.297 OA
HETATM   19  C28 UNL     1      -9.196   5.783  13.368  1.00  0.00     0.091 C 
HETATM   20  C29 UNL     1      -7.988   6.231  14.198  1.00  0.00     0.005 C 
HETATM   21  C30 UNL     1      -7.235   7.345  13.428  1.00  0.00     0.019 C 
ENDROOT
BRANCH   1  22
HETATM   22  C11 UNL     1      -6.122   4.517  13.549  1.00  0.00     0.185 C 
HETATM   23  O4  UNL     1      -6.631   3.746  12.722  1.00  0.00    -0.292 OA
BRANCH  22  24
HETATM   24  C10 UNL     1      -4.634   4.856  13.525  1.00  0.00     0.260 C 
BRANCH  24  25
HETATM   25  O3  UNL     1      -4.181   5.134  12.199  1.00  0.00    -0.314 OA
BRANCH  25  26
HETATM   26  C9  UNL     1      -3.117   4.381  11.802  1.00  0.00     0.259 C 
HETATM   27  O2  UNL     1      -3.192   3.390  11.091  1.00  0.00    -0.265 OA
BRANCH  26  28
HETATM   28  C8  UNL     1      -1.848   4.901  12.408  1.00  0.00     0.120 C 
BRANCH  28  29
HETATM   29  C7  UNL     1      -0.750   4.888  11.357  1.00  0.00     0.112 C 
BRANCH  29  30
HETATM   30  C6  UNL     1      -0.170   6.266  11.138  1.00  0.00     0.218 C 
HETATM   31  N1  UNL     1       0.630   6.337  10.024  1.00  0.00    -0.346 N 
HETATM   32  H11 UNL     1       0.572   5.586   9.339  1.00  0.00     0.163 HD
HETATM   33  O1  UNL     1      -0.377   7.213  11.891  1.00  0.00    -0.274 OA
BRANCH  31  34
HETATM   34  C5  UNL     1       1.171   7.603   9.525  1.00  0.00     0.186 C 
BRANCH  34  35
HETATM   35  C3  UNL     1       2.436   7.407   8.654  1.00  0.00     0.014 C 
HETATM   36  C4  UNL     1       3.382   8.616   8.724  1.00  0.00     0.012 C 
BRANCH  35  37
HETATM   37  C2  UNL     1       2.053   7.072   7.196  1.00  0.00     0.002 C 
HETATM   38  C1  UNL     1       2.576   5.722   6.723  1.00  0.00     0.005 C 
ENDBRANCH  35  37
ENDBRANCH  34  35
BRANCH  34  39
HETATM   39  C31 UNL     1       0.090   8.360   8.737  1.00  0.00     0.163 C 
HETATM   40  O8  UNL     1      -0.621   9.259   9.156  1.00  0.00    -0.648 OA
BRANCH  39  41
HETATM   41  O9  UNL     1      -0.013   7.965   7.445  1.00  0.00    -0.775 OA
HETATM   42  H43 UNL     1      -0.733   8.530   7.090  1.00  0.00     0.167 HD
ENDBRANCH  39  41
ENDBRANCH  34  39
ENDBRANCH  31  34
ENDBRANCH  29  30
ENDBRANCH  28  29
ENDBRANCH  26  28
ENDBRANCH  25  26
ENDBRANCH  24  25
ENDBRANCH  22  24
ENDBRANCH   1  22
BRANCH   1  43
HETATM   43  O5  UNL     1      -7.785   3.992  15.149  1.00  0.00    -0.381 OA
HETATM   44  H18 UNL     1      -7.938   3.393  14.388  1.00  0.00     0.211 HD
ENDBRANCH   1  43
TORSDOF 13
ENDMDL
MODEL 8
REMARK minimizedAffinity -7.30801058
REMARK CNNscore 0.387571722
REMARK CNNaffinity 6.25348854
REMARK  13 active torsions:
REMARK  status: ('A' for Active; 'I' for Inactive)
REMARK    1  A    between atoms: C2_2  and  C3_3 
REMARK    2  A    between atoms: C3_3  and  C5_5 
REMARK    3  A    between atoms: C5_5  and  N1_6 
REMARK    4  A    between atoms: C5_5  and  C31_39 
REMARK       I    between atoms: N1_6  and  C6_7 
REMARK    5  A    between atoms: C6_7  and  C7_9 
REMARK    6  A    between atoms: C7_9  and  C8_10 
REMARK    7  A    between atoms: C8_10  and  C9_11 
REMARK    8  A    between atoms: C9_11  and  O3_13 
REMARK    9  A    between atoms: O3_13  and  C10_14 
REMARK   10  A    between atoms: C10_14  and  C11_15 
REMARK   11  A    between atoms: C11_15  and  C12_17 
REMARK   12  A    between atoms: C12_17  and  O5_18 
REMARK   13  A    between atoms: C31_39  and  O9_41 
ROOT
HETATM    1  C12 UNL     1      -1.676  11.415  18.302  1.00  0.00     0.128 C 
HETATM    2  C13 UNL     1      -3.022  12.170  18.359  1.00  0.00     0.047 C 
HETATM    3  C14 UNL     1      -3.925  11.524  17.288  1.00  0.00     0.009 C 
HETATM    4  C15 UNL     1      -3.119  10.341  16.761  1.00  0.00     0.002 C 
HETATM    5  C16 UNL     1      -3.479   9.756  15.388  1.00  0.00     0.003 C 
HETATM    6  C17 UNL     1      -4.952   9.324  15.344  1.00  0.00     0.010 C 
HETATM    7  C18 UNL     1      -5.304   8.669  14.014  1.00  0.00     0.035 C 
HETATM    8  C19 UNL     1      -4.380   7.516  13.701  1.00  0.00    -0.067 C 
HETATM    9  C20 UNL     1      -4.901   6.311  13.407  1.00  0.00     0.053 C 
HETATM   10  C21 UNL     1      -4.041   5.170  13.019  1.00  0.00     0.149 C 
HETATM   11  O6  UNL     1      -4.518   4.043  12.950  1.00  0.00    -0.293 OA
HETATM   12  C22 UNL     1      -2.605   5.468  12.690  1.00  0.00     0.084 C 
HETATM   13  C23 UNL     1      -2.057   6.479  13.687  1.00  0.00     0.022 C 
HETATM   14  C24 UNL     1      -2.866   7.813  13.746  1.00  0.00    -0.009 C 
HETATM   15  C25 UNL     1      -2.516   8.676  12.514  1.00  0.00     0.021 C 
HETATM   16  C26 UNL     1      -2.550   8.539  15.104  1.00  0.00     0.072 C 
HETATM   17  C27 UNL     1      -1.077   8.943  15.318  1.00  0.00     0.133 C 
HETATM   18  O7  UNL     1      -0.183   8.702  14.509  1.00  0.00    -0.297 OA
HETATM   19  C28 UNL     1      -0.742   9.608  16.648  1.00  0.00     0.091 C 
HETATM   20  C29 UNL     1      -1.650  10.824  16.863  1.00  0.00     0.005 C 
HETATM   21  C30 UNL     1      -1.290  11.911  15.819  1.00  0.00     0.019 C 
ENDROOT
BRANCH   1  22
HETATM   22  C11 UNL     1      -0.418  12.196  18.719  1.00  0.00     0.185 C 
HETATM   23  O4  UNL     1      -0.483  13.431  18.799  1.00  0.00    -0.292 OA
BRANCH  22  24
HETATM   24  C10 UNL     1       0.882  11.439  18.977  1.00  0.00     0.260 C 
BRANCH  24  25
HETATM   25  O3  UNL     1       0.973  11.000  20.334  1.00  0.00    -0.314 OA
BRANCH  25  26
HETATM   26  C9  UNL     1       2.086  10.265  20.610  1.00  0.00     0.259 C 
HETATM   27  O2  UNL     1       2.604   9.469  19.841  1.00  0.00    -0.265 OA
BRANCH  26  28
HETATM   28  C8  UNL     1       2.553  10.522  22.012  1.00  0.00     0.120 C 
BRANCH  28  29
HETATM   29  C7  UNL     1       4.039  10.220  22.107  1.00  0.00     0.112 C 
BRANCH  29  30
HETATM   30  C6  UNL     1       4.878  11.418  21.723  1.00  0.00     0.218 C 
HETATM   31  N1  UNL     1       4.586  12.534  22.469  1.00  0.00    -0.346 N 
HETATM   32  H11 UNL     1       4.053  12.415  23.328  1.00  0.00     0.163 HD
HETATM   33  O1  UNL     1       5.715  11.396  20.826  1.00  0.00    -0.274 OA
BRANCH  31  34
HETATM   34  C5  UNL     1       5.377  13.764  22.385  1.00  0.00     0.186 C 
BRANCH  34  35
HETATM   35  C3  UNL     1       6.656  13.709  23.257  1.00  0.00     0.014 C 
HETATM   36  C4  UNL     1       7.448  15.024  23.207  1.00  0.00     0.012 C 
BRANCH  35  37
HETATM   37  C2  UNL     1       7.536  12.502  22.867  1.00  0.00     0.002 C 
HETATM   38  C1  UNL     1       9.001  12.667  23.249  1.00  0.00     0.005 C 
ENDBRANCH  35  37
ENDBRANCH  34  35
BRANCH  34  39
HETATM   39  C31 UNL     1       5.739  14.054  20.920  1.00  0.00     0.163 C 
HETATM   40  O8  UNL     1       4.972  14.398  20.035  1.00  0.00    -0.648 OA
BRANCH  39  41
HETATM   41  O9  UNL     1       7.062  13.929  20.655  1.00  0.00    -0.775 OA
HETATM   42  H43 UNL     1       7.125  14.141  19.699  1.00  0.00     0.167 HD
ENDBRANCH  39  41
ENDBRANCH  34  39
ENDBRANCH  31  34
ENDBRANCH  29  30
ENDBRANCH  28  29
ENDBRANCH  26  28
ENDBRANCH  25  26
ENDBRANCH  24  25
ENDBRANCH  22  24
ENDBRANCH   1  22
BRANCH   1  43
HETATM   43  O5  UNL     1      -1.778  10.333  19.251  1.00  0.00    -0.381 OA
HETATM   44  H18 UNL     1      -0.862  10.082  19.493  1.00  0.00     0.211 HD
ENDBRANCH   1  43
TORSDOF 13
ENDMDL
MODEL 9
REMARK minimizedAffinity -9.38190746
REMARK CNNscore 0.322042733
REMARK CNNaffinity 7.03775024
REMARK  13 active torsions:
REMARK  status: ('A' for Active; 'I' for Inactive)
REMARK    1  A    between atoms: C2_2  and  C3_3 
REMARK    2  A    between atoms: C3_3  and  C5_5 
REMARK    3  A    between atoms: C5_5  and  N1_6 
REMARK    4  A    between atoms: C5_5  and  C31_39 
REMARK       I    between atoms: N1_6  and  C6_7 
REMARK    5  A    between atoms: C6_7  and  C7_9 
REMARK    6  A    between atoms: C7_9  and  C8_10 
REMARK    7  A    between atoms: C8_10  and  C9_11 
REMARK    8  A    between atoms: C9_11  and  O3_13 
REMARK    9  A    between atoms: O3_13  and  C10_14 
REMARK   10  A    between atoms: C10_14  and  C11_15 
REMARK   11  A    between atoms: C11_15  and  C12_17 
REMARK   12  A    between atoms: C12_17  and  O5_18 
REMARK   13  A    between atoms: C31_39  and  O9_41 
ROOT
HETATM    1  C12 UNL     1      -2.654   6.791  13.585  1.00  0.00     0.128 C 
HETATM    2  C13 UNL     1      -2.607   5.416  12.882  1.00  0.00     0.047 C 
HETATM    3  C14 UNL     1      -4.070   4.936  12.774  1.00  0.00     0.009 C 
HETATM    4  C15 UNL     1      -4.903   6.108  13.285  1.00  0.00     0.002 C 
HETATM    5  C16 UNL     1      -6.336   5.840  13.765  1.00  0.00     0.003 C 
HETATM    6  C17 UNL     1      -7.169   5.173  12.660  1.00  0.00     0.010 C 
HETATM    7  C18 UNL     1      -8.616   4.972  13.092  1.00  0.00     0.035 C 
HETATM    8  C19 UNL     1      -9.243   6.268  13.551  1.00  0.00    -0.067 C 
HETATM    9  C20 UNL     1     -10.404   6.671  13.004  1.00  0.00     0.053 C 
HETATM   10  C21 UNL     1     -11.097   7.892  13.474  1.00  0.00     0.149 C 
HETATM   11  O6  UNL     1     -12.041   8.343  12.833  1.00  0.00    -0.293 OA
HETATM   12  C22 UNL     1     -10.616   8.509  14.757  1.00  0.00     0.084 C 
HETATM   13  C23 UNL     1      -9.095   8.483  14.793  1.00  0.00     0.022 C 
HETATM   14  C24 UNL     1      -8.482   7.055  14.639  1.00  0.00    -0.009 C 
HETATM   15  C25 UNL     1      -8.635   6.288  15.971  1.00  0.00     0.021 C 
HETATM   16  C26 UNL     1      -6.984   7.192  14.186  1.00  0.00     0.072 C 
HETATM   17  C27 UNL     1      -6.054   7.933  15.169  1.00  0.00     0.133 C 
HETATM   18  O7  UNL     1      -6.439   8.419  16.231  1.00  0.00    -0.297 OA
HETATM   19  C28 UNL     1      -4.606   8.116  14.728  1.00  0.00     0.091 C 
HETATM   20  C29 UNL     1      -3.999   6.756  14.366  1.00  0.00     0.005 C 
HETATM   21  C30 UNL     1      -3.876   5.901  15.652  1.00  0.00     0.019 C 
ENDROOT
BRANCH   1  22
HETATM   22  C11 UNL     1      -1.421   7.197  14.410  1.00  0.00     0.185 C 
HETATM   23  O4  UNL     1      -0.968   6.394  15.237  1.00  0.00    -0.292 OA
BRANCH  22  24
HETATM   24  C10 UNL     1      -0.820   8.587  14.223  1.00  0.00     0.260 C 
BRANCH  24  25
HETATM   25  O3  UNL     1       0.609   8.544  14.217  1.00  0.00    -0.314 OA
BRANCH  25  26
HETATM   26  C9  UNL     1       1.155   8.285  12.996  1.00  0.00     0.259 C 
HETATM   27  O2  UNL     1       0.894   8.899  11.972  1.00  0.00    -0.265 OA
BRANCH  26  28
HETATM   28  C8  UNL     1       2.076   7.104  13.070  1.00  0.00     0.120 C 
BRANCH  28  29
HETATM   29  C7  UNL     1       1.287   5.837  12.783  1.00  0.00     0.112 C 
BRANCH  29  30
HETATM   30  C6  UNL     1       1.447   5.393  11.347  1.00  0.00     0.218 C 
HETATM   31  N1  UNL     1       2.188   6.272  10.596  1.00  0.00    -0.346 N 
HETATM   32  H11 UNL     1       2.748   6.970  11.082  1.00  0.00     0.163 HD
HETATM   33  O1  UNL     1       0.947   4.365  10.899  1.00  0.00    -0.274 OA
BRANCH  31  34
HETATM   34  C5  UNL     1       2.608   5.975   9.225  1.00  0.00     0.186 C 
BRANCH  34  35
HETATM   35  C3  UNL     1       3.091   7.235   8.464  1.00  0.00     0.014 C 
HETATM   36  C4  UNL     1       3.728   8.270   9.403  1.00  0.00     0.012 C 
BRANCH  35  37
HETATM   37  C2  UNL     1       1.942   7.851   7.638  1.00  0.00     0.002 C 
HETATM   38  C1  UNL     1       1.705   7.152   6.305  1.00  0.00     0.005 C 
ENDBRANCH  35  37
ENDBRANCH  34  35
BRANCH  34  39
HETATM   39  C31 UNL     1       3.706   4.900   9.234  1.00  0.00     0.163 C 
HETATM   40  O8  UNL     1       3.776   3.925   8.505  1.00  0.00    -0.648 OA
BRANCH  39  41
HETATM   41  O9  UNL     1       4.683   5.134  10.144  1.00  0.00    -0.775 OA
HETATM   42  H43 UNL     1       5.291   4.373  10.027  1.00  0.00     0.167 HD
ENDBRANCH  39  41
ENDBRANCH  34  39
ENDBRANCH  31  34
ENDBRANCH  29  30
ENDBRANCH  28  29
ENDBRANCH  26  28
ENDBRANCH  25  26
ENDBRANCH  24  25
ENDBRANCH  22  24
ENDBRANCH   1  22
BRANCH   1  43
HETATM   43  O5  UNL     1      -2.747   7.779  12.537  1.00  0.00    -0.381 OA
HETATM   44  H18 UNL     1      -2.419   8.622  12.914  1.00  0.00     0.211 HD
ENDBRANCH   1  43
TORSDOF 13
ENDMDL
