MODEL 1
REMARK minimizedAffinity -9.06912136
REMARK CNNscore 0.553457618
REMARK CNNaffinity 7.29690409
REMARK  9 active torsions:
REMARK  status: ('A' for Active; 'I' for Inactive)
REMARK    1  A    between atoms: C6_6  and  C8_8 
REMARK    2  A    between atoms: C8_8  and  O2_10 
REMARK    3  A    between atoms: O2_10  and  C9_11 
REMARK    4  A    between atoms: C9_11  and  C10_12 
REMARK    5  A    between atoms: C10_12  and  O3_13 
REMARK    6  A    between atoms: C27_33  and  O7_34 
REMARK    7  A    between atoms: C38_45  and  O8_46 
REMARK    8  A    between atoms: C38_45  and  C39_47 
REMARK    9  A    between atoms: C39_47  and  O9_48 
ROOT
HETATM    1  O2  UNL     1       1.204   9.829  15.990  1.00  0.00    -0.317 OA
ENDROOT
BRANCH   1   2
HETATM    2  C8  UNL     1       1.767  10.181  17.182  1.00  0.00     0.267 C 
HETATM    3  O1  UNL     1       2.332   9.372  17.909  1.00  0.00    -0.264 OA
BRANCH   2   4
HETATM    4  C6  UNL     1       1.640  11.692  17.463  1.00  0.00     0.049 C 
HETATM    5  C5  UNL     1       2.014  11.950  18.945  1.00  0.00     0.020 C 
HETATM    6  C4  UNL     1       0.928  11.534  19.929  1.00  0.00     0.002 C 
HETATM    7  C3  UNL     1      -0.374  12.262  19.637  1.00  0.00     0.010 C 
HETATM    8  C2  UNL     1      -0.910  12.049  18.194  1.00  0.00    -0.035 C 
HETATM    9  C1  UNL     1      -1.471  10.614  18.080  1.00  0.00     0.016 C 
HETATM   10  C29 UNL     1       0.228  12.322  17.150  1.00  0.00     0.012 C 
HETATM   11  C37 UNL     1      -2.040  13.118  17.938  1.00  0.00     0.010 C 
HETATM   12  C30 UNL     1      -0.270  12.031  15.728  1.00  0.00     0.008 C 
HETATM   13  C31 UNL     1      -1.636  12.608  15.355  1.00  0.00     0.018 C 
HETATM   14  C32 UNL     1      -2.456  13.303  16.445  1.00  0.00     0.028 C 
HETATM   15  C33 UNL     1      -3.965  13.029  16.230  1.00  0.00     0.026 C 
HETATM   16  C40 UNL     1      -2.466  14.824  16.212  1.00  0.00     0.172 C 
HETATM   17  C34 UNL     1      -4.612  14.186  17.000  1.00  0.00     0.031 C 
HETATM   18  C35 UNL     1      -4.413  13.946  18.513  1.00  0.00     0.009 C 
HETATM   19  C38 UNL     1      -3.860  15.407  16.410  1.00  0.00     0.143 C 
HETATM   20  C36 UNL     1      -3.277  12.971  18.857  1.00  0.00     0.007 C 
HETATM   21  O10 UNL     1      -1.479  15.493  15.918  1.00  0.00    -0.294 OA
HETATM   22  C7  UNL     1       2.741  12.392  16.618  1.00  0.00     0.026 C 
BRANCH  19  23
HETATM   23  O8  UNL     1      -4.395  15.684  15.106  1.00  0.00    -0.379 OA
HETATM   24  H53 UNL     1      -3.860  16.406  14.725  1.00  0.00     0.211 HD
ENDBRANCH  19  23
BRANCH  19  25
HETATM   25  C39 UNL     1      -3.821  16.689  17.245  1.00  0.00     0.210 C 
BRANCH  25  26
HETATM   26  O9  UNL     1      -3.231  17.758  16.508  1.00  0.00    -0.397 OA
HETATM   27  H56 UNL     1      -2.971  18.433  17.152  1.00  0.00     0.209 HD
ENDBRANCH  25  26
ENDBRANCH  19  25
ENDBRANCH   2   4
ENDBRANCH   1   2
BRANCH   1  28
HETATM   28  C9  UNL     1       2.100   9.256  15.021  1.00  0.00     0.227 C 
BRANCH  28  29
HETATM   29  C10 UNL     1       1.783   7.780  14.772  1.00  0.00     0.171 C 
HETATM   30  C11 UNL     1       0.346   7.408  15.148  1.00  0.00     0.175 C 
HETATM   31  O4  UNL     1      -0.205   7.793  16.170  1.00  0.00    -0.294 OA
HETATM   32  C12 UNL     1      -0.313   6.511  14.076  1.00  0.00     0.037 C 
HETATM   33  C13 UNL     1      -1.077   5.326  14.690  1.00  0.00     0.019 C 
HETATM   34  C23 UNL     1      -1.172   7.405  13.110  1.00  0.00     0.003 C 
HETATM   35  C28 UNL     1       0.983   6.007  13.402  1.00  0.00     0.059 C 
HETATM   36  C14 UNL     1      -2.598   5.499  14.762  1.00  0.00     0.010 C 
HETATM   37  C15 UNL     1      -2.992   6.956  14.982  1.00  0.00     0.040 C 
HETATM   38  C16 UNL     1      -4.494   7.271  14.964  1.00  0.00     0.051 C 
HETATM   39  C21 UNL     1      -2.508   7.885  13.855  1.00  0.00     0.084 C 
HETATM   40  C17 UNL     1      -5.392   6.213  15.589  1.00  0.00     0.026 C 
HETATM   41  C18 UNL     1      -4.769   8.671  15.557  1.00  0.00     0.020 C 
HETATM   42  C22 UNL     1      -4.742   7.402  13.481  1.00  0.00     0.268 C 
HETATM   43  C19 UNL     1      -3.565   9.620  15.490  1.00  0.00     0.004 C 
HETATM   44  C20 UNL     1      -2.522   9.342  14.391  1.00  0.00     0.040 C 
HETATM   45  O5  UNL     1      -3.591   7.828  12.887  1.00  0.00    -0.308 OA
HETATM   46  O6  UNL     1      -5.789   7.209  12.889  1.00  0.00    -0.264 OA
HETATM   47  C24 UNL     1      -1.542   6.587  11.824  1.00  0.00     0.019 C 
HETATM   48  C25 UNL     1      -0.300   8.594  12.578  1.00  0.00     0.016 C 
HETATM   49  C26 UNL     1       1.161   8.220  12.263  1.00  0.00     0.042 C 
HETATM   50  C27 UNL     1       1.811   7.289  13.303  1.00  0.00     0.099 C 
BRANCH  29  51
HETATM   51  O3  UNL     1       2.671   6.932  15.529  1.00  0.00    -0.377 OA
HETATM   52  H15 UNL     1       2.836   7.371  16.391  1.00  0.00     0.211 HD
ENDBRANCH  29  51
BRANCH  50  53
HETATM   53  O7  UNL     1       3.135   6.964  12.887  1.00  0.00    -0.386 OA
HETATM   54  H37 UNL     1       3.587   6.614  13.681  1.00  0.00     0.210 HD
ENDBRANCH  50  53
ENDBRANCH  28  29
ENDBRANCH   1  28
TORSDOF 9
ENDMDL
MODEL 2
REMARK minimizedAffinity -8.94368267
REMARK CNNscore 0.468379796
REMARK CNNaffinity 6.61214447
REMARK  9 active torsions:
REMARK  status: ('A' for Active; 'I' for Inactive)
REMARK    1  A    between atoms: C6_6  and  C8_8 
REMARK    2  A    between atoms: C8_8  and  O2_10 
REMARK    3  A    between atoms: O2_10  and  C9_11 
REMARK    4  A    between atoms: C9_11  and  C10_12 
REMARK    5  A    between atoms: C10_12  and  O3_13 
REMARK    6  A    between atoms: C27_33  and  O7_34 
REMARK    7  A    between atoms: C38_45  and  O8_46 
REMARK    8  A    between atoms: C38_45  and  C39_47 
REMARK    9  A    between atoms: C39_47  and  O9_48 
ROOT
HETATM    1  O2  UNL     1       0.427   9.795  16.353  1.00  0.00    -0.317 OA
ENDROOT
BRANCH   1   2
HETATM    2  C8  UNL     1       1.321   9.865  17.383  1.00  0.00     0.267 C 
HETATM    3  O1  UNL     1       2.295   9.124  17.462  1.00  0.00    -0.264 OA
BRANCH   2   4
HETATM    4  C6  UNL     1       0.978  10.993  18.377  1.00  0.00     0.049 C 
HETATM    5  C5  UNL     1      -0.529  10.896  18.728  1.00  0.00     0.020 C 
HETATM    6  C4  UNL     1      -1.447  11.402  17.623  1.00  0.00     0.002 C 
HETATM    7  C3  UNL     1      -1.133  12.849  17.279  1.00  0.00     0.010 C 
HETATM    8  C2  UNL     1       0.340  13.094  16.846  1.00  0.00    -0.035 C 
HETATM    9  C1  UNL     1       0.541  12.519  15.426  1.00  0.00     0.016 C 
HETATM   10  C29 UNL     1       1.321  12.453  17.888  1.00  0.00     0.012 C 
HETATM   11  C37 UNL     1       0.594  14.649  16.866  1.00  0.00     0.010 C 
HETATM   12  C30 UNL     1       2.775  12.617  17.423  1.00  0.00     0.008 C 
HETATM   13  C31 UNL     1       3.178  14.007  16.930  1.00  0.00     0.018 C 
HETATM   14  C32 UNL     1       2.094  15.080  16.808  1.00  0.00     0.028 C 
HETATM   15  C33 UNL     1       2.383  15.990  15.589  1.00  0.00     0.026 C 
HETATM   16  C40 UNL     1       2.258  16.130  17.920  1.00  0.00     0.172 C 
HETATM   17  C34 UNL     1       1.590  17.254  15.939  1.00  0.00     0.031 C 
HETATM   18  C35 UNL     1       0.083  16.945  15.808  1.00  0.00     0.009 C 
HETATM   19  C38 UNL     1       2.093  17.544  17.378  1.00  0.00     0.143 C 
HETATM   20  C36 UNL     1      -0.265  15.449  15.856  1.00  0.00     0.007 C 
HETATM   21  O10 UNL     1       2.479  15.870  19.100  1.00  0.00    -0.294 OA
HETATM   22  C7  UNL     1       1.743  10.671  19.690  1.00  0.00     0.026 C 
BRANCH  19  23
HETATM   23  O8  UNL     1       3.404  18.123  17.294  1.00  0.00    -0.379 OA
HETATM   24  H53 UNL     1       3.729  18.229  18.208  1.00  0.00     0.211 HD
ENDBRANCH  19  23
BRANCH  19  25
HETATM   25  C39 UNL     1       1.199  18.394  18.285  1.00  0.00     0.210 C 
BRANCH  25  26
HETATM   26  O9  UNL     1       1.137  19.740  17.820  1.00  0.00    -0.397 OA
HETATM   27  H56 UNL     1       0.817  20.278  18.559  1.00  0.00     0.209 HD
ENDBRANCH  25  26
ENDBRANCH  19  25
ENDBRANCH   2   4
ENDBRANCH   1   2
BRANCH   1  28
HETATM   28  C9  UNL     1       0.378   8.539  15.654  1.00  0.00     0.227 C 
BRANCH  28  29
HETATM   29  C10 UNL     1      -0.609   8.590  14.485  1.00  0.00     0.171 C 
HETATM   30  C11 UNL     1       0.083   8.751  13.129  1.00  0.00     0.175 C 
HETATM   31  O4  UNL     1       1.012   9.522  12.933  1.00  0.00    -0.294 OA
HETATM   32  C12 UNL     1      -0.524   7.814  12.060  1.00  0.00     0.037 C 
HETATM   33  C13 UNL     1      -0.762   8.528  10.719  1.00  0.00     0.019 C 
HETATM   34  C23 UNL     1       0.351   6.513  11.955  1.00  0.00     0.003 C 
HETATM   35  C28 UNL     1      -1.876   7.550  12.761  1.00  0.00     0.059 C 
HETATM   36  C14 UNL     1       0.290   8.254   9.639  1.00  0.00     0.010 C 
HETATM   37  C15 UNL     1       1.675   8.039  10.241  1.00  0.00     0.040 C 
HETATM   38  C16 UNL     1       2.795   7.649   9.267  1.00  0.00     0.051 C 
HETATM   39  C21 UNL     1       1.730   6.843  11.208  1.00  0.00     0.084 C 
HETATM   40  C17 UNL     1       2.734   8.317   7.900  1.00  0.00     0.026 C 
HETATM   41  C18 UNL     1       4.182   7.827   9.923  1.00  0.00     0.020 C 
HETATM   42  C22 UNL     1       2.580   6.159   9.164  1.00  0.00     0.268 C 
HETATM   43  C19 UNL     1       4.153   7.776  11.456  1.00  0.00     0.004 C 
HETATM   44  C20 UNL     1       2.987   7.003  12.103  1.00  0.00     0.040 C 
HETATM   45  O5  UNL     1       2.031   5.721  10.333  1.00  0.00    -0.308 OA
HETATM   46  O6  UNL     1       2.875   5.435   8.230  1.00  0.00    -0.264 OA
HETATM   47  C24 UNL     1      -0.436   5.411  11.163  1.00  0.00     0.019 C 
HETATM   48  C25 UNL     1       0.553   5.898  13.382  1.00  0.00     0.016 C 
HETATM   49  C26 UNL     1      -0.689   5.976  14.291  1.00  0.00     0.042 C 
HETATM   50  C27 UNL     1      -1.445   7.315  14.209  1.00  0.00     0.099 C 
BRANCH  29  51
HETATM   51  O3  UNL     1      -1.532   9.687  14.643  1.00  0.00    -0.377 OA
HETATM   52  H15 UNL     1      -1.036  10.435  15.041  1.00  0.00     0.211 HD
ENDBRANCH  29  51
BRANCH  50  53
HETATM   53  O7  UNL     1      -2.600   7.259  15.041  1.00  0.00    -0.386 OA
HETATM   54  H37 UNL     1      -2.883   8.187  15.171  1.00  0.00     0.210 HD
ENDBRANCH  50  53
ENDBRANCH  28  29
ENDBRANCH   1  28
TORSDOF 9
ENDMDL
MODEL 3
REMARK minimizedAffinity -9.24393368
REMARK CNNscore 0.444161505
REMARK CNNaffinity 7.41205931
REMARK  9 active torsions:
REMARK  status: ('A' for Active; 'I' for Inactive)
REMARK    1  A    between atoms: C6_6  and  C8_8 
REMARK    2  A    between atoms: C8_8  and  O2_10 
REMARK    3  A    between atoms: O2_10  and  C9_11 
REMARK    4  A    between atoms: C9_11  and  C10_12 
REMARK    5  A    between atoms: C10_12  and  O3_13 
REMARK    6  A    between atoms: C27_33  and  O7_34 
REMARK    7  A    between atoms: C38_45  and  O8_46 
REMARK    8  A    between atoms: C38_45  and  C39_47 
REMARK    9  A    between atoms: C39_47  and  O9_48 
ROOT
HETATM    1  O2  UNL     1       2.325   9.416  14.866  1.00  0.00    -0.317 OA
ENDROOT
BRANCH   1   2
HETATM    2  C8  UNL     1       3.511   9.248  15.520  1.00  0.00     0.267 C 
HETATM    3  O1  UNL     1       3.911   8.150  15.890  1.00  0.00    -0.264 OA
BRANCH   2   4
HETATM    4  C6  UNL     1       4.278  10.576  15.688  1.00  0.00     0.049 C 
HETATM    5  C5  UNL     1       3.675  11.618  14.711  1.00  0.00     0.020 C 
HETATM    6  C4  UNL     1       4.086  11.403  13.261  1.00  0.00     0.002 C 
HETATM    7  C3  UNL     1       5.598  11.438  13.116  1.00  0.00     0.010 C 
HETATM    8  C2  UNL     1       6.345  10.399  13.998  1.00  0.00    -0.035 C 
HETATM    9  C1  UNL     1       6.135   8.993  13.392  1.00  0.00     0.016 C 
HETATM   10  C29 UNL     1       5.839  10.487  15.479  1.00  0.00     0.012 C 
HETATM   11  C37 UNL     1       7.874  10.786  14.007  1.00  0.00     0.010 C 
HETATM   12  C30 UNL     1       6.510   9.406  16.338  1.00  0.00     0.008 C 
HETATM   13  C31 UNL     1       8.024   9.259  16.184  1.00  0.00     0.018 C 
HETATM   14  C32 UNL     1       8.731  10.087  15.108  1.00  0.00     0.028 C 
HETATM   15  C33 UNL     1       9.900   9.275  14.496  1.00  0.00     0.026 C 
HETATM   16  C40 UNL     1       9.552  11.213  15.759  1.00  0.00     0.172 C 
HETATM   17  C34 UNL     1      10.782  10.381  13.907  1.00  0.00     0.031 C 
HETATM   18  C35 UNL     1      10.071  10.976  12.671  1.00  0.00     0.009 C 
HETATM   19  C38 UNL     1      10.930  11.336  15.120  1.00  0.00     0.143 C 
HETATM   20  C36 UNL     1       8.559  10.711  12.621  1.00  0.00     0.007 C 
HETATM   21  O10 UNL     1       9.151  11.935  16.668  1.00  0.00    -0.294 OA
HETATM   22  C7  UNL     1       3.955  11.094  17.116  1.00  0.00     0.026 C 
BRANCH  19  23
HETATM   23  O8  UNL     1      11.877  10.764  16.037  1.00  0.00    -0.379 OA
HETATM   24  H53 UNL     1      11.899  11.342  16.823  1.00  0.00     0.211 HD
ENDBRANCH  19  23
BRANCH  19  25
HETATM   25  C39 UNL     1      11.290  12.796  14.835  1.00  0.00     0.210 C 
BRANCH  25  26
HETATM   26  O9  UNL     1      12.679  13.030  15.058  1.00  0.00    -0.397 OA
HETATM   27  H56 UNL     1      12.791  13.988  15.149  1.00  0.00     0.209 HD
ENDBRANCH  25  26
ENDBRANCH  19  25
ENDBRANCH   2   4
ENDBRANCH   1   2
BRANCH   1  28
HETATM   28  C9  UNL     1       1.212   8.671  15.391  1.00  0.00     0.227 C 
BRANCH  28  29
HETATM   29  C10 UNL     1       0.050   8.629  14.395  1.00  0.00     0.171 C 
HETATM   30  C11 UNL     1       0.508   8.763  12.940  1.00  0.00     0.175 C 
HETATM   31  O4  UNL     1       1.354   9.566  12.571  1.00  0.00    -0.294 OA
HETATM   32  C12 UNL     1      -0.214   7.756  12.017  1.00  0.00     0.037 C 
HETATM   33  C13 UNL     1      -0.698   8.401  10.708  1.00  0.00     0.019 C 
HETATM   34  C23 UNL     1       0.698   6.492  11.817  1.00  0.00     0.003 C 
HETATM   35  C28 UNL     1      -1.422   7.462  12.935  1.00  0.00     0.059 C 
HETATM   36  C14 UNL     1       0.181   8.129   9.483  1.00  0.00     0.010 C 
HETATM   37  C15 UNL     1       1.653   8.002   9.860  1.00  0.00     0.040 C 
HETATM   38  C16 UNL     1       2.621   7.621   8.732  1.00  0.00     0.051 C 
HETATM   39  C21 UNL     1       1.922   6.851  10.846  1.00  0.00     0.084 C 
HETATM   40  C17 UNL     1       2.309   8.228   7.371  1.00  0.00     0.026 C 
HETATM   41  C18 UNL     1       4.084   7.888   9.150  1.00  0.00     0.020 C 
HETATM   42  C22 UNL     1       2.468   6.120   8.717  1.00  0.00     0.268 C 
HETATM   43  C19 UNL     1       4.303   7.900  10.668  1.00  0.00     0.004 C 
HETATM   44  C20 UNL     1       3.296   7.105  11.521  1.00  0.00     0.040 C 
HETATM   45  O5  UNL     1       2.136   5.708   9.973  1.00  0.00    -0.308 OA
HETATM   46  O6  UNL     1       2.647   5.371   7.773  1.00  0.00    -0.264 OA
HETATM   47  C24 UNL     1      -0.149   5.324  11.201  1.00  0.00     0.019 C 
HETATM   48  C25 UNL     1       1.156   5.947  13.213  1.00  0.00     0.016 C 
HETATM   49  C26 UNL     1       0.072   6.008  14.307  1.00  0.00     0.042 C 
HETATM   50  C27 UNL     1      -0.754   7.308  14.302  1.00  0.00     0.099 C 
BRANCH  29  51
HETATM   51  O3  UNL     1      -0.890   9.690  14.662  1.00  0.00    -0.377 OA
HETATM   52  H15 UNL     1      -0.376  10.475  14.949  1.00  0.00     0.211 HD
ENDBRANCH  29  51
BRANCH  50  53
HETATM   53  O7  UNL     1      -1.757   7.236  15.311  1.00  0.00    -0.386 OA
HETATM   54  H37 UNL     1      -2.063   8.155  15.452  1.00  0.00     0.210 HD
ENDBRANCH  50  53
ENDBRANCH  28  29
ENDBRANCH   1  28
TORSDOF 9
ENDMDL
MODEL 4
REMARK minimizedAffinity -10.899745
REMARK CNNscore 0.437512845
REMARK CNNaffinity 7.06694269
REMARK  9 active torsions:
REMARK  status: ('A' for Active; 'I' for Inactive)
REMARK    1  A    between atoms: C6_6  and  C8_8 
REMARK    2  A    between atoms: C8_8  and  O2_10 
REMARK    3  A    between atoms: O2_10  and  C9_11 
REMARK    4  A    between atoms: C9_11  and  C10_12 
REMARK    5  A    between atoms: C10_12  and  O3_13 
REMARK    6  A    between atoms: C27_33  and  O7_34 
REMARK    7  A    between atoms: C38_45  and  O8_46 
REMARK    8  A    between atoms: C38_45  and  C39_47 
REMARK    9  A    between atoms: C39_47  and  O9_48 
ROOT
HETATM    1  O2  UNL     1       3.559   8.026  11.241  1.00  0.00    -0.317 OA
ENDROOT
BRANCH   1   2
HETATM    2  C8  UNL     1       3.729   7.120  10.233  1.00  0.00     0.267 C 
HETATM    3  O1  UNL     1       4.817   6.915   9.707  1.00  0.00    -0.264 OA
BRANCH   2   4
HETATM    4  C6  UNL     1       2.420   6.381   9.887  1.00  0.00     0.049 C 
HETATM    5  C5  UNL     1       1.898   6.918   8.530  1.00  0.00     0.020 C 
HETATM    6  C4  UNL     1       1.257   8.297   8.625  1.00  0.00     0.002 C 
HETATM    7  C3  UNL     1       0.098   8.288   9.609  1.00  0.00     0.010 C 
HETATM    8  C2  UNL     1       0.484   7.824  11.041  1.00  0.00    -0.035 C 
HETATM    9  C1  UNL     1       1.297   8.948  11.723  1.00  0.00     0.016 C 
HETATM   10  C29 UNL     1       1.282   6.476  10.975  1.00  0.00     0.012 C 
HETATM   11  C37 UNL     1      -0.850   7.535  11.829  1.00  0.00     0.010 C 
HETATM   12  C30 UNL     1       1.740   6.057  12.379  1.00  0.00     0.008 C 
HETATM   13  C31 UNL     1       0.689   6.128  13.486  1.00  0.00     0.018 C 
HETATM   14  C32 UNL     1      -0.679   6.729  13.155  1.00  0.00     0.028 C 
HETATM   15  C33 UNL     1      -1.226   7.509  14.376  1.00  0.00     0.026 C 
HETATM   16  C40 UNL     1      -1.746   5.621  13.096  1.00  0.00     0.172 C 
HETATM   17  C34 UNL     1      -2.731   7.540  14.087  1.00  0.00     0.031 C 
HETATM   18  C35 UNL     1      -2.987   8.499  12.903  1.00  0.00     0.009 C 
HETATM   19  C38 UNL     1      -3.023   6.042  13.812  1.00  0.00     0.143 C 
HETATM   20  C36 UNL     1      -1.752   8.777  12.032  1.00  0.00     0.007 C 
HETATM   21  O10 UNL     1      -1.600   4.539  12.534  1.00  0.00    -0.294 OA
HETATM   22  C7  UNL     1       2.805   4.897   9.638  1.00  0.00     0.026 C 
BRANCH  19  23
HETATM   23  O8  UNL     1      -3.055   5.347  15.069  1.00  0.00    -0.379 OA
HETATM   24  H53 UNL     1      -3.167   4.398  14.868  1.00  0.00     0.211 HD
ENDBRANCH  19  23
BRANCH  19  25
HETATM   25  C39 UNL     1      -4.268   5.700  12.990  1.00  0.00     0.210 C 
BRANCH  25  26
HETATM   26  O9  UNL     1      -5.452   5.871  13.765  1.00  0.00    -0.397 OA
HETATM   27  H56 UNL     1      -6.156   5.380  13.316  1.00  0.00     0.209 HD
ENDBRANCH  25  26
ENDBRANCH  19  25
ENDBRANCH   2   4
ENDBRANCH   1   2
BRANCH   1  28
HETATM   28  C9  UNL     1       4.751   8.700  11.681  1.00  0.00     0.227 C 
BRANCH  28  29
HETATM   29  C10 UNL     1       5.446   7.928  12.805  1.00  0.00     0.171 C 
HETATM   30  C11 UNL     1       6.949   8.208  12.879  1.00  0.00     0.175 C 
HETATM   31  O4  UNL     1       7.674   8.266  11.895  1.00  0.00    -0.294 OA
HETATM   32  C12 UNL     1       7.422   8.421  14.335  1.00  0.00     0.037 C 
HETATM   33  C13 UNL     1       8.724   7.665  14.647  1.00  0.00     0.019 C 
HETATM   34  C23 UNL     1       7.479   9.962  14.640  1.00  0.00     0.003 C 
HETATM   35  C28 UNL     1       6.233   7.732  15.042  1.00  0.00     0.059 C 
HETATM   36  C14 UNL     1       9.994   8.523  14.638  1.00  0.00     0.010 C 
HETATM   37  C15 UNL     1       9.904   9.655  13.620  1.00  0.00     0.040 C 
HETATM   38  C16 UNL     1      11.073  10.649  13.594  1.00  0.00     0.051 C 
HETATM   39  C21 UNL     1       8.737  10.619  13.896  1.00  0.00     0.084 C 
HETATM   40  C17 UNL     1      12.450  10.046  13.834  1.00  0.00     0.026 C 
HETATM   41  C18 UNL     1      11.044  11.499  12.304  1.00  0.00     0.020 C 
HETATM   42  C22 UNL     1      10.678  11.586  14.708  1.00  0.00     0.268 C 
HETATM   43  C19 UNL     1       9.655  11.599  11.660  1.00  0.00     0.004 C 
HETATM   44  C20 UNL     1       8.442  11.406  12.591  1.00  0.00     0.040 C 
HETATM   45  O5  UNL     1       9.318  11.596  14.802  1.00  0.00    -0.308 OA
HETATM   46  O6  UNL     1      11.419  12.265  15.397  1.00  0.00    -0.264 OA
HETATM   47  C24 UNL     1       7.595  10.189  16.188  1.00  0.00     0.019 C 
HETATM   48  C25 UNL     1       6.114  10.626  14.250  1.00  0.00     0.016 C 
HETATM   49  C26 UNL     1       4.873   9.773  14.579  1.00  0.00     0.042 C 
HETATM   50  C27 UNL     1       5.037   8.275  14.258  1.00  0.00     0.099 C 
BRANCH  29  51
HETATM   51  O3  UNL     1       5.269   6.507  12.634  1.00  0.00    -0.377 OA
HETATM   52  H15 UNL     1       5.300   6.319  11.672  1.00  0.00     0.211 HD
ENDBRANCH  29  51
BRANCH  50  53
HETATM   53  O7  UNL     1       3.859   7.576  14.651  1.00  0.00    -0.386 OA
HETATM   54  H37 UNL     1       3.895   6.712  14.192  1.00  0.00     0.210 HD
ENDBRANCH  50  53
ENDBRANCH  28  29
ENDBRANCH   1  28
TORSDOF 9
ENDMDL
MODEL 5
REMARK minimizedAffinity -9.25992107
REMARK CNNscore 0.401384681
REMARK CNNaffinity 6.84780359
REMARK  9 active torsions:
REMARK  status: ('A' for Active; 'I' for Inactive)
REMARK    1  A    between atoms: C6_6  and  C8_8 
REMARK    2  A    between atoms: C8_8  and  O2_10 
REMARK    3  A    between atoms: O2_10  and  C9_11 
REMARK    4  A    between atoms: C9_11  and  C10_12 
REMARK    5  A    between atoms: C10_12  and  O3_13 
REMARK    6  A    between atoms: C27_33  and  O7_34 
REMARK    7  A    between atoms: C38_45  and  O8_46 
REMARK    8  A    between atoms: C38_45  and  C39_47 
REMARK    9  A    between atoms: C39_47  and  O9_48 
ROOT
HETATM    1  O2  UNL     1       1.732   9.706  16.503  1.00  0.00    -0.317 OA
ENDROOT
BRANCH   1   2
HETATM    2  C8  UNL     1       1.968  10.160  17.768  1.00  0.00     0.267 C 
HETATM    3  O1  UNL     1       2.478   9.461  18.636  1.00  0.00    -0.264 OA
BRANCH   2   4
HETATM    4  C6  UNL     1       1.561  11.638  17.942  1.00  0.00     0.049 C 
HETATM    5  C5  UNL     1       1.977  12.416  16.667  1.00  0.00     0.020 C 
HETATM    6  C4  UNL     1       3.472  12.693  16.583  1.00  0.00     0.002 C 
HETATM    7  C3  UNL     1       3.945  13.481  17.794  1.00  0.00     0.010 C 
HETATM    8  C2  UNL     1       3.648  12.792  19.155  1.00  0.00    -0.035 C 
HETATM    9  C1  UNL     1       4.612  11.596  19.326  1.00  0.00     0.016 C 
HETATM   10  C29 UNL     1       2.145  12.354  19.221  1.00  0.00     0.012 C 
HETATM   11  C37 UNL     1       3.870  13.861  20.293  1.00  0.00     0.010 C 
HETATM   12  C30 UNL     1       1.865  11.598  20.527  1.00  0.00     0.008 C 
HETATM   13  C31 UNL     1       2.406  12.232  21.809  1.00  0.00     0.018 C 
HETATM   14  C32 UNL     1       3.287  13.478  21.690  1.00  0.00     0.028 C 
HETATM   15  C33 UNL     1       4.384  13.458  22.783  1.00  0.00     0.026 C 
HETATM   16  C40 UNL     1       2.515  14.721  22.163  1.00  0.00     0.172 C 
HETATM   17  C34 UNL     1       4.770  14.939  22.874  1.00  0.00     0.031 C 
HETATM   18  C35 UNL     1       5.543  15.328  21.595  1.00  0.00     0.009 C 
HETATM   19  C38 UNL     1       3.381  15.609  23.048  1.00  0.00     0.143 C 
HETATM   20  C36 UNL     1       5.324  14.379  20.407  1.00  0.00     0.007 C 
HETATM   21  O10 UNL     1       1.354  14.981  21.859  1.00  0.00    -0.294 OA
HETATM   22  C7  UNL     1       0.008  11.667  17.971  1.00  0.00     0.026 C 
BRANCH  19  23
HETATM   23  O8  UNL     1       2.947  15.411  24.404  1.00  0.00    -0.379 OA
HETATM   24  H53 UNL     1       2.044  15.774  24.470  1.00  0.00     0.211 HD
ENDBRANCH  19  23
BRANCH  19  25
HETATM   25  C39 UNL     1       3.251  17.085  22.665  1.00  0.00     0.210 C 
BRANCH  25  26
HETATM   26  O9  UNL     1       2.061  17.649  23.211  1.00  0.00    -0.397 OA
HETATM   27  H56 UNL     1       1.883  18.462  22.716  1.00  0.00     0.209 HD
ENDBRANCH  25  26
ENDBRANCH  19  25
ENDBRANCH   2   4
ENDBRANCH   1   2
BRANCH   1  28
HETATM   28  C9  UNL     1       2.826   9.016  15.873  1.00  0.00     0.227 C 
BRANCH  28  29
HETATM   29  C10 UNL     1       2.366   7.701  15.240  1.00  0.00     0.171 C 
HETATM   30  C11 UNL     1       0.870   7.438  15.433  1.00  0.00     0.175 C 
HETATM   31  O4  UNL     1       0.282   7.629  16.489  1.00  0.00    -0.294 OA
HETATM   32  C12 UNL     1       0.206   6.926  14.135  1.00  0.00     0.037 C 
HETATM   33  C13 UNL     1      -0.736   5.737  14.386  1.00  0.00     0.019 C 
HETATM   34  C23 UNL     1      -0.463   8.134  13.384  1.00  0.00     0.003 C 
HETATM   35  C28 UNL     1       1.489   6.439  13.424  1.00  0.00     0.059 C 
HETATM   36  C14 UNL     1      -2.228   6.083  14.419  1.00  0.00     0.010 C 
HETATM   37  C15 UNL     1      -2.472   7.479  14.982  1.00  0.00     0.040 C 
HETATM   38  C16 UNL     1      -3.922   7.983  14.964  1.00  0.00     0.051 C 
HETATM   39  C21 UNL     1      -1.793   8.586  14.155  1.00  0.00     0.084 C 
HETATM   40  C17 UNL     1      -4.983   6.929  15.252  1.00  0.00     0.026 C 
HETATM   41  C18 UNL     1      -4.086   9.217  15.879  1.00  0.00     0.020 C 
HETATM   42  C22 UNL     1      -4.028   8.504  13.553  1.00  0.00     0.268 C 
HETATM   43  C19 UNL     1      -2.782   9.988  16.119  1.00  0.00     0.004 C 
HETATM   44  C20 UNL     1      -1.689   9.855  15.042  1.00  0.00     0.040 C 
HETATM   45  O5  UNL     1      -2.791   8.910  13.148  1.00  0.00    -0.308 OA
HETATM   46  O6  UNL     1      -5.038   8.601  12.877  1.00  0.00    -0.264 OA
HETATM   47  C24 UNL     1      -0.813   7.712  11.915  1.00  0.00     0.019 C 
HETATM   48  C25 UNL     1       0.579   9.293  13.219  1.00  0.00     0.016 C 
HETATM   49  C26 UNL     1       2.010   8.821  12.896  1.00  0.00     0.042 C 
HETATM   50  C27 UNL     1       2.462   7.586  13.699  1.00  0.00     0.099 C 
BRANCH  29  51
HETATM   51  O3  UNL     1       3.086   6.585  15.803  1.00  0.00    -0.377 OA
HETATM   52  H15 UNL     1       3.227   6.773  16.755  1.00  0.00     0.211 HD
ENDBRANCH  29  51
BRANCH  50  53
HETATM   53  O7  UNL     1       3.770   7.204  13.284  1.00  0.00    -0.386 OA
HETATM   54  H37 UNL     1       4.112   6.613  13.985  1.00  0.00     0.210 HD
ENDBRANCH  50  53
ENDBRANCH  28  29
ENDBRANCH   1  28
TORSDOF 9
ENDMDL
MODEL 6
REMARK minimizedAffinity -10.488903
REMARK CNNscore 0.371605039
REMARK CNNaffinity 6.84791994
REMARK  9 active torsions:
REMARK  status: ('A' for Active; 'I' for Inactive)
REMARK    1  A    between atoms: C6_6  and  C8_8 
REMARK    2  A    between atoms: C8_8  and  O2_10 
REMARK    3  A    between atoms: O2_10  and  C9_11 
REMARK    4  A    between atoms: C9_11  and  C10_12 
REMARK    5  A    between atoms: C10_12  and  O3_13 
REMARK    6  A    between atoms: C27_33  and  O7_34 
REMARK    7  A    between atoms: C38_45  and  O8_46 
REMARK    8  A    between atoms: C38_45  and  C39_47 
REMARK    9  A    between atoms: C39_47  and  O9_48 
ROOT
HETATM    1  O2  UNL     1       0.478   9.185  16.530  1.00  0.00    -0.317 OA
ENDROOT
BRANCH   1   2
HETATM    2  C8  UNL     1       1.726   9.648  16.834  1.00  0.00     0.267 C 
HETATM    3  O1  UNL     1       2.733   8.959  16.708  1.00  0.00    -0.264 OA
BRANCH   2   4
HETATM    4  C6  UNL     1       1.707  11.118  17.300  1.00  0.00     0.049 C 
HETATM    5  C5  UNL     1       2.125  11.166  18.792  1.00  0.00     0.020 C 
HETATM    6  C4  UNL     1       1.033  10.703  19.747  1.00  0.00     0.002 C 
HETATM    7  C3  UNL     1      -0.223  11.543  19.580  1.00  0.00     0.010 C 
HETATM    8  C2  UNL     1      -0.799  11.545  18.137  1.00  0.00    -0.035 C 
HETATM    9  C1  UNL     1      -1.458  10.173  17.865  1.00  0.00     0.016 C 
HETATM   10  C29 UNL     1       0.334  11.871  17.104  1.00  0.00     0.012 C 
HETATM   11  C37 UNL     1      -1.860  12.708  18.044  1.00  0.00     0.010 C 
HETATM   12  C30 UNL     1      -0.209  11.790  15.671  1.00  0.00     0.008 C 
HETATM   13  C31 UNL     1      -1.540  12.494  15.408  1.00  0.00     0.018 C 
HETATM   14  C32 UNL     1      -2.290  13.101  16.596  1.00  0.00     0.028 C 
HETATM   15  C33 UNL     1      -3.818  12.953  16.391  1.00  0.00     0.026 C 
HETATM   16  C40 UNL     1      -2.203  14.637  16.550  1.00  0.00     0.172 C 
HETATM   17  C34 UNL     1      -4.372  14.045  17.313  1.00  0.00     0.031 C 
HETATM   18  C35 UNL     1      -4.161  13.609  18.779  1.00  0.00     0.009 C 
HETATM   19  C38 UNL     1      -3.551  15.279  16.855  1.00  0.00     0.143 C 
HETATM   20  C36 UNL     1      -3.086  12.528  18.972  1.00  0.00     0.007 C 
HETATM   21  O10 UNL     1      -1.179  15.272  16.313  1.00  0.00    -0.294 OA
HETATM   22  C7  UNL     1       2.835  11.844  16.517  1.00  0.00     0.026 C 
BRANCH  19  23
HETATM   23  O8  UNL     1      -4.090  15.748  15.609  1.00  0.00    -0.379 OA
HETATM   24  H53 UNL     1      -3.516  16.476  15.305  1.00  0.00     0.211 HD
ENDBRANCH  19  23
BRANCH  19  25
HETATM   25  C39 UNL     1      -3.410  16.443  17.839  1.00  0.00     0.210 C 
BRANCH  25  26
HETATM   26  O9  UNL     1      -2.874  17.594  17.191  1.00  0.00    -0.397 OA
HETATM   27  H56 UNL     1      -2.541  18.180  17.887  1.00  0.00     0.209 HD
ENDBRANCH  25  26
ENDBRANCH  19  25
ENDBRANCH   2   4
ENDBRANCH   1   2
BRANCH   1  28
HETATM   28  C9  UNL     1       0.432   8.007  15.707  1.00  0.00     0.227 C 
BRANCH  28  29
HETATM   29  C10 UNL     1      -0.572   8.165  14.563  1.00  0.00     0.171 C 
HETATM   30  C11 UNL     1       0.100   8.437  13.214  1.00  0.00     0.175 C 
HETATM   31  O4  UNL     1       1.032   9.216  13.070  1.00  0.00    -0.294 OA
HETATM   32  C12 UNL     1      -0.532   7.600  12.079  1.00  0.00     0.037 C 
HETATM   33  C13 UNL     1      -0.785   8.428  10.809  1.00  0.00     0.019 C 
HETATM   34  C23 UNL     1       0.331   6.306  11.848  1.00  0.00     0.003 C 
HETATM   35  C28 UNL     1      -1.875   7.285  12.777  1.00  0.00     0.059 C 
HETATM   36  C14 UNL     1       0.248   8.241   9.692  1.00  0.00     0.010 C 
HETATM   37  C15 UNL     1       1.640   7.966  10.251  1.00  0.00     0.040 C 
HETATM   38  C16 UNL     1       2.741   7.653   9.228  1.00  0.00     0.051 C 
HETATM   39  C21 UNL     1       1.700   6.690  11.110  1.00  0.00     0.084 C 
HETATM   40  C17 UNL     1       2.664   8.437   7.925  1.00  0.00     0.026 C 
HETATM   41  C18 UNL     1       4.139   7.764   9.874  1.00  0.00     0.020 C 
HETATM   42  C22 UNL     1       2.512   6.179   9.002  1.00  0.00     0.268 C 
HETATM   43  C19 UNL     1       4.134   7.582  11.398  1.00  0.00     0.004 C 
HETATM   44  C20 UNL     1       2.973   6.764  11.995  1.00  0.00     0.040 C 
HETATM   45  O5  UNL     1       1.978   5.646  10.137  1.00  0.00    -0.308 OA
HETATM   46  O6  UNL     1       2.786   5.536   8.004  1.00  0.00    -0.264 OA
HETATM   47  C24 UNL     1      -0.478   5.283  10.978  1.00  0.00     0.019 C 
HETATM   48  C25 UNL     1       0.550   5.570  13.214  1.00  0.00     0.016 C 
HETATM   49  C26 UNL     1      -0.677   5.578  14.146  1.00  0.00     0.042 C 
HETATM   50  C27 UNL     1      -1.423   6.925  14.193  1.00  0.00     0.099 C 
BRANCH  29  51
HETATM   51  O3  UNL     1      -1.483   9.251  14.830  1.00  0.00    -0.377 OA
HETATM   52  H15 UNL     1      -0.976   9.958  15.282  1.00  0.00     0.211 HD
ENDBRANCH  29  51
BRANCH  50  53
HETATM   53  O7  UNL     1      -2.565   6.805  15.036  1.00  0.00    -0.386 OA
HETATM   54  H37 UNL     1      -2.839   7.720  15.249  1.00  0.00     0.210 HD
ENDBRANCH  50  53
ENDBRANCH  28  29
ENDBRANCH   1  28
TORSDOF 9
ENDMDL
MODEL 7
REMARK minimizedAffinity -9.29088306
REMARK CNNscore 0.371026278
REMARK CNNaffinity 7.15398932
REMARK  9 active torsions:
REMARK  status: ('A' for Active; 'I' for Inactive)
REMARK    1  A    between atoms: C6_6  and  C8_8 
REMARK    2  A    between atoms: C8_8  and  O2_10 
REMARK    3  A    between atoms: O2_10  and  C9_11 
REMARK    4  A    between atoms: C9_11  and  C10_12 
REMARK    5  A    between atoms: C10_12  and  O3_13 
REMARK    6  A    between atoms: C27_33  and  O7_34 
REMARK    7  A    between atoms: C38_45  and  O8_46 
REMARK    8  A    between atoms: C38_45  and  C39_47 
REMARK    9  A    between atoms: C39_47  and  O9_48 
ROOT
HETATM    1  O2  UNL     1       1.238   9.603  15.408  1.00  0.00    -0.317 OA
ENDROOT
BRANCH   1   2
HETATM    2  C8  UNL     1       2.576   9.372  15.552  1.00  0.00     0.267 C 
HETATM    3  O1  UNL     1       3.025   8.609  16.400  1.00  0.00    -0.264 OA
BRANCH   2   4
HETATM    4  C6  UNL     1       3.416  10.138  14.510  1.00  0.00     0.049 C 
HETATM    5  C5  UNL     1       3.035   9.623  13.098  1.00  0.00     0.020 C 
HETATM    6  C4  UNL     1       3.620   8.256  12.769  1.00  0.00     0.002 C 
HETATM    7  C3  UNL     1       5.137   8.278  12.872  1.00  0.00     0.010 C 
HETATM    8  C2  UNL     1       5.672   8.721  14.263  1.00  0.00    -0.035 C 
HETATM    9  C1  UNL     1       5.435   7.576  15.273  1.00  0.00     0.016 C 
HETATM   10  C29 UNL     1       4.979  10.054  14.707  1.00  0.00     0.012 C 
HETATM   11  C37 UNL     1       7.211   9.028  14.110  1.00  0.00     0.010 C 
HETATM   12  C30 UNL     1       5.439  10.452  16.117  1.00  0.00     0.008 C 
HETATM   13  C31 UNL     1       6.944  10.391  16.382  1.00  0.00     0.018 C 
HETATM   14  C32 UNL     1       7.853   9.818  15.293  1.00  0.00     0.028 C 
HETATM   15  C33 UNL     1       9.026   9.038  15.936  1.00  0.00     0.026 C 
HETATM   16  C40 UNL     1       8.666  10.946  14.633  1.00  0.00     0.172 C 
HETATM   17  C34 UNL     1      10.065   9.037  14.810  1.00  0.00     0.031 C 
HETATM   18  C35 UNL     1       9.578   8.094  13.687  1.00  0.00     0.009 C 
HETATM   19  C38 UNL     1      10.123  10.543  14.443  1.00  0.00     0.143 C 
HETATM   20  C36 UNL     1       8.070   7.801  13.715  1.00  0.00     0.007 C 
HETATM   21  O10 UNL     1       8.204  12.030  14.287  1.00  0.00    -0.294 OA
HETATM   22  C7  UNL     1       2.944  11.617  14.565  1.00  0.00     0.026 C 
BRANCH  19  23
HETATM   23  O8  UNL     1      10.888  11.227  15.448  1.00  0.00    -0.379 OA
HETATM   24  H53 UNL     1      10.850  12.179  15.238  1.00  0.00     0.211 HD
ENDBRANCH  19  23
BRANCH  19  25
HETATM   25  C39 UNL     1      10.633  10.916  13.049  1.00  0.00     0.210 C 
BRANCH  25  26
HETATM   26  O9  UNL     1      11.937  10.384  12.826  1.00  0.00    -0.397 OA
HETATM   27  H56 UNL     1      12.317  10.875  12.082  1.00  0.00     0.209 HD
ENDBRANCH  25  26
ENDBRANCH  19  25
ENDBRANCH   2   4
ENDBRANCH   1   2
BRANCH   1  28
HETATM   28  C9  UNL     1       0.606   8.940  14.298  1.00  0.00     0.227 C 
BRANCH  28  29
HETATM   29  C10 UNL     1       0.261   7.488  14.639  1.00  0.00     0.171 C 
HETATM   30  C11 UNL     1      -1.157   7.328  15.194  1.00  0.00     0.175 C 
HETATM   31  O4  UNL     1      -1.648   8.086  16.020  1.00  0.00    -0.294 OA
HETATM   32  C12 UNL     1      -1.883   6.114  14.572  1.00  0.00     0.037 C 
HETATM   33  C13 UNL     1      -2.624   5.270  15.622  1.00  0.00     0.019 C 
HETATM   34  C23 UNL     1      -2.784   6.604  13.381  1.00  0.00     0.003 C 
HETATM   35  C28 UNL     1      -0.630   5.355  14.078  1.00  0.00     0.059 C 
HETATM   36  C14 UNL     1      -4.137   5.503  15.694  1.00  0.00     0.010 C 
HETATM   37  C15 UNL     1      -4.504   6.946  15.367  1.00  0.00     0.040 C 
HETATM   38  C16 UNL     1      -6.001   7.276  15.300  1.00  0.00     0.051 C 
HETATM   39  C21 UNL     1      -4.072   7.368  13.951  1.00  0.00     0.084 C 
HETATM   40  C17 UNL     1      -6.875   6.558  16.319  1.00  0.00     0.026 C 
HETATM   41  C18 UNL     1      -6.230   8.804  15.334  1.00  0.00     0.020 C 
HETATM   42  C22 UNL     1      -6.328   6.847  13.891  1.00  0.00     0.268 C 
HETATM   43  C19 UNL     1      -5.022   9.621  14.858  1.00  0.00     0.004 C 
HETATM   44  C20 UNL     1      -4.043   8.919  13.898  1.00  0.00     0.040 C 
HETATM   45  O5  UNL     1      -5.206   6.984  13.127  1.00  0.00    -0.308 OA
HETATM   46  O6  UNL     1      -7.408   6.476  13.465  1.00  0.00    -0.264 OA
HETATM   47  C24 UNL     1      -3.230   5.373  12.517  1.00  0.00     0.019 C 
HETATM   48  C25 UNL     1      -1.930   7.478  12.400  1.00  0.00     0.016 C 
HETATM   49  C26 UNL     1      -0.491   6.970  12.181  1.00  0.00     0.042 C 
HETATM   50  C27 UNL     1       0.205   6.480  13.465  1.00  0.00     0.099 C 
BRANCH  29  51
HETATM   51  O3  UNL     1       1.180   6.961  15.618  1.00  0.00    -0.377 OA
HETATM   52  H15 UNL     1       1.396   7.687  16.242  1.00  0.00     0.211 HD
ENDBRANCH  29  51
BRANCH  50  53
HETATM   53  O7  UNL     1       1.500   5.983  13.141  1.00  0.00    -0.386 OA
HETATM   54  H37 UNL     1       1.992   5.944  13.987  1.00  0.00     0.210 HD
ENDBRANCH  50  53
ENDBRANCH  28  29
ENDBRANCH   1  28
TORSDOF 9
ENDMDL
MODEL 8
REMARK minimizedAffinity -9.88592815
REMARK CNNscore 0.299041957
REMARK CNNaffinity 6.79369593
REMARK  9 active torsions:
REMARK  status: ('A' for Active; 'I' for Inactive)
REMARK    1  A    between atoms: C6_6  and  C8_8 
REMARK    2  A    between atoms: C8_8  and  O2_10 
REMARK    3  A    between atoms: O2_10  and  C9_11 
REMARK    4  A    between atoms: C9_11  and  C10_12 
REMARK    5  A    between atoms: C10_12  and  O3_13 
REMARK    6  A    between atoms: C27_33  and  O7_34 
REMARK    7  A    between atoms: C38_45  and  O8_46 
REMARK    8  A    between atoms: C38_45  and  C39_47 
REMARK    9  A    between atoms: C39_47  and  O9_48 
ROOT
HETATM    1  O2  UNL     1       0.013   9.647  16.108  1.00  0.00    -0.317 OA
ENDROOT
BRANCH   1   2
HETATM    2  C8  UNL     1      -1.087   9.740  16.910  1.00  0.00     0.267 C 
HETATM    3  O1  UNL     1      -1.900   8.829  17.023  1.00  0.00    -0.264 OA
BRANCH   2   4
HETATM    4  C6  UNL     1      -1.146  11.083  17.666  1.00  0.00     0.049 C 
HETATM    5  C5  UNL     1      -1.699  10.821  19.090  1.00  0.00     0.020 C 
HETATM    6  C4  UNL     1      -3.202  10.577  19.126  1.00  0.00     0.002 C 
HETATM    7  C3  UNL     1      -3.956  11.756  18.535  1.00  0.00     0.010 C 
HETATM    8  C2  UNL     1      -3.549  12.105  17.076  1.00  0.00    -0.035 C 
HETATM    9  C1  UNL     1      -4.123  11.026  16.130  1.00  0.00     0.016 C 
HETATM   10  C29 UNL     1      -1.989  12.218  16.965  1.00  0.00     0.012 C 
HETATM   11  C37 UNL     1      -4.142  13.525  16.737  1.00  0.00     0.010 C 
HETATM   12  C30 UNL     1      -1.575  12.477  15.509  1.00  0.00     0.008 C 
HETATM   13  C31 UNL     1      -2.353  13.561  14.764  1.00  0.00     0.018 C 
HETATM   14  C32 UNL     1      -3.554  14.205  15.460  1.00  0.00     0.028 C 
HETATM   15  C33 UNL     1      -4.657  14.529  14.423  1.00  0.00     0.026 C 
HETATM   16  C40 UNL     1      -3.213  15.643  15.886  1.00  0.00     0.172 C 
HETATM   17  C34 UNL     1      -5.469  15.610  15.146  1.00  0.00     0.031 C 
HETATM   18  C35 UNL     1      -6.247  14.951  16.307  1.00  0.00     0.009 C 
HETATM   19  C38 UNL     1      -4.353  16.602  15.566  1.00  0.00     0.143 C 
HETATM   20  C36 UNL     1      -5.688  13.592  16.754  1.00  0.00     0.007 C 
HETATM   21  O10 UNL     1      -2.165  15.982  16.430  1.00  0.00    -0.294 OA
HETATM   22  C7  UNL     1       0.324  11.546  17.858  1.00  0.00     0.026 C 
BRANCH  19  23
HETATM   23  O8  UNL     1      -3.959  17.359  14.410  1.00  0.00    -0.379 OA
HETATM   24  H53 UNL     1      -3.210  17.923  14.679  1.00  0.00     0.211 HD
ENDBRANCH  19  23
BRANCH  19  25
HETATM   25  C39 UNL     1      -4.643  17.544  16.738  1.00  0.00     0.210 C 
BRANCH  25  26
HETATM   26  O9  UNL     1      -5.767  18.375  16.455  1.00  0.00    -0.397 OA
HETATM   27  H56 UNL     1      -5.727  19.120  17.073  1.00  0.00     0.209 HD
ENDBRANCH  25  26
ENDBRANCH  19  25
ENDBRANCH   2   4
ENDBRANCH   1   2
BRANCH   1  28
HETATM   28  C9  UNL     1       0.157   8.411  15.386  1.00  0.00     0.227 C 
BRANCH  28  29
HETATM   29  C10 UNL     1      -0.782   8.358  14.179  1.00  0.00     0.171 C 
HETATM   30  C11 UNL     1      -0.049   8.531  12.846  1.00  0.00     0.175 C 
HETATM   31  O4  UNL     1       0.830   9.361  12.662  1.00  0.00    -0.294 OA
HETATM   32  C12 UNL     1      -0.544   7.523  11.784  1.00  0.00     0.037 C 
HETATM   33  C13 UNL     1      -0.777   8.180  10.414  1.00  0.00     0.019 C 
HETATM   34  C23 UNL     1       0.425   6.286  11.753  1.00  0.00     0.003 C 
HETATM   35  C28 UNL     1      -1.902   7.181  12.440  1.00  0.00     0.059 C 
HETATM   36  C14 UNL     1       0.335   7.953   9.385  1.00  0.00     0.010 C 
HETATM   37  C15 UNL     1       1.706   7.856  10.046  1.00  0.00     0.040 C 
HETATM   38  C16 UNL     1       2.889   7.520   9.128  1.00  0.00     0.051 C 
HETATM   39  C21 UNL     1       1.806   6.693  11.050  1.00  0.00     0.084 C 
HETATM   40  C17 UNL     1       2.837   8.144   7.740  1.00  0.00     0.026 C 
HETATM   41  C18 UNL     1       4.232   7.816   9.831  1.00  0.00     0.020 C 
HETATM   42  C22 UNL     1       2.785   6.017   9.063  1.00  0.00     0.268 C 
HETATM   43  C19 UNL     1       4.144   7.806  11.363  1.00  0.00     0.004 C 
HETATM   44  C20 UNL     1       3.011   6.969  11.988  1.00  0.00     0.040 C 
HETATM   45  O5  UNL     1       2.221   5.572  10.222  1.00  0.00    -0.308 OA
HETATM   46  O6  UNL     1       3.168   5.289   8.163  1.00  0.00    -0.264 OA
HETATM   47  C24 UNL     1      -0.249   5.109  10.965  1.00  0.00     0.019 C 
HETATM   48  C25 UNL     1       0.611   5.727  13.205  1.00  0.00     0.016 C 
HETATM   49  C26 UNL     1      -0.669   5.741  14.062  1.00  0.00     0.042 C 
HETATM   50  C27 UNL     1      -1.514   7.019  13.911  1.00  0.00     0.099 C 
BRANCH  29  51
HETATM   51  O3  UNL     1      -1.787   9.390  14.267  1.00  0.00    -0.377 OA
HETATM   52  H15 UNL     1      -1.362  10.182  14.661  1.00  0.00     0.211 HD
ENDBRANCH  29  51
BRANCH  50  53
HETATM   53  O7  UNL     1      -2.696   6.903  14.699  1.00  0.00    -0.386 OA
HETATM   54  H37 UNL     1      -3.049   7.811  14.788  1.00  0.00     0.210 HD
ENDBRANCH  50  53
ENDBRANCH  28  29
ENDBRANCH   1  28
TORSDOF 9
ENDMDL
MODEL 9
REMARK minimizedAffinity -10.6972904
REMARK CNNscore 0.288414031
REMARK CNNaffinity 6.91774416
REMARK  9 active torsions:
REMARK  status: ('A' for Active; 'I' for Inactive)
REMARK    1  A    between atoms: C6_6  and  C8_8 
REMARK    2  A    between atoms: C8_8  and  O2_10 
REMARK    3  A    between atoms: O2_10  and  C9_11 
REMARK    4  A    between atoms: C9_11  and  C10_12 
REMARK    5  A    between atoms: C10_12  and  O3_13 
REMARK    6  A    between atoms: C27_33  and  O7_34 
REMARK    7  A    between atoms: C38_45  and  O8_46 
REMARK    8  A    between atoms: C38_45  and  C39_47 
REMARK    9  A    between atoms: C39_47  and  O9_48 
ROOT
HETATM    1  O2  UNL     1      -0.780   8.374  14.739  1.00  0.00    -0.317 OA
ENDROOT
BRANCH   1   2
HETATM    2  C8  UNL     1      -1.740   7.437  14.486  1.00  0.00     0.267 C 
HETATM    3  O1  UNL     1      -2.290   6.799  15.377  1.00  0.00    -0.264 OA
BRANCH   2   4
HETATM    4  C6  UNL     1      -2.062   7.324  12.982  1.00  0.00     0.049 C 
HETATM    5  C5  UNL     1      -2.799   5.982  12.738  1.00  0.00     0.020 C 
HETATM    6  C4  UNL     1      -1.881   4.767  12.775  1.00  0.00     0.002 C 
HETATM    7  C3  UNL     1      -0.774   4.893  11.742  1.00  0.00     0.010 C 
HETATM    8  C2  UNL     1       0.097   6.172  11.898  1.00  0.00    -0.035 C 
HETATM    9  C1  UNL     1       1.013   6.001  13.130  1.00  0.00     0.016 C 
HETATM   10  C29 UNL     1      -0.821   7.437  12.014  1.00  0.00     0.012 C 
HETATM   11  C37 UNL     1       0.948   6.337  10.581  1.00  0.00     0.010 C 
HETATM   12  C30 UNL     1       0.029   8.693  12.254  1.00  0.00     0.008 C 
HETATM   13  C31 UNL     1       1.252   8.867  11.354  1.00  0.00     0.018 C 
HETATM   14  C32 UNL     1       1.615   7.735  10.390  1.00  0.00     0.028 C 
HETATM   15  C33 UNL     1       3.154   7.624  10.258  1.00  0.00     0.026 C 
HETATM   16  C40 UNL     1       1.292   8.145   8.943  1.00  0.00     0.172 C 
HETATM   17  C34 UNL     1       3.308   6.892   8.920  1.00  0.00     0.031 C 
HETATM   18  C35 UNL     1       2.855   5.426   9.103  1.00  0.00     0.009 C 
HETATM   19  C38 UNL     1       2.417   7.758   7.992  1.00  0.00     0.143 C 
HETATM   20  C36 UNL     1       1.954   5.188  10.324  1.00  0.00     0.007 C 
HETATM   21  O10 UNL     1       0.255   8.700   8.589  1.00  0.00    -0.294 OA
HETATM   22  C7  UNL     1      -3.095   8.440  12.667  1.00  0.00     0.026 C 
BRANCH  19  23
HETATM   23  O8  UNL     1       3.132   8.962   7.668  1.00  0.00    -0.379 OA
HETATM   24  H53 UNL     1       2.527   9.522   7.146  1.00  0.00     0.211 HD
ENDBRANCH  19  23
BRANCH  19  25
HETATM   25  C39 UNL     1       1.877   7.108   6.716  1.00  0.00     0.210 C 
BRANCH  25  26
HETATM   26  O9  UNL     1       2.456   5.820   6.517  1.00  0.00    -0.397 OA
HETATM   27  H56 UNL     1       2.314   5.589   5.588  1.00  0.00     0.209 HD
ENDBRANCH  25  26
ENDBRANCH  19  25
ENDBRANCH   2   4
ENDBRANCH   1   2
BRANCH   1  28
HETATM   28  C9  UNL     1      -1.262   9.683  15.089  1.00  0.00     0.227 C 
BRANCH  28  29
HETATM   29  C10 UNL     1      -1.139   9.939  16.593  1.00  0.00     0.171 C 
HETATM   30  C11 UNL     1      -0.955  11.420  16.932  1.00  0.00     0.175 C 
HETATM   31  O4  UNL     1      -0.208  12.166  16.313  1.00  0.00    -0.294 OA
HETATM   32  C12 UNL     1      -1.835  11.849  18.128  1.00  0.00     0.037 C 
HETATM   33  C13 UNL     1      -1.069  12.716  19.141  1.00  0.00     0.019 C 
HETATM   34  C23 UNL     1      -3.160  12.501  17.589  1.00  0.00     0.003 C 
HETATM   35  C28 UNL     1      -2.079  10.443  18.720  1.00  0.00     0.059 C 
HETATM   36  C14 UNL     1      -1.340  14.221  19.046  1.00  0.00     0.010 C 
HETATM   37  C15 UNL     1      -1.619  14.657  17.611  1.00  0.00     0.040 C 
HETATM   38  C16 UNL     1      -2.013  16.126  17.404  1.00  0.00     0.051 C 
HETATM   39  C21 UNL     1      -2.849  13.960  17.002  1.00  0.00     0.084 C 
HETATM   40  C17 UNL     1      -1.297  17.127  18.300  1.00  0.00     0.026 C 
HETATM   41  C18 UNL     1      -1.902  16.519  15.914  1.00  0.00     0.020 C 
HETATM   42  C22 UNL     1      -3.490  16.072  17.703  1.00  0.00     0.268 C 
HETATM   43  C19 UNL     1      -2.004  15.329  14.950  1.00  0.00     0.004 C 
HETATM   44  C20 UNL     1      -2.760  14.087  15.458  1.00  0.00     0.040 C 
HETATM   45  O5  UNL     1      -3.950  14.828  17.389  1.00  0.00    -0.308 OA
HETATM   46  O6  UNL     1      -4.192  16.980  18.114  1.00  0.00    -0.264 OA
HETATM   47  C24 UNL     1      -4.208  12.603  18.751  1.00  0.00     0.019 C 
HETATM   48  C25 UNL     1      -3.829  11.544  16.543  1.00  0.00     0.016 C 
HETATM   49  C26 UNL     1      -3.741  10.048  16.901  1.00  0.00     0.042 C 
HETATM   50  C27 UNL     1      -2.376   9.616  17.468  1.00  0.00     0.099 C 
BRANCH  29  51
HETATM   51  O3  UNL     1      -0.019   9.217  17.144  1.00  0.00    -0.377 OA
HETATM   52  H15 UNL     1       0.699   9.229  16.475  1.00  0.00     0.211 HD
ENDBRANCH  29  51
BRANCH  50  53
HETATM   53  O7  UNL     1      -2.423   8.235  17.816  1.00  0.00    -0.386 OA
HETATM   54  H37 UNL     1      -1.491   7.949  17.906  1.00  0.00     0.210 HD
ENDBRANCH  50  53
ENDBRANCH  28  29
ENDBRANCH   1  28
TORSDOF 9
ENDMDL
