MODEL 1
REMARK minimizedAffinity -7.69311571
REMARK CNNscore 0.545761824
REMARK CNNaffinity 6.43242311
REMARK  6 active torsions:
REMARK  status: ('A' for Active; 'I' for Inactive)
REMARK    1  A    between atoms: C9_10  and  C10_11 
REMARK    2  A    between atoms: C11_13  and  O3_14 
REMARK    3  A    between atoms: C12_15  and  C13_16 
REMARK    4  A    between atoms: C14_18  and  O5_19 
REMARK    5  A    between atoms: C16_21  and  C17_22 
REMARK    6  A    between atoms: C17_22  and  C18_23 
ROOT
HETATM    1  C1  UNL     1      -2.119  43.948 -15.826  1.00  0.00     0.043 C 
HETATM    2  C2  UNL     1      -2.717  45.193 -16.451  1.00  0.00    -0.087 C 
HETATM    3  C3  UNL     1      -2.445  46.383 -15.878  1.00  0.00    -0.024 C 
HETATM    4  C4  UNL     1      -2.905  47.760 -16.246  1.00  0.00     0.030 C 
HETATM    5  C5  UNL     1      -1.788  48.564 -16.920  1.00  0.00     0.042 C 
HETATM    6  C6  UNL     1      -2.246  49.764 -17.800  1.00  0.00     0.069 C 
HETATM    7  C7  UNL     1      -3.479  50.455 -17.179  1.00  0.00     0.047 C 
HETATM    8  O1  UNL     1      -1.172  50.717 -17.639  1.00  0.00    -0.338 OA
HETATM    9  C8  UNL     1      -0.722  51.486 -18.672  1.00  0.00     0.095 A 
HETATM   10  C9  UNL     1       0.417  52.269 -18.389  1.00  0.00     0.070 A 
HETATM   11  C11 UNL     1       1.030  53.007 -19.401  1.00  0.00     0.097 A 
HETATM   12  C12 UNL     1       0.537  52.934 -20.703  1.00  0.00     0.069 A 
HETATM   13  C14 UNL     1      -0.621  52.174 -20.977  1.00  0.00     0.091 A 
HETATM   14  C15 UNL     1      -1.298  51.465 -19.962  1.00  0.00     0.015 A 
HETATM   15  C16 UNL     1      -2.608  50.677 -20.125  1.00  0.00     0.032 C 
HETATM   16  C21 UNL     1      -2.407  49.352 -19.314  1.00  0.00     0.034 C 
HETATM   17  C22 UNL     1      -3.477  48.289 -19.541  1.00  0.00     0.006 A 
HETATM   18  C23 UNL     1      -3.192  46.810 -19.281  1.00  0.00    -0.001 A 
HETATM   19  C24 UNL     1      -4.193  45.933 -18.571  1.00  0.00     0.010 C 
HETATM   20  C25 UNL     1      -3.551  44.860 -17.680  1.00  0.00     0.034 C 
HETATM   21  C26 UNL     1      -3.431  47.283 -20.704  1.00  0.00    -0.039 A 
HETATM   22  C27 UNL     1      -2.243  47.163 -21.631  1.00  0.00     0.015 C 
HETATM   23  C28 UNL     1      -4.743  46.981 -21.397  1.00  0.00     0.015 C 
ENDROOT
BRANCH  15  24
HETATM   24  C17 UNL     1      -3.197  50.487 -21.545  1.00  0.00     0.014 C 
BRANCH  24  25
HETATM   25  C18 UNL     1      -4.517  51.262 -21.804  1.00  0.00    -0.022 C 
HETATM   26  C19 UNL     1      -5.699  50.313 -22.035  1.00  0.00     0.009 C 
HETATM   27  C20 UNL     1      -4.353  52.168 -23.028  1.00  0.00     0.009 C 
ENDBRANCH  24  25
ENDBRANCH  15  24
BRANCH  13  28
HETATM   28  O5  UNL     1      -1.078  52.091 -22.265  1.00  0.00    -0.359 OA
HETATM   29  H15 UNL     1      -0.525  52.647 -22.860  1.00  0.00     0.217 HD
ENDBRANCH  13  28
BRANCH  10  30
HETATM   30  C10 UNL     1       1.005  52.338 -17.026  1.00  0.00     0.275 C 
HETATM   31  O2  UNL     1       1.174  51.365 -16.302  1.00  0.00    -0.301 OA
ENDBRANCH  10  30
BRANCH  12  32
HETATM   32  C13 UNL     1       1.261  53.632 -21.788  1.00  0.00     0.275 C 
HETATM   33  O4  UNL     1       1.622  54.798 -21.658  1.00  0.00    -0.301 OA
ENDBRANCH  12  32
BRANCH  11  34
HETATM   34  O3  UNL     1       2.115  53.788 -19.100  1.00  0.00    -0.359 OA
HETATM   35  H13 UNL     1       1.869  54.722 -19.245  1.00  0.00     0.217 HD
ENDBRANCH  11  34
TORSDOF 6
ENDMDL
MODEL 2
REMARK minimizedAffinity -7.37275887
REMARK CNNscore 0.438376695
REMARK CNNaffinity 5.91735077
REMARK  6 active torsions:
REMARK  status: ('A' for Active; 'I' for Inactive)
REMARK    1  A    between atoms: C9_10  and  C10_11 
REMARK    2  A    between atoms: C11_13  and  O3_14 
REMARK    3  A    between atoms: C12_15  and  C13_16 
REMARK    4  A    between atoms: C14_18  and  O5_19 
REMARK    5  A    between atoms: C16_21  and  C17_22 
REMARK    6  A    between atoms: C17_22  and  C18_23 
ROOT
HETATM    1  C1  UNL     1     -11.623  40.392 -27.696  1.00  0.00     0.043 C 
HETATM    2  C2  UNL     1     -11.351  41.786 -28.229  1.00  0.00    -0.087 C 
HETATM    3  C3  UNL     1     -11.359  42.811 -27.354  1.00  0.00    -0.024 C 
HETATM    4  C4  UNL     1     -11.154  44.277 -27.581  1.00  0.00     0.030 C 
HETATM    5  C5  UNL     1      -9.771  44.732 -27.102  1.00  0.00     0.042 C 
HETATM    6  C6  UNL     1      -9.230  46.051 -27.730  1.00  0.00     0.069 C 
HETATM    7  C7  UNL     1     -10.379  47.056 -27.956  1.00  0.00     0.047 C 
HETATM    8  O1  UNL     1      -8.447  46.624 -26.661  1.00  0.00    -0.338 OA
HETATM    9  C8  UNL     1      -7.263  47.263 -26.889  1.00  0.00     0.095 A 
HETATM   10  C9  UNL     1      -6.554  47.651 -25.732  1.00  0.00     0.070 A 
HETATM   11  C11 UNL     1      -5.281  48.210 -25.845  1.00  0.00     0.097 A 
HETATM   12  C12 UNL     1      -4.696  48.345 -27.102  1.00  0.00     0.069 A 
HETATM   13  C14 UNL     1      -5.420  47.985 -28.260  1.00  0.00     0.091 A 
HETATM   14  C15 UNL     1      -6.733  47.473 -28.181  1.00  0.00     0.015 A 
HETATM   15  C16 UNL     1      -7.645  47.128 -29.371  1.00  0.00     0.032 C 
HETATM   16  C21 UNL     1      -8.332  45.772 -28.995  1.00  0.00     0.034 C 
HETATM   17  C22 UNL     1      -9.086  45.095 -30.135  1.00  0.00     0.006 A 
HETATM   18  C23 UNL     1      -9.351  43.589 -30.126  1.00  0.00    -0.001 A 
HETATM   19  C24 UNL     1     -10.695  43.028 -30.520  1.00  0.00     0.010 C 
HETATM   20  C25 UNL     1     -11.095  41.774 -29.729  1.00  0.00     0.034 C 
HETATM   21  C26 UNL     1      -8.408  44.172 -31.163  1.00  0.00    -0.039 A 
HETATM   22  C27 UNL     1      -6.965  43.737 -31.039  1.00  0.00     0.015 C 
HETATM   23  C28 UNL     1      -8.852  44.312 -32.603  1.00  0.00     0.015 C 
ENDROOT
BRANCH  15  24
HETATM   24  C17 UNL     1      -7.060  47.186 -30.804  1.00  0.00     0.014 C 
BRANCH  24  25
HETATM   25  C18 UNL     1      -7.558  48.386 -31.654  1.00  0.00    -0.022 C 
HETATM   26  C19 UNL     1      -8.616  49.211 -30.912  1.00  0.00     0.009 C 
HETATM   27  C20 UNL     1      -8.150  47.877 -32.972  1.00  0.00     0.009 C 
ENDBRANCH  24  25
ENDBRANCH  15  24
BRANCH  13  28
HETATM   28  O5  UNL     1      -4.822  48.100 -29.486  1.00  0.00    -0.359 OA
HETATM   29  H15 UNL     1      -3.922  48.486 -29.392  1.00  0.00     0.217 HD
ENDBRANCH  13  28
BRANCH  10  30
HETATM   30  C10 UNL     1      -7.120  47.480 -24.369  1.00  0.00     0.275 C 
HETATM   31  O2  UNL     1      -7.310  46.394 -23.837  1.00  0.00    -0.301 OA
ENDBRANCH  10  30
BRANCH  12  32
HETATM   32  C13 UNL     1      -3.304  48.836 -27.201  1.00  0.00     0.275 C 
HETATM   33  O4  UNL     1      -3.024  49.804 -27.902  1.00  0.00    -0.301 OA
ENDBRANCH  12  32
BRANCH  11  34
HETATM   34  O3  UNL     1      -4.621  48.610 -24.712  1.00  0.00    -0.359 OA
HETATM   35  H13 UNL     1      -4.513  49.581 -24.750  1.00  0.00     0.217 HD
ENDBRANCH  11  34
TORSDOF 6
ENDMDL
MODEL 3
REMARK minimizedAffinity -6.28495502
REMARK CNNscore 0.424123436
REMARK CNNaffinity 6.08621645
REMARK  6 active torsions:
REMARK  status: ('A' for Active; 'I' for Inactive)
REMARK    1  A    between atoms: C9_10  and  C10_11 
REMARK    2  A    between atoms: C11_13  and  O3_14 
REMARK    3  A    between atoms: C12_15  and  C13_16 
REMARK    4  A    between atoms: C14_18  and  O5_19 
REMARK    5  A    between atoms: C16_21  and  C17_22 
REMARK    6  A    between atoms: C17_22  and  C18_23 
ROOT
HETATM    1  C1  UNL     1       1.406  57.613  -5.050  1.00  0.00     0.043 C 
HETATM    2  C2  UNL     1       1.386  57.105  -6.478  1.00  0.00    -0.087 C 
HETATM    3  C3  UNL     1       2.562  56.774  -7.050  1.00  0.00    -0.024 C 
HETATM    4  C4  UNL     1       2.859  56.275  -8.430  1.00  0.00     0.030 C 
HETATM    5  C5  UNL     1       3.182  54.778  -8.429  1.00  0.00     0.042 C 
HETATM    6  C6  UNL     1       2.994  54.037  -9.786  1.00  0.00     0.069 C 
HETATM    7  C7  UNL     1       3.395  54.952 -10.964  1.00  0.00     0.047 C 
HETATM    8  O1  UNL     1       4.018  53.019  -9.748  1.00  0.00    -0.338 OA
HETATM    9  C8  UNL     1       3.809  51.760 -10.231  1.00  0.00     0.095 A 
HETATM   10  C9  UNL     1       4.857  50.845 -10.001  1.00  0.00     0.070 A 
HETATM   11  C11 UNL     1       4.706  49.503 -10.351  1.00  0.00     0.097 A 
HETATM   12  C12 UNL     1       3.498  49.063 -10.889  1.00  0.00     0.069 A 
HETATM   13  C14 UNL     1       2.462  49.987 -11.146  1.00  0.00     0.091 A 
HETATM   14  C15 UNL     1       2.608  51.361 -10.859  1.00  0.00     0.015 A 
HETATM   15  C16 UNL     1       1.587  52.467 -11.172  1.00  0.00     0.032 C 
HETATM   16  C21 UNL     1       1.563  53.388  -9.906  1.00  0.00     0.034 C 
HETATM   17  C22 UNL     1       0.430  54.410  -9.875  1.00  0.00     0.006 A 
HETATM   18  C23 UNL     1      -0.067  55.002  -8.557  1.00  0.00    -0.001 A 
HETATM   19  C24 UNL     1      -0.360  56.476  -8.421  1.00  0.00     0.010 C 
HETATM   20  C25 UNL     1      -0.029  57.046  -7.034  1.00  0.00     0.034 C 
HETATM   21  C26 UNL     1      -0.981  54.089  -9.354  1.00  0.00    -0.039 A 
HETATM   22  C27 UNL     1      -1.323  52.777  -8.685  1.00  0.00     0.015 C 
HETATM   23  C28 UNL     1      -2.144  54.665 -10.132  1.00  0.00     0.015 C 
ENDROOT
BRANCH  15  24
HETATM   24  C17 UNL     1       0.191  52.067 -11.713  1.00  0.00     0.014 C 
BRANCH  24  25
HETATM   25  C18 UNL     1      -0.069  52.475 -13.188  1.00  0.00    -0.022 C 
HETATM   26  C19 UNL     1      -1.354  51.843 -13.736  1.00  0.00     0.009 C 
HETATM   27  C20 UNL     1       1.115  52.045 -14.060  1.00  0.00     0.009 C 
ENDBRANCH  24  25
ENDBRANCH  15  24
BRANCH  13  28
HETATM   28  O5  UNL     1       1.273  49.535 -11.652  1.00  0.00    -0.359 OA
HETATM   29  H15 UNL     1       1.319  48.567 -11.821  1.00  0.00     0.217 HD
ENDBRANCH  13  28
BRANCH  10  30
HETATM   30  C10 UNL     1       6.144  51.261  -9.384  1.00  0.00     0.275 C 
HETATM   31  O2  UNL     1       7.244  50.925  -9.802  1.00  0.00    -0.301 OA
ENDBRANCH  10  30
BRANCH  12  32
HETATM   32  C13 UNL     1       3.310  47.620 -11.153  1.00  0.00     0.275 C 
HETATM   33  O4  UNL     1       3.206  47.195 -12.300  1.00  0.00    -0.301 OA
ENDBRANCH  12  32
BRANCH  11  34
HETATM   34  O3  UNL     1       5.747  48.635 -10.150  1.00  0.00    -0.359 OA
HETATM   35  H13 UNL     1       6.052  48.317 -11.023  1.00  0.00     0.217 HD
ENDBRANCH  11  34
TORSDOF 6
ENDMDL
MODEL 4
REMARK minimizedAffinity -6.1439352
REMARK CNNscore 0.409279704
REMARK CNNaffinity 5.78595209
REMARK  6 active torsions:
REMARK  status: ('A' for Active; 'I' for Inactive)
REMARK    1  A    between atoms: C9_10  and  C10_11 
REMARK    2  A    between atoms: C11_13  and  O3_14 
REMARK    3  A    between atoms: C12_15  and  C13_16 
REMARK    4  A    between atoms: C14_18  and  O5_19 
REMARK    5  A    between atoms: C16_21  and  C17_22 
REMARK    6  A    between atoms: C17_22  and  C18_23 
ROOT
HETATM    1  C1  UNL     1      -2.694  54.051 -10.504  1.00  0.00     0.043 C 
HETATM    2  C2  UNL     1      -1.453  54.035  -9.632  1.00  0.00    -0.087 C 
HETATM    3  C3  UNL     1      -1.165  52.902  -8.961  1.00  0.00    -0.024 C 
HETATM    4  C4  UNL     1      -0.042  52.596  -8.019  1.00  0.00     0.030 C 
HETATM    5  C5  UNL     1       1.018  51.706  -8.677  1.00  0.00     0.042 C 
HETATM    6  C6  UNL     1       2.436  51.743  -8.034  1.00  0.00     0.069 C 
HETATM    7  C7  UNL     1       2.334  51.881  -6.500  1.00  0.00     0.047 C 
HETATM    8  O1  UNL     1       2.927  50.402  -8.249  1.00  0.00    -0.338 OA
HETATM    9  C8  UNL     1       4.228  50.148  -8.573  1.00  0.00     0.095 A 
HETATM   10  C9  UNL     1       4.521  48.802  -8.881  1.00  0.00     0.070 A 
HETATM   11  C11 UNL     1       5.791  48.446  -9.335  1.00  0.00     0.097 A 
HETATM   12  C12 UNL     1       6.756  49.434  -9.524  1.00  0.00     0.069 A 
HETATM   13  C14 UNL     1       6.470  50.774  -9.187  1.00  0.00     0.091 A 
HETATM   14  C15 UNL     1       5.214  51.155  -8.668  1.00  0.00     0.015 A 
HETATM   15  C16 UNL     1       4.818  52.562  -8.189  1.00  0.00     0.032 C 
HETATM   16  C21 UNL     1       3.370  52.801  -8.737  1.00  0.00     0.034 C 
HETATM   17  C22 UNL     1       2.863  54.234  -8.610  1.00  0.00     0.006 A 
HETATM   18  C23 UNL     1       1.757  54.766  -9.521  1.00  0.00    -0.001 A 
HETATM   19  C24 UNL     1       0.628  55.604  -8.974  1.00  0.00     0.010 C 
HETATM   20  C25 UNL     1      -0.715  55.365  -9.680  1.00  0.00     0.034 C 
HETATM   21  C26 UNL     1       3.161  55.328  -9.650  1.00  0.00    -0.039 A 
HETATM   22  C27 UNL     1       3.854  55.037 -10.962  1.00  0.00     0.015 C 
HETATM   23  C28 UNL     1       3.482  56.707  -9.116  1.00  0.00     0.015 C 
ENDROOT
BRANCH  15  24
HETATM   24  C17 UNL     1       5.802  53.736  -8.418  1.00  0.00     0.014 C 
BRANCH  24  25
HETATM   25  C18 UNL     1       6.230  54.479  -7.124  1.00  0.00    -0.022 C 
HETATM   26  C19 UNL     1       7.130  55.681  -7.428  1.00  0.00     0.009 C 
HETATM   27  C20 UNL     1       6.975  53.514  -6.196  1.00  0.00     0.009 C 
ENDBRANCH  24  25
ENDBRANCH  15  24
BRANCH  13  28
HETATM   28  O5  UNL     1       7.420  51.736  -9.402  1.00  0.00    -0.359 OA
HETATM   29  H15 UNL     1       8.247  51.329  -9.746  1.00  0.00     0.217 HD
ENDBRANCH  13  28
BRANCH  10  30
HETATM   30  C10 UNL     1       3.507  47.725  -8.740  1.00  0.00     0.275 C 
HETATM   31  O2  UNL     1       3.632  46.759  -7.997  1.00  0.00    -0.301 OA
ENDBRANCH  10  30
BRANCH  12  32
HETATM   32  C13 UNL     1       8.062  49.061 -10.110  1.00  0.00     0.275 C 
HETATM   33  O4  UNL     1       8.138  48.603 -11.247  1.00  0.00    -0.301 OA
ENDBRANCH  12  32
BRANCH  11  34
HETATM   34  O3  UNL     1       6.066  47.130  -9.596  1.00  0.00    -0.359 OA
HETATM   35  H13 UNL     1       6.748  46.829  -8.964  1.00  0.00     0.217 HD
ENDBRANCH  11  34
TORSDOF 6
ENDMDL
MODEL 5
REMARK minimizedAffinity -6.25700903
REMARK CNNscore 0.367729604
REMARK CNNaffinity 5.49086952
REMARK  6 active torsions:
REMARK  status: ('A' for Active; 'I' for Inactive)
REMARK    1  A    between atoms: C9_10  and  C10_11 
REMARK    2  A    between atoms: C11_13  and  O3_14 
REMARK    3  A    between atoms: C12_15  and  C13_16 
REMARK    4  A    between atoms: C14_18  and  O5_19 
REMARK    5  A    between atoms: C16_21  and  C17_22 
REMARK    6  A    between atoms: C17_22  and  C18_23 
ROOT
HETATM    1  C1  UNL     1      -3.204  47.744 -33.762  1.00  0.00     0.043 C 
HETATM    2  C2  UNL     1      -4.534  47.205 -33.272  1.00  0.00    -0.087 C 
HETATM    3  C3  UNL     1      -5.657  47.845 -33.655  1.00  0.00    -0.024 C 
HETATM    4  C4  UNL     1      -7.090  47.569 -33.317  1.00  0.00     0.030 C 
HETATM    5  C5  UNL     1      -7.831  46.928 -34.495  1.00  0.00     0.042 C 
HETATM    6  C6  UNL     1      -9.120  46.130 -34.138  1.00  0.00     0.069 C 
HETATM    7  C7  UNL     1      -9.877  46.811 -32.978  1.00  0.00     0.047 C 
HETATM    8  O1  UNL     1      -9.961  46.333 -35.294  1.00  0.00    -0.338 OA
HETATM    9  C8  UNL     1     -10.750  45.342 -35.802  1.00  0.00     0.095 A 
HETATM   10  C9  UNL     1     -11.409  45.655 -37.010  1.00  0.00     0.070 A 
HETATM   11  C11 UNL     1     -12.152  44.681 -37.676  1.00  0.00     0.097 A 
HETATM   12  C12 UNL     1     -12.203  43.385 -37.167  1.00  0.00     0.069 A 
HETATM   13  C14 UNL     1     -11.568  43.082 -35.943  1.00  0.00     0.091 A 
HETATM   14  C15 UNL     1     -10.860  44.062 -35.215  1.00  0.00     0.015 A 
HETATM   15  C16 UNL     1     -10.204  43.871 -33.837  1.00  0.00     0.032 C 
HETATM   16  C21 UNL     1      -8.819  44.597 -33.927  1.00  0.00     0.034 C 
HETATM   17  C22 UNL     1      -7.871  44.321 -32.763  1.00  0.00     0.006 A 
HETATM   18  C23 UNL     1      -6.360  44.486 -32.916  1.00  0.00    -0.001 A 
HETATM   19  C24 UNL     1      -5.533  45.156 -31.848  1.00  0.00     0.010 C 
HETATM   20  C25 UNL     1      -4.353  45.970 -32.400  1.00  0.00     0.034 C 
HETATM   21  C26 UNL     1      -6.939  43.098 -32.707  1.00  0.00    -0.039 A 
HETATM   22  C27 UNL     1      -6.772  42.148 -33.871  1.00  0.00     0.015 C 
HETATM   23  C28 UNL     1      -6.799  42.408 -31.368  1.00  0.00     0.015 C 
ENDROOT
BRANCH  15  24
HETATM   24  C17 UNL     1     -10.156  42.451 -33.220  1.00  0.00     0.014 C 
BRANCH  24  25
HETATM   25  C18 UNL     1     -10.926  42.304 -31.881  1.00  0.00    -0.022 C 
HETATM   26  C19 UNL     1     -10.939  43.614 -31.084  1.00  0.00     0.009 C 
HETATM   27  C20 UNL     1     -10.282  41.205 -31.031  1.00  0.00     0.009 C 
ENDBRANCH  24  25
ENDBRANCH  15  24
BRANCH  13  28
HETATM   28  O5  UNL     1     -11.607  41.799 -35.468  1.00  0.00    -0.359 OA
HETATM   29  H15 UNL     1     -12.147  41.230 -36.063  1.00  0.00     0.217 HD
ENDBRANCH  13  28
BRANCH  10  30
HETATM   30  C10 UNL     1     -11.341  47.011 -37.614  1.00  0.00     0.275 C 
HETATM   31  O2  UNL     1     -11.129  47.222 -38.801  1.00  0.00    -0.301 OA
ENDBRANCH  10  30
BRANCH  12  32
HETATM   32  C13 UNL     1     -12.901  42.334 -37.940  1.00  0.00     0.275 C 
HETATM   33  O4  UNL     1     -13.485  41.415 -37.373  1.00  0.00    -0.301 OA
ENDBRANCH  12  32
BRANCH  11  34
HETATM   34  O3  UNL     1     -12.812  45.013 -38.830  1.00  0.00    -0.359 OA
HETATM   35  H13 UNL     1     -13.772  44.929 -38.667  1.00  0.00     0.217 HD
ENDBRANCH  11  34
TORSDOF 6
ENDMDL
MODEL 6
REMARK minimizedAffinity -6.71190357
REMARK CNNscore 0.34177345
REMARK CNNaffinity 5.83197165
REMARK  6 active torsions:
REMARK  status: ('A' for Active; 'I' for Inactive)
REMARK    1  A    between atoms: C9_10  and  C10_11 
REMARK    2  A    between atoms: C11_13  and  O3_14 
REMARK    3  A    between atoms: C12_15  and  C13_16 
REMARK    4  A    between atoms: C14_18  and  O5_19 
REMARK    5  A    between atoms: C16_21  and  C17_22 
REMARK    6  A    between atoms: C17_22  and  C18_23 
ROOT
HETATM    1  C1  UNL     1      -2.436  52.359  -9.897  1.00  0.00     0.043 C 
HETATM    2  C2  UNL     1      -1.058  52.822 -10.329  1.00  0.00    -0.087 C 
HETATM    3  C3  UNL     1      -0.760  54.130 -10.201  1.00  0.00    -0.024 C 
HETATM    4  C4  UNL     1       0.487  54.877 -10.559  1.00  0.00     0.030 C 
HETATM    5  C5  UNL     1       1.304  55.238  -9.314  1.00  0.00     0.042 C 
HETATM    6  C6  UNL     1       2.816  55.527  -9.549  1.00  0.00     0.069 C 
HETATM    7  C7  UNL     1       3.028  56.254 -10.895  1.00  0.00     0.047 C 
HETATM    8  O1  UNL     1       3.119  56.520  -8.545  1.00  0.00    -0.338 OA
HETATM    9  C8  UNL     1       4.300  56.525  -7.862  1.00  0.00     0.095 A 
HETATM   10  C9  UNL     1       4.391  57.476  -6.822  1.00  0.00     0.070 A 
HETATM   11  C11 UNL     1       5.507  57.496  -5.986  1.00  0.00     0.097 A 
HETATM   12  C12 UNL     1       6.511  56.545  -6.154  1.00  0.00     0.069 A 
HETATM   13  C14 UNL     1       6.432  55.615  -7.214  1.00  0.00     0.091 A 
HETATM   14  C15 UNL     1       5.345  55.609  -8.113  1.00  0.00     0.015 A 
HETATM   15  C16 UNL     1       5.193  54.704  -9.347  1.00  0.00     0.032 C 
HETATM   16  C21 UNL     1       3.698  54.237  -9.345  1.00  0.00     0.034 C 
HETATM   17  C22 UNL     1       3.372  53.118 -10.331  1.00  0.00     0.006 A 
HETATM   18  C23 UNL     1       2.170  52.199 -10.116  1.00  0.00    -0.001 A 
HETATM   19  C24 UNL     1       1.258  51.824 -11.257  1.00  0.00     0.010 C 
HETATM   20  C25 UNL     1      -0.213  51.666 -10.846  1.00  0.00     0.034 C 
HETATM   21  C26 UNL     1       3.573  51.628 -10.009  1.00  0.00    -0.039 A 
HETATM   22  C27 UNL     1       3.965  51.136  -8.634  1.00  0.00     0.015 C 
HETATM   23  C28 UNL     1       4.128  50.759 -11.117  1.00  0.00     0.015 C 
ENDROOT
BRANCH  15  24
HETATM   24  C17 UNL     1       6.228  53.575  -9.580  1.00  0.00     0.014 C 
BRANCH  24  25
HETATM   25  C18 UNL     1       6.074  52.355  -8.633  1.00  0.00    -0.022 C 
HETATM   26  C19 UNL     1       6.130  52.768  -7.158  1.00  0.00     0.009 C 
HETATM   27  C20 UNL     1       7.186  51.339  -8.913  1.00  0.00     0.009 C 
ENDBRANCH  24  25
ENDBRANCH  15  24
BRANCH  13  28
HETATM   28  O5  UNL     1       7.415  54.671  -7.351  1.00  0.00    -0.359 OA
HETATM   29  H15 UNL     1       8.115  54.805  -6.672  1.00  0.00     0.217 HD
ENDBRANCH  13  28
BRANCH  10  30
HETATM   30  C10 UNL     1       3.320  58.477  -6.577  1.00  0.00     0.275 C 
HETATM   31  O2  UNL     1       2.740  58.610  -5.507  1.00  0.00    -0.301 OA
ENDBRANCH  10  30
BRANCH  12  32
HETATM   32  C13 UNL     1       7.635  56.506  -5.193  1.00  0.00     0.275 C 
HETATM   33  O4  UNL     1       8.383  57.470  -5.055  1.00  0.00    -0.301 OA
ENDBRANCH  12  32
BRANCH  11  34
HETATM   34  O3  UNL     1       5.593  58.447  -5.003  1.00  0.00    -0.359 OA
HETATM   35  H13 UNL     1       6.350  59.030  -5.208  1.00  0.00     0.217 HD
ENDBRANCH  11  34
TORSDOF 6
ENDMDL
MODEL 7
REMARK minimizedAffinity -7.28111219
REMARK CNNscore 0.316085309
REMARK CNNaffinity 5.73672724
REMARK  6 active torsions:
REMARK  status: ('A' for Active; 'I' for Inactive)
REMARK    1  A    between atoms: C9_10  and  C10_11 
REMARK    2  A    between atoms: C11_13  and  O3_14 
REMARK    3  A    between atoms: C12_15  and  C13_16 
REMARK    4  A    between atoms: C14_18  and  O5_19 
REMARK    5  A    between atoms: C16_21  and  C17_22 
REMARK    6  A    between atoms: C17_22  and  C18_23 
ROOT
HETATM    1  C1  UNL     1       5.120  39.251 -22.067  1.00  0.00     0.043 C 
HETATM    2  C2  UNL     1       6.610  39.205 -21.789  1.00  0.00    -0.087 C 
HETATM    3  C3  UNL     1       7.428  38.800 -22.781  1.00  0.00    -0.024 C 
HETATM    4  C4  UNL     1       8.916  38.630 -22.799  1.00  0.00     0.030 C 
HETATM    5  C5  UNL     1       9.601  39.758 -23.576  1.00  0.00     0.042 C 
HETATM    6  C6  UNL     1      11.103  40.002 -23.243  1.00  0.00     0.069 C 
HETATM    7  C7  UNL     1      11.820  38.666 -22.955  1.00  0.00     0.047 C 
HETATM    8  O1  UNL     1      11.649  40.447 -24.504  1.00  0.00    -0.338 OA
HETATM    9  C8  UNL     1      12.589  41.433 -24.582  1.00  0.00     0.095 A 
HETATM   10  C9  UNL     1      12.924  41.845 -25.889  1.00  0.00     0.070 A 
HETATM   11  C11 UNL     1      13.789  42.922 -26.085  1.00  0.00     0.097 A 
HETATM   12  C12 UNL     1      14.287  43.615 -24.984  1.00  0.00     0.069 A 
HETATM   13  C14 UNL     1      13.975  43.181 -23.677  1.00  0.00     0.091 A 
HETATM   14  C15 UNL     1      13.151  42.059 -23.447  1.00  0.00     0.015 A 
HETATM   15  C16 UNL     1      12.813  41.446 -22.077  1.00  0.00     0.032 C 
HETATM   16  C21 UNL     1      11.285  41.107 -22.134  1.00  0.00     0.034 C 
HETATM   17  C22 UNL     1      10.660  40.728 -20.794  1.00  0.00     0.006 A 
HETATM   18  C23 UNL     1       9.160  40.883 -20.549  1.00  0.00    -0.001 A 
HETATM   19  C24 UNL     1       8.367  39.808 -19.847  1.00  0.00     0.010 C 
HETATM   20  C25 UNL     1       6.932  39.657 -20.372  1.00  0.00     0.034 C 
HETATM   21  C26 UNL     1      10.133  41.765 -19.788  1.00  0.00    -0.039 A 
HETATM   22  C27 UNL     1      10.049  43.241 -20.107  1.00  0.00     0.015 C 
HETATM   23  C28 UNL     1      10.416  41.502 -18.325  1.00  0.00     0.015 C 
ENDROOT
BRANCH  15  24
HETATM   24  C17 UNL     1      13.270  42.183 -20.794  1.00  0.00     0.014 C 
BRANCH  24  25
HETATM   25  C18 UNL     1      14.363  41.441 -19.979  1.00  0.00    -0.022 C 
HETATM   26  C19 UNL     1      13.888  41.107 -18.560  1.00  0.00     0.009 C 
HETATM   27  C20 UNL     1      15.623  42.307 -19.897  1.00  0.00     0.009 C 
ENDBRANCH  24  25
ENDBRANCH  15  24
BRANCH  13  28
HETATM   28  O5  UNL     1      14.451  43.888 -22.605  1.00  0.00    -0.359 OA
HETATM   29  H15 UNL     1      15.023  44.628 -22.911  1.00  0.00     0.217 HD
ENDBRANCH  13  28
BRANCH  10  30
HETATM   30  C10 UNL     1      12.377  41.165 -27.092  1.00  0.00     0.275 C 
HETATM   31  O2  UNL     1      11.758  41.737 -27.980  1.00  0.00    -0.301 OA
ENDBRANCH  10  30
BRANCH  12  32
HETATM   32  C13 UNL     1      15.113  44.822 -25.205  1.00  0.00     0.275 C 
HETATM   33  O4  UNL     1      14.603  45.883 -25.554  1.00  0.00    -0.301 OA
ENDBRANCH  12  32
BRANCH  11  34
HETATM   34  O3  UNL     1      14.128  43.287 -27.362  1.00  0.00    -0.359 OA
HETATM   35  H13 UNL     1      15.086  43.133 -27.479  1.00  0.00     0.217 HD
ENDBRANCH  11  34
TORSDOF 6
ENDMDL
MODEL 8
REMARK minimizedAffinity -7.21095467
REMARK CNNscore 0.305624664
REMARK CNNaffinity 5.92708826
REMARK  6 active torsions:
REMARK  status: ('A' for Active; 'I' for Inactive)
REMARK    1  A    between atoms: C9_10  and  C10_11 
REMARK    2  A    between atoms: C11_13  and  O3_14 
REMARK    3  A    between atoms: C12_15  and  C13_16 
REMARK    4  A    between atoms: C14_18  and  O5_19 
REMARK    5  A    between atoms: C16_21  and  C17_22 
REMARK    6  A    between atoms: C17_22  and  C18_23 
ROOT
HETATM    1  C1  UNL     1     -11.561  39.419 -29.860  1.00  0.00     0.043 C 
HETATM    2  C2  UNL     1     -11.245  40.794 -30.416  1.00  0.00    -0.087 C 
HETATM    3  C3  UNL     1     -11.518  41.866 -29.646  1.00  0.00    -0.024 C 
HETATM    4  C4  UNL     1     -11.343  43.327 -29.927  1.00  0.00     0.030 C 
HETATM    5  C5  UNL     1     -10.142  43.905 -29.171  1.00  0.00     0.042 C 
HETATM    6  C6  UNL     1      -9.539  45.219 -29.750  1.00  0.00     0.069 C 
HETATM    7  C7  UNL     1     -10.653  46.126 -30.315  1.00  0.00     0.047 C 
HETATM    8  O1  UNL     1      -9.067  45.909 -28.572  1.00  0.00    -0.338 OA
HETATM    9  C8  UNL     1      -7.899  46.615 -28.563  1.00  0.00     0.095 A 
HETATM   10  C9  UNL     1      -7.510  47.119 -27.303  1.00  0.00     0.070 A 
HETATM   11  C11 UNL     1      -6.279  47.759 -27.154  1.00  0.00     0.097 A 
HETATM   12  C12 UNL     1      -5.418  47.859 -28.245  1.00  0.00     0.069 A 
HETATM   13  C14 UNL     1      -5.823  47.381 -29.510  1.00  0.00     0.091 A 
HETATM   14  C15 UNL     1      -7.087  46.784 -29.706  1.00  0.00     0.015 A 
HETATM   15  C16 UNL     1      -7.667  46.306 -31.047  1.00  0.00     0.032 C 
HETATM   16  C21 UNL     1      -8.350  44.929 -30.744  1.00  0.00     0.034 C 
HETATM   17  C22 UNL     1      -8.771  44.135 -31.976  1.00  0.00     0.006 A 
HETATM   18  C23 UNL     1      -8.949  42.618 -31.917  1.00  0.00    -0.001 A 
HETATM   19  C24 UNL     1     -10.127  41.941 -32.574  1.00  0.00     0.010 C 
HETATM   20  C25 UNL     1     -10.637  40.711 -31.809  1.00  0.00     0.034 C 
HETATM   21  C26 UNL     1      -7.818  43.203 -32.744  1.00  0.00    -0.039 A 
HETATM   22  C27 UNL     1      -6.426  42.877 -32.252  1.00  0.00     0.015 C 
HETATM   23  C28 UNL     1      -7.911  43.226 -34.254  1.00  0.00     0.015 C 
ENDROOT
BRANCH  15  24
HETATM   24  C17 UNL     1      -6.760  46.320 -32.303  1.00  0.00     0.014 C 
BRANCH  24  25
HETATM   25  C18 UNL     1      -5.239  46.264 -32.000  1.00  0.00    -0.022 C 
HETATM   26  C19 UNL     1      -4.432  47.135 -32.970  1.00  0.00     0.009 C 
HETATM   27  C20 UNL     1      -4.746  44.817 -32.093  1.00  0.00     0.009 C 
ENDBRANCH  24  25
ENDBRANCH  15  24
BRANCH  13  28
HETATM   28  O5  UNL     1      -4.956  47.465 -30.567  1.00  0.00    -0.359 OA
HETATM   29  H15 UNL     1      -4.127  47.918 -30.293  1.00  0.00     0.217 HD
ENDBRANCH  13  28
BRANCH  10  30
HETATM   30  C10 UNL     1      -8.376  46.990 -26.103  1.00  0.00     0.275 C 
HETATM   31  O2  UNL     1      -8.866  47.940 -25.506  1.00  0.00    -0.301 OA
ENDBRANCH  10  30
BRANCH  12  32
HETATM   32  C13 UNL     1      -4.072  48.440 -28.049  1.00  0.00     0.275 C 
HETATM   33  O4  UNL     1      -3.778  49.531 -28.529  1.00  0.00    -0.301 OA
ENDBRANCH  12  32
BRANCH  11  34
HETATM   34  O3  UNL     1      -5.933  48.271 -25.931  1.00  0.00    -0.359 OA
HETATM   35  H13 UNL     1      -5.871  49.243 -26.014  1.00  0.00     0.217 HD
ENDBRANCH  11  34
TORSDOF 6
ENDMDL
MODEL 9
REMARK minimizedAffinity -6.23814154
REMARK CNNscore 0.297767609
REMARK CNNaffinity 5.8977561
REMARK  6 active torsions:
REMARK  status: ('A' for Active; 'I' for Inactive)
REMARK    1  A    between atoms: C9_10  and  C10_11 
REMARK    2  A    between atoms: C11_13  and  O3_14 
REMARK    3  A    between atoms: C12_15  and  C13_16 
REMARK    4  A    between atoms: C14_18  and  O5_19 
REMARK    5  A    between atoms: C16_21  and  C17_22 
REMARK    6  A    between atoms: C17_22  and  C18_23 
ROOT
HETATM    1  C1  UNL     1      -4.140  49.866 -10.394  1.00  0.00     0.043 C 
HETATM    2  C2  UNL     1      -3.247  51.046 -10.723  1.00  0.00    -0.087 C 
HETATM    3  C3  UNL     1      -3.450  52.200 -10.055  1.00  0.00    -0.024 C 
HETATM    4  C4  UNL     1      -2.757  53.522 -10.176  1.00  0.00     0.030 C 
HETATM    5  C5  UNL     1      -1.804  53.767  -9.002  1.00  0.00     0.042 C 
HETATM    6  C6  UNL     1      -0.667  54.803  -9.249  1.00  0.00     0.069 C 
HETATM    7  C7  UNL     1      -1.170  55.959 -10.138  1.00  0.00     0.047 C 
HETATM    8  O1  UNL     1      -0.478  55.397  -7.946  1.00  0.00    -0.338 OA
HETATM    9  C8  UNL     1       0.758  55.725  -7.470  1.00  0.00     0.095 A 
HETATM   10  C9  UNL     1       0.789  56.172  -6.132  1.00  0.00     0.070 A 
HETATM   11  C11 UNL     1       2.009  56.428  -5.506  1.00  0.00     0.097 A 
HETATM   12  C12 UNL     1       3.198  56.198  -6.195  1.00  0.00     0.069 A 
HETATM   13  C14 UNL     1       3.163  55.779  -7.543  1.00  0.00     0.091 A 
HETATM   14  C15 UNL     1       1.944  55.571  -8.221  1.00  0.00     0.015 A 
HETATM   15  C16 UNL     1       1.783  55.199  -9.705  1.00  0.00     0.032 C 
HETATM   16  C21 UNL     1       0.659  54.110  -9.746  1.00  0.00     0.034 C 
HETATM   17  C22 UNL     1       0.503  53.396 -11.086  1.00  0.00     0.006 A 
HETATM   18  C23 UNL     1      -0.128  52.007 -11.174  1.00  0.00    -0.001 A 
HETATM   19  C24 UNL     1      -1.127  51.668 -12.253  1.00  0.00     0.010 C 
HETATM   20  C25 UNL     1      -2.225  50.697 -11.795  1.00  0.00     0.034 C 
HETATM   21  C26 UNL     1       1.346  52.176 -11.493  1.00  0.00    -0.039 A 
HETATM   22  C27 UNL     1       2.295  51.486 -10.539  1.00  0.00     0.015 C 
HETATM   23  C28 UNL     1       1.826  52.127 -12.928  1.00  0.00     0.015 C 
ENDROOT
BRANCH  15  24
HETATM   24  C17 UNL     1       3.047  54.862 -10.535  1.00  0.00     0.014 C 
BRANCH  24  25
HETATM   25  C18 UNL     1       4.272  54.421  -9.690  1.00  0.00    -0.022 C 
HETATM   26  C19 UNL     1       5.560  55.116 -10.149  1.00  0.00     0.009 C 
HETATM   27  C20 UNL     1       4.454  52.904  -9.796  1.00  0.00     0.009 C 
ENDBRANCH  24  25
ENDBRANCH  15  24
BRANCH  13  28
HETATM   28  O5  UNL     1       4.340  55.534  -8.198  1.00  0.00    -0.359 OA
HETATM   29  H15 UNL     1       5.106  55.738  -7.614  1.00  0.00     0.217 HD
ENDBRANCH  13  28
BRANCH  10  30
HETATM   30  C10 UNL     1      -0.453  56.384  -5.345  1.00  0.00     0.275 C 
HETATM   31  O2  UNL     1      -0.810  57.471  -4.907  1.00  0.00    -0.301 OA
ENDBRANCH  10  30
BRANCH  12  32
HETATM   32  C13 UNL     1       4.486  56.366  -5.486  1.00  0.00     0.275 C 
HETATM   33  O4  UNL     1       5.314  57.189  -5.866  1.00  0.00    -0.301 OA
ENDBRANCH  12  32
BRANCH  11  34
HETATM   34  O3  UNL     1       2.018  56.893  -4.217  1.00  0.00    -0.359 OA
HETATM   35  H13 UNL     1       2.393  57.796  -4.221  1.00  0.00     0.217 HD
ENDBRANCH  11  34
TORSDOF 6
ENDMDL
