MODEL 1
REMARK minimizedAffinity -8.44585705
REMARK CNNscore 0.470689923
REMARK CNNaffinity 7.11902428
REMARK  6 active torsions:
REMARK  status: ('A' for Active; 'I' for Inactive)
REMARK    1  A    between atoms: C2_2  and  C30_31 
REMARK    2  A    between atoms: C3_3  and  C4_4 
REMARK    3  A    between atoms: C4_4  and  C5_5 
REMARK    4  A    between atoms: C5_5  and  C6_6 
REMARK    5  A    between atoms: C6_6  and  C8_8 
REMARK    6  A    between atoms: C30_31  and  O3_33 
ROOT
HETATM    1  C8  UNL     1      -8.329   7.227  15.136  1.00  0.00    -0.002 C 
HETATM    2  C9  UNL     1      -7.826   6.588  16.458  1.00  0.00     0.007 C 
HETATM    3  C10 UNL     1      -6.419   6.052  16.185  1.00  0.00     0.015 C 
HETATM    4  C11 UNL     1      -6.432   5.656  14.691  1.00  0.00    -0.013 C 
HETATM    5  C12 UNL     1      -7.209   4.314  14.589  1.00  0.00     0.021 C 
HETATM    6  C13 UNL     1      -5.016   5.537  14.071  1.00  0.00    -0.070 C 
HETATM    7  C14 UNL     1      -4.568   4.444  13.425  1.00  0.00    -0.022 C 
HETATM    8  C15 UNL     1      -3.268   4.339  12.693  1.00  0.00     0.034 C 
HETATM    9  C16 UNL     1      -2.532   5.681  12.434  1.00  0.00     0.013 C 
HETATM   10  C17 UNL     1      -1.056   5.462  11.932  1.00  0.00     0.018 C 
HETATM   11  C18 UNL     1      -0.664   6.553  10.908  1.00  0.00     0.023 C 
HETATM   12  C19 UNL     1      -0.837   4.113  11.211  1.00  0.00     0.023 C 
HETATM   13  C20 UNL     1      -0.070   5.506  13.108  1.00  0.00     0.135 C 
HETATM   14  O1  UNL     1       1.138   5.690  12.931  1.00  0.00    -0.297 OA
HETATM   15  C21 UNL     1      -0.588   5.188  14.493  1.00  0.00     0.080 C 
HETATM   16  C22 UNL     1      -1.890   5.893  14.875  1.00  0.00     0.017 C 
HETATM   17  C23 UNL     1      -2.641   6.589  13.701  1.00  0.00    -0.031 C 
HETATM   18  C24 UNL     1      -1.990   7.982  13.511  1.00  0.00     0.016 C 
HETATM   19  C25 UNL     1      -4.159   6.797  14.107  1.00  0.00     0.024 C 
HETATM   20  C26 UNL     1      -4.928   7.846  13.282  1.00  0.00     0.010 C 
HETATM   21  C27 UNL     1      -6.300   8.117  13.911  1.00  0.00     0.011 C 
HETATM   22  C28 UNL     1      -7.236   6.857  14.049  1.00  0.00    -0.029 C 
HETATM   23  C29 UNL     1      -7.740   6.548  12.633  1.00  0.00     0.016 C 
ENDROOT
BRANCH   1  24
HETATM   24  C6  UNL     1      -9.880   7.140  14.940  1.00  0.00    -0.014 C 
HETATM   25  C7  UNL     1     -10.647   8.288  15.605  1.00  0.00     0.010 C 
BRANCH  24  26
HETATM   26  C5  UNL     1     -10.487   6.735  13.571  1.00  0.00     0.008 C 
BRANCH  26  27
HETATM   27  C4  UNL     1     -11.313   7.772  12.806  1.00  0.00     0.028 C 
BRANCH  27  28
HETATM   28  C3  UNL     1     -12.713   7.271  12.563  1.00  0.00    -0.013 C 
HETATM   29  C2  UNL     1     -13.867   7.810  13.005  1.00  0.00     0.008 C 
HETATM   30  C1  UNL     1     -13.993   9.010  13.894  1.00  0.00     0.055 C 
BRANCH  29  31
HETATM   31  C30 UNL     1     -15.119   7.133  12.575  1.00  0.00     0.171 C 
HETATM   32  O2  UNL     1     -15.603   7.134  11.457  1.00  0.00    -0.646 OA
BRANCH  31  33
HETATM   33  O3  UNL     1     -15.721   6.483  13.587  1.00  0.00    -0.773 OA
HETATM   34  H46 UNL     1     -16.518   6.100  13.166  1.00  0.00     0.167 HD
ENDBRANCH  31  33
ENDBRANCH  29  31
ENDBRANCH  27  28
ENDBRANCH  26  27
ENDBRANCH  24  26
ENDBRANCH   1  24
TORSDOF 6
ENDMDL
MODEL 2
REMARK minimizedAffinity -7.42856646
REMARK CNNscore 0.41132012
REMARK CNNaffinity 6.54450655
REMARK  6 active torsions:
REMARK  status: ('A' for Active; 'I' for Inactive)
REMARK    1  A    between atoms: C2_2  and  C30_31 
REMARK    2  A    between atoms: C3_3  and  C4_4 
REMARK    3  A    between atoms: C4_4  and  C5_5 
REMARK    4  A    between atoms: C5_5  and  C6_6 
REMARK    5  A    between atoms: C6_6  and  C8_8 
REMARK    6  A    between atoms: C30_31  and  O3_33 
ROOT
HETATM    1  C8  UNL     1      -1.484  11.030  18.145  1.00  0.00    -0.002 C 
HETATM    2  C9  UNL     1      -2.605   9.961  18.238  1.00  0.00     0.007 C 
HETATM    3  C10 UNL     1      -2.535   9.131  16.954  1.00  0.00     0.015 C 
HETATM    4  C11 UNL     1      -2.019  10.115  15.878  1.00  0.00    -0.013 C 
HETATM    5  C12 UNL     1      -3.218  11.027  15.494  1.00  0.00     0.021 C 
HETATM    6  C13 UNL     1      -1.423   9.411  14.633  1.00  0.00    -0.070 C 
HETATM    7  C14 UNL     1      -1.821   9.654  13.369  1.00  0.00    -0.022 C 
HETATM    8  C15 UNL     1      -1.178   9.105  12.135  1.00  0.00     0.034 C 
HETATM    9  C16 UNL     1       0.210   8.442  12.339  1.00  0.00     0.013 C 
HETATM   10  C17 UNL     1       0.677   7.639  11.067  1.00  0.00     0.018 C 
HETATM   11  C18 UNL     1       2.209   7.750  10.887  1.00  0.00     0.023 C 
HETATM   12  C19 UNL     1       0.062   8.152   9.745  1.00  0.00     0.023 C 
HETATM   13  C20 UNL     1       0.297   6.157  11.191  1.00  0.00     0.135 C 
HETATM   14  O1  UNL     1       0.837   5.291  10.495  1.00  0.00    -0.297 OA
HETATM   15  C21 UNL     1      -0.854   5.783  12.099  1.00  0.00     0.080 C 
HETATM   16  C22 UNL     1      -0.826   6.434  13.482  1.00  0.00     0.017 C 
HETATM   17  C23 UNL     1       0.198   7.596  13.652  1.00  0.00    -0.031 C 
HETATM   18  C24 UNL     1       1.568   6.948  13.973  1.00  0.00     0.016 C 
HETATM   19  C25 UNL     1      -0.233   8.492  14.886  1.00  0.00     0.024 C 
HETATM   20  C26 UNL     1       0.870   9.392  15.470  1.00  0.00     0.010 C 
HETATM   21  C27 UNL     1       0.401  10.028  16.784  1.00  0.00     0.011 C 
HETATM   22  C28 UNL     1      -0.905  10.905  16.675  1.00  0.00    -0.029 C 
HETATM   23  C29 UNL     1      -0.484  12.206  15.980  1.00  0.00     0.016 C 
ENDROOT
BRANCH   1  24
HETATM   24  C6  UNL     1      -1.823  12.368  18.884  1.00  0.00    -0.014 C 
HETATM   25  C7  UNL     1      -0.584  13.150  19.335  1.00  0.00     0.010 C 
BRANCH  24  26
HETATM   26  C5  UNL     1      -2.955  13.296  18.371  1.00  0.00     0.008 C 
BRANCH  26  27
HETATM   27  C4  UNL     1      -4.406  12.857  18.579  1.00  0.00     0.028 C 
BRANCH  27  28
HETATM   28  C3  UNL     1      -4.815  13.018  20.020  1.00  0.00    -0.013 C 
HETATM   29  C2  UNL     1      -6.004  13.440  20.496  1.00  0.00     0.008 C 
HETATM   30  C1  UNL     1      -7.168  13.899  19.671  1.00  0.00     0.055 C 
BRANCH  29  31
HETATM   31  C30 UNL     1      -6.153  13.459  21.975  1.00  0.00     0.171 C 
HETATM   32  O2  UNL     1      -7.046  12.946  22.627  1.00  0.00    -0.646 OA
BRANCH  31  33
HETATM   33  O3  UNL     1      -5.163  14.141  22.578  1.00  0.00    -0.773 OA
HETATM   34  H46 UNL     1      -5.392  14.076  23.528  1.00  0.00     0.167 HD
ENDBRANCH  31  33
ENDBRANCH  29  31
ENDBRANCH  27  28
ENDBRANCH  26  27
ENDBRANCH  24  26
ENDBRANCH   1  24
TORSDOF 6
ENDMDL
MODEL 3
REMARK minimizedAffinity -8.54981518
REMARK CNNscore 0.395170867
REMARK CNNaffinity 6.45403242
REMARK  6 active torsions:
REMARK  status: ('A' for Active; 'I' for Inactive)
REMARK    1  A    between atoms: C2_2  and  C30_31 
REMARK    2  A    between atoms: C3_3  and  C4_4 
REMARK    3  A    between atoms: C4_4  and  C5_5 
REMARK    4  A    between atoms: C5_5  and  C6_6 
REMARK    5  A    between atoms: C6_6  and  C8_8 
REMARK    6  A    between atoms: C30_31  and  O3_33 
ROOT
HETATM    1  C8  UNL     1      -1.462   9.428  16.467  1.00  0.00    -0.002 C 
HETATM    2  C9  UNL     1      -2.076   8.006  16.370  1.00  0.00     0.007 C 
HETATM    3  C10 UNL     1      -1.553   7.385  15.074  1.00  0.00     0.015 C 
HETATM    4  C11 UNL     1      -1.357   8.582  14.115  1.00  0.00    -0.013 C 
HETATM    5  C12 UNL     1      -2.771   8.992  13.616  1.00  0.00     0.021 C 
HETATM    6  C13 UNL     1      -0.407   8.275  12.929  1.00  0.00    -0.070 C 
HETATM    7  C14 UNL     1      -0.736   8.456  11.636  1.00  0.00    -0.022 C 
HETATM    8  C15 UNL     1       0.195   8.308  10.474  1.00  0.00     0.034 C 
HETATM    9  C16 UNL     1       1.703   8.216  10.828  1.00  0.00     0.013 C 
HETATM   10  C17 UNL     1       2.577   7.769   9.596  1.00  0.00     0.018 C 
HETATM   11  C18 UNL     1       3.951   8.478   9.621  1.00  0.00     0.023 C 
HETATM   12  C19 UNL     1       1.949   8.121   8.228  1.00  0.00     0.023 C 
HETATM   13  C20 UNL     1       2.799   6.251   9.610  1.00  0.00     0.135 C 
HETATM   14  O1  UNL     1       3.705   5.725   8.955  1.00  0.00    -0.297 OA
HETATM   15  C21 UNL     1       1.801   5.384  10.345  1.00  0.00     0.080 C 
HETATM   16  C22 UNL     1       1.428   5.871  11.745  1.00  0.00     0.017 C 
HETATM   17  C23 UNL     1       1.889   7.318  12.094  1.00  0.00    -0.031 C 
HETATM   18  C24 UNL     1       3.362   7.222  12.563  1.00  0.00     0.016 C 
HETATM   19  C25 UNL     1       1.015   7.866  13.297  1.00  0.00     0.024 C 
HETATM   20  C26 UNL     1       1.609   9.067  14.056  1.00  0.00     0.010 C 
HETATM   21  C27 UNL     1       0.794   9.354  15.322  1.00  0.00     0.011 C 
HETATM   22  C28 UNL     1      -0.732   9.666  15.081  1.00  0.00    -0.029 C 
HETATM   23  C29 UNL     1      -0.787  11.085  14.500  1.00  0.00     0.016 C 
ENDROOT
BRANCH   1  24
HETATM   24  C6  UNL     1      -2.374  10.462  17.210  1.00  0.00    -0.014 C 
HETATM   25  C7  UNL     1      -3.857  10.348  16.842  1.00  0.00     0.010 C 
BRANCH  24  26
HETATM   26  C5  UNL     1      -2.159  10.775  18.714  1.00  0.00     0.008 C 
BRANCH  26  27
HETATM   27  C4  UNL     1      -0.958  11.634  19.115  1.00  0.00     0.028 C 
BRANCH  27  28
HETATM   28  C3  UNL     1       0.160  10.777  19.651  1.00  0.00    -0.013 C 
HETATM   29  C2  UNL     1       1.235  11.177  20.360  1.00  0.00     0.008 C 
HETATM   30  C1  UNL     1       1.576  12.591  20.718  1.00  0.00     0.055 C 
BRANCH  29  31
HETATM   31  C30 UNL     1       2.165  10.106  20.807  1.00  0.00     0.171 C 
HETATM   32  O2  UNL     1       1.929   9.221  21.610  1.00  0.00    -0.646 OA
BRANCH  31  33
HETATM   33  O3  UNL     1       3.373  10.204  20.224  1.00  0.00    -0.773 OA
HETATM   34  H46 UNL     1       3.871   9.455  20.611  1.00  0.00     0.167 HD
ENDBRANCH  31  33
ENDBRANCH  29  31
ENDBRANCH  27  28
ENDBRANCH  26  27
ENDBRANCH  24  26
ENDBRANCH   1  24
TORSDOF 6
ENDMDL
MODEL 4
REMARK minimizedAffinity -6.47506475
REMARK CNNscore 0.370123744
REMARK CNNaffinity 5.8097024
REMARK  6 active torsions:
REMARK  status: ('A' for Active; 'I' for Inactive)
REMARK    1  A    between atoms: C2_2  and  C30_31 
REMARK    2  A    between atoms: C3_3  and  C4_4 
REMARK    3  A    between atoms: C4_4  and  C5_5 
REMARK    4  A    between atoms: C5_5  and  C6_6 
REMARK    5  A    between atoms: C6_6  and  C8_8 
REMARK    6  A    between atoms: C30_31  and  O3_33 
ROOT
HETATM    1  C8  UNL     1      -5.818 -10.510   5.530  1.00  0.00    -0.002 C 
HETATM    2  C9  UNL     1      -6.618 -11.174   4.378  1.00  0.00     0.007 C 
HETATM    3  C10 UNL     1      -5.600 -11.881   3.480  1.00  0.00     0.015 C 
HETATM    4  C11 UNL     1      -4.314 -11.030   3.598  1.00  0.00    -0.013 C 
HETATM    5  C12 UNL     1      -4.537  -9.759   2.731  1.00  0.00     0.021 C 
HETATM    6  C13 UNL     1      -3.031 -11.786   3.171  1.00  0.00    -0.070 C 
HETATM    7  C14 UNL     1      -2.163 -11.332   2.247  1.00  0.00    -0.022 C 
HETATM    8  C15 UNL     1      -0.847 -11.958   1.909  1.00  0.00     0.034 C 
HETATM    9  C16 UNL     1      -0.343 -13.039   2.902  1.00  0.00     0.013 C 
HETATM   10  C17 UNL     1       0.882 -13.848   2.328  1.00  0.00     0.018 C 
HETATM   11  C18 UNL     1       1.869 -14.212   3.462  1.00  0.00     0.023 C 
HETATM   12  C19 UNL     1       1.712 -13.065   1.285  1.00  0.00     0.023 C 
HETATM   13  C20 UNL     1       0.409 -15.139   1.646  1.00  0.00     0.135 C 
HETATM   14  O1  UNL     1       1.185 -16.074   1.424  1.00  0.00    -0.297 OA
HETATM   15  C21 UNL     1      -1.010 -15.199   1.127  1.00  0.00     0.080 C 
HETATM   16  C22 UNL     1      -2.078 -14.701   2.101  1.00  0.00     0.017 C 
HETATM   17  C23 UNL     1      -1.540 -13.938   3.349  1.00  0.00    -0.031 C 
HETATM   18  C24 UNL     1      -1.142 -15.009   4.395  1.00  0.00     0.016 C 
HETATM   19  C25 UNL     1      -2.704 -13.051   3.957  1.00  0.00     0.024 C 
HETATM   20  C26 UNL     1      -2.498 -12.594   5.413  1.00  0.00     0.010 C 
HETATM   21  C27 UNL     1      -3.777 -11.947   5.955  1.00  0.00     0.011 C 
HETATM   22  C28 UNL     1      -4.292 -10.697   5.144  1.00  0.00    -0.029 C 
HETATM   23  C29 UNL     1      -3.341  -9.545   5.492  1.00  0.00     0.016 C 
ENDROOT
BRANCH   1  24
HETATM   24  C6  UNL     1      -6.469  -9.195   6.076  1.00  0.00    -0.014 C 
HETATM   25  C7  UNL     1      -7.944  -9.035   5.692  1.00  0.00     0.010 C 
BRANCH  24  26
HETATM   26  C5  UNL     1      -6.175  -8.702   7.518  1.00  0.00     0.008 C 
BRANCH  26  27
HETATM   27  C4  UNL     1      -6.169  -9.730   8.652  1.00  0.00     0.028 C 
BRANCH  27  28
HETATM   28  C3  UNL     1      -6.437  -9.067   9.978  1.00  0.00    -0.013 C 
HETATM   29  C2  UNL     1      -6.280  -9.596  11.209  1.00  0.00     0.008 C 
HETATM   30  C1  UNL     1      -5.852 -10.999  11.514  1.00  0.00     0.055 C 
BRANCH  29  31
HETATM   31  C30 UNL     1      -6.576  -8.696  12.355  1.00  0.00     0.171 C 
HETATM   32  O2  UNL     1      -7.111  -9.003  13.406  1.00  0.00    -0.646 OA
BRANCH  31  33
HETATM   33  O3  UNL     1      -6.190  -7.429  12.122  1.00  0.00    -0.773 OA
HETATM   34  H46 UNL     1      -6.449  -6.961  12.942  1.00  0.00     0.167 HD
ENDBRANCH  31  33
ENDBRANCH  29  31
ENDBRANCH  27  28
ENDBRANCH  26  27
ENDBRANCH  24  26
ENDBRANCH   1  24
TORSDOF 6
ENDMDL
MODEL 5
REMARK minimizedAffinity -8.22788143
REMARK CNNscore 0.308123142
REMARK CNNaffinity 6.94394875
REMARK  6 active torsions:
REMARK  status: ('A' for Active; 'I' for Inactive)
REMARK    1  A    between atoms: C2_2  and  C30_31 
REMARK    2  A    between atoms: C3_3  and  C4_4 
REMARK    3  A    between atoms: C4_4  and  C5_5 
REMARK    4  A    between atoms: C5_5  and  C6_6 
REMARK    5  A    between atoms: C6_6  and  C8_8 
REMARK    6  A    between atoms: C30_31  and  O3_33 
ROOT
HETATM    1  C8  UNL     1      -7.618   4.229  13.960  1.00  0.00    -0.002 C 
HETATM    2  C9  UNL     1      -7.366   4.140  15.488  1.00  0.00     0.007 C 
HETATM    3  C10 UNL     1      -7.861   5.453  16.097  1.00  0.00     0.015 C 
HETATM    4  C11 UNL     1      -7.636   6.510  14.991  1.00  0.00    -0.013 C 
HETATM    5  C12 UNL     1      -6.114   6.826  14.976  1.00  0.00     0.021 C 
HETATM    6  C13 UNL     1      -8.479   7.796  15.184  1.00  0.00    -0.070 C 
HETATM    7  C14 UNL     1      -7.958   9.038  15.216  1.00  0.00    -0.022 C 
HETATM    8  C15 UNL     1      -8.745  10.309  15.257  1.00  0.00     0.034 C 
HETATM    9  C16 UNL     1     -10.262  10.171  14.957  1.00  0.00     0.013 C 
HETATM   10  C17 UNL     1     -11.059  11.483  15.308  1.00  0.00     0.018 C 
HETATM   11  C18 UNL     1     -12.209  11.705  14.298  1.00  0.00     0.023 C 
HETATM   12  C19 UNL     1     -10.200  12.767  15.253  1.00  0.00     0.023 C 
HETATM   13  C20 UNL     1     -11.649  11.399  16.722  1.00  0.00     0.135 C 
HETATM   14  O1  UNL     1     -12.567  12.141  17.085  1.00  0.00    -0.297 OA
HETATM   15  C21 UNL     1     -10.992  10.471  17.720  1.00  0.00     0.080 C 
HETATM   16  C22 UNL     1     -10.688   9.067  17.196  1.00  0.00     0.017 C 
HETATM   17  C23 UNL     1     -10.818   8.888  15.654  1.00  0.00    -0.031 C 
HETATM   18  C24 UNL     1     -12.316   8.631  15.354  1.00  0.00     0.016 C 
HETATM   19  C25 UNL     1      -9.992   7.611  15.208  1.00  0.00     0.024 C 
HETATM   20  C26 UNL     1     -10.361   7.029  13.832  1.00  0.00     0.010 C 
HETATM   21  C27 UNL     1      -9.664   5.681  13.618  1.00  0.00     0.011 C 
HETATM   22  C28 UNL     1      -8.090   5.720  13.698  1.00  0.00    -0.029 C 
HETATM   23  C29 UNL     1      -7.616   6.381  12.398  1.00  0.00     0.016 C 
ENDROOT
BRANCH   1  24
HETATM   24  C6  UNL     1      -6.579   3.435  13.100  1.00  0.00    -0.014 C 
HETATM   25  C7  UNL     1      -7.174   2.211  12.394  1.00  0.00     0.010 C 
BRANCH  24  26
HETATM   26  C5  UNL     1      -5.540   4.178  12.220  1.00  0.00     0.008 C 
BRANCH  26  27
HETATM   27  C4  UNL     1      -4.177   4.515  12.830  1.00  0.00     0.028 C 
BRANCH  27  28
HETATM   28  C3  UNL     1      -3.156   3.465  12.477  1.00  0.00    -0.013 C 
HETATM   29  C2  UNL     1      -2.702   3.139  11.249  1.00  0.00     0.008 C 
HETATM   30  C1  UNL     1      -3.172   3.728   9.954  1.00  0.00     0.055 C 
BRANCH  29  31
HETATM   31  C30 UNL     1      -1.651   2.090  11.192  1.00  0.00     0.171 C 
HETATM   32  O2  UNL     1      -0.455   2.242  11.371  1.00  0.00    -0.646 OA
BRANCH  31  33
HETATM   33  O3  UNL     1      -2.155   0.878  10.898  1.00  0.00    -0.773 OA
HETATM   34  H46 UNL     1      -1.363   0.302  10.887  1.00  0.00     0.167 HD
ENDBRANCH  31  33
ENDBRANCH  29  31
ENDBRANCH  27  28
ENDBRANCH  26  27
ENDBRANCH  24  26
ENDBRANCH   1  24
TORSDOF 6
ENDMDL
MODEL 6
REMARK minimizedAffinity -6.58658791
REMARK CNNscore 0.305382431
REMARK CNNaffinity 5.38193178
REMARK  6 active torsions:
REMARK  status: ('A' for Active; 'I' for Inactive)
REMARK    1  A    between atoms: C2_2  and  C30_31 
REMARK    2  A    between atoms: C3_3  and  C4_4 
REMARK    3  A    between atoms: C4_4  and  C5_5 
REMARK    4  A    between atoms: C5_5  and  C6_6 
REMARK    5  A    between atoms: C6_6  and  C8_8 
REMARK    6  A    between atoms: C30_31  and  O3_33 
ROOT
HETATM    1  C8  UNL     1     -16.184   1.674  14.375  1.00  0.00    -0.002 C 
HETATM    2  C9  UNL     1     -15.050   1.721  15.433  1.00  0.00     0.007 C 
HETATM    3  C10 UNL     1     -14.591   0.280  15.657  1.00  0.00     0.015 C 
HETATM    4  C11 UNL     1     -15.855  -0.578  15.416  1.00  0.00    -0.013 C 
HETATM    5  C12 UNL     1     -16.747  -0.425  16.679  1.00  0.00     0.021 C 
HETATM    6  C13 UNL     1     -15.544  -2.067  15.120  1.00  0.00    -0.070 C 
HETATM    7  C14 UNL     1     -16.079  -3.097  15.804  1.00  0.00    -0.022 C 
HETATM    8  C15 UNL     1     -15.918  -4.544  15.462  1.00  0.00     0.034 C 
HETATM    9  C16 UNL     1     -15.326  -4.841  14.059  1.00  0.00     0.013 C 
HETATM   10  C17 UNL     1     -14.917  -6.353  13.895  1.00  0.00     0.018 C 
HETATM   11  C18 UNL     1     -15.181  -6.832  12.448  1.00  0.00     0.023 C 
HETATM   12  C19 UNL     1     -15.711  -7.316  14.806  1.00  0.00     0.023 C 
HETATM   13  C20 UNL     1     -13.430  -6.553  14.221  1.00  0.00     0.135 C 
HETATM   14  O1  UNL     1     -12.817  -7.559  13.851  1.00  0.00    -0.297 OA
HETATM   15  C21 UNL     1     -12.752  -5.547  15.125  1.00  0.00     0.080 C 
HETATM   16  C22 UNL     1     -13.020  -4.082  14.780  1.00  0.00     0.017 C 
HETATM   17  C23 UNL     1     -14.168  -3.837  13.756  1.00  0.00    -0.031 C 
HETATM   18  C24 UNL     1     -13.559  -4.016  12.343  1.00  0.00     0.016 C 
HETATM   19  C25 UNL     1     -14.678  -2.343  13.896  1.00  0.00     0.024 C 
HETATM   20  C26 UNL     1     -15.472  -1.798  12.694  1.00  0.00     0.010 C 
HETATM   21  C27 UNL     1     -15.709  -0.291  12.851  1.00  0.00     0.011 C 
HETATM   22  C28 UNL     1     -16.487   0.134  14.153  1.00  0.00    -0.029 C 
HETATM   23  C29 UNL     1     -17.952  -0.259  13.919  1.00  0.00     0.016 C 
ENDROOT
BRANCH   1  24
HETATM   24  C6  UNL     1     -17.255   2.803  14.544  1.00  0.00    -0.014 C 
HETATM   25  C7  UNL     1     -18.607   2.294  15.056  1.00  0.00     0.010 C 
BRANCH  24  26
HETATM   26  C5  UNL     1     -16.873   4.179  15.149  1.00  0.00     0.008 C 
BRANCH  26  27
HETATM   27  C4  UNL     1     -15.726   4.963  14.506  1.00  0.00     0.028 C 
BRANCH  27  28
HETATM   28  C3  UNL     1     -16.248   5.924  13.469  1.00  0.00    -0.013 C 
HETATM   29  C2  UNL     1     -15.540   6.807  12.736  1.00  0.00     0.008 C 
HETATM   30  C1  UNL     1     -14.067   7.059  12.845  1.00  0.00     0.055 C 
BRANCH  29  31
HETATM   31  C30 UNL     1     -16.308   7.604  11.743  1.00  0.00     0.171 C 
HETATM   32  O2  UNL     1     -15.864   8.444  10.979  1.00  0.00    -0.646 OA
BRANCH  31  33
HETATM   33  O3  UNL     1     -17.621   7.315  11.763  1.00  0.00    -0.773 OA
HETATM   34  H46 UNL     1     -17.992   7.909  11.078  1.00  0.00     0.167 HD
ENDBRANCH  31  33
ENDBRANCH  29  31
ENDBRANCH  27  28
ENDBRANCH  26  27
ENDBRANCH  24  26
ENDBRANCH   1  24
TORSDOF 6
ENDMDL
MODEL 7
REMARK minimizedAffinity -8.02640915
REMARK CNNscore 0.300948977
REMARK CNNaffinity 6.98488617
REMARK  6 active torsions:
REMARK  status: ('A' for Active; 'I' for Inactive)
REMARK    1  A    between atoms: C2_2  and  C30_31 
REMARK    2  A    between atoms: C3_3  and  C4_4 
REMARK    3  A    between atoms: C4_4  and  C5_5 
REMARK    4  A    between atoms: C5_5  and  C6_6 
REMARK    5  A    between atoms: C6_6  and  C8_8 
REMARK    6  A    between atoms: C30_31  and  O3_33 
ROOT
HETATM    1  C8  UNL     1      -5.867   5.738  14.561  1.00  0.00    -0.002 C 
HETATM    2  C9  UNL     1      -6.190   5.606  16.073  1.00  0.00     0.007 C 
HETATM    3  C10 UNL     1      -7.435   6.456  16.338  1.00  0.00     0.015 C 
HETATM    4  C11 UNL     1      -7.346   7.612  15.314  1.00  0.00    -0.013 C 
HETATM    5  C12 UNL     1      -6.275   8.603  15.850  1.00  0.00     0.021 C 
HETATM    6  C13 UNL     1      -8.700   8.323  15.066  1.00  0.00    -0.070 C 
HETATM    7  C14 UNL     1      -8.886   9.651  15.189  1.00  0.00    -0.022 C 
HETATM    8  C15 UNL     1     -10.133  10.391  14.823  1.00  0.00     0.034 C 
HETATM    9  C16 UNL     1     -11.167   9.594  13.984  1.00  0.00     0.013 C 
HETATM   10  C17 UNL     1     -12.556  10.331  13.896  1.00  0.00     0.018 C 
HETATM   11  C18 UNL     1     -13.205  10.100  12.511  1.00  0.00     0.023 C 
HETATM   12  C19 UNL     1     -12.459  11.865  14.063  1.00  0.00     0.023 C 
HETATM   13  C20 UNL     1     -13.511   9.821  14.984  1.00  0.00     0.135 C 
HETATM   14  O1  UNL     1     -14.731  10.001  14.908  1.00  0.00    -0.297 OA
HETATM   15  C21 UNL     1     -12.917   9.203  16.230  1.00  0.00     0.080 C 
HETATM   16  C22 UNL     1     -11.813   8.175  15.979  1.00  0.00     0.017 C 
HETATM   17  C23 UNL     1     -11.261   8.130  14.523  1.00  0.00    -0.031 C 
HETATM   18  C24 UNL     1     -12.223   7.238  13.702  1.00  0.00     0.016 C 
HETATM   19  C25 UNL     1      -9.830   7.449  14.532  1.00  0.00     0.024 C 
HETATM   20  C26 UNL     1      -9.338   6.921  13.171  1.00  0.00     0.010 C 
HETATM   21  C27 UNL     1      -8.063   6.091  13.351  1.00  0.00     0.011 C 
HETATM   22  C28 UNL     1      -6.854   6.852  14.017  1.00  0.00    -0.029 C 
HETATM   23  C29 UNL     1      -6.308   7.801  12.943  1.00  0.00     0.016 C 
ENDROOT
BRANCH   1  24
HETATM   24  C6  UNL     1      -4.342   5.625  14.228  1.00  0.00    -0.014 C 
HETATM   25  C7  UNL     1      -3.429   6.108  15.360  1.00  0.00     0.010 C 
BRANCH  24  26
HETATM   26  C5  UNL     1      -3.776   4.376  13.502  1.00  0.00     0.008 C 
BRANCH  26  27
HETATM   27  C4  UNL     1      -3.725   4.383  11.973  1.00  0.00     0.028 C 
BRANCH  27  28
HETATM   28  C3  UNL     1      -2.522   3.625  11.473  1.00  0.00    -0.013 C 
HETATM   29  C2  UNL     1      -2.385   2.290  11.345  1.00  0.00     0.008 C 
HETATM   30  C1  UNL     1      -3.403   1.261  11.735  1.00  0.00     0.055 C 
BRANCH  29  31
HETATM   31  C30 UNL     1      -1.098   1.810  10.776  1.00  0.00     0.171 C 
HETATM   32  O2  UNL     1      -0.953   1.035   9.848  1.00  0.00    -0.646 OA
BRANCH  31  33
HETATM   33  O3  UNL     1      -0.034   2.326  11.418  1.00  0.00    -0.773 OA
HETATM   34  H46 UNL     1       0.727   1.924  10.950  1.00  0.00     0.167 HD
ENDBRANCH  31  33
ENDBRANCH  29  31
ENDBRANCH  27  28
ENDBRANCH  26  27
ENDBRANCH  24  26
ENDBRANCH   1  24
TORSDOF 6
ENDMDL
MODEL 8
REMARK minimizedAffinity -8.18244457
REMARK CNNscore 0.255825549
REMARK CNNaffinity 6.47676992
REMARK  6 active torsions:
REMARK  status: ('A' for Active; 'I' for Inactive)
REMARK    1  A    between atoms: C2_2  and  C30_31 
REMARK    2  A    between atoms: C3_3  and  C4_4 
REMARK    3  A    between atoms: C4_4  and  C5_5 
REMARK    4  A    between atoms: C5_5  and  C6_6 
REMARK    5  A    between atoms: C6_6  and  C8_8 
REMARK    6  A    between atoms: C30_31  and  O3_33 
ROOT
HETATM    1  C8  UNL     1      -3.653   6.594  12.946  1.00  0.00    -0.002 C 
HETATM    2  C9  UNL     1      -5.100   6.979  13.354  1.00  0.00     0.007 C 
HETATM    3  C10 UNL     1      -4.989   8.151  14.331  1.00  0.00     0.015 C 
HETATM    4  C11 UNL     1      -3.647   7.925  15.065  1.00  0.00    -0.013 C 
HETATM    5  C12 UNL     1      -3.888   6.790  16.100  1.00  0.00     0.021 C 
HETATM    6  C13 UNL     1      -3.092   9.202  15.747  1.00  0.00    -0.070 C 
HETATM    7  C14 UNL     1      -2.755   9.273  17.049  1.00  0.00    -0.022 C 
HETATM    8  C15 UNL     1      -2.087  10.436  17.711  1.00  0.00     0.034 C 
HETATM    9  C16 UNL     1      -1.499  11.507  16.755  1.00  0.00     0.013 C 
HETATM   10  C17 UNL     1      -1.084  12.821  17.517  1.00  0.00     0.018 C 
HETATM   11  C18 UNL     1       0.183  13.440  16.882  1.00  0.00     0.023 C 
HETATM   12  C19 UNL     1      -0.737  12.595  19.007  1.00  0.00     0.023 C 
HETATM   13  C20 UNL     1      -2.218  13.855  17.474  1.00  0.00     0.135 C 
HETATM   14  O1  UNL     1      -2.011  15.050  17.705  1.00  0.00    -0.297 OA
HETATM   15  C21 UNL     1      -3.633  13.361  17.270  1.00  0.00     0.080 C 
HETATM   16  C22 UNL     1      -3.808  12.345  16.140  1.00  0.00     0.017 C 
HETATM   17  C23 UNL     1      -2.487  11.749  15.569  1.00  0.00    -0.031 C 
HETATM   18  C24 UNL     1      -1.951  12.758  14.523  1.00  0.00     0.016 C 
HETATM   19  C25 UNL     1      -2.810  10.385  14.828  1.00  0.00     0.024 C 
HETATM   20  C26 UNL     1      -1.736   9.896  13.840  1.00  0.00     0.010 C 
HETATM   21  C27 UNL     1      -2.260   8.706  13.028  1.00  0.00     0.011 C 
HETATM   22  C28 UNL     1      -2.709   7.459  13.880  1.00  0.00    -0.029 C 
HETATM   23  C29 UNL     1      -1.416   6.793  14.370  1.00  0.00     0.016 C 
ENDROOT
BRANCH   1  24
HETATM   24  C6  UNL     1      -3.472   5.074  12.618  1.00  0.00    -0.014 C 
HETATM   25  C7  UNL     1      -4.795   4.327  12.417  1.00  0.00     0.010 C 
BRANCH  24  26
HETATM   26  C5  UNL     1      -2.368   4.598  11.637  1.00  0.00     0.008 C 
BRANCH  26  27
HETATM   27  C4  UNL     1      -1.071   4.031  12.219  1.00  0.00     0.028 C 
BRANCH  27  28
HETATM   28  C3  UNL     1      -0.614   2.826  11.438  1.00  0.00    -0.013 C 
HETATM   29  C2  UNL     1      -1.323   1.717  11.147  1.00  0.00     0.008 C 
HETATM   30  C1  UNL     1      -2.722   1.425  11.597  1.00  0.00     0.055 C 
BRANCH  29  31
HETATM   31  C30 UNL     1      -0.636   0.695  10.314  1.00  0.00     0.171 C 
HETATM   32  O2  UNL     1      -0.702   0.574   9.103  1.00  0.00    -0.646 OA
BRANCH  31  33
HETATM   33  O3  UNL     1       0.107  -0.149  11.052  1.00  0.00    -0.773 OA
HETATM   34  H46 UNL     1       0.485  -0.758  10.385  1.00  0.00     0.167 HD
ENDBRANCH  31  33
ENDBRANCH  29  31
ENDBRANCH  27  28
ENDBRANCH  26  27
ENDBRANCH  24  26
ENDBRANCH   1  24
TORSDOF 6
ENDMDL
MODEL 9
REMARK minimizedAffinity -7.14038563
REMARK CNNscore 0.240392208
REMARK CNNaffinity 5.33103609
REMARK  6 active torsions:
REMARK  status: ('A' for Active; 'I' for Inactive)
REMARK    1  A    between atoms: C2_2  and  C30_31 
REMARK    2  A    between atoms: C3_3  and  C4_4 
REMARK    3  A    between atoms: C4_4  and  C5_5 
REMARK    4  A    between atoms: C5_5  and  C6_6 
REMARK    5  A    between atoms: C6_6  and  C8_8 
REMARK    6  A    between atoms: C30_31  and  O3_33 
ROOT
HETATM    1  C8  UNL     1      -4.432 -10.283   5.279  1.00  0.00    -0.002 C 
HETATM    2  C9  UNL     1      -3.090  -9.904   4.600  1.00  0.00     0.007 C 
HETATM    3  C10 UNL     1      -3.237 -10.228   3.112  1.00  0.00     0.015 C 
HETATM    4  C11 UNL     1      -4.209 -11.430   3.066  1.00  0.00    -0.013 C 
HETATM    5  C12 UNL     1      -3.393 -12.683   3.491  1.00  0.00     0.021 C 
HETATM    6  C13 UNL     1      -4.876 -11.634   1.682  1.00  0.00    -0.070 C 
HETATM    7  C14 UNL     1      -4.845 -12.792   0.995  1.00  0.00    -0.022 C 
HETATM    8  C15 UNL     1      -5.591 -13.072  -0.270  1.00  0.00     0.034 C 
HETATM    9  C16 UNL     1      -6.688 -12.041  -0.646  1.00  0.00     0.013 C 
HETATM   10  C17 UNL     1      -7.213 -12.242  -2.117  1.00  0.00     0.018 C 
HETATM   11  C18 UNL     1      -8.725 -11.926  -2.201  1.00  0.00     0.023 C 
HETATM   12  C19 UNL     1      -7.058 -13.687  -2.643  1.00  0.00     0.023 C 
HETATM   13  C20 UNL     1      -6.459 -11.328  -3.093  1.00  0.00     0.135 C 
HETATM   14  O1  UNL     1      -6.909 -11.068  -4.213  1.00  0.00    -0.297 OA
HETATM   15  C21 UNL     1      -5.078 -10.847  -2.706  1.00  0.00     0.080 C 
HETATM   16  C22 UNL     1      -4.956 -10.306  -1.281  1.00  0.00     0.017 C 
HETATM   17  C23 UNL     1      -6.172 -10.596  -0.350  1.00  0.00    -0.031 C 
HETATM   18  C24 UNL     1      -7.229  -9.501  -0.633  1.00  0.00     0.016 C 
HETATM   19  C25 UNL     1      -5.711 -10.469   1.161  1.00  0.00     0.024 C 
HETATM   20  C26 UNL     1      -6.844 -10.280   2.186  1.00  0.00     0.010 C 
HETATM   21  C27 UNL     1      -6.265  -9.944   3.565  1.00  0.00     0.011 C 
HETATM   22  C28 UNL     1      -5.277 -11.019   4.158  1.00  0.00    -0.029 C 
HETATM   23  C29 UNL     1      -6.152 -12.196   4.608  1.00  0.00     0.016 C 
ENDROOT
BRANCH   1  24
HETATM   24  C6  UNL     1      -4.280 -10.750   6.765  1.00  0.00    -0.014 C 
HETATM   25  C7  UNL     1      -3.162 -11.778   6.974  1.00  0.00     0.010 C 
BRANCH  24  26
HETATM   26  C5  UNL     1      -4.376  -9.733   7.933  1.00  0.00     0.008 C 
BRANCH  26  27
HETATM   27  C4  UNL     1      -4.385 -10.269   9.366  1.00  0.00     0.028 C 
BRANCH  27  28
HETATM   28  C3  UNL     1      -5.056  -9.294  10.300  1.00  0.00    -0.013 C 
HETATM   29  C2  UNL     1      -5.813  -9.577  11.379  1.00  0.00     0.008 C 
HETATM   30  C1  UNL     1      -6.198 -10.947  11.848  1.00  0.00     0.055 C 
BRANCH  29  31
HETATM   31  C30 UNL     1      -6.315  -8.412  12.155  1.00  0.00     0.171 C 
HETATM   32  O2  UNL     1      -6.681  -7.339  11.709  1.00  0.00    -0.646 OA
BRANCH  31  33
HETATM   33  O3  UNL     1      -6.323  -8.648  13.479  1.00  0.00    -0.773 OA
HETATM   34  H46 UNL     1      -6.662  -7.809  13.854  1.00  0.00     0.167 HD
ENDBRANCH  31  33
ENDBRANCH  29  31
ENDBRANCH  27  28
ENDBRANCH  26  27
ENDBRANCH  24  26
ENDBRANCH   1  24
TORSDOF 6
ENDMDL
