MODEL 1
REMARK minimizedAffinity -9.97775364
REMARK  6 active torsions:
REMARK  status: ('A' for Active; 'I' for Inactive)
REMARK    1  A    between atoms: C4_4  and  C5_5 
REMARK    2  A    between atoms: C5_5  and  C6_6 
REMARK    3  A    between atoms: C6_6  and  C7_7 
REMARK    4  A    between atoms: C7_7  and  C9_9 
REMARK    5  A    between atoms: C17_17  and  O1_18 
REMARK    6  A    between atoms: C21_22  and  O2_23 
ROOT
HETATM    1  C9  UNL     1      -0.417  52.581 -21.548  1.00  0.00    -0.002 C 
HETATM    2  C10 UNL     1       0.074  52.378 -23.016  1.00  0.00     0.006 C 
HETATM    3  C11 UNL     1      -0.862  51.353 -23.684  1.00  0.00     0.011 C 
HETATM    4  C12 UNL     1      -2.064  51.238 -22.730  1.00  0.00    -0.032 C 
HETATM    5  C13 UNL     1      -2.994  52.449 -23.075  1.00  0.00     0.016 C 
HETATM    6  C14 UNL     1      -2.854  49.896 -22.817  1.00  0.00     0.003 C 
HETATM    7  C15 UNL     1      -3.408  49.618 -24.228  1.00  0.00     0.009 C 
HETATM    8  C16 UNL     1      -4.407  48.469 -24.226  1.00  0.00     0.039 C 
HETATM    9  C17 UNL     1      -5.702  48.884 -23.499  1.00  0.00     0.071 C 
HETATM   10  C18 UNL     1      -5.397  49.751 -22.220  1.00  0.00     0.029 C 
HETATM   11  C19 UNL     1      -6.504  49.625 -21.146  1.00  0.00     0.011 C 
HETATM   12  C20 UNL     1      -7.892  49.511 -21.761  1.00  0.00     0.033 C 
HETATM   13  C21 UNL     1      -8.058  48.302 -22.686  1.00  0.00     0.129 C 
HETATM   14  C22 UNL     1      -6.730  47.710 -23.270  1.00  0.00     0.010 C 
HETATM   15  C23 UNL     1      -6.175  46.577 -22.378  1.00  0.00     0.020 C 
HETATM   16  C24 UNL     1      -7.095  47.018 -24.616  1.00  0.00     0.020 C 
HETATM   17  C25 UNL     1      -3.911  49.703 -21.645  1.00  0.00    -0.033 C 
HETATM   18  C26 UNL     1      -3.641  48.342 -20.950  1.00  0.00     0.016 C 
HETATM   19  C27 UNL     1      -3.776  50.793 -20.518  1.00  0.00     0.011 C 
HETATM   20  C28 UNL     1      -2.407  51.443 -20.226  1.00  0.00     0.011 C 
HETATM   21  C29 UNL     1      -1.346  51.335 -21.333  1.00  0.00    -0.032 C 
HETATM   22  C30 UNL     1      -0.423  50.121 -20.998  1.00  0.00     0.016 C 
ENDROOT
BRANCH   1  23
HETATM   23  C7  UNL     1       0.766  52.851 -20.570  1.00  0.00    -0.014 C 
HETATM   24  C8  UNL     1       1.755  53.871 -21.165  1.00  0.00     0.010 C 
BRANCH  23  25
HETATM   25  C6  UNL     1       0.341  53.299 -19.153  1.00  0.00     0.008 C 
BRANCH  25  26
HETATM   26  C5  UNL     1       0.701  52.332 -18.019  1.00  0.00     0.028 C 
BRANCH  26  27
HETATM   27  C4  UNL     1       2.094  52.597 -17.516  1.00  0.00    -0.025 C 
HETATM   28  C2  UNL     1       2.624  52.247 -16.329  1.00  0.00    -0.091 C 
HETATM   29  C1  UNL     1       1.889  51.533 -15.228  1.00  0.00     0.042 C 
HETATM   30  C3  UNL     1       4.060  52.571 -16.004  1.00  0.00     0.042 C 
ENDBRANCH  26  27
ENDBRANCH  25  26
ENDBRANCH  23  25
ENDBRANCH   1  23
BRANCH   9  31
HETATM   31  O1  UNL     1      -6.375  49.817 -24.395  1.00  0.00    -0.389 OA
HETATM   32  H29 UNL     1      -6.269  49.512 -25.312  1.00  0.00     0.210 HD
ENDBRANCH   9  31
BRANCH  13  33
HETATM   33  O2  UNL     1      -8.802  47.303 -21.979  1.00  0.00    -0.395 OA
HETATM   34  H36 UNL     1      -9.124  46.661 -22.635  1.00  0.00     0.210 HD
ENDBRANCH  13  33
TORSDOF 6
ENDMDL
MODEL 2
REMARK minimizedAffinity -9.47454834
REMARK  6 active torsions:
REMARK  status: ('A' for Active; 'I' for Inactive)
REMARK    1  A    between atoms: C4_4  and  C5_5 
REMARK    2  A    between atoms: C5_5  and  C6_6 
REMARK    3  A    between atoms: C6_6  and  C7_7 
REMARK    4  A    between atoms: C7_7  and  C9_9 
REMARK    5  A    between atoms: C17_17  and  O1_18 
REMARK    6  A    between atoms: C21_22  and  O2_23 
ROOT
HETATM    1  C9  UNL     1      -1.224  49.378 -18.584  1.00  0.00    -0.002 C 
HETATM    2  C10 UNL     1      -2.369  48.318 -18.625  1.00  0.00     0.006 C 
HETATM    3  C11 UNL     1      -3.004  48.370 -20.027  1.00  0.00     0.011 C 
HETATM    4  C12 UNL     1      -2.018  49.194 -20.875  1.00  0.00    -0.032 C 
HETATM    5  C13 UNL     1      -0.902  48.190 -21.318  1.00  0.00     0.016 C 
HETATM    6  C14 UNL     1      -2.642  49.905 -22.115  1.00  0.00     0.003 C 
HETATM    7  C15 UNL     1      -3.318  48.922 -23.091  1.00  0.00     0.009 C 
HETATM    8  C16 UNL     1      -3.660  49.589 -24.417  1.00  0.00     0.039 C 
HETATM    9  C17 UNL     1      -2.373  49.916 -25.201  1.00  0.00     0.071 C 
HETATM   10  C18 UNL     1      -1.232  50.441 -24.252  1.00  0.00     0.029 C 
HETATM   11  C19 UNL     1      -0.236  51.369 -24.988  1.00  0.00     0.011 C 
HETATM   12  C20 UNL     1       0.016  50.923 -26.421  1.00  0.00     0.033 C 
HETATM   13  C21 UNL     1      -1.248  50.886 -27.285  1.00  0.00     0.129 C 
HETATM   14  C22 UNL     1      -2.600  50.779 -26.501  1.00  0.00     0.010 C 
HETATM   15  C23 UNL     1      -3.197  52.175 -26.211  1.00  0.00     0.020 C 
HETATM   16  C24 UNL     1      -3.624  50.096 -27.454  1.00  0.00     0.020 C 
HETATM   17  C25 UNL     1      -1.666  50.953 -22.806  1.00  0.00    -0.033 C 
HETATM   18  C26 UNL     1      -2.393  52.320 -22.909  1.00  0.00     0.016 C 
HETATM   19  C27 UNL     1      -0.365  51.222 -21.961  1.00  0.00     0.011 C 
HETATM   20  C28 UNL     1      -0.398  51.092 -20.423  1.00  0.00     0.011 C 
HETATM   21  C29 UNL     1      -1.555  50.274 -19.829  1.00  0.00    -0.032 C 
HETATM   22  C30 UNL     1      -2.676  51.272 -19.395  1.00  0.00     0.016 C 
ENDROOT
BRANCH   1  23
HETATM   23  C7  UNL     1      -1.077  50.023 -17.173  1.00  0.00    -0.014 C 
HETATM   24  C8  UNL     1      -1.644  49.099 -16.080  1.00  0.00     0.010 C 
BRANCH  23  25
HETATM   25  C6  UNL     1       0.362  50.449 -16.805  1.00  0.00     0.008 C 
BRANCH  25  26
HETATM   26  C5  UNL     1       0.648  51.953 -16.886  1.00  0.00     0.028 C 
BRANCH  26  27
HETATM   27  C4  UNL     1       2.130  52.213 -16.908  1.00  0.00    -0.025 C 
HETATM   28  C2  UNL     1       3.004  52.099 -15.891  1.00  0.00    -0.091 C 
HETATM   29  C1  UNL     1       2.648  51.711 -14.481  1.00  0.00     0.042 C 
HETATM   30  C3  UNL     1       4.471  52.374 -16.104  1.00  0.00     0.042 C 
ENDBRANCH  26  27
ENDBRANCH  25  26
ENDBRANCH  23  25
ENDBRANCH   1  23
BRANCH   9  31
HETATM   31  O1  UNL     1      -1.864  48.634 -25.675  1.00  0.00    -0.389 OA
HETATM   32  H29 UNL     1      -2.611  48.074 -25.946  1.00  0.00     0.210 HD
ENDBRANCH   9  31
BRANCH  13  33
HETATM   33  O2  UNL     1      -1.234  52.036 -28.138  1.00  0.00    -0.395 OA
HETATM   34  H36 UNL     1      -1.880  51.881 -28.848  1.00  0.00     0.210 HD
ENDBRANCH  13  33
TORSDOF 6
ENDMDL
MODEL 3
REMARK minimizedAffinity -9.37864113
REMARK  6 active torsions:
REMARK  status: ('A' for Active; 'I' for Inactive)
REMARK    1  A    between atoms: C4_4  and  C5_5 
REMARK    2  A    between atoms: C5_5  and  C6_6 
REMARK    3  A    between atoms: C6_6  and  C7_7 
REMARK    4  A    between atoms: C7_7  and  C9_9 
REMARK    5  A    between atoms: C17_17  and  O1_18 
REMARK    6  A    between atoms: C21_22  and  O2_23 
ROOT
HETATM    1  C9  UNL     1      -1.701  51.437 -24.869  1.00  0.00    -0.002 C 
HETATM    2  C10 UNL     1      -2.864  52.141 -25.635  1.00  0.00     0.006 C 
HETATM    3  C11 UNL     1      -4.191  51.650 -25.025  1.00  0.00     0.011 C 
HETATM    4  C12 UNL     1      -3.786  50.950 -23.715  1.00  0.00    -0.032 C 
HETATM    5  C13 UNL     1      -3.620  52.095 -22.661  1.00  0.00     0.016 C 
HETATM    6  C14 UNL     1      -4.788  49.872 -23.202  1.00  0.00     0.003 C 
HETATM    7  C15 UNL     1      -6.203  50.435 -22.961  1.00  0.00     0.009 C 
HETATM    8  C16 UNL     1      -7.079  49.452 -22.195  1.00  0.00     0.039 C 
HETATM    9  C17 UNL     1      -6.585  49.312 -20.741  1.00  0.00     0.071 C 
HETATM   10  C18 UNL     1      -5.012  49.294 -20.661  1.00  0.00     0.029 C 
HETATM   11  C19 UNL     1      -4.495  48.521 -19.424  1.00  0.00     0.011 C 
HETATM   12  C20 UNL     1      -5.386  48.720 -18.206  1.00  0.00     0.033 C 
HETATM   13  C21 UNL     1      -6.832  48.262 -18.420  1.00  0.00     0.129 C 
HETATM   14  C22 UNL     1      -7.301  48.177 -19.912  1.00  0.00     0.010 C 
HETATM   15  C23 UNL     1      -7.079  46.763 -20.495  1.00  0.00     0.020 C 
HETATM   16  C24 UNL     1      -8.845  48.374 -19.915  1.00  0.00     0.020 C 
HETATM   17  C25 UNL     1      -4.218  48.989 -22.009  1.00  0.00    -0.033 C 
HETATM   18  C26 UNL     1      -4.349  47.491 -22.390  1.00  0.00     0.016 C 
HETATM   19  C27 UNL     1      -2.685  49.233 -21.751  1.00  0.00     0.011 C 
HETATM   20  C28 UNL     1      -1.759  49.655 -22.912  1.00  0.00     0.011 C 
HETATM   21  C29 UNL     1      -2.444  50.255 -24.151  1.00  0.00    -0.032 C 
HETATM   22  C30 UNL     1      -2.622  49.113 -25.202  1.00  0.00     0.016 C 
ENDROOT
BRANCH   1  23
HETATM   23  C7  UNL     1      -0.484  51.145 -25.796  1.00  0.00    -0.014 C 
HETATM   24  C8  UNL     1      -0.851  51.359 -27.276  1.00  0.00     0.010 C 
BRANCH  23  25
HETATM   25  C6  UNL     1       0.794  51.943 -25.453  1.00  0.00     0.008 C 
BRANCH  25  26
HETATM   26  C5  UNL     1       0.631  53.020 -24.374  1.00  0.00     0.028 C 
BRANCH  26  27
HETATM   27  C4  UNL     1       0.435  52.393 -23.021  1.00  0.00    -0.025 C 
HETATM   28  C2  UNL     1       0.749  52.909 -21.817  1.00  0.00    -0.091 C 
HETATM   29  C1  UNL     1       1.412  54.240 -21.591  1.00  0.00     0.042 C 
HETATM   30  C3  UNL     1       0.451  52.144 -20.553  1.00  0.00     0.042 C 
ENDBRANCH  26  27
ENDBRANCH  25  26
ENDBRANCH  23  25
ENDBRANCH   1  23
BRANCH   9  31
HETATM   31  O1  UNL     1      -6.949  50.560 -20.079  1.00  0.00    -0.389 OA
HETATM   32  H29 UNL     1      -7.822  50.846 -20.395  1.00  0.00     0.210 HD
ENDBRANCH   9  31
BRANCH  13  33
HETATM   33  O2  UNL     1      -7.001  47.006 -17.753  1.00  0.00    -0.395 OA
HETATM   34  H36 UNL     1      -7.957  46.847 -17.668  1.00  0.00     0.210 HD
ENDBRANCH  13  33
TORSDOF 6
ENDMDL
MODEL 4
REMARK minimizedAffinity -9.11702919
REMARK  6 active torsions:
REMARK  status: ('A' for Active; 'I' for Inactive)
REMARK    1  A    between atoms: C4_4  and  C5_5 
REMARK    2  A    between atoms: C5_5  and  C6_6 
REMARK    3  A    between atoms: C6_6  and  C7_7 
REMARK    4  A    between atoms: C7_7  and  C9_9 
REMARK    5  A    between atoms: C17_17  and  O1_18 
REMARK    6  A    between atoms: C21_22  and  O2_23 
ROOT
HETATM    1  C9  UNL     1      -3.898  49.910 -24.982  1.00  0.00    -0.002 C 
HETATM    2  C10 UNL     1      -5.307  49.631 -24.373  1.00  0.00     0.006 C 
HETATM    3  C11 UNL     1      -5.149  49.555 -22.843  1.00  0.00     0.011 C 
HETATM    4  C12 UNL     1      -3.746  50.124 -22.565  1.00  0.00    -0.032 C 
HETATM    5  C13 UNL     1      -3.916  51.680 -22.562  1.00  0.00     0.016 C 
HETATM    6  C14 UNL     1      -3.086  49.640 -21.237  1.00  0.00     0.003 C 
HETATM    7  C15 UNL     1      -3.931  49.974 -19.992  1.00  0.00     0.009 C 
HETATM    8  C16 UNL     1      -3.147  49.759 -18.703  1.00  0.00     0.039 C 
HETATM    9  C17 UNL     1      -2.032  50.815 -18.571  1.00  0.00     0.071 C 
HETATM   10  C18 UNL     1      -1.336  51.102 -19.955  1.00  0.00     0.029 C 
HETATM   11  C19 UNL     1       0.124  51.586 -19.789  1.00  0.00     0.011 C 
HETATM   12  C20 UNL     1       0.301  52.480 -18.569  1.00  0.00     0.033 C 
HETATM   13  C21 UNL     1      -0.074  51.800 -17.249  1.00  0.00     0.129 C 
HETATM   14  C22 UNL     1      -1.038  50.572 -17.371  1.00  0.00     0.010 C 
HETATM   15  C23 UNL     1      -0.253  49.245 -17.487  1.00  0.00     0.020 C 
HETATM   16  C24 UNL     1      -1.808  50.463 -16.022  1.00  0.00     0.020 C 
HETATM   17  C25 UNL     1      -1.549  50.028 -21.113  1.00  0.00    -0.033 C 
HETATM   18  C26 UNL     1      -0.732  48.742 -20.818  1.00  0.00     0.016 C 
HETATM   19  C27 UNL     1      -0.959  50.613 -22.449  1.00  0.00     0.011 C 
HETATM   20  C28 UNL     1      -1.538  50.175 -23.811  1.00  0.00     0.011 C 
HETATM   21  C29 UNL     1      -2.943  49.550 -23.790  1.00  0.00    -0.032 C 
HETATM   22  C30 UNL     1      -2.778  47.997 -23.781  1.00  0.00     0.016 C 
ENDROOT
BRANCH   1  23
HETATM   23  C7  UNL     1      -3.713  49.220 -26.367  1.00  0.00    -0.014 C 
HETATM   24  C8  UNL     1      -4.958  48.398 -26.746  1.00  0.00     0.010 C 
BRANCH  23  25
HETATM   25  C6  UNL     1      -3.345  50.179 -27.521  1.00  0.00     0.008 C 
BRANCH  25  26
HETATM   26  C5  UNL     1      -2.543  51.421 -27.118  1.00  0.00     0.028 C 
BRANCH  26  27
HETATM   27  C4  UNL     1      -1.085  51.244 -27.446  1.00  0.00    -0.025 C 
HETATM   28  C2  UNL     1      -0.196  52.191 -27.798  1.00  0.00    -0.091 C 
HETATM   29  C1  UNL     1      -0.510  53.652 -27.973  1.00  0.00     0.042 C 
HETATM   30  C3  UNL     1       1.244  51.833 -28.063  1.00  0.00     0.042 C 
ENDBRANCH  26  27
ENDBRANCH  25  26
ENDBRANCH  23  25
ENDBRANCH   1  23
BRANCH   9  31
HETATM   31  O1  UNL     1      -2.711  52.068 -18.260  1.00  0.00    -0.389 OA
HETATM   32  H29 UNL     1      -3.448  51.890 -17.653  1.00  0.00     0.210 HD
ENDBRANCH   9  31
BRANCH  13  33
HETATM   33  O2  UNL     1       1.138  51.441 -16.577  1.00  0.00    -0.395 OA
HETATM   34  H36 UNL     1       0.914  51.254 -15.650  1.00  0.00     0.210 HD
ENDBRANCH  13  33
TORSDOF 6
ENDMDL
MODEL 5
REMARK minimizedAffinity -9.05916214
REMARK  6 active torsions:
REMARK  status: ('A' for Active; 'I' for Inactive)
REMARK    1  A    between atoms: C4_4  and  C5_5 
REMARK    2  A    between atoms: C5_5  and  C6_6 
REMARK    3  A    between atoms: C6_6  and  C7_7 
REMARK    4  A    between atoms: C7_7  and  C9_9 
REMARK    5  A    between atoms: C17_17  and  O1_18 
REMARK    6  A    between atoms: C21_22  and  O2_23 
ROOT
HETATM    1  C9  UNL     1      -0.068  51.752 -23.471  1.00  0.00    -0.002 C 
HETATM    2  C10 UNL     1       0.187  52.544 -22.151  1.00  0.00     0.006 C 
HETATM    3  C11 UNL     1      -0.944  52.190 -21.167  1.00  0.00     0.011 C 
HETATM    4  C12 UNL     1      -1.633  50.961 -21.787  1.00  0.00    -0.032 C 
HETATM    5  C13 UNL     1      -0.759  49.732 -21.366  1.00  0.00     0.016 C 
HETATM    6  C14 UNL     1      -3.119  50.749 -21.363  1.00  0.00     0.003 C 
HETATM    7  C15 UNL     1      -3.292  50.606 -19.838  1.00  0.00     0.009 C 
HETATM    8  C16 UNL     1      -4.687  50.116 -19.472  1.00  0.00     0.039 C 
HETATM    9  C17 UNL     1      -4.873  48.649 -19.909  1.00  0.00     0.071 C 
HETATM   10  C18 UNL     1      -4.214  48.374 -21.313  1.00  0.00     0.029 C 
HETATM   11  C19 UNL     1      -4.904  47.213 -22.068  1.00  0.00     0.011 C 
HETATM   12  C20 UNL     1      -5.355  46.102 -21.130  1.00  0.00     0.033 C 
HETATM   13  C21 UNL     1      -6.351  46.565 -20.063  1.00  0.00     0.129 C 
HETATM   14  C22 UNL     1      -6.343  48.100 -19.752  1.00  0.00     0.010 C 
HETATM   15  C23 UNL     1      -7.375  48.858 -20.619  1.00  0.00     0.020 C 
HETATM   16  C24 UNL     1      -6.849  48.269 -18.289  1.00  0.00     0.020 C 
HETATM   17  C25 UNL     1      -3.872  49.640 -22.218  1.00  0.00    -0.033 C 
HETATM   18  C26 UNL     1      -5.172  50.257 -22.801  1.00  0.00     0.016 C 
HETATM   19  C27 UNL     1      -3.035  49.156 -23.459  1.00  0.00     0.011 C 
HETATM   20  C28 UNL     1      -2.034  50.112 -24.142  1.00  0.00     0.011 C 
HETATM   21  C29 UNL     1      -1.570  51.322 -23.316  1.00  0.00    -0.032 C 
HETATM   22  C30 UNL     1      -2.447  52.548 -23.725  1.00  0.00     0.016 C 
ENDROOT
BRANCH   1  23
HETATM   23  C7  UNL     1       0.390  52.551 -24.728  1.00  0.00    -0.014 C 
HETATM   24  C8  UNL     1       0.838  53.974 -24.347  1.00  0.00     0.010 C 
BRANCH  23  25
HETATM   25  C6  UNL     1       1.491  51.861 -25.565  1.00  0.00     0.008 C 
BRANCH  25  26
HETATM   26  C5  UNL     1       1.107  51.522 -27.010  1.00  0.00     0.028 C 
BRANCH  26  27
HETATM   27  C4  UNL     1      -0.347  51.147 -27.101  1.00  0.00    -0.025 C 
HETATM   28  C2  UNL     1      -1.380  51.927 -27.471  1.00  0.00    -0.091 C 
HETATM   29  C1  UNL     1      -1.279  53.381 -27.842  1.00  0.00     0.042 C 
HETATM   30  C3  UNL     1      -2.780  51.370 -27.534  1.00  0.00     0.042 C 
ENDBRANCH  26  27
ENDBRANCH  25  26
ENDBRANCH  23  25
ENDBRANCH   1  23
BRANCH   9  31
HETATM   31  O1  UNL     1      -4.066  47.858 -18.988  1.00  0.00    -0.389 OA
HETATM   32  H29 UNL     1      -4.138  48.235 -18.095  1.00  0.00     0.210 HD
ENDBRANCH   9  31
BRANCH  13  33
HETATM   33  O2  UNL     1      -7.656  46.123 -20.454  1.00  0.00    -0.395 OA
HETATM   34  H36 UNL     1      -8.231  46.185 -19.673  1.00  0.00     0.210 HD
ENDBRANCH  13  33
TORSDOF 6
ENDMDL
MODEL 6
REMARK minimizedAffinity -9.02724743
REMARK  6 active torsions:
REMARK  status: ('A' for Active; 'I' for Inactive)
REMARK    1  A    between atoms: C4_4  and  C5_5 
REMARK    2  A    between atoms: C5_5  and  C6_6 
REMARK    3  A    between atoms: C6_6  and  C7_7 
REMARK    4  A    between atoms: C7_7  and  C9_9 
REMARK    5  A    between atoms: C17_17  and  O1_18 
REMARK    6  A    between atoms: C21_22  and  O2_23 
ROOT
HETATM    1  C9  UNL     1      -3.753  50.594 -25.088  1.00  0.00    -0.002 C 
HETATM    2  C10 UNL     1      -5.182  50.310 -24.528  1.00  0.00     0.006 C 
HETATM    3  C11 UNL     1      -5.055  50.090 -23.009  1.00  0.00     0.011 C 
HETATM    4  C12 UNL     1      -3.638  50.582 -22.659  1.00  0.00    -0.032 C 
HETATM    5  C13 UNL     1      -3.756  52.137 -22.517  1.00  0.00     0.016 C 
HETATM    6  C14 UNL     1      -3.019  49.958 -21.371  1.00  0.00     0.003 C 
HETATM    7  C15 UNL     1      -3.875  50.206 -20.114  1.00  0.00     0.009 C 
HETATM    8  C16 UNL     1      -3.122  49.848 -18.839  1.00  0.00     0.039 C 
HETATM    9  C17 UNL     1      -1.975  50.849 -18.594  1.00  0.00     0.071 C 
HETATM   10  C18 UNL     1      -1.245  51.235 -19.935  1.00  0.00     0.029 C 
HETATM   11  C19 UNL     1       0.228  51.650 -19.704  1.00  0.00     0.011 C 
HETATM   12  C20 UNL     1       0.412  52.424 -18.406  1.00  0.00     0.033 C 
HETATM   13  C21 UNL     1      -0.009  51.641 -17.159  1.00  0.00     0.129 C 
HETATM   14  C22 UNL     1      -1.012  50.463 -17.406  1.00  0.00     0.010 C 
HETATM   15  C23 UNL     1      -0.269  49.126 -17.631  1.00  0.00     0.020 C 
HETATM   16  C24 UNL     1      -1.809  50.260 -16.084  1.00  0.00     0.020 C 
HETATM   17  C25 UNL     1      -1.472  50.279 -21.189  1.00  0.00    -0.033 C 
HETATM   18  C26 UNL     1      -0.704  48.943 -21.000  1.00  0.00     0.016 C 
HETATM   19  C27 UNL     1      -0.839  50.961 -22.458  1.00  0.00     0.011 C 
HETATM   20  C28 UNL     1      -1.408  50.668 -23.863  1.00  0.00     0.011 C 
HETATM   21  C29 UNL     1      -2.833  50.094 -23.919  1.00  0.00    -0.032 C 
HETATM   22  C30 UNL     1      -2.721  48.541 -24.050  1.00  0.00     0.016 C 
ENDROOT
BRANCH   1  23
HETATM   23  C7  UNL     1      -3.567  50.025 -26.527  1.00  0.00    -0.014 C 
HETATM   24  C8  UNL     1      -2.176  50.377 -27.085  1.00  0.00     0.010 C 
BRANCH  23  25
HETATM   25  C6  UNL     1      -3.814  48.505 -26.656  1.00  0.00     0.008 C 
BRANCH  25  26
HETATM   26  C5  UNL     1      -5.081  48.105 -27.420  1.00  0.00     0.028 C 
BRANCH  26  27
HETATM   27  C4  UNL     1      -4.915  48.353 -28.895  1.00  0.00    -0.025 C 
HETATM   28  C2  UNL     1      -5.595  47.789 -29.911  1.00  0.00    -0.091 C 
HETATM   29  C1  UNL     1      -6.664  46.741 -29.761  1.00  0.00     0.042 C 
HETATM   30  C3  UNL     1      -5.313  48.184 -31.338  1.00  0.00     0.042 C 
ENDBRANCH  26  27
ENDBRANCH  25  26
ENDBRANCH  23  25
ENDBRANCH   1  23
BRANCH   9  31
HETATM   31  O1  UNL     1      -2.617  52.091 -18.180  1.00  0.00    -0.389 OA
HETATM   32  H29 UNL     1      -3.371  51.885 -17.603  1.00  0.00     0.210 HD
ENDBRANCH   9  31
BRANCH  13  33
HETATM   33  O2  UNL     1       1.178  51.180 -16.503  1.00  0.00    -0.395 OA
HETATM   34  H36 UNL     1       0.930  50.918 -15.601  1.00  0.00     0.210 HD
ENDBRANCH  13  33
TORSDOF 6
ENDMDL
MODEL 7
REMARK minimizedAffinity -8.76358891
REMARK  6 active torsions:
REMARK  status: ('A' for Active; 'I' for Inactive)
REMARK    1  A    between atoms: C4_4  and  C5_5 
REMARK    2  A    between atoms: C5_5  and  C6_6 
REMARK    3  A    between atoms: C6_6  and  C7_7 
REMARK    4  A    between atoms: C7_7  and  C9_9 
REMARK    5  A    between atoms: C17_17  and  O1_18 
REMARK    6  A    between atoms: C21_22  and  O2_23 
ROOT
HETATM    1  C9  UNL     1      -2.082  51.933 -22.399  1.00  0.00    -0.002 C 
HETATM    2  C10 UNL     1      -2.090  52.026 -23.957  1.00  0.00     0.006 C 
HETATM    3  C11 UNL     1      -3.097  50.985 -24.482  1.00  0.00     0.011 C 
HETATM    4  C12 UNL     1      -3.898  50.552 -23.241  1.00  0.00    -0.032 C 
HETATM    5  C13 UNL     1      -4.996  51.649 -23.045  1.00  0.00     0.016 C 
HETATM    6  C14 UNL     1      -4.545  49.136 -23.330  1.00  0.00     0.003 C 
HETATM    7  C15 UNL     1      -5.508  48.992 -24.525  1.00  0.00     0.009 C 
HETATM    8  C16 UNL     1      -6.340  47.719 -24.429  1.00  0.00     0.039 C 
HETATM    9  C17 UNL     1      -7.352  47.825 -23.271  1.00  0.00     0.071 C 
HETATM   10  C18 UNL     1      -6.720  48.528 -22.010  1.00  0.00     0.029 C 
HETATM   11  C19 UNL     1      -7.391  48.080 -20.690  1.00  0.00     0.011 C 
HETATM   12  C20 UNL     1      -8.888  47.855 -20.852  1.00  0.00     0.033 C 
HETATM   13  C21 UNL     1      -9.240  46.786 -21.890  1.00  0.00     0.129 C 
HETATM   14  C22 UNL     1      -8.134  46.491 -22.960  1.00  0.00     0.010 C 
HETATM   15  C23 UNL     1      -7.212  45.332 -22.515  1.00  0.00     0.020 C 
HETATM   16  C24 UNL     1      -8.860  45.960 -24.230  1.00  0.00     0.020 C 
HETATM   17  C25 UNL     1      -5.130  48.615 -21.946  1.00  0.00    -0.033 C 
HETATM   18  C26 UNL     1      -4.521  47.221 -21.640  1.00  0.00     0.016 C 
HETATM   19  C27 UNL     1      -4.730  49.534 -20.733  1.00  0.00     0.011 C 
HETATM   20  C28 UNL     1      -3.407  50.328 -20.763  1.00  0.00     0.011 C 
HETATM   21  C29 UNL     1      -2.769  50.545 -22.145  1.00  0.00    -0.032 C 
HETATM   22  C30 UNL     1      -1.679  49.444 -22.350  1.00  0.00     0.016 C 
ENDROOT
BRANCH   1  23
HETATM   23  C7  UNL     1      -0.672  52.227 -21.805  1.00  0.00    -0.014 C 
HETATM   24  C8  UNL     1       0.010  50.930 -21.331  1.00  0.00     0.010 C 
BRANCH  23  25
HETATM   25  C6  UNL     1       0.276  53.003 -22.748  1.00  0.00     0.008 C 
BRANCH  25  26
HETATM   26  C5  UNL     1      -0.049  52.900 -24.242  1.00  0.00     0.028 C 
BRANCH  26  27
HETATM   27  C4  UNL     1       1.179  52.534 -25.030  1.00  0.00    -0.025 C 
HETATM   28  C2  UNL     1       1.288  51.624 -26.017  1.00  0.00    -0.091 C 
HETATM   29  C1  UNL     1       0.172  50.744 -26.511  1.00  0.00     0.042 C 
HETATM   30  C3  UNL     1       2.602  51.408 -26.722  1.00  0.00     0.042 C 
ENDBRANCH  26  27
ENDBRANCH  25  26
ENDBRANCH  23  25
ENDBRANCH   1  23
BRANCH   9  31
HETATM   31  O1  UNL     1      -8.367  48.771 -23.719  1.00  0.00    -0.389 OA
HETATM   32  H29 UNL     1      -8.544  48.625 -24.664  1.00  0.00     0.210 HD
ENDBRANCH   9  31
BRANCH  13  33
HETATM   33  O2  UNL     1      -9.612  45.593 -21.190  1.00  0.00    -0.395 OA
HETATM   34  H36 UNL     1     -10.074  45.016 -21.821  1.00  0.00     0.210 HD
ENDBRANCH  13  33
TORSDOF 6
ENDMDL
MODEL 8
REMARK minimizedAffinity -8.72393703
REMARK  6 active torsions:
REMARK  status: ('A' for Active; 'I' for Inactive)
REMARK    1  A    between atoms: C4_4  and  C5_5 
REMARK    2  A    between atoms: C5_5  and  C6_6 
REMARK    3  A    between atoms: C6_6  and  C7_7 
REMARK    4  A    between atoms: C7_7  and  C9_9 
REMARK    5  A    between atoms: C17_17  and  O1_18 
REMARK    6  A    between atoms: C21_22  and  O2_23 
ROOT
HETATM    1  C9  UNL     1      -1.190  50.389 -21.823  1.00  0.00    -0.002 C 
HETATM    2  C10 UNL     1      -0.256  50.023 -20.627  1.00  0.00     0.006 C 
HETATM    3  C11 UNL     1      -0.980  48.963 -19.775  1.00  0.00     0.011 C 
HETATM    4  C12 UNL     1      -2.147  48.482 -20.657  1.00  0.00    -0.032 C 
HETATM    5  C13 UNL     1      -1.532  47.416 -21.625  1.00  0.00     0.016 C 
HETATM    6  C14 UNL     1      -3.361  47.884 -19.881  1.00  0.00     0.003 C 
HETATM    7  C15 UNL     1      -2.974  46.680 -18.999  1.00  0.00     0.009 C 
HETATM    8  C16 UNL     1      -4.202  45.939 -18.485  1.00  0.00     0.039 C 
HETATM    9  C17 UNL     1      -4.915  45.214 -19.644  1.00  0.00     0.071 C 
HETATM   10  C18 UNL     1      -4.934  46.089 -20.953  1.00  0.00     0.029 C 
HETATM   11  C19 UNL     1      -6.135  45.752 -21.868  1.00  0.00     0.011 C 
HETATM   12  C20 UNL     1      -6.470  44.267 -21.857  1.00  0.00     0.033 C 
HETATM   13  C21 UNL     1      -6.829  43.728 -20.469  1.00  0.00     0.129 C 
HETATM   14  C22 UNL     1      -6.304  44.573 -19.259  1.00  0.00     0.010 C 
HETATM   15  C23 UNL     1      -7.351  45.614 -18.799  1.00  0.00     0.020 C 
HETATM   16  C24 UNL     1      -6.155  43.598 -18.055  1.00  0.00     0.020 C 
HETATM   17  C25 UNL     1      -4.643  47.648 -20.791  1.00  0.00    -0.033 C 
HETATM   18  C26 UNL     1      -5.857  48.361 -20.138  1.00  0.00     0.016 C 
HETATM   19  C27 UNL     1      -4.496  48.279 -22.225  1.00  0.00     0.011 C 
HETATM   20  C28 UNL     1      -3.617  49.531 -22.437  1.00  0.00     0.011 C 
HETATM   21  C29 UNL     1      -2.576  49.829 -21.346  1.00  0.00    -0.032 C 
HETATM   22  C30 UNL     1      -3.191  50.884 -20.371  1.00  0.00     0.016 C 
ENDROOT
BRANCH   1  23
HETATM   23  C7  UNL     1      -1.051  51.885 -22.234  1.00  0.00    -0.014 C 
HETATM   24  C8  UNL     1       0.200  52.520 -21.601  1.00  0.00     0.010 C 
BRANCH  23  25
HETATM   25  C6  UNL     1      -1.052  52.137 -23.759  1.00  0.00     0.008 C 
BRANCH  25  26
HETATM   26  C5  UNL     1       0.331  52.273 -24.407  1.00  0.00     0.028 C 
BRANCH  26  27
HETATM   27  C4  UNL     1       0.225  52.215 -25.907  1.00  0.00    -0.025 C 
HETATM   28  C2  UNL     1       1.146  51.772 -26.784  1.00  0.00    -0.091 C 
HETATM   29  C1  UNL     1       2.516  51.266 -26.421  1.00  0.00     0.042 C 
HETATM   30  C3  UNL     1       0.854  51.759 -28.262  1.00  0.00     0.042 C 
ENDBRANCH  26  27
ENDBRANCH  25  26
ENDBRANCH  23  25
ENDBRANCH   1  23
BRANCH   9  31
HETATM   31  O1  UNL     1      -4.056  44.089 -19.993  1.00  0.00    -0.389 OA
HETATM   32  H29 UNL     1      -3.683  43.708 -19.181  1.00  0.00     0.210 HD
ENDBRANCH   9  31
BRANCH  13  33
HETATM   33  O2  UNL     1      -8.251  43.569 -20.411  1.00  0.00    -0.395 OA
HETATM   34  H36 UNL     1      -8.450  42.998 -19.650  1.00  0.00     0.210 HD
ENDBRANCH  13  33
TORSDOF 6
ENDMDL
MODEL 9
REMARK minimizedAffinity -8.62367249
REMARK  6 active torsions:
REMARK  status: ('A' for Active; 'I' for Inactive)
REMARK    1  A    between atoms: C4_4  and  C5_5 
REMARK    2  A    between atoms: C5_5  and  C6_6 
REMARK    3  A    between atoms: C6_6  and  C7_7 
REMARK    4  A    between atoms: C7_7  and  C9_9 
REMARK    5  A    between atoms: C17_17  and  O1_18 
REMARK    6  A    between atoms: C21_22  and  O2_23 
ROOT
HETATM    1  C9  UNL     1      -1.633  50.740 -22.388  1.00  0.00    -0.002 C 
HETATM    2  C10 UNL     1      -0.963  49.545 -21.640  1.00  0.00     0.006 C 
HETATM    3  C11 UNL     1      -2.076  48.557 -21.243  1.00  0.00     0.011 C 
HETATM    4  C12 UNL     1      -3.307  49.007 -22.052  1.00  0.00    -0.032 C 
HETATM    5  C13 UNL     1      -3.129  48.379 -23.474  1.00  0.00     0.016 C 
HETATM    6  C14 UNL     1      -4.684  48.605 -21.441  1.00  0.00     0.003 C 
HETATM    7  C15 UNL     1      -4.835  47.083 -21.255  1.00  0.00     0.009 C 
HETATM    8  C16 UNL     1      -6.273  46.693 -20.936  1.00  0.00     0.039 C 
HETATM    9  C17 UNL     1      -7.174  46.911 -22.168  1.00  0.00     0.071 C 
HETATM   10  C18 UNL     1      -6.799  48.235 -22.935  1.00  0.00     0.029 C 
HETATM   11  C19 UNL     1      -8.004  48.830 -23.703  1.00  0.00     0.011 C 
HETATM   12  C20 UNL     1      -8.898  47.751 -24.298  1.00  0.00     0.033 C 
HETATM   13  C21 UNL     1      -9.489  46.799 -23.254  1.00  0.00     0.129 C 
HETATM   14  C22 UNL     1      -8.716  46.721 -21.894  1.00  0.00     0.010 C 
HETATM   15  C23 UNL     1      -9.282  47.726 -20.864  1.00  0.00     0.020 C 
HETATM   16  C24 UNL     1      -9.006  45.318 -21.286  1.00  0.00     0.020 C 
HETATM   17  C25 UNL     1      -5.923  49.309 -22.148  1.00  0.00    -0.033 C 
HETATM   18  C26 UNL     1      -6.778  50.020 -21.065  1.00  0.00     0.016 C 
HETATM   19  C27 UNL     1      -5.488  50.435 -23.158  1.00  0.00     0.011 C 
HETATM   20  C28 UNL     1      -4.180  51.221 -22.929  1.00  0.00     0.011 C 
HETATM   21  C29 UNL     1      -3.144  50.571 -21.997  1.00  0.00    -0.032 C 
HETATM   22  C30 UNL     1      -3.325  51.188 -20.573  1.00  0.00     0.016 C 
ENDROOT
BRANCH   1  23
HETATM   23  C7  UNL     1      -0.901  52.086 -22.111  1.00  0.00    -0.014 C 
HETATM   24  C8  UNL     1       0.109  51.941 -20.958  1.00  0.00     0.010 C 
BRANCH  23  25
HETATM   25  C6  UNL     1      -0.203  52.706 -23.343  1.00  0.00     0.008 C 
BRANCH  25  26
HETATM   26  C5  UNL     1      -0.339  51.912 -24.648  1.00  0.00     0.028 C 
BRANCH  26  27
HETATM   27  C4  UNL     1       0.986  51.820 -25.356  1.00  0.00    -0.025 C 
HETATM   28  C2  UNL     1       1.210  51.733 -26.681  1.00  0.00    -0.091 C 
HETATM   29  C1  UNL     1       0.143  51.672 -27.739  1.00  0.00     0.042 C 
HETATM   30  C3  UNL     1       2.617  51.679 -27.219  1.00  0.00     0.042 C 
ENDBRANCH  26  27
ENDBRANCH  25  26
ENDBRANCH  23  25
ENDBRANCH   1  23
BRANCH   9  31
HETATM   31  O1  UNL     1      -6.818  45.856 -23.109  1.00  0.00    -0.389 OA
HETATM   32  H29 UNL     1      -6.654  45.033 -22.619  1.00  0.00     0.210 HD
ENDBRANCH   9  31
BRANCH  13  33
HETATM   33  O2  UNL     1     -10.859  47.162 -23.050  1.00  0.00    -0.395 OA
HETATM   34  H36 UNL     1     -11.294  46.418 -22.599  1.00  0.00     0.210 HD
ENDBRANCH  13  33
TORSDOF 6
ENDMDL
