MODEL 1
REMARK minimizedAffinity -8.99906063
REMARK  7 active torsions:
REMARK  status: ('A' for Active; 'I' for Inactive)
REMARK    1  A    between atoms: N1_2  and  C2_3 
REMARK    2  A    between atoms: C2_3  and  C3_4 
REMARK    3  A    between atoms: C5_6  and  O1_7 
REMARK    4  A    between atoms: C29_32  and  N2_33 
REMARK    5  A    between atoms: C29_32  and  C30_34 
REMARK    6  A    between atoms: C30_34  and  C31_35 
REMARK    7  A    between atoms: C31_35  and  O3_36 
ROOT
HETATM    1  C3  UNL     1      -1.072  51.783 -24.676  1.00  0.00    -0.021 A 
HETATM    2  C4  UNL     1      -1.495  51.539 -26.000  1.00  0.00     0.045 A 
HETATM    3  C5  UNL     1      -2.840  51.544 -26.326  1.00  0.00     0.066 A 
HETATM    4  C6  UNL     1      -3.793  51.816 -25.362  1.00  0.00     0.045 A 
HETATM    5  C7  UNL     1      -3.420  52.079 -24.028  1.00  0.00    -0.037 A 
HETATM    6  C8  UNL     1      -2.041  52.013 -23.655  1.00  0.00    -0.042 A 
HETATM    7  C9  UNL     1      -1.608  52.204 -22.200  1.00  0.00     0.044 C 
HETATM    8  C10 UNL     1      -0.986  50.957 -21.495  1.00  0.00    -0.006 C 
HETATM    9  C11 UNL     1      -0.465  51.325 -20.097  1.00  0.00     0.005 C 
HETATM   10  C12 UNL     1      -1.563  51.679 -19.094  1.00  0.00     0.001 C 
HETATM   11  C13 UNL     1      -2.873  50.910 -19.295  1.00  0.00     0.008 C 
HETATM   12  C14 UNL     1      -2.659  49.594 -20.046  1.00  0.00     0.026 C 
HETATM   13  C15 UNL     1      -1.965  49.764 -21.414  1.00  0.00    -0.003 C 
HETATM   14  C16 UNL     1      -1.305  48.409 -21.770  1.00  0.00     0.006 C 
HETATM   15  C17 UNL     1      -2.204  47.200 -21.425  1.00  0.00     0.008 C 
HETATM   16  C18 UNL     1      -3.676  47.616 -21.326  1.00  0.00     0.022 C 
HETATM   17  C19 UNL     1      -4.655  46.448 -21.158  1.00  0.00     0.018 C 
HETATM   18  C20 UNL     1      -5.782  46.894 -20.173  1.00  0.00     0.060 C 
HETATM   19  C21 UNL     1      -5.084  47.056 -18.782  1.00  0.00     0.061 C 
HETATM   20  C22 UNL     1      -4.478  45.729 -18.275  1.00  0.00     0.046 C 
HETATM   21  C23 UNL     1      -5.990  47.564 -17.652  1.00  0.00     0.046 C 
HETATM   22  O2  UNL     1      -3.992  47.984 -18.905  1.00  0.00    -0.367 OA
HETATM   23  C24 UNL     1      -3.912  48.670 -20.192  1.00  0.00     0.086 C 
HETATM   24  C25 UNL     1      -5.296  49.371 -20.432  1.00  0.00     0.139 C 
HETATM   25  C26 UNL     1      -5.228  50.428 -21.470  1.00  0.00    -0.096 C 
HETATM   26  C27 UNL     1      -4.996  51.324 -22.237  1.00  0.00    -0.101 C 
HETATM   27  C28 UNL     1      -4.554  52.442 -23.081  1.00  0.00     0.133 C 
HETATM   28  C29 UNL     1      -6.392  48.259 -20.705  1.00  0.00     0.180 C 
ENDROOT
BRANCH  28  29
HETATM   29  N2  UNL     1      -6.684  48.085 -22.153  1.00  0.00     0.090 N 
HETATM   30  H38 UNL     1      -7.003  48.968 -22.557  1.00  0.00     0.313 HD
HETATM   31  H39 UNL     1      -7.416  47.401 -22.316  1.00  0.00     0.313 HD
ENDBRANCH  28  29
BRANCH  28  32
HETATM   32  C30 UNL     1      -7.747  48.695 -20.071  1.00  0.00     0.069 C 
BRANCH  32  33
HETATM   33  C31 UNL     1      -7.755  48.896 -18.556  1.00  0.00     0.166 C 
BRANCH  33  34
HETATM   34  O3  UNL     1      -8.929  49.619 -18.204  1.00  0.00    -0.401 OA
HETATM   35  H44 UNL     1      -8.921  49.730 -17.237  1.00  0.00     0.209 HD
ENDBRANCH  33  34
ENDBRANCH  32  33
ENDBRANCH  28  32
BRANCH   3  36
HETATM   36  O1  UNL     1      -3.270  51.307 -27.598  1.00  0.00    -0.361 OA
HETATM   37  H8  UNL     1      -2.501  51.081 -28.146  1.00  0.00     0.217 HD
ENDBRANCH   3  36
BRANCH   1  38
HETATM   38  C2  UNL     1       0.431  51.804 -24.445  1.00  0.00     0.308 C 
BRANCH  38  39
HETATM   39  N1  UNL     1       1.125  52.532 -25.506  1.00  0.00     0.083 N 
HETATM   40  C1  UNL     1       2.234  51.756 -26.039  1.00  0.00     0.307 C 
HETATM   41  H4  UNL     1       1.466  53.420 -25.146  1.00  0.00     0.315 HD
ENDBRANCH  38  39
ENDBRANCH   1  38
TORSDOF 7
ENDMDL
MODEL 2
REMARK minimizedAffinity -8.69095039
REMARK  7 active torsions:
REMARK  status: ('A' for Active; 'I' for Inactive)
REMARK    1  A    between atoms: N1_2  and  C2_3 
REMARK    2  A    between atoms: C2_3  and  C3_4 
REMARK    3  A    between atoms: C5_6  and  O1_7 
REMARK    4  A    between atoms: C29_32  and  N2_33 
REMARK    5  A    between atoms: C29_32  and  C30_34 
REMARK    6  A    between atoms: C30_34  and  C31_35 
REMARK    7  A    between atoms: C31_35  and  O3_36 
ROOT
HETATM    1  C3  UNL     1      -0.424  51.727 -20.766  1.00  0.00    -0.021 A 
HETATM    2  C4  UNL     1      -0.443  51.851 -19.360  1.00  0.00     0.045 A 
HETATM    3  C5  UNL     1      -0.762  50.768 -18.559  1.00  0.00     0.066 A 
HETATM    4  C6  UNL     1      -1.040  49.537 -19.123  1.00  0.00     0.045 A 
HETATM    5  C7  UNL     1      -1.021  49.360 -20.522  1.00  0.00    -0.037 A 
HETATM    6  C8  UNL     1      -0.760  50.480 -21.371  1.00  0.00    -0.042 A 
HETATM    7  C9  UNL     1      -0.819  50.346 -22.894  1.00  0.00     0.044 C 
HETATM    8  C10 UNL     1      -1.956  51.137 -23.614  1.00  0.00    -0.006 C 
HETATM    9  C11 UNL     1      -1.812  51.032 -25.140  1.00  0.00     0.005 C 
HETATM   10  C12 UNL     1      -2.068  49.631 -25.697  1.00  0.00     0.001 C 
HETATM   11  C13 UNL     1      -3.119  48.827 -24.924  1.00  0.00     0.008 C 
HETATM   12  C14 UNL     1      -4.078  49.731 -24.145  1.00  0.00     0.026 C 
HETATM   13  C15 UNL     1      -3.369  50.695 -23.169  1.00  0.00    -0.003 C 
HETATM   14  C16 UNL     1      -4.328  51.885 -22.916  1.00  0.00     0.006 C 
HETATM   15  C17 UNL     1      -5.797  51.437 -22.741  1.00  0.00     0.008 C 
HETATM   16  C18 UNL     1      -5.882  49.962 -22.335  1.00  0.00     0.022 C 
HETATM   17  C19 UNL     1      -7.293  49.484 -21.973  1.00  0.00     0.018 C 
HETATM   18  C20 UNL     1      -7.469  48.030 -22.514  1.00  0.00     0.060 C 
HETATM   19  C21 UNL     1      -7.459  48.157 -24.074  1.00  0.00     0.061 C 
HETATM   20  C22 UNL     1      -8.625  49.025 -24.596  1.00  0.00     0.046 C 
HETATM   21  C23 UNL     1      -7.548  46.829 -24.838  1.00  0.00     0.046 C 
HETATM   22  O2  UNL     1      -6.246  48.809 -24.488  1.00  0.00    -0.367 OA
HETATM   23  C24 UNL     1      -5.268  49.018 -23.424  1.00  0.00     0.086 C 
HETATM   24  C25 UNL     1      -4.978  47.618 -22.777  1.00  0.00     0.139 C 
HETATM   25  C26 UNL     1      -3.725  47.603 -21.984  1.00  0.00    -0.096 C 
HETATM   26  C27 UNL     1      -2.639  47.710 -21.481  1.00  0.00    -0.101 C 
HETATM   27  C28 UNL     1      -1.265  47.941 -21.014  1.00  0.00     0.133 C 
HETATM   28  C29 UNL     1      -6.264  47.151 -21.973  1.00  0.00     0.180 C 
ENDROOT
BRANCH  28  29
HETATM   29  N2  UNL     1      -6.147  47.401 -20.511  1.00  0.00     0.090 N 
HETATM   30  H38 UNL     1      -5.330  46.918 -20.135  1.00  0.00     0.313 HD
HETATM   31  H39 UNL     1      -6.957  47.062 -20.000  1.00  0.00     0.313 HD
ENDBRANCH  28  29
BRANCH  28  32
HETATM   32  C30 UNL     1      -6.428  45.607 -22.105  1.00  0.00     0.069 C 
BRANCH  32  33
HETATM   33  C31 UNL     1      -5.750  44.757 -21.032  1.00  0.00     0.166 C 
BRANCH  33  34
HETATM   34  O3  UNL     1      -6.722  44.411 -20.051  1.00  0.00    -0.401 OA
HETATM   35  H44 UNL     1      -6.274  43.863 -19.383  1.00  0.00     0.209 HD
ENDBRANCH  33  34
ENDBRANCH  32  33
ENDBRANCH  28  32
BRANCH   3  36
HETATM   36  O1  UNL     1      -0.791  50.867 -17.200  1.00  0.00    -0.361 OA
HETATM   37  H8  UNL     1      -0.629  51.793 -16.954  1.00  0.00     0.217 HD
ENDBRANCH   3  36
BRANCH   1  38
HETATM   38  C2  UNL     1      -0.011  52.968 -21.543  1.00  0.00     0.308 C 
BRANCH  38  39
HETATM   39  N1  UNL     1       0.958  53.769 -20.796  1.00  0.00     0.083 N 
HETATM   40  C1  UNL     1       1.828  54.513 -21.693  1.00  0.00     0.307 C 
HETATM   41  H4  UNL     1       1.514  53.164 -20.196  1.00  0.00     0.315 HD
ENDBRANCH  38  39
ENDBRANCH   1  38
TORSDOF 7
ENDMDL
MODEL 3
REMARK minimizedAffinity -8.68239021
REMARK  7 active torsions:
REMARK  status: ('A' for Active; 'I' for Inactive)
REMARK    1  A    between atoms: N1_2  and  C2_3 
REMARK    2  A    between atoms: C2_3  and  C3_4 
REMARK    3  A    between atoms: C5_6  and  O1_7 
REMARK    4  A    between atoms: C29_32  and  N2_33 
REMARK    5  A    between atoms: C29_32  and  C30_34 
REMARK    6  A    between atoms: C30_34  and  C31_35 
REMARK    7  A    between atoms: C31_35  and  O3_36 
ROOT
HETATM    1  C3  UNL     1      -0.185  52.174 -22.345  1.00  0.00    -0.021 A 
HETATM    2  C4  UNL     1      -0.110  52.672 -21.026  1.00  0.00     0.045 A 
HETATM    3  C5  UNL     1      -0.425  51.865 -19.947  1.00  0.00     0.066 A 
HETATM    4  C6  UNL     1      -0.792  50.546 -20.141  1.00  0.00     0.045 A 
HETATM    5  C7  UNL     1      -0.869  50.000 -21.439  1.00  0.00    -0.037 A 
HETATM    6  C8  UNL     1      -0.613  50.833 -22.572  1.00  0.00    -0.042 A 
HETATM    7  C9  UNL     1      -0.774  50.298 -23.996  1.00  0.00     0.044 C 
HETATM    8  C10 UNL     1      -1.918  50.933 -24.848  1.00  0.00    -0.006 C 
HETATM    9  C11 UNL     1      -1.875  50.414 -26.293  1.00  0.00     0.005 C 
HETATM   10  C12 UNL     1      -2.228  48.933 -26.435  1.00  0.00     0.001 C 
HETATM   11  C13 UNL     1      -3.262  48.431 -25.423  1.00  0.00     0.008 C 
HETATM   12  C14 UNL     1      -4.129  49.566 -24.873  1.00  0.00     0.026 C 
HETATM   13  C15 UNL     1      -3.318  50.712 -24.231  1.00  0.00    -0.003 C 
HETATM   14  C16 UNL     1      -4.206  51.981 -24.263  1.00  0.00     0.006 C 
HETATM   15  C17 UNL     1      -5.679  51.686 -23.903  1.00  0.00     0.008 C 
HETATM   16  C18 UNL     1      -5.803  50.381 -23.108  1.00  0.00     0.022 C 
HETATM   17  C19 UNL     1      -7.209  50.103 -22.562  1.00  0.00     0.018 C 
HETATM   18  C20 UNL     1      -7.483  48.570 -22.678  1.00  0.00     0.060 C 
HETATM   19  C21 UNL     1      -7.566  48.273 -24.213  1.00  0.00     0.061 C 
HETATM   20  C22 UNL     1      -8.722  49.037 -24.893  1.00  0.00     0.046 C 
HETATM   21  C23 UNL     1      -7.761  46.796 -24.582  1.00  0.00     0.046 C 
HETATM   22  O2  UNL     1      -6.353  48.716 -24.847  1.00  0.00    -0.367 OA
HETATM   23  C24 UNL     1      -5.302  49.145 -23.928  1.00  0.00     0.086 C 
HETATM   24  C25 UNL     1      -5.034  47.955 -22.940  1.00  0.00     0.139 C 
HETATM   25  C26 UNL     1      -3.735  48.079 -22.235  1.00  0.00    -0.096 C 
HETATM   26  C27 UNL     1      -2.615  48.252 -21.833  1.00  0.00    -0.101 C 
HETATM   27  C28 UNL     1      -1.207  48.518 -21.515  1.00  0.00     0.133 C 
HETATM   28  C29 UNL     1      -6.285  47.799 -21.978  1.00  0.00     0.180 C 
ENDROOT
BRANCH  28  29
HETATM   29  N2  UNL     1      -6.066  48.425 -20.647  1.00  0.00     0.090 N 
HETATM   30  H38 UNL     1      -5.249  48.013 -20.194  1.00  0.00     0.313 HD
HETATM   31  H39 UNL     1      -6.856  48.284 -20.024  1.00  0.00     0.313 HD
ENDBRANCH  28  29
BRANCH  28  32
HETATM   32  C30 UNL     1      -6.526  46.289 -21.678  1.00  0.00     0.069 C 
BRANCH  32  33
HETATM   33  C31 UNL     1      -5.356  45.522 -21.065  1.00  0.00     0.166 C 
BRANCH  33  34
HETATM   34  O3  UNL     1      -5.432  44.166 -21.491  1.00  0.00    -0.401 OA
HETATM   35  H44 UNL     1      -4.675  43.697 -21.098  1.00  0.00     0.209 HD
ENDBRANCH  33  34
ENDBRANCH  32  33
ENDBRANCH  28  32
BRANCH   3  36
HETATM   36  O1  UNL     1      -0.363  52.326 -18.665  1.00  0.00    -0.361 OA
HETATM   37  H8  UNL     1      -0.146  53.273 -18.688  1.00  0.00     0.217 HD
ENDBRANCH   3  36
BRANCH   1  38
HETATM   38  C2  UNL     1       0.232  53.134 -23.448  1.00  0.00     0.308 C 
BRANCH  38  39
HETATM   39  N1  UNL     1      -0.913  53.554 -24.255  1.00  0.00     0.083 N 
HETATM   40  C1  UNL     1      -0.490  54.036 -25.560  1.00  0.00     0.307 C 
HETATM   41  H4  UNL     1      -1.428  54.282 -23.766  1.00  0.00     0.315 HD
ENDBRANCH  38  39
ENDBRANCH   1  38
TORSDOF 7
ENDMDL
MODEL 4
REMARK minimizedAffinity -8.56472683
REMARK  7 active torsions:
REMARK  status: ('A' for Active; 'I' for Inactive)
REMARK    1  A    between atoms: N1_2  and  C2_3 
REMARK    2  A    between atoms: C2_3  and  C3_4 
REMARK    3  A    between atoms: C5_6  and  O1_7 
REMARK    4  A    between atoms: C29_32  and  N2_33 
REMARK    5  A    between atoms: C29_32  and  C30_34 
REMARK    6  A    between atoms: C30_34  and  C31_35 
REMARK    7  A    between atoms: C31_35  and  O3_36 
ROOT
HETATM    1  C3  UNL     1       5.098  56.156  -7.198  1.00  0.00    -0.021 A 
HETATM    2  C4  UNL     1       6.303  55.529  -7.581  1.00  0.00     0.045 A 
HETATM    3  C5  UNL     1       6.509  55.132  -8.891  1.00  0.00     0.066 A 
HETATM    4  C6  UNL     1       5.546  55.370  -9.855  1.00  0.00     0.045 A 
HETATM    5  C7  UNL     1       4.332  56.005  -9.524  1.00  0.00    -0.037 A 
HETATM    6  C8  UNL     1       4.070  56.364  -8.165  1.00  0.00    -0.042 A 
HETATM    7  C9  UNL     1       2.728  56.972  -7.755  1.00  0.00     0.044 C 
HETATM    8  C10 UNL     1       1.833  56.104  -6.815  1.00  0.00    -0.006 C 
HETATM    9  C11 UNL     1       0.591  56.889  -6.367  1.00  0.00     0.005 C 
HETATM   10  C12 UNL     1      -0.405  57.178  -7.491  1.00  0.00     0.001 C 
HETATM   11  C13 UNL     1      -0.478  56.087  -8.564  1.00  0.00     0.008 C 
HETATM   12  C14 UNL     1      -0.002  54.730  -8.041  1.00  0.00     0.026 C 
HETATM   13  C15 UNL     1       1.425  54.757  -7.452  1.00  0.00    -0.003 C 
HETATM   14  C16 UNL     1       1.545  53.560  -6.476  1.00  0.00     0.006 C 
HETATM   15  C17 UNL     1       0.883  52.276  -7.024  1.00  0.00     0.008 C 
HETATM   16  C18 UNL     1       0.751  52.331  -8.551  1.00  0.00     0.022 C 
HETATM   17  C19 UNL     1       0.263  51.026  -9.191  1.00  0.00     0.018 C 
HETATM   18  C20 UNL     1      -0.698  51.390 -10.367  1.00  0.00     0.060 C 
HETATM   19  C21 UNL     1      -1.963  52.022  -9.696  1.00  0.00     0.061 C 
HETATM   20  C22 UNL     1      -2.682  51.031  -8.755  1.00  0.00     0.046 C 
HETATM   21  C23 UNL     1      -3.034  52.531 -10.671  1.00  0.00     0.046 C 
HETATM   22  O2  UNL     1      -1.559  53.138  -8.883  1.00  0.00    -0.367 OA
HETATM   23  C24 UNL     1      -0.155  53.519  -9.018  1.00  0.00     0.086 C 
HETATM   24  C25 UNL     1       0.109  53.790 -10.541  1.00  0.00     0.139 C 
HETATM   25  C26 UNL     1       1.346  54.573 -10.776  1.00  0.00    -0.096 C 
HETATM   26  C27 UNL     1       2.299  55.305 -10.803  1.00  0.00    -0.101 C 
HETATM   27  C28 UNL     1       3.390  56.281 -10.687  1.00  0.00     0.133 C 
HETATM   28  C29 UNL     1       0.052  52.411 -11.322  1.00  0.00     0.180 C 
ENDROOT
BRANCH  28  29
HETATM   29  N2  UNL     1       1.404  51.854 -11.600  1.00  0.00     0.090 N 
HETATM   30  H38 UNL     1       1.954  52.520 -12.146  1.00  0.00     0.313 HD
HETATM   31  H39 UNL     1       1.359  50.993 -12.136  1.00  0.00     0.313 HD
ENDBRANCH  28  29
BRANCH  28  32
HETATM   32  C30 UNL     1      -0.588  52.632 -12.725  1.00  0.00     0.069 C 
BRANCH  32  33
HETATM   33  C31 UNL     1       0.089  51.929 -13.901  1.00  0.00     0.166 C 
BRANCH  33  34
HETATM   34  O3  UNL     1       0.946  52.861 -14.550  1.00  0.00    -0.401 OA
HETATM   35  H44 UNL     1       1.374  52.393 -15.289  1.00  0.00     0.209 HD
ENDBRANCH  33  34
ENDBRANCH  32  33
ENDBRANCH  28  32
BRANCH   3  36
HETATM   36  O1  UNL     1       7.663  54.520  -9.281  1.00  0.00    -0.361 OA
HETATM   37  H8  UNL     1       8.215  54.373  -8.495  1.00  0.00     0.217 HD
ENDBRANCH   3  36
BRANCH   1  38
HETATM   38  C2  UNL     1       5.002  56.595  -5.745  1.00  0.00     0.308 C 
BRANCH  38  39
HETATM   39  N1  UNL     1       5.310  58.016  -5.594  1.00  0.00     0.083 N 
HETATM   40  C1  UNL     1       6.709  58.219  -5.255  1.00  0.00     0.307 C 
HETATM   41  H4  UNL     1       4.716  58.421  -4.873  1.00  0.00     0.315 HD
ENDBRANCH  38  39
ENDBRANCH   1  38
TORSDOF 7
ENDMDL
MODEL 5
REMARK minimizedAffinity -7.98422909
REMARK  7 active torsions:
REMARK  status: ('A' for Active; 'I' for Inactive)
REMARK    1  A    between atoms: N1_2  and  C2_3 
REMARK    2  A    between atoms: C2_3  and  C3_4 
REMARK    3  A    between atoms: C5_6  and  O1_7 
REMARK    4  A    between atoms: C29_32  and  N2_33 
REMARK    5  A    between atoms: C29_32  and  C30_34 
REMARK    6  A    between atoms: C30_34  and  C31_35 
REMARK    7  A    between atoms: C31_35  and  O3_36 
ROOT
HETATM    1  C3  UNL     1      -7.751  47.938 -22.746  1.00  0.00    -0.021 A 
HETATM    2  C4  UNL     1      -8.835  48.522 -23.437  1.00  0.00     0.045 A 
HETATM    3  C5  UNL     1      -8.727  48.848 -24.778  1.00  0.00     0.066 A 
HETATM    4  C6  UNL     1      -7.561  48.581 -25.472  1.00  0.00     0.045 A 
HETATM    5  C7  UNL     1      -6.455  47.987 -24.829  1.00  0.00    -0.037 A 
HETATM    6  C8  UNL     1      -6.521  47.703 -23.430  1.00  0.00    -0.042 A 
HETATM    7  C9  UNL     1      -5.311  47.143 -22.681  1.00  0.00     0.044 C 
HETATM    8  C10 UNL     1      -4.671  48.075 -21.603  1.00  0.00    -0.006 C 
HETATM    9  C11 UNL     1      -3.566  47.338 -20.832  1.00  0.00     0.005 C 
HETATM   10  C12 UNL     1      -2.329  47.013 -21.671  1.00  0.00     0.001 C 
HETATM   11  C13 UNL     1      -2.011  48.049 -22.753  1.00  0.00     0.008 C 
HETATM   12  C14 UNL     1      -2.608  49.422 -22.431  1.00  0.00     0.026 C 
HETATM   13  C15 UNL     1      -4.134  49.396 -22.197  1.00  0.00    -0.003 C 
HETATM   14  C16 UNL     1      -4.491  50.638 -21.343  1.00  0.00     0.006 C 
HETATM   15  C17 UNL     1      -3.727  51.906 -21.787  1.00  0.00     0.008 C 
HETATM   16  C18 UNL     1      -3.235  51.777 -23.233  1.00  0.00     0.022 C 
HETATM   17  C19 UNL     1      -2.619  53.057 -23.809  1.00  0.00     0.018 C 
HETATM   18  C20 UNL     1      -1.402  52.654 -24.702  1.00  0.00     0.060 C 
HETATM   19  C21 UNL     1      -0.329  52.081 -23.717  1.00  0.00     0.061 C 
HETATM   20  C22 UNL     1       0.138  53.133 -22.688  1.00  0.00     0.046 C 
HETATM   21  C23 UNL     1       0.946  51.545 -24.381  1.00  0.00     0.046 C 
HETATM   22  O2  UNL     1      -0.907  51.000 -22.965  1.00  0.00    -0.367 OA
HETATM   23  C24 UNL     1      -2.235  50.585 -23.407  1.00  0.00     0.086 C 
HETATM   24  C25 UNL     1      -2.127  50.232 -24.933  1.00  0.00     0.139 C 
HETATM   25  C26 UNL     1      -3.267  49.414 -25.412  1.00  0.00    -0.096 C 
HETATM   26  C27 UNL     1      -4.181  48.662 -25.626  1.00  0.00    -0.101 C 
HETATM   27  C28 UNL     1      -5.262  47.672 -25.719  1.00  0.00     0.133 C 
HETATM   28  C29 UNL     1      -1.897  51.571 -25.752  1.00  0.00     0.180 C 
ENDROOT
BRANCH  28  29
HETATM   29  N2  UNL     1      -3.148  52.086 -26.371  1.00  0.00     0.090 N 
HETATM   30  H38 UNL     1      -3.547  51.383 -26.995  1.00  0.00     0.313 HD
HETATM   31  H39 UNL     1      -2.983  52.920 -26.927  1.00  0.00     0.313 HD
ENDBRANCH  28  29
BRANCH  28  32
HETATM   32  C30 UNL     1      -0.940  51.292 -26.949  1.00  0.00     0.069 C 
BRANCH  32  33
HETATM   33  C31 UNL     1      -0.313  52.515 -27.618  1.00  0.00     0.166 C 
BRANCH  33  34
HETATM   34  O3  UNL     1      -1.345  53.254 -28.262  1.00  0.00    -0.401 OA
HETATM   35  H44 UNL     1      -0.928  54.031 -28.674  1.00  0.00     0.209 HD
ENDBRANCH  33  34
ENDBRANCH  32  33
ENDBRANCH  28  32
BRANCH   3  36
HETATM   36  O1  UNL     1      -9.759  49.416 -25.462  1.00  0.00    -0.361 OA
HETATM   37  H8  UNL     1     -10.484  49.592 -24.839  1.00  0.00     0.217 HD
ENDBRANCH   3  36
BRANCH   1  38
HETATM   38  C2  UNL     1      -8.000  47.576 -21.291  1.00  0.00     0.308 C 
BRANCH  38  39
HETATM   39  N1  UNL     1      -8.435  48.738 -20.517  1.00  0.00     0.083 N 
HETATM   40  C1  UNL     1      -7.462  49.082 -19.492  1.00  0.00     0.307 C 
HETATM   41  H4  UNL     1      -9.337  48.547 -20.088  1.00  0.00     0.315 HD
ENDBRANCH  38  39
ENDBRANCH   1  38
TORSDOF 7
ENDMDL
MODEL 6
REMARK minimizedAffinity -7.97905493
REMARK  7 active torsions:
REMARK  status: ('A' for Active; 'I' for Inactive)
REMARK    1  A    between atoms: N1_2  and  C2_3 
REMARK    2  A    between atoms: C2_3  and  C3_4 
REMARK    3  A    between atoms: C5_6  and  O1_7 
REMARK    4  A    between atoms: C29_32  and  N2_33 
REMARK    5  A    between atoms: C29_32  and  C30_34 
REMARK    6  A    between atoms: C30_34  and  C31_35 
REMARK    7  A    between atoms: C31_35  and  O3_36 
ROOT
HETATM    1  C3  UNL     1     -20.038  43.935 -22.212  1.00  0.00    -0.021 A 
HETATM    2  C4  UNL     1     -19.694  44.291 -20.890  1.00  0.00     0.045 A 
HETATM    3  C5  UNL     1     -18.972  45.444 -20.633  1.00  0.00     0.066 A 
HETATM    4  C6  UNL     1     -18.599  46.283 -21.667  1.00  0.00     0.045 A 
HETATM    5  C7  UNL     1     -18.931  45.977 -23.003  1.00  0.00    -0.037 A 
HETATM    6  C8  UNL     1     -19.618  44.758 -23.298  1.00  0.00    -0.042 A 
HETATM    7  C9  UNL     1     -19.915  44.351 -24.743  1.00  0.00     0.044 C 
HETATM    8  C10 UNL     1     -19.179  43.077 -25.267  1.00  0.00    -0.006 C 
HETATM    9  C11 UNL     1     -19.676  42.700 -26.671  1.00  0.00     0.005 C 
HETATM   10  C12 UNL     1     -19.288  43.700 -27.761  1.00  0.00     0.001 C 
HETATM   11  C13 UNL     1     -17.937  44.386 -27.535  1.00  0.00     0.008 C 
HETATM   12  C14 UNL     1     -17.017  43.565 -26.627  1.00  0.00     0.026 C 
HETATM   13  C15 UNL     1     -17.641  43.226 -25.256  1.00  0.00    -0.003 C 
HETATM   14  C16 UNL     1     -16.911  41.972 -24.713  1.00  0.00     0.006 C 
HETATM   15  C17 UNL     1     -15.386  42.019 -24.958  1.00  0.00     0.008 C 
HETATM   16  C18 UNL     1     -14.904  43.458 -25.176  1.00  0.00     0.022 C 
HETATM   17  C19 UNL     1     -13.381  43.612 -25.254  1.00  0.00     0.018 C 
HETATM   18  C20 UNL     1     -13.054  44.687 -26.337  1.00  0.00     0.060 C 
HETATM   19  C21 UNL     1     -13.479  44.052 -27.703  1.00  0.00     0.061 C 
HETATM   20  C22 UNL     1     -12.683  42.768 -28.021  1.00  0.00     0.046 C 
HETATM   21  C23 UNL     1     -13.316  44.964 -28.926  1.00  0.00     0.046 C 
HETATM   22  O2  UNL     1     -14.864  43.668 -27.636  1.00  0.00    -0.367 OA
HETATM   23  C24 UNL     1     -15.566  44.113 -26.435  1.00  0.00     0.086 C 
HETATM   24  C25 UNL     1     -15.394  45.671 -26.346  1.00  0.00     0.139 C 
HETATM   25  C26 UNL     1     -16.379  46.303 -25.436  1.00  0.00    -0.096 C 
HETATM   26  C27 UNL     1     -17.304  46.683 -24.768  1.00  0.00    -0.101 C 
HETATM   27  C28 UNL     1     -18.534  47.018 -24.039  1.00  0.00     0.133 C 
HETATM   28  C29 UNL     1     -13.881  45.998 -25.998  1.00  0.00     0.180 C 
ENDROOT
BRANCH  28  29
HETATM   29  N2  UNL     1     -13.677  46.297 -24.556  1.00  0.00     0.090 N 
HETATM   30  H38 UNL     1     -14.259  47.088 -24.274  1.00  0.00     0.313 HD
HETATM   31  H39 UNL     1     -12.714  46.546 -24.350  1.00  0.00     0.313 HD
ENDBRANCH  28  29
BRANCH  28  32
HETATM   32  C30 UNL     1     -13.445  47.295 -26.744  1.00  0.00     0.069 C 
BRANCH  32  33
HETATM   33  C31 UNL     1     -11.954  47.630 -26.709  1.00  0.00     0.166 C 
BRANCH  33  34
HETATM   34  O3  UNL     1     -11.810  49.046 -26.750  1.00  0.00    -0.401 OA
HETATM   35  H44 UNL     1     -10.858  49.240 -26.718  1.00  0.00     0.209 HD
ENDBRANCH  33  34
ENDBRANCH  32  33
ENDBRANCH  28  32
BRANCH   3  36
HETATM   36  O1  UNL     1     -18.625  45.804 -19.365  1.00  0.00    -0.361 OA
HETATM   37  H8  UNL     1     -18.904  45.099 -18.757  1.00  0.00     0.217 HD
ENDBRANCH   3  36
BRANCH   1  38
HETATM   38  C2  UNL     1     -20.875  42.676 -22.371  1.00  0.00     0.308 C 
BRANCH  38  39
HETATM   39  N1  UNL     1     -22.193  42.828 -21.757  1.00  0.00     0.083 N 
HETATM   40  C1  UNL     1     -22.473  41.742 -20.832  1.00  0.00     0.307 C 
HETATM   41  H4  UNL     1     -22.908  42.860 -22.480  1.00  0.00     0.315 HD
ENDBRANCH  38  39
ENDBRANCH   1  38
TORSDOF 7
ENDMDL
MODEL 7
REMARK minimizedAffinity -7.8505969
REMARK  7 active torsions:
REMARK  status: ('A' for Active; 'I' for Inactive)
REMARK    1  A    between atoms: N1_2  and  C2_3 
REMARK    2  A    between atoms: C2_3  and  C3_4 
REMARK    3  A    between atoms: C5_6  and  O1_7 
REMARK    4  A    between atoms: C29_32  and  N2_33 
REMARK    5  A    between atoms: C29_32  and  C30_34 
REMARK    6  A    between atoms: C30_34  and  C31_35 
REMARK    7  A    between atoms: C31_35  and  O3_36 
ROOT
HETATM    1  C3  UNL     1      -7.302  46.844 -33.747  1.00  0.00    -0.021 A 
HETATM    2  C4  UNL     1      -6.221  47.751 -33.699  1.00  0.00     0.045 A 
HETATM    3  C5  UNL     1      -5.243  47.634 -32.726  1.00  0.00     0.066 A 
HETATM    4  C6  UNL     1      -5.295  46.608 -31.800  1.00  0.00     0.045 A 
HETATM    5  C7  UNL     1      -6.347  45.670 -31.816  1.00  0.00    -0.037 A 
HETATM    6  C8  UNL     1      -7.403  45.810 -32.770  1.00  0.00    -0.042 A 
HETATM    7  C9  UNL     1      -8.606  44.865 -32.759  1.00  0.00     0.044 C 
HETATM    8  C10 UNL     1      -9.984  45.504 -32.399  1.00  0.00    -0.006 C 
HETATM    9  C11 UNL     1     -11.119  44.483 -32.567  1.00  0.00     0.005 C 
HETATM   10  C12 UNL     1     -11.084  43.337 -31.555  1.00  0.00     0.001 C 
HETATM   11  C13 UNL     1     -10.544  43.730 -30.177  1.00  0.00     0.008 C 
HETATM   12  C14 UNL     1     -10.681  45.230 -29.909  1.00  0.00     0.026 C 
HETATM   13  C15 UNL     1     -10.009  46.117 -30.980  1.00  0.00    -0.003 C 
HETATM   14  C16 UNL     1     -10.693  47.505 -30.927  1.00  0.00     0.006 C 
HETATM   15  C17 UNL     1     -10.958  47.984 -29.482  1.00  0.00     0.008 C 
HETATM   16  C18 UNL     1     -10.040  47.266 -28.485  1.00  0.00     0.022 C 
HETATM   17  C19 UNL     1     -10.117  47.806 -27.052  1.00  0.00     0.018 C 
HETATM   18  C20 UNL     1     -10.014  46.596 -26.070  1.00  0.00     0.060 C 
HETATM   19  C21 UNL     1     -11.329  45.773 -26.276  1.00  0.00     0.061 C 
HETATM   20  C22 UNL     1     -12.590  46.592 -25.925  1.00  0.00     0.046 C 
HETATM   21  C23 UNL     1     -11.425  44.479 -25.457  1.00  0.00     0.046 C 
HETATM   22  O2  UNL     1     -11.448  45.412 -27.663  1.00  0.00    -0.367 OA
HETATM   23  C24 UNL     1     -10.277  45.718 -28.480  1.00  0.00     0.086 C 
HETATM   24  C25 UNL     1      -9.045  45.019 -27.806  1.00  0.00     0.139 C 
HETATM   25  C26 UNL     1      -7.888  44.890 -28.725  1.00  0.00    -0.096 C 
HETATM   26  C27 UNL     1      -7.084  44.752 -29.608  1.00  0.00    -0.101 C 
HETATM   27  C28 UNL     1      -6.247  44.544 -30.797  1.00  0.00     0.133 C 
HETATM   28  C29 UNL     1      -8.716  45.764 -26.445  1.00  0.00     0.180 C 
ENDROOT
BRANCH  28  29
HETATM   29  N2  UNL     1      -7.588  46.725 -26.575  1.00  0.00     0.090 N 
HETATM   30  H38 UNL     1      -6.748  46.241 -26.897  1.00  0.00     0.313 HD
HETATM   31  H39 UNL     1      -7.358  47.166 -25.690  1.00  0.00     0.313 HD
ENDBRANCH  28  29
BRANCH  28  32
HETATM   32  C30 UNL     1      -8.239  44.725 -25.385  1.00  0.00     0.069 C 
BRANCH  32  33
HETATM   33  C31 UNL     1      -8.114  43.278 -25.859  1.00  0.00     0.166 C 
BRANCH  33  34
HETATM   34  O3  UNL     1      -7.358  42.553 -24.896  1.00  0.00    -0.401 OA
HETATM   35  H44 UNL     1      -7.297  41.634 -25.210  1.00  0.00     0.209 HD
ENDBRANCH  33  34
ENDBRANCH  32  33
ENDBRANCH  28  32
BRANCH   3  36
HETATM   36  O1  UNL     1      -4.194  48.501 -32.657  1.00  0.00    -0.361 OA
HETATM   37  H8  UNL     1      -4.320  49.192 -33.329  1.00  0.00     0.217 HD
ENDBRANCH   3  36
BRANCH   1  38
HETATM   38  C2  UNL     1      -8.288  47.037 -34.889  1.00  0.00     0.308 C 
BRANCH  38  39
HETATM   39  N1  UNL     1      -7.648  47.654 -36.050  1.00  0.00     0.083 N 
HETATM   40  C1  UNL     1      -8.466  47.506 -37.243  1.00  0.00     0.307 C 
HETATM   41  H4  UNL     1      -6.734  47.233 -36.203  1.00  0.00     0.315 HD
ENDBRANCH  38  39
ENDBRANCH   1  38
TORSDOF 7
ENDMDL
MODEL 8
REMARK minimizedAffinity -7.78361607
REMARK  7 active torsions:
REMARK  status: ('A' for Active; 'I' for Inactive)
REMARK    1  A    between atoms: N1_2  and  C2_3 
REMARK    2  A    between atoms: C2_3  and  C3_4 
REMARK    3  A    between atoms: C5_6  and  O1_7 
REMARK    4  A    between atoms: C29_32  and  N2_33 
REMARK    5  A    between atoms: C29_32  and  C30_34 
REMARK    6  A    between atoms: C30_34  and  C31_35 
REMARK    7  A    between atoms: C31_35  and  O3_36 
ROOT
HETATM    1  C3  UNL     1       0.559  53.228 -24.604  1.00  0.00    -0.021 A 
HETATM    2  C4  UNL     1       0.979  54.260 -23.738  1.00  0.00     0.045 A 
HETATM    3  C5  UNL     1       1.136  54.027 -22.383  1.00  0.00     0.066 A 
HETATM    4  C6  UNL     1       0.909  52.767 -21.858  1.00  0.00     0.045 A 
HETATM    5  C7  UNL     1       0.502  51.701 -22.685  1.00  0.00    -0.037 A 
HETATM    6  C8  UNL     1       0.269  51.935 -24.076  1.00  0.00    -0.042 A 
HETATM    7  C9  UNL     1      -0.259  50.824 -24.985  1.00  0.00     0.044 C 
HETATM    8  C10 UNL     1      -1.690  51.035 -25.575  1.00  0.00    -0.006 C 
HETATM    9  C11 UNL     1      -2.036  49.924 -26.578  1.00  0.00     0.005 C 
HETATM   10  C12 UNL     1      -2.209  48.543 -25.946  1.00  0.00     0.001 C 
HETATM   11  C13 UNL     1      -2.791  48.567 -24.529  1.00  0.00     0.008 C 
HETATM   12  C14 UNL     1      -3.586  49.845 -24.253  1.00  0.00     0.026 C 
HETATM   13  C15 UNL     1      -2.779  51.141 -24.483  1.00  0.00    -0.003 C 
HETATM   14  C16 UNL     1      -3.796  52.279 -24.744  1.00  0.00     0.006 C 
HETATM   15  C17 UNL     1      -5.024  52.206 -23.809  1.00  0.00     0.008 C 
HETATM   16  C18 UNL     1      -4.711  51.396 -22.546  1.00  0.00     0.022 C 
HETATM   17  C19 UNL     1      -5.819  51.419 -21.487  1.00  0.00     0.018 C 
HETATM   18  C20 UNL     1      -5.903  50.001 -20.838  1.00  0.00     0.060 C 
HETATM   19  C21 UNL     1      -6.426  49.052 -21.967  1.00  0.00     0.061 C 
HETATM   20  C22 UNL     1      -7.831  49.456 -22.464  1.00  0.00     0.046 C 
HETATM   21  C23 UNL     1      -6.524  47.570 -21.581  1.00  0.00     0.046 C 
HETATM   22  O2  UNL     1      -5.549  49.141 -23.104  1.00  0.00    -0.367 OA
HETATM   23  C24 UNL     1      -4.330  49.914 -22.880  1.00  0.00     0.086 C 
HETATM   24  C25 UNL     1      -3.604  49.285 -21.638  1.00  0.00     0.139 C 
HETATM   25  C26 UNL     1      -2.178  49.685 -21.548  1.00  0.00    -0.096 C 
HETATM   26  C27 UNL     1      -1.024  49.996 -21.671  1.00  0.00    -0.101 C 
HETATM   27  C28 UNL     1       0.363  50.348 -22.002  1.00  0.00     0.133 C 
HETATM   28  C29 UNL     1      -4.452  49.600 -20.336  1.00  0.00     0.180 C 
ENDROOT
BRANCH  28  29
HETATM   29  N2  UNL     1      -3.911  50.750 -19.563  1.00  0.00     0.090 N 
HETATM   30  H38 UNL     1      -2.944  50.567 -19.290  1.00  0.00     0.313 HD
HETATM   31  H39 UNL     1      -4.436  50.918 -18.710  1.00  0.00     0.313 HD
ENDBRANCH  28  29
BRANCH  28  32
HETATM   32  C30 UNL     1      -4.377  48.388 -19.360  1.00  0.00     0.069 C 
BRANCH  32  33
HETATM   33  C31 UNL     1      -5.285  48.446 -18.132  1.00  0.00     0.166 C 
BRANCH  33  34
HETATM   34  O3  UNL     1      -4.496  48.188 -16.976  1.00  0.00    -0.401 OA
HETATM   35  H44 UNL     1      -5.089  48.238 -16.206  1.00  0.00     0.209 HD
ENDBRANCH  33  34
ENDBRANCH  32  33
ENDBRANCH  28  32
BRANCH   3  36
HETATM   36  O1  UNL     1       1.535  55.011 -21.528  1.00  0.00    -0.361 OA
HETATM   37  H8  UNL     1       1.602  55.843 -22.025  1.00  0.00     0.217 HD
ENDBRANCH   3  36
BRANCH   1  38
HETATM   38  C2  UNL     1       0.471  53.585 -26.080  1.00  0.00     0.308 C 
BRANCH  38  39
HETATM   39  N1  UNL     1      -0.901  53.906 -26.472  1.00  0.00     0.083 N 
HETATM   40  C1  UNL     1      -1.065  53.842 -27.915  1.00  0.00     0.307 C 
HETATM   41  H4  UNL     1      -1.146  54.834 -26.136  1.00  0.00     0.315 HD
ENDBRANCH  38  39
ENDBRANCH   1  38
TORSDOF 7
ENDMDL
MODEL 9
REMARK minimizedAffinity -7.72008514
REMARK  7 active torsions:
REMARK  status: ('A' for Active; 'I' for Inactive)
REMARK    1  A    between atoms: N1_2  and  C2_3 
REMARK    2  A    between atoms: C2_3  and  C3_4 
REMARK    3  A    between atoms: C5_6  and  O1_7 
REMARK    4  A    between atoms: C29_32  and  N2_33 
REMARK    5  A    between atoms: C29_32  and  C30_34 
REMARK    6  A    between atoms: C30_34  and  C31_35 
REMARK    7  A    between atoms: C31_35  and  O3_36 
ROOT
HETATM    1  C3  UNL     1      -2.369  51.290 -22.720  1.00  0.00    -0.021 A 
HETATM    2  C4  UNL     1      -1.375  51.778 -21.845  1.00  0.00     0.045 A 
HETATM    3  C5  UNL     1      -0.652  50.911 -21.043  1.00  0.00     0.066 A 
HETATM    4  C6  UNL     1      -0.874  49.548 -21.106  1.00  0.00     0.045 A 
HETATM    5  C7  UNL     1      -1.848  49.012 -21.974  1.00  0.00    -0.037 A 
HETATM    6  C8  UNL     1      -2.651  49.893 -22.762  1.00  0.00    -0.042 A 
HETATM    7  C9  UNL     1      -3.777  49.353 -23.647  1.00  0.00     0.044 C 
HETATM    8  C10 UNL     1      -5.230  49.756 -23.241  1.00  0.00    -0.006 C 
HETATM    9  C11 UNL     1      -6.243  49.272 -24.289  1.00  0.00     0.005 C 
HETATM   10  C12 UNL     1      -6.396  47.752 -24.356  1.00  0.00     0.001 C 
HETATM   11  C13 UNL     1      -6.218  47.041 -23.011  1.00  0.00     0.008 C 
HETATM   12  C14 UNL     1      -6.485  47.972 -21.826  1.00  0.00     0.026 C 
HETATM   13  C15 UNL     1      -5.620  49.251 -21.833  1.00  0.00    -0.003 C 
HETATM   14  C16 UNL     1      -6.361  50.316 -20.987  1.00  0.00     0.006 C 
HETATM   15  C17 UNL     1      -6.984  49.726 -19.701  1.00  0.00     0.008 C 
HETATM   16  C18 UNL     1      -6.297  48.414 -19.305  1.00  0.00     0.022 C 
HETATM   17  C19 UNL     1      -6.738  47.853 -17.948  1.00  0.00     0.018 C 
HETATM   18  C20 UNL     1      -6.815  46.298 -18.065  1.00  0.00     0.060 C 
HETATM   19  C21 UNL     1      -8.004  46.008 -19.042  1.00  0.00     0.061 C 
HETATM   20  C22 UNL     1      -9.349  46.532 -18.494  1.00  0.00     0.046 C 
HETATM   21  C23 UNL     1      -8.231  44.527 -19.372  1.00  0.00     0.046 C 
HETATM   22  O2  UNL     1      -7.773  46.693 -20.285  1.00  0.00    -0.367 OA
HETATM   23  C24 UNL     1      -6.456  47.314 -20.408  1.00  0.00     0.086 C 
HETATM   24  C25 UNL     1      -5.388  46.190 -20.162  1.00  0.00     0.139 C 
HETATM   25  C26 UNL     1      -4.041  46.565 -20.656  1.00  0.00    -0.096 C 
HETATM   26  C27 UNL     1      -3.045  46.954 -21.206  1.00  0.00    -0.101 C 
HETATM   27  C28 UNL     1      -1.941  47.494 -22.009  1.00  0.00     0.133 C 
HETATM   28  C29 UNL     1      -5.428  45.775 -18.631  1.00  0.00     0.180 C 
ENDROOT
BRANCH  28  29
HETATM   29  N2  UNL     1      -4.348  46.417 -17.835  1.00  0.00     0.090 N 
HETATM   30  H38 UNL     1      -3.434  46.172 -18.219  1.00  0.00     0.313 HD
HETATM   31  H39 UNL     1      -4.356  46.113 -16.866  1.00  0.00     0.313 HD
ENDBRANCH  28  29
BRANCH  28  32
HETATM   32  C30 UNL     1      -5.169  44.244 -18.501  1.00  0.00     0.069 C 
BRANCH  32  33
HETATM   33  C31 UNL     1      -3.708  43.806 -18.424  1.00  0.00     0.166 C 
BRANCH  33  34
HETATM   34  O3  UNL     1      -3.439  42.939 -19.521  1.00  0.00    -0.401 OA
HETATM   35  H44 UNL     1      -2.504  42.678 -19.460  1.00  0.00     0.209 HD
ENDBRANCH  33  34
ENDBRANCH  32  33
ENDBRANCH  28  32
BRANCH   3  36
HETATM   36  O1  UNL     1       0.310  51.361 -20.187  1.00  0.00    -0.361 OA
HETATM   37  H8  UNL     1       0.315  52.332 -20.212  1.00  0.00     0.217 HD
ENDBRANCH   3  36
BRANCH   1  38
HETATM   38  C2  UNL     1      -3.063  52.327 -23.590  1.00  0.00     0.308 C 
BRANCH  38  39
HETATM   39  N1  UNL     1      -2.305  52.594 -24.812  1.00  0.00     0.083 N 
HETATM   40  C1  UNL     1      -3.064  52.218 -25.994  1.00  0.00     0.307 C 
HETATM   41  H4  UNL     1      -1.425  52.084 -24.789  1.00  0.00     0.315 HD
ENDBRANCH  38  39
ENDBRANCH   1  38
TORSDOF 7
ENDMDL
