MODEL 1
REMARK minimizedAffinity -8.30186176
REMARK CNNscore 0.70292449
REMARK CNNaffinity 7.82768059
REMARK  11 active torsions:
REMARK  status: ('A' for Active; 'I' for Inactive)
REMARK    1  A    between atoms: C12_13  and  O2_14 
REMARK    2  A    between atoms: C19_21  and  O3_22 
REMARK    3  A    between atoms: C19_21  and  C20_23 
REMARK    4  A    between atoms: C20_23  and  C21_25 
REMARK    5  A    between atoms: C21_25  and  O5_26 
REMARK    6  A    between atoms: O5_26  and  C22_27 
REMARK    7  A    between atoms: C22_27  and  C23_29 
REMARK    8  A    between atoms: C23_29  and  C24_30 
REMARK    9  A    between atoms: C24_30  and  C25_31 
REMARK       I    between atoms: C25_31  and  N1_33 
REMARK   10  A    between atoms: N1_33  and  C26_34 
REMARK   11  A    between atoms: C26_34  and  C27_35 
ROOT
HETATM    1  C1  UNL     1      -8.110   5.497  15.643  1.00  0.00     0.020 C 
HETATM    2  C2  UNL     1      -7.893   6.555  14.533  1.00  0.00    -0.014 C 
HETATM    3  C3  UNL     1      -8.898   7.727  14.756  1.00  0.00     0.022 C 
HETATM    4  C4  UNL     1     -10.345   7.371  14.444  1.00  0.00     0.084 C 
HETATM    5  C5  UNL     1     -10.451   6.853  13.034  1.00  0.00     0.149 C 
HETATM    6  O1  UNL     1     -11.445   7.039  12.335  1.00  0.00    -0.293 OA
HETATM    7  C6  UNL     1      -9.341   6.019  12.515  1.00  0.00     0.053 C 
HETATM    8  C7  UNL     1      -8.202   5.841  13.210  1.00  0.00    -0.068 C 
HETATM    9  C8  UNL     1      -7.165   4.866  12.692  1.00  0.00     0.035 C 
HETATM   10  C9  UNL     1      -5.736   5.190  13.137  1.00  0.00     0.010 C 
HETATM   11  C10 UNL     1      -5.564   6.702  13.316  1.00  0.00    -0.002 C 
HETATM   12  C11 UNL     1      -6.422   7.190  14.516  1.00  0.00     0.031 C 
HETATM   13  C12 UNL     1      -5.671   7.078  15.861  1.00  0.00     0.124 C 
HETATM   14  C13 UNL     1      -4.272   7.690  15.809  1.00  0.00     0.045 C 
HETATM   15  C14 UNL     1      -3.356   7.097  14.707  1.00  0.00     0.001 C 
HETATM   16  C15 UNL     1      -2.931   5.678  15.116  1.00  0.00     0.019 C 
HETATM   17  C16 UNL     1      -4.083   7.139  13.350  1.00  0.00     0.002 C 
HETATM   18  C17 UNL     1      -3.912   8.601  12.890  1.00  0.00     0.009 C 
HETATM   19  C18 UNL     1      -2.633   9.131  13.541  1.00  0.00     0.047 C 
HETATM   20  C19 UNL     1      -2.117   8.020  14.463  1.00  0.00     0.128 C 
ENDROOT
BRANCH  20  21
HETATM   21  O3  UNL     1      -1.727   8.630  15.708  1.00  0.00    -0.381 OA
HETATM   22  H27 UNL     1      -0.865   8.237  15.960  1.00  0.00     0.211 HD
ENDBRANCH  20  21
BRANCH  20  23
HETATM   23  C20 UNL     1      -0.822   7.346  13.919  1.00  0.00     0.185 C 
HETATM   24  O4  UNL     1      -0.889   6.185  13.485  1.00  0.00    -0.292 OA
BRANCH  23  25
HETATM   25  C21 UNL     1       0.506   8.100  13.954  1.00  0.00     0.260 C 
BRANCH  25  26
HETATM   26  O5  UNL     1       0.580   9.091  12.923  1.00  0.00    -0.314 OA
BRANCH  26  27
HETATM   27  C22 UNL     1       1.203   8.674  11.786  1.00  0.00     0.259 C 
HETATM   28  O6  UNL     1       2.409   8.723  11.596  1.00  0.00    -0.265 OA
BRANCH  27  29
HETATM   29  C23 UNL     1       0.209   8.134  10.799  1.00  0.00     0.120 C 
BRANCH  29  30
HETATM   30  C24 UNL     1       0.871   7.133   9.863  1.00  0.00     0.112 C 
BRANCH  30  31
HETATM   31  C25 UNL     1       1.183   5.838  10.580  1.00  0.00     0.218 C 
HETATM   32  O7  UNL     1       2.319   5.490  10.884  1.00  0.00    -0.274 OA
HETATM   33  N1  UNL     1       0.062   5.090  10.863  1.00  0.00    -0.356 N 
HETATM   34  H34 UNL     1      -0.848   5.528  10.782  1.00  0.00     0.162 HD
BRANCH  33  35
HETATM   35  C26 UNL     1       0.156   3.899  11.676  1.00  0.00     0.168 C 
BRANCH  35  36
HETATM   36  C27 UNL     1      -1.163   3.200  11.645  1.00  0.00     0.000 A 
HETATM   37  C28 UNL     1      -2.397   3.688  12.032  1.00  0.00     0.017 A 
HETATM   38  C29 UNL     1      -3.442   2.737  11.843  1.00  0.00     0.008 A 
HETATM   39  C30 UNL     1      -2.970   1.550  11.329  1.00  0.00     0.050 A 
HETATM   40  S1  UNL     1      -1.277   1.584  11.081  1.00  0.00    -0.105 SA
ENDBRANCH  35  36
ENDBRANCH  33  35
ENDBRANCH  30  31
ENDBRANCH  29  30
ENDBRANCH  27  29
ENDBRANCH  26  27
ENDBRANCH  25  26
ENDBRANCH  23  25
ENDBRANCH  20  23
BRANCH  13  41
HETATM   41  O2  UNL     1      -6.412   7.782  16.859  1.00  0.00    -0.395 OA
HETATM   42  H16 UNL     1      -5.916   7.724  17.695  1.00  0.00     0.210 HD
ENDBRANCH  13  41
TORSDOF 11
ENDMDL
MODEL 2
REMARK minimizedAffinity -8.47736263
REMARK CNNscore 0.681365788
REMARK CNNaffinity 7.34485483
REMARK  11 active torsions:
REMARK  status: ('A' for Active; 'I' for Inactive)
REMARK    1  A    between atoms: C12_13  and  O2_14 
REMARK    2  A    between atoms: C19_21  and  O3_22 
REMARK    3  A    between atoms: C19_21  and  C20_23 
REMARK    4  A    between atoms: C20_23  and  C21_25 
REMARK    5  A    between atoms: C21_25  and  O5_26 
REMARK    6  A    between atoms: O5_26  and  C22_27 
REMARK    7  A    between atoms: C22_27  and  C23_29 
REMARK    8  A    between atoms: C23_29  and  C24_30 
REMARK    9  A    between atoms: C24_30  and  C25_31 
REMARK       I    between atoms: C25_31  and  N1_33 
REMARK   10  A    between atoms: N1_33  and  C26_34 
REMARK   11  A    between atoms: C26_34  and  C27_35 
ROOT
HETATM    1  C1  UNL     1      -7.955   5.373  15.640  1.00  0.00     0.020 C 
HETATM    2  C2  UNL     1      -7.766   6.422  14.516  1.00  0.00    -0.014 C 
HETATM    3  C3  UNL     1      -8.743   7.610  14.772  1.00  0.00     0.022 C 
HETATM    4  C4  UNL     1     -10.206   7.276  14.519  1.00  0.00     0.084 C 
HETATM    5  C5  UNL     1     -10.376   6.752  13.118  1.00  0.00     0.149 C 
HETATM    6  O1  UNL     1     -11.394   6.950  12.457  1.00  0.00    -0.293 OA
HETATM    7  C6  UNL     1      -9.300   5.899  12.560  1.00  0.00     0.053 C 
HETATM    8  C7  UNL     1      -8.138   5.706  13.211  1.00  0.00    -0.068 C 
HETATM    9  C8  UNL     1      -7.137   4.712  12.658  1.00  0.00     0.035 C 
HETATM   10  C9  UNL     1      -5.687   5.017  13.044  1.00  0.00     0.010 C 
HETATM   11  C10 UNL     1      -5.485   6.527  13.208  1.00  0.00    -0.002 C 
HETATM   12  C11 UNL     1      -6.287   7.033  14.439  1.00  0.00     0.031 C 
HETATM   13  C12 UNL     1      -5.486   6.917  15.753  1.00  0.00     0.124 C 
HETATM   14  C13 UNL     1      -4.080   7.507  15.643  1.00  0.00     0.045 C 
HETATM   15  C14 UNL     1      -3.217   6.894  14.509  1.00  0.00     0.001 C 
HETATM   16  C15 UNL     1      -2.798   5.471  14.909  1.00  0.00     0.019 C 
HETATM   17  C16 UNL     1      -3.997   6.941  13.181  1.00  0.00     0.002 C 
HETATM   18  C17 UNL     1      -3.822   8.398  12.707  1.00  0.00     0.009 C 
HETATM   19  C18 UNL     1      -2.510   8.911  13.304  1.00  0.00     0.047 C 
HETATM   20  C19 UNL     1      -1.975   7.796  14.211  1.00  0.00     0.128 C 
ENDROOT
BRANCH  20  21
HETATM   21  O3  UNL     1      -1.527   8.407  15.436  1.00  0.00    -0.381 OA
HETATM   22  H27 UNL     1      -0.662   8.002  15.657  1.00  0.00     0.211 HD
ENDBRANCH  20  21
BRANCH  20  23
HETATM   23  C20 UNL     1      -0.714   7.100  13.621  1.00  0.00     0.185 C 
HETATM   24  O4  UNL     1      -0.768   6.639  12.470  1.00  0.00    -0.292 OA
BRANCH  23  25
HETATM   25  C21 UNL     1       0.553   6.966  14.465  1.00  0.00     0.260 C 
BRANCH  25  26
HETATM   26  O5  UNL     1       0.988   8.233  14.971  1.00  0.00    -0.314 OA
BRANCH  26  27
HETATM   27  C22 UNL     1       2.165   8.192  15.654  1.00  0.00     0.259 C 
HETATM   28  O6  UNL     1       2.335   7.608  16.714  1.00  0.00    -0.265 OA
BRANCH  27  29
HETATM   29  C23 UNL     1       3.233   8.953  14.922  1.00  0.00     0.120 C 
BRANCH  29  30
HETATM   30  C24 UNL     1       3.900   8.071  13.876  1.00  0.00     0.112 C 
BRANCH  30  31
HETATM   31  C25 UNL     1       3.626   8.578  12.478  1.00  0.00     0.218 C 
HETATM   32  O7  UNL     1       2.626   9.220  12.175  1.00  0.00    -0.274 OA
HETATM   33  N1  UNL     1       4.617   8.252  11.578  1.00  0.00    -0.356 N 
HETATM   34  H34 UNL     1       5.505   7.917  11.934  1.00  0.00     0.162 HD
BRANCH  33  35
HETATM   35  C26 UNL     1       4.596   8.784  10.234  1.00  0.00     0.168 C 
BRANCH  35  36
HETATM   36  C27 UNL     1       3.756   7.887   9.386  1.00  0.00     0.000 A 
HETATM   37  C28 UNL     1       3.588   6.520   9.494  1.00  0.00     0.017 A 
HETATM   38  C29 UNL     1       2.691   6.001   8.515  1.00  0.00     0.008 A 
HETATM   39  C30 UNL     1       2.212   6.989   7.684  1.00  0.00     0.050 A 
HETATM   40  S1  UNL     1       2.845   8.528   8.081  1.00  0.00    -0.105 SA
ENDBRANCH  35  36
ENDBRANCH  33  35
ENDBRANCH  30  31
ENDBRANCH  29  30
ENDBRANCH  27  29
ENDBRANCH  26  27
ENDBRANCH  25  26
ENDBRANCH  23  25
ENDBRANCH  20  23
BRANCH  13  41
HETATM   41  O2  UNL     1      -6.176   7.637  16.776  1.00  0.00    -0.395 OA
HETATM   42  H16 UNL     1      -5.649   7.575  17.591  1.00  0.00     0.210 HD
ENDBRANCH  13  41
TORSDOF 11
ENDMDL
MODEL 3
REMARK minimizedAffinity -8.33110428
REMARK CNNscore 0.672532618
REMARK CNNaffinity 7.4935813
REMARK  11 active torsions:
REMARK  status: ('A' for Active; 'I' for Inactive)
REMARK    1  A    between atoms: C12_13  and  O2_14 
REMARK    2  A    between atoms: C19_21  and  O3_22 
REMARK    3  A    between atoms: C19_21  and  C20_23 
REMARK    4  A    between atoms: C20_23  and  C21_25 
REMARK    5  A    between atoms: C21_25  and  O5_26 
REMARK    6  A    between atoms: O5_26  and  C22_27 
REMARK    7  A    between atoms: C22_27  and  C23_29 
REMARK    8  A    between atoms: C23_29  and  C24_30 
REMARK    9  A    between atoms: C24_30  and  C25_31 
REMARK       I    between atoms: C25_31  and  N1_33 
REMARK   10  A    between atoms: N1_33  and  C26_34 
REMARK   11  A    between atoms: C26_34  and  C27_35 
ROOT
HETATM    1  C1  UNL     1      -1.681   8.109  15.292  1.00  0.00     0.020 C 
HETATM    2  C2  UNL     1      -1.989   7.002  14.252  1.00  0.00    -0.014 C 
HETATM    3  C3  UNL     1      -1.000   5.816  14.477  1.00  0.00     0.022 C 
HETATM    4  C4  UNL     1       0.433   6.117  14.063  1.00  0.00     0.084 C 
HETATM    5  C5  UNL     1       0.468   6.561  12.624  1.00  0.00     0.149 C 
HETATM    6  O1  UNL     1       1.413   6.313  11.879  1.00  0.00    -0.293 OA
HETATM    7  C6  UNL     1      -0.652   7.396  12.128  1.00  0.00     0.053 C 
HETATM    8  C7  UNL     1      -1.742   7.640  12.879  1.00  0.00    -0.068 C 
HETATM    9  C8  UNL     1      -2.785   8.615  12.372  1.00  0.00     0.035 C 
HETATM   10  C9  UNL     1      -4.192   8.351  12.916  1.00  0.00     0.010 C 
HETATM   11  C10 UNL     1      -4.389   6.856  13.183  1.00  0.00    -0.002 C 
HETATM   12  C11 UNL     1      -3.473   6.407  14.355  1.00  0.00     0.031 C 
HETATM   13  C12 UNL     1      -4.139   6.606  15.734  1.00  0.00     0.124 C 
HETATM   14  C13 UNL     1      -5.553   6.030  15.796  1.00  0.00     0.045 C 
HETATM   15  C14 UNL     1      -6.519   6.591  14.720  1.00  0.00     0.001 C 
HETATM   16  C15 UNL     1      -6.885   8.039  15.078  1.00  0.00     0.019 C 
HETATM   17  C16 UNL     1      -5.875   6.461  13.326  1.00  0.00     0.002 C 
HETATM   18  C17 UNL     1      -6.108   4.982  12.954  1.00  0.00     0.009 C 
HETATM   19  C18 UNL     1      -7.358   4.520  13.705  1.00  0.00     0.047 C 
HETATM   20  C19 UNL     1      -7.792   5.690  14.596  1.00  0.00     0.128 C 
ENDROOT
BRANCH  20  21
HETATM   21  O3  UNL     1      -8.121   5.154  15.892  1.00  0.00    -0.381 OA
HETATM   22  H27 UNL     1      -8.957   5.582  16.174  1.00  0.00     0.211 HD
ENDBRANCH  20  21
BRANCH  20  23
HETATM   23  C20 UNL     1      -9.100   6.370  14.095  1.00  0.00     0.185 C 
HETATM   24  O4  UNL     1      -9.358   6.349  12.881  1.00  0.00    -0.292 OA
BRANCH  23  25
HETATM   25  C21 UNL     1     -10.025   7.074  15.086  1.00  0.00     0.260 C 
BRANCH  25  26
HETATM   26  O5  UNL     1     -10.879   8.021  14.433  1.00  0.00    -0.314 OA
BRANCH  26  27
HETATM   27  C22 UNL     1     -12.158   7.591  14.250  1.00  0.00     0.259 C 
HETATM   28  O6  UNL     1     -12.826   7.014  15.094  1.00  0.00    -0.265 OA
BRANCH  27  29
HETATM   29  C23 UNL     1     -12.641   7.930  12.869  1.00  0.00     0.120 C 
BRANCH  29  30
HETATM   30  C24 UNL     1     -12.186   9.327  12.469  1.00  0.00     0.112 C 
BRANCH  30  31
HETATM   31  C25 UNL     1     -13.368  10.245  12.251  1.00  0.00     0.218 C 
HETATM   32  O7  UNL     1     -14.490   9.846  11.956  1.00  0.00    -0.274 OA
HETATM   33  N1  UNL     1     -13.060  11.577  12.423  1.00  0.00    -0.356 N 
HETATM   34  H34 UNL     1     -12.185  11.819  12.872  1.00  0.00     0.162 HD
BRANCH  33  35
HETATM   35  C26 UNL     1     -14.099  12.582  12.403  1.00  0.00     0.168 C 
BRANCH  35  36
HETATM   36  C27 UNL     1     -13.707  13.684  13.331  1.00  0.00     0.000 A 
HETATM   37  C28 UNL     1     -13.233  13.582  14.625  1.00  0.00     0.017 A 
HETATM   38  C29 UNL     1     -12.944  14.854  15.202  1.00  0.00     0.008 A 
HETATM   39  C30 UNL     1     -13.219  15.886  14.332  1.00  0.00     0.050 A 
HETATM   40  S1  UNL     1     -13.824  15.322  12.834  1.00  0.00    -0.105 SA
ENDBRANCH  35  36
ENDBRANCH  33  35
ENDBRANCH  30  31
ENDBRANCH  29  30
ENDBRANCH  27  29
ENDBRANCH  26  27
ENDBRANCH  25  26
ENDBRANCH  23  25
ENDBRANCH  20  23
BRANCH  13  41
HETATM   41  O2  UNL     1      -3.356   5.934  16.722  1.00  0.00    -0.395 OA
HETATM   42  H16 UNL     1      -3.800   6.048  17.581  1.00  0.00     0.210 HD
ENDBRANCH  13  41
TORSDOF 11
ENDMDL
MODEL 4
REMARK minimizedAffinity -8.20997238
REMARK CNNscore 0.646096706
REMARK CNNaffinity 7.42615366
REMARK  11 active torsions:
REMARK  status: ('A' for Active; 'I' for Inactive)
REMARK    1  A    between atoms: C12_13  and  O2_14 
REMARK    2  A    between atoms: C19_21  and  O3_22 
REMARK    3  A    between atoms: C19_21  and  C20_23 
REMARK    4  A    between atoms: C20_23  and  C21_25 
REMARK    5  A    between atoms: C21_25  and  O5_26 
REMARK    6  A    between atoms: O5_26  and  C22_27 
REMARK    7  A    between atoms: C22_27  and  C23_29 
REMARK    8  A    between atoms: C23_29  and  C24_30 
REMARK    9  A    between atoms: C24_30  and  C25_31 
REMARK       I    between atoms: C25_31  and  N1_33 
REMARK   10  A    between atoms: N1_33  and  C26_34 
REMARK   11  A    between atoms: C26_34  and  C27_35 
ROOT
HETATM    1  C1  UNL     1      -1.728   8.138  15.266  1.00  0.00     0.020 C 
HETATM    2  C2  UNL     1      -2.042   7.034  14.225  1.00  0.00    -0.014 C 
HETATM    3  C3  UNL     1      -1.049   5.849  14.440  1.00  0.00     0.022 C 
HETATM    4  C4  UNL     1       0.381   6.154  14.016  1.00  0.00     0.084 C 
HETATM    5  C5  UNL     1       0.405   6.603  12.579  1.00  0.00     0.149 C 
HETATM    6  O1  UNL     1       1.346   6.359  11.826  1.00  0.00    -0.293 OA
HETATM    7  C6  UNL     1      -0.720   7.437  12.093  1.00  0.00     0.053 C 
HETATM    8  C7  UNL     1      -1.806   7.676  12.852  1.00  0.00    -0.068 C 
HETATM    9  C8  UNL     1      -2.854   8.651  12.356  1.00  0.00     0.035 C 
HETATM   10  C9  UNL     1      -4.257   8.382  12.908  1.00  0.00     0.010 C 
HETATM   11  C10 UNL     1      -4.449   6.886  13.173  1.00  0.00    -0.002 C 
HETATM   12  C11 UNL     1      -3.523   6.435  14.337  1.00  0.00     0.031 C 
HETATM   13  C12 UNL     1      -4.180   6.628  15.721  1.00  0.00     0.124 C 
HETATM   14  C13 UNL     1      -5.592   6.049  15.790  1.00  0.00     0.045 C 
HETATM   15  C14 UNL     1      -6.567   6.611  14.723  1.00  0.00     0.001 C 
HETATM   16  C15 UNL     1      -6.934   8.058  15.089  1.00  0.00     0.019 C 
HETATM   17  C16 UNL     1      -5.933   6.487  13.325  1.00  0.00     0.002 C 
HETATM   18  C17 UNL     1      -6.165   5.009  12.950  1.00  0.00     0.009 C 
HETATM   19  C18 UNL     1      -7.409   4.542  13.708  1.00  0.00     0.047 C 
HETATM   20  C19 UNL     1      -7.839   5.708  14.606  1.00  0.00     0.128 C 
ENDROOT
BRANCH  20  21
HETATM   21  O3  UNL     1      -8.158   5.167  15.902  1.00  0.00    -0.381 OA
HETATM   22  H27 UNL     1      -8.992   5.593  16.191  1.00  0.00     0.211 HD
ENDBRANCH  20  21
BRANCH  20  23
HETATM   23  C20 UNL     1      -9.152   6.387  14.116  1.00  0.00     0.185 C 
HETATM   24  O4  UNL     1      -9.438   6.335  12.909  1.00  0.00    -0.292 OA
BRANCH  23  25
HETATM   25  C21 UNL     1     -10.048   7.127  15.108  1.00  0.00     0.260 C 
BRANCH  25  26
HETATM   26  O5  UNL     1     -10.397   8.432  14.635  1.00  0.00    -0.314 OA
BRANCH  26  27
HETATM   27  C22 UNL     1     -11.737   8.654  14.532  1.00  0.00     0.259 C 
HETATM   28  O6  UNL     1     -12.586   7.776  14.499  1.00  0.00    -0.265 OA
BRANCH  27  29
HETATM   29  C23 UNL     1     -12.031  10.125  14.474  1.00  0.00     0.120 C 
BRANCH  29  30
HETATM   30  C24 UNL     1     -10.894  10.925  15.094  1.00  0.00     0.112 C 
BRANCH  30  31
HETATM   31  C25 UNL     1     -10.884  12.348  14.582  1.00  0.00     0.218 C 
HETATM   32  O7  UNL     1     -11.900  13.016  14.421  1.00  0.00    -0.274 OA
HETATM   33  N1  UNL     1      -9.617  12.821  14.319  1.00  0.00    -0.356 N 
HETATM   34  H34 UNL     1      -8.822  12.304  14.674  1.00  0.00     0.162 HD
BRANCH  33  35
HETATM   35  C26 UNL     1      -9.407  14.208  13.968  1.00  0.00     0.168 C 
BRANCH  35  36
HETATM   36  C27 UNL     1      -8.276  14.735  14.787  1.00  0.00     0.000 A 
HETATM   37  C28 UNL     1      -7.480  15.837  14.535  1.00  0.00     0.017 A 
HETATM   38  C29 UNL     1      -6.504  16.049  15.553  1.00  0.00     0.008 A 
HETATM   39  C30 UNL     1      -6.580  15.095  16.543  1.00  0.00     0.050 A 
HETATM   40  S1  UNL     1      -7.816  13.951  16.242  1.00  0.00    -0.105 SA
ENDBRANCH  35  36
ENDBRANCH  33  35
ENDBRANCH  30  31
ENDBRANCH  29  30
ENDBRANCH  27  29
ENDBRANCH  26  27
ENDBRANCH  25  26
ENDBRANCH  23  25
ENDBRANCH  20  23
BRANCH  13  41
HETATM   41  O2  UNL     1      -3.389   5.955  16.701  1.00  0.00    -0.395 OA
HETATM   42  H16 UNL     1      -3.827   6.065  17.563  1.00  0.00     0.210 HD
ENDBRANCH  13  41
TORSDOF 11
ENDMDL
MODEL 5
REMARK minimizedAffinity -8.55361652
REMARK CNNscore 0.626393139
REMARK CNNaffinity 7.20404768
REMARK  11 active torsions:
REMARK  status: ('A' for Active; 'I' for Inactive)
REMARK    1  A    between atoms: C12_13  and  O2_14 
REMARK    2  A    between atoms: C19_21  and  O3_22 
REMARK    3  A    between atoms: C19_21  and  C20_23 
REMARK    4  A    between atoms: C20_23  and  C21_25 
REMARK    5  A    between atoms: C21_25  and  O5_26 
REMARK    6  A    between atoms: O5_26  and  C22_27 
REMARK    7  A    between atoms: C22_27  and  C23_29 
REMARK    8  A    between atoms: C23_29  and  C24_30 
REMARK    9  A    between atoms: C24_30  and  C25_31 
REMARK       I    between atoms: C25_31  and  N1_33 
REMARK   10  A    between atoms: N1_33  and  C26_34 
REMARK   11  A    between atoms: C26_34  and  C27_35 
ROOT
HETATM    1  C1  UNL     1      -1.760   8.155  15.266  1.00  0.00     0.020 C 
HETATM    2  C2  UNL     1      -2.065   7.039  14.236  1.00  0.00    -0.014 C 
HETATM    3  C3  UNL     1      -1.077   5.855  14.475  1.00  0.00     0.022 C 
HETATM    4  C4  UNL     1       0.358   6.152  14.064  1.00  0.00     0.084 C 
HETATM    5  C5  UNL     1       0.398   6.583  12.621  1.00  0.00     0.149 C 
HETATM    6  O1  UNL     1       1.347   6.328  11.882  1.00  0.00    -0.293 OA
HETATM    7  C6  UNL     1      -0.719   7.414  12.113  1.00  0.00     0.053 C 
HETATM    8  C7  UNL     1      -1.812   7.664  12.857  1.00  0.00    -0.068 C 
HETATM    9  C8  UNL     1      -2.853   8.635  12.338  1.00  0.00     0.035 C 
HETATM   10  C9  UNL     1      -4.262   8.377  12.878  1.00  0.00     0.010 C 
HETATM   11  C10 UNL     1      -4.460   6.884  13.158  1.00  0.00    -0.002 C 
HETATM   12  C11 UNL     1      -3.549   6.445  14.338  1.00  0.00     0.031 C 
HETATM   13  C12 UNL     1      -4.220   6.657  15.712  1.00  0.00     0.124 C 
HETATM   14  C13 UNL     1      -5.635   6.082  15.774  1.00  0.00     0.045 C 
HETATM   15  C14 UNL     1      -6.597   6.633  14.689  1.00  0.00     0.001 C 
HETATM   16  C15 UNL     1      -6.964   8.085  15.033  1.00  0.00     0.019 C 
HETATM   17  C16 UNL     1      -5.947   6.490  13.299  1.00  0.00     0.002 C 
HETATM   18  C17 UNL     1      -6.179   5.008  12.940  1.00  0.00     0.009 C 
HETATM   19  C18 UNL     1      -7.432   4.554  13.690  1.00  0.00     0.047 C 
HETATM   20  C19 UNL     1      -7.869   5.732  14.569  1.00  0.00     0.128 C 
ENDROOT
BRANCH  20  21
HETATM   21  O3  UNL     1      -8.204   5.208  15.868  1.00  0.00    -0.381 OA
HETATM   22  H27 UNL     1      -9.040   5.639  16.142  1.00  0.00     0.211 HD
ENDBRANCH  20  21
BRANCH  20  23
HETATM   23  C20 UNL     1      -9.175   6.407  14.056  1.00  0.00     0.185 C 
HETATM   24  O4  UNL     1      -9.454   6.332  12.849  1.00  0.00    -0.292 OA
BRANCH  23  25
HETATM   25  C21 UNL     1     -10.073   7.173  15.027  1.00  0.00     0.260 C 
BRANCH  25  26
HETATM   26  O5  UNL     1     -10.645   8.335  14.415  1.00  0.00    -0.314 OA
BRANCH  26  27
HETATM   27  C22 UNL     1     -10.537   9.472  15.156  1.00  0.00     0.259 C 
HETATM   28  O6  UNL     1      -9.755  10.382  14.925  1.00  0.00    -0.265 OA
BRANCH  27  29
HETATM   29  C23 UNL     1     -11.518   9.462  16.293  1.00  0.00     0.120 C 
BRANCH  29  30
HETATM   30  C24 UNL     1     -10.829   9.829  17.600  1.00  0.00     0.112 C 
BRANCH  30  31
HETATM   31  C25 UNL     1     -11.825  10.335  18.620  1.00  0.00     0.218 C 
HETATM   32  O7  UNL     1     -12.673  11.185  18.373  1.00  0.00    -0.274 OA
HETATM   33  N1  UNL     1     -11.688   9.739  19.854  1.00  0.00    -0.356 N 
HETATM   34  H34 UNL     1     -11.122   8.902  19.929  1.00  0.00     0.162 HD
BRANCH  33  35
HETATM   35  C26 UNL     1     -12.649   9.988  20.904  1.00  0.00     0.168 C 
BRANCH  35  36
HETATM   36  C27 UNL     1     -12.271   9.171  22.095  1.00  0.00     0.000 A 
HETATM   37  C28 UNL     1     -12.776   7.945  22.484  1.00  0.00     0.017 A 
HETATM   38  C29 UNL     1     -12.160   7.454  23.672  1.00  0.00     0.008 A 
HETATM   39  C30 UNL     1     -11.212   8.327  24.157  1.00  0.00     0.050 A 
HETATM   40  S1  UNL     1     -11.072   9.730  23.187  1.00  0.00    -0.105 SA
ENDBRANCH  35  36
ENDBRANCH  33  35
ENDBRANCH  30  31
ENDBRANCH  29  30
ENDBRANCH  27  29
ENDBRANCH  26  27
ENDBRANCH  25  26
ENDBRANCH  23  25
ENDBRANCH  20  23
BRANCH  13  41
HETATM   41  O2  UNL     1      -3.442   5.994  16.710  1.00  0.00    -0.395 OA
HETATM   42  H16 UNL     1      -3.889   6.116  17.566  1.00  0.00     0.210 HD
ENDBRANCH  13  41
TORSDOF 11
ENDMDL
MODEL 6
REMARK minimizedAffinity -8.61014652
REMARK CNNscore 0.577561855
REMARK CNNaffinity 7.1052804
REMARK  11 active torsions:
REMARK  status: ('A' for Active; 'I' for Inactive)
REMARK    1  A    between atoms: C12_13  and  O2_14 
REMARK    2  A    between atoms: C19_21  and  O3_22 
REMARK    3  A    between atoms: C19_21  and  C20_23 
REMARK    4  A    between atoms: C20_23  and  C21_25 
REMARK    5  A    between atoms: C21_25  and  O5_26 
REMARK    6  A    between atoms: O5_26  and  C22_27 
REMARK    7  A    between atoms: C22_27  and  C23_29 
REMARK    8  A    between atoms: C23_29  and  C24_30 
REMARK    9  A    between atoms: C24_30  and  C25_31 
REMARK       I    between atoms: C25_31  and  N1_33 
REMARK   10  A    between atoms: N1_33  and  C26_34 
REMARK   11  A    between atoms: C26_34  and  C27_35 
ROOT
HETATM    1  C1  UNL     1      -5.776   5.835  15.950  1.00  0.00     0.020 C 
HETATM    2  C2  UNL     1      -5.783   6.614  14.611  1.00  0.00    -0.014 C 
HETATM    3  C3  UNL     1      -6.931   7.670  14.654  1.00  0.00     0.022 C 
HETATM    4  C4  UNL     1      -8.328   7.072  14.572  1.00  0.00     0.084 C 
HETATM    5  C5  UNL     1      -8.448   6.220  13.336  1.00  0.00     0.149 C 
HETATM    6  O1  UNL     1      -9.501   6.107  12.711  1.00  0.00    -0.293 OA
HETATM    7  C6  UNL     1      -7.264   5.432  12.918  1.00  0.00     0.053 C 
HETATM    8  C7  UNL     1      -6.070   5.569  13.524  1.00  0.00    -0.068 C 
HETATM    9  C8  UNL     1      -4.939   4.636  13.147  1.00  0.00     0.035 C 
HETATM   10  C9  UNL     1      -3.546   5.234  13.366  1.00  0.00     0.010 C 
HETATM   11  C10 UNL     1      -3.582   6.753  13.176  1.00  0.00    -0.002 C 
HETATM   12  C11 UNL     1      -4.423   7.404  14.308  1.00  0.00     0.031 C 
HETATM   13  C12 UNL     1      -3.581   7.715  15.565  1.00  0.00     0.124 C 
HETATM   14  C13 UNL     1      -2.290   8.466  15.240  1.00  0.00     0.045 C 
HETATM   15  C14 UNL     1      -1.370   7.744  14.221  1.00  0.00     0.001 C 
HETATM   16  C15 UNL     1      -0.720   6.530  14.902  1.00  0.00     0.019 C 
HETATM   17  C16 UNL     1      -2.180   7.367  12.966  1.00  0.00     0.002 C 
HETATM   18  C17 UNL     1      -2.251   8.685  12.169  1.00  0.00     0.009 C 
HETATM   19  C18 UNL     1      -1.023   9.511  12.555  1.00  0.00     0.047 C 
HETATM   20  C19 UNL     1      -0.295   8.728  13.654  1.00  0.00     0.128 C 
ENDROOT
BRANCH  20  21
HETATM   21  O3  UNL     1       0.082   9.664  14.682  1.00  0.00    -0.381 OA
HETATM   22  H27 UNL     1       1.005   9.454  14.935  1.00  0.00     0.211 HD
ENDBRANCH  20  21
BRANCH  20  23
HETATM   23  C20 UNL     1       1.046   8.110  13.158  1.00  0.00     0.185 C 
HETATM   24  O4  UNL     1       1.008   7.123  12.407  1.00  0.00    -0.292 OA
BRANCH  23  25
HETATM   25  C21 UNL     1       2.378   8.699  13.622  1.00  0.00     0.260 C 
BRANCH  25  26
HETATM   26  O5  UNL     1       2.846   8.069  14.819  1.00  0.00    -0.314 OA
BRANCH  26  27
HETATM   27  C22 UNL     1       4.070   8.495  15.237  1.00  0.00     0.259 C 
HETATM   28  O6  UNL     1       4.264   9.489  15.921  1.00  0.00    -0.265 OA
BRANCH  27  29
HETATM   29  C23 UNL     1       5.151   7.573  14.752  1.00  0.00     0.120 C 
BRANCH  29  30
HETATM   30  C24 UNL     1       5.802   8.125  13.491  1.00  0.00     0.112 C 
BRANCH  30  31
HETATM   31  C25 UNL     1       5.687   7.147  12.344  1.00  0.00     0.218 C 
HETATM   32  O7  UNL     1       6.595   6.398  11.999  1.00  0.00    -0.274 OA
HETATM   33  N1  UNL     1       4.456   7.176  11.727  1.00  0.00    -0.356 N 
HETATM   34  H34 UNL     1       3.691   7.652  12.190  1.00  0.00     0.162 HD
BRANCH  33  35
HETATM   35  C26 UNL     1       4.117   6.205  10.711  1.00  0.00     0.168 C 
BRANCH  35  36
HETATM   36  C27 UNL     1       3.529   6.928   9.544  1.00  0.00     0.000 A 
HETATM   37  C28 UNL     1       3.604   8.276   9.249  1.00  0.00     0.017 A 
HETATM   38  C29 UNL     1       2.933   8.607   8.036  1.00  0.00     0.008 A 
HETATM   39  C30 UNL     1       2.357   7.502   7.450  1.00  0.00     0.050 A 
HETATM   40  S1  UNL     1       2.622   6.078   8.362  1.00  0.00    -0.105 SA
ENDBRANCH  35  36
ENDBRANCH  33  35
ENDBRANCH  30  31
ENDBRANCH  29  30
ENDBRANCH  27  29
ENDBRANCH  26  27
ENDBRANCH  25  26
ENDBRANCH  23  25
ENDBRANCH  20  23
BRANCH  13  41
HETATM   41  O2  UNL     1      -4.351   8.540  16.440  1.00  0.00    -0.395 OA
HETATM   42  H16 UNL     1      -3.799   8.746  17.216  1.00  0.00     0.210 HD
ENDBRANCH  13  41
TORSDOF 11
ENDMDL
MODEL 7
REMARK minimizedAffinity -7.87534714
REMARK CNNscore 0.549832821
REMARK CNNaffinity 7.16148758
REMARK  11 active torsions:
REMARK  status: ('A' for Active; 'I' for Inactive)
REMARK    1  A    between atoms: C12_13  and  O2_14 
REMARK    2  A    between atoms: C19_21  and  O3_22 
REMARK    3  A    between atoms: C19_21  and  C20_23 
REMARK    4  A    between atoms: C20_23  and  C21_25 
REMARK    5  A    between atoms: C21_25  and  O5_26 
REMARK    6  A    between atoms: O5_26  and  C22_27 
REMARK    7  A    between atoms: C22_27  and  C23_29 
REMARK    8  A    between atoms: C23_29  and  C24_30 
REMARK    9  A    between atoms: C24_30  and  C25_31 
REMARK       I    between atoms: C25_31  and  N1_33 
REMARK   10  A    between atoms: N1_33  and  C26_34 
REMARK   11  A    between atoms: C26_34  and  C27_35 
ROOT
HETATM    1  C1  UNL     1      -1.712   8.113  15.265  1.00  0.00     0.020 C 
HETATM    2  C2  UNL     1      -2.044   7.015  14.223  1.00  0.00    -0.014 C 
HETATM    3  C3  UNL     1      -1.069   5.816  14.434  1.00  0.00     0.022 C 
HETATM    4  C4  UNL     1       0.365   6.099  14.009  1.00  0.00     0.084 C 
HETATM    5  C5  UNL     1       0.394   6.550  12.573  1.00  0.00     0.149 C 
HETATM    6  O1  UNL     1       1.330   6.293  11.818  1.00  0.00    -0.293 OA
HETATM    7  C6  UNL     1      -0.719   7.402  12.090  1.00  0.00     0.053 C 
HETATM    8  C7  UNL     1      -1.800   7.656  12.850  1.00  0.00    -0.068 C 
HETATM    9  C8  UNL     1      -2.834   8.647  12.357  1.00  0.00     0.035 C 
HETATM   10  C9  UNL     1      -4.240   8.400  12.911  1.00  0.00     0.010 C 
HETATM   11  C10 UNL     1      -4.454   6.906  13.173  1.00  0.00    -0.002 C 
HETATM   12  C11 UNL     1      -3.534   6.439  14.335  1.00  0.00     0.031 C 
HETATM   13  C12 UNL     1      -4.186   6.640  15.721  1.00  0.00     0.124 C 
HETATM   14  C13 UNL     1      -5.607   6.082  15.791  1.00  0.00     0.045 C 
HETATM   15  C14 UNL     1      -6.575   6.661  14.726  1.00  0.00     0.001 C 
HETATM   16  C15 UNL     1      -6.919   8.112  15.094  1.00  0.00     0.019 C 
HETATM   17  C16 UNL     1      -5.944   6.529  13.327  1.00  0.00     0.002 C 
HETATM   18  C17 UNL     1      -6.199   5.056  12.950  1.00  0.00     0.009 C 
HETATM   19  C18 UNL     1      -7.449   4.607  13.709  1.00  0.00     0.047 C 
HETATM   20  C19 UNL     1      -7.860   5.778  14.609  1.00  0.00     0.128 C 
ENDROOT
BRANCH  20  21
HETATM   21  O3  UNL     1      -8.186   5.240  15.905  1.00  0.00    -0.381 OA
HETATM   22  H27 UNL     1      -9.013   5.678  16.196  1.00  0.00     0.211 HD
ENDBRANCH  20  21
BRANCH  20  23
HETATM   23  C20 UNL     1      -9.163   6.477  14.122  1.00  0.00     0.185 C 
HETATM   24  O4  UNL     1      -9.436   6.457  12.911  1.00  0.00    -0.292 OA
BRANCH  23  25
HETATM   25  C21 UNL     1     -10.065   7.198  15.123  1.00  0.00     0.260 C 
BRANCH  25  26
HETATM   26  O5  UNL     1     -11.427   7.229  14.681  1.00  0.00    -0.314 OA
BRANCH  26  27
HETATM   27  C22 UNL     1     -11.920   8.480  14.464  1.00  0.00     0.259 C 
HETATM   28  O6  UNL     1     -11.445   9.289  13.682  1.00  0.00    -0.265 OA
BRANCH  27  29
HETATM   29  C23 UNL     1     -13.134   8.729  15.312  1.00  0.00     0.120 C 
BRANCH  29  30
HETATM   30  C24 UNL     1     -13.982   7.468  15.418  1.00  0.00     0.112 C 
BRANCH  30  31
HETATM   31  C25 UNL     1     -14.689   7.397  16.753  1.00  0.00     0.218 C 
HETATM   32  O7  UNL     1     -15.475   6.505  17.056  1.00  0.00    -0.274 OA
HETATM   33  N1  UNL     1     -14.358   8.433  17.599  1.00  0.00    -0.356 N 
HETATM   34  H34 UNL     1     -13.552   9.004  17.375  1.00  0.00     0.162 HD
BRANCH  33  35
HETATM   35  C26 UNL     1     -14.822   8.442  18.968  1.00  0.00     0.168 C 
BRANCH  35  36
HETATM   36  C27 UNL     1     -13.681   8.831  19.850  1.00  0.00     0.000 A 
HETATM   37  C28 UNL     1     -13.598   8.744  21.226  1.00  0.00     0.017 A 
HETATM   38  C29 UNL     1     -12.341   9.194  21.726  1.00  0.00     0.008 A 
HETATM   39  C30 UNL     1     -11.509   9.619  20.714  1.00  0.00     0.050 A 
HETATM   40  S1  UNL     1     -12.244   9.481  19.175  1.00  0.00    -0.105 SA
ENDBRANCH  35  36
ENDBRANCH  33  35
ENDBRANCH  30  31
ENDBRANCH  29  30
ENDBRANCH  27  29
ENDBRANCH  26  27
ENDBRANCH  25  26
ENDBRANCH  23  25
ENDBRANCH  20  23
BRANCH  13  41
HETATM   41  O2  UNL     1      -3.404   5.953  16.699  1.00  0.00    -0.395 OA
HETATM   42  H16 UNL     1      -3.839   6.069  17.562  1.00  0.00     0.210 HD
ENDBRANCH  13  41
TORSDOF 11
ENDMDL
MODEL 8
REMARK minimizedAffinity -7.66885042
REMARK CNNscore 0.541680396
REMARK CNNaffinity 6.57529593
REMARK  11 active torsions:
REMARK  status: ('A' for Active; 'I' for Inactive)
REMARK    1  A    between atoms: C12_13  and  O2_14 
REMARK    2  A    between atoms: C19_21  and  O3_22 
REMARK    3  A    between atoms: C19_21  and  C20_23 
REMARK    4  A    between atoms: C20_23  and  C21_25 
REMARK    5  A    between atoms: C21_25  and  O5_26 
REMARK    6  A    between atoms: O5_26  and  C22_27 
REMARK    7  A    between atoms: C22_27  and  C23_29 
REMARK    8  A    between atoms: C23_29  and  C24_30 
REMARK    9  A    between atoms: C24_30  and  C25_31 
REMARK       I    between atoms: C25_31  and  N1_33 
REMARK   10  A    between atoms: N1_33  and  C26_34 
REMARK   11  A    between atoms: C26_34  and  C27_35 
ROOT
HETATM    1  C1  UNL     1      -5.753   5.832  15.979  1.00  0.00     0.020 C 
HETATM    2  C2  UNL     1      -5.775   6.634  14.654  1.00  0.00    -0.014 C 
HETATM    3  C3  UNL     1      -6.826   7.780  14.782  1.00  0.00     0.022 C 
HETATM    4  C4  UNL     1      -8.271   7.300  14.776  1.00  0.00     0.084 C 
HETATM    5  C5  UNL     1      -8.534   6.485  13.538  1.00  0.00     0.149 C 
HETATM    6  O1  UNL     1      -9.628   6.471  12.976  1.00  0.00    -0.293 OA
HETATM    7  C6  UNL     1      -7.447   5.610  13.038  1.00  0.00     0.053 C 
HETATM    8  C7  UNL     1      -6.212   5.638  13.572  1.00  0.00    -0.068 C 
HETATM    9  C8  UNL     1      -5.186   4.622  13.113  1.00  0.00     0.035 C 
HETATM   10  C9  UNL     1      -3.738   5.099  13.256  1.00  0.00     0.010 C 
HETATM   11  C10 UNL     1      -3.659   6.620  13.090  1.00  0.00    -0.002 C 
HETATM   12  C11 UNL     1      -4.374   7.316  14.281  1.00  0.00     0.031 C 
HETATM   13  C12 UNL     1      -3.436   7.532  15.488  1.00  0.00     0.124 C 
HETATM   14  C13 UNL     1      -2.109   8.181  15.097  1.00  0.00     0.045 C 
HETATM   15  C14 UNL     1      -1.314   7.406  14.014  1.00  0.00     0.001 C 
HETATM   16  C15 UNL     1      -0.728   6.130  14.637  1.00  0.00     0.019 C 
HETATM   17  C16 UNL     1      -2.226   7.121  12.805  1.00  0.00     0.002 C 
HETATM   18  C17 UNL     1      -2.235   8.456  12.032  1.00  0.00     0.009 C 
HETATM   19  C18 UNL     1      -0.921   9.171  12.355  1.00  0.00     0.047 C 
HETATM   20  C19 UNL     1      -0.196   8.309  13.396  1.00  0.00     0.128 C 
ENDROOT
BRANCH  20  21
HETATM   21  O3  UNL     1       0.317   9.191  14.413  1.00  0.00    -0.381 OA
HETATM   22  H27 UNL     1       1.233   8.901  14.606  1.00  0.00     0.211 HD
ENDBRANCH  20  21
BRANCH  20  23
HETATM   23  C20 UNL     1       1.057   7.593  12.811  1.00  0.00     0.185 C 
HETATM   24  O4  UNL     1       1.013   7.167  11.647  1.00  0.00    -0.292 OA
BRANCH  23  25
HETATM   25  C21 UNL     1       2.301   7.398  13.677  1.00  0.00     0.260 C 
BRANCH  25  26
HETATM   26  O5  UNL     1       3.052   8.610  13.805  1.00  0.00    -0.314 OA
BRANCH  26  27
HETATM   27  C22 UNL     1       4.127   8.696  12.973  1.00  0.00     0.259 C 
HETATM   28  O6  UNL     1       4.124   9.261  11.889  1.00  0.00    -0.265 OA
BRANCH  27  29
HETATM   29  C23 UNL     1       5.320   8.009  13.571  1.00  0.00     0.120 C 
BRANCH  29  30
HETATM   30  C24 UNL     1       5.308   8.137  15.088  1.00  0.00     0.112 C 
BRANCH  30  31
HETATM   31  C25 UNL     1       6.543   8.855  15.586  1.00  0.00     0.218 C 
HETATM   32  O7  UNL     1       6.603  10.069  15.744  1.00  0.00    -0.274 OA
HETATM   33  N1  UNL     1       7.595   8.005  15.850  1.00  0.00    -0.356 N 
HETATM   34  H34 UNL     1       7.414   7.010  15.907  1.00  0.00     0.162 HD
BRANCH  33  35
HETATM   35  C26 UNL     1       8.801   8.499  16.475  1.00  0.00     0.168 C 
BRANCH  35  36
HETATM   36  C27 UNL     1       9.579   9.268  15.459  1.00  0.00     0.000 A 
HETATM   37  C28 UNL     1       9.879  10.617  15.455  1.00  0.00     0.017 A 
HETATM   38  C29 UNL     1      10.661  10.998  14.325  1.00  0.00     0.008 A 
HETATM   39  C30 UNL     1      10.922   9.929  13.497  1.00  0.00     0.050 A 
HETATM   40  S1  UNL     1      10.225   8.479  14.079  1.00  0.00    -0.105 SA
ENDBRANCH  35  36
ENDBRANCH  33  35
ENDBRANCH  30  31
ENDBRANCH  29  30
ENDBRANCH  27  29
ENDBRANCH  26  27
ENDBRANCH  25  26
ENDBRANCH  23  25
ENDBRANCH  20  23
BRANCH  13  41
HETATM   41  O2  UNL     1      -4.082   8.401  16.421  1.00  0.00    -0.395 OA
HETATM   42  H16 UNL     1      -3.470   8.546  17.164  1.00  0.00     0.210 HD
ENDBRANCH  13  41
TORSDOF 11
ENDMDL
MODEL 9
REMARK minimizedAffinity -8.85295963
REMARK CNNscore 0.508798063
REMARK CNNaffinity 7.43409491
REMARK  11 active torsions:
REMARK  status: ('A' for Active; 'I' for Inactive)
REMARK    1  A    between atoms: C12_13  and  O2_14 
REMARK    2  A    between atoms: C19_21  and  O3_22 
REMARK    3  A    between atoms: C19_21  and  C20_23 
REMARK    4  A    between atoms: C20_23  and  C21_25 
REMARK    5  A    between atoms: C21_25  and  O5_26 
REMARK    6  A    between atoms: O5_26  and  C22_27 
REMARK    7  A    between atoms: C22_27  and  C23_29 
REMARK    8  A    between atoms: C23_29  and  C24_30 
REMARK    9  A    between atoms: C24_30  and  C25_31 
REMARK       I    between atoms: C25_31  and  N1_33 
REMARK   10  A    between atoms: N1_33  and  C26_34 
REMARK   11  A    between atoms: C26_34  and  C27_35 
ROOT
HETATM    1  C1  UNL     1      -1.743   8.130  15.287  1.00  0.00     0.020 C 
HETATM    2  C2  UNL     1      -2.065   7.033  14.242  1.00  0.00    -0.014 C 
HETATM    3  C3  UNL     1      -1.076   5.843  14.446  1.00  0.00     0.022 C 
HETATM    4  C4  UNL     1       0.354   6.144  14.020  1.00  0.00     0.084 C 
HETATM    5  C5  UNL     1       0.375   6.600  12.585  1.00  0.00     0.149 C 
HETATM    6  O1  UNL     1       1.312   6.357  11.828  1.00  0.00    -0.293 OA
HETATM    7  C6  UNL     1      -0.748   7.442  12.108  1.00  0.00     0.053 C 
HETATM    8  C7  UNL     1      -1.830   7.682  12.871  1.00  0.00    -0.068 C 
HETATM    9  C8  UNL     1      -2.876   8.664  12.383  1.00  0.00     0.035 C 
HETATM   10  C9  UNL     1      -4.278   8.399  12.939  1.00  0.00     0.010 C 
HETATM   11  C10 UNL     1      -4.476   6.902  13.196  1.00  0.00    -0.002 C 
HETATM   12  C11 UNL     1      -3.549   6.440  14.354  1.00  0.00     0.031 C 
HETATM   13  C12 UNL     1      -4.200   6.629  15.741  1.00  0.00     0.124 C 
HETATM   14  C13 UNL     1      -5.615   6.056  15.812  1.00  0.00     0.045 C 
HETATM   15  C14 UNL     1      -6.591   6.628  14.751  1.00  0.00     0.001 C 
HETATM   16  C15 UNL     1      -6.950   8.074  15.126  1.00  0.00     0.019 C 
HETATM   17  C16 UNL     1      -5.961   6.509  13.350  1.00  0.00     0.002 C 
HETATM   18  C17 UNL     1      -6.201   5.034  12.968  1.00  0.00     0.009 C 
HETATM   19  C18 UNL     1      -7.444   4.568  13.728  1.00  0.00     0.047 C 
HETATM   20  C19 UNL     1      -7.867   5.732  14.633  1.00  0.00     0.128 C 
ENDROOT
BRANCH  20  21
HETATM   21  O3  UNL     1      -8.184   5.185  15.927  1.00  0.00    -0.381 OA
HETATM   22  H27 UNL     1      -9.016   5.613  16.221  1.00  0.00     0.211 HD
ENDBRANCH  20  21
BRANCH  20  23
HETATM   23  C20 UNL     1      -9.178   6.419  14.150  1.00  0.00     0.185 C 
HETATM   24  O4  UNL     1      -9.418   6.462  12.934  1.00  0.00    -0.292 OA
BRANCH  23  25
HETATM   25  C21 UNL     1     -10.129   7.051  15.166  1.00  0.00     0.260 C 
BRANCH  25  26
HETATM   26  O5  UNL     1     -10.941   8.068  14.568  1.00  0.00    -0.314 OA
BRANCH  26  27
HETATM   27  C22 UNL     1     -12.282   7.867  14.700  1.00  0.00     0.259 C 
HETATM   28  O6  UNL     1     -12.967   8.321  15.605  1.00  0.00    -0.265 OA
BRANCH  27  29
HETATM   29  C23 UNL     1     -12.808   7.019  13.578  1.00  0.00     0.120 C 
BRANCH  29  30
HETATM   30  C24 UNL     1     -13.740   7.827  12.686  1.00  0.00     0.112 C 
BRANCH  30  31
HETATM   31  C25 UNL     1     -15.122   7.215  12.645  1.00  0.00     0.218 C 
HETATM   32  O7  UNL     1     -15.737   7.003  11.605  1.00  0.00    -0.274 OA
HETATM   33  N1  UNL     1     -15.620   6.914  13.893  1.00  0.00    -0.356 N 
HETATM   34  H34 UNL     1     -14.985   6.912  14.682  1.00  0.00     0.162 HD
BRANCH  33  35
HETATM   35  C26 UNL     1     -16.862   6.187  14.035  1.00  0.00     0.168 C 
BRANCH  35  36
HETATM   36  C27 UNL     1     -16.546   4.731  14.139  1.00  0.00     0.000 A 
HETATM   37  C28 UNL     1     -15.536   4.126  14.863  1.00  0.00     0.017 A 
HETATM   38  C29 UNL     1     -15.550   2.706  14.737  1.00  0.00     0.008 A 
HETATM   39  C30 UNL     1     -16.565   2.274  13.912  1.00  0.00     0.050 A 
HETATM   40  S1  UNL     1     -17.487   3.575  13.291  1.00  0.00    -0.105 SA
ENDBRANCH  35  36
ENDBRANCH  33  35
ENDBRANCH  30  31
ENDBRANCH  29  30
ENDBRANCH  27  29
ENDBRANCH  26  27
ENDBRANCH  25  26
ENDBRANCH  23  25
ENDBRANCH  20  23
BRANCH  13  41
HETATM   41  O2  UNL     1      -3.409   5.947  16.716  1.00  0.00    -0.395 OA
HETATM   42  H16 UNL     1      -3.844   6.055  17.580  1.00  0.00     0.210 HD
ENDBRANCH  13  41
TORSDOF 11
ENDMDL
