MODEL 1
REMARK minimizedAffinity -7.04267216
REMARK CNNscore 0.505389333
REMARK CNNaffinity 6.57224035
REMARK  4 active torsions:
REMARK  status: ('A' for Active; 'I' for Inactive)
REMARK    1  A    between atoms: C4_4  and  C5_5 
REMARK    2  A    between atoms: C5_5  and  C6_6 
REMARK    3  A    between atoms: C6_6  and  C7_7 
REMARK    4  A    between atoms: C7_7  and  C9_9 
ROOT
HETATM    1  C9  UNL     1       0.656  53.448  -9.634  1.00  0.00    -0.002 C 
HETATM    2  C10 UNL     1      -0.301  54.640  -9.331  1.00  0.00     0.006 C 
HETATM    3  C11 UNL     1      -1.684  54.295  -9.912  1.00  0.00     0.011 C 
HETATM    4  C12 UNL     1      -1.622  52.788 -10.215  1.00  0.00    -0.032 C 
HETATM    5  C13 UNL     1      -1.919  52.048  -8.873  1.00  0.00     0.016 C 
HETATM    6  C14 UNL     1      -2.603  52.294 -11.318  1.00  0.00     0.004 C 
HETATM    7  C15 UNL     1      -4.092  52.520 -10.980  1.00  0.00     0.007 C 
HETATM    8  C16 UNL     1      -4.797  51.324 -10.351  1.00  0.00     0.007 C 
HETATM    9  C17 UNL     1      -4.849  50.122 -11.310  1.00  0.00     0.010 C 
HETATM   10  C18 UNL     1      -5.675  48.925 -10.719  1.00  0.00     0.018 C 
HETATM   11  C19 UNL     1      -7.181  49.287 -10.737  1.00  0.00     0.023 C 
HETATM   12  C20 UNL     1      -5.304  48.563  -9.268  1.00  0.00     0.023 C 
HETATM   13  C21 UNL     1      -5.508  47.664 -11.580  1.00  0.00     0.135 C 
HETATM   14  O1  UNL     1      -6.402  46.818 -11.684  1.00  0.00    -0.297 OA
HETATM   15  C22 UNL     1      -4.207  47.451 -12.311  1.00  0.00     0.080 C 
HETATM   16  C23 UNL     1      -3.086  48.285 -11.729  1.00  0.00     0.018 C 
HETATM   17  C24 UNL     1      -3.426  49.762 -11.791  1.00  0.00    -0.026 A 
HETATM   18  C25 UNL     1      -2.990  50.454 -13.061  1.00  0.00     0.021 A 
HETATM   19  C26 UNL     1      -2.294  50.840 -11.768  1.00  0.00    -0.027 A 
HETATM   20  C27 UNL     1      -0.808  50.414 -11.757  1.00  0.00     0.011 C 
HETATM   21  C28 UNL     1       0.146  51.138 -10.795  1.00  0.00     0.011 C 
HETATM   22  C29 UNL     1      -0.133  52.645 -10.722  1.00  0.00    -0.032 C 
HETATM   23  C30 UNL     1       0.124  53.292 -12.119  1.00  0.00     0.016 C 
ENDROOT
BRANCH   1  24
HETATM   24  C7  UNL     1       2.116  53.932  -9.908  1.00  0.00    -0.014 C 
HETATM   25  C8  UNL     1       2.962  52.776 -10.478  1.00  0.00     0.010 C 
BRANCH  24  26
HETATM   26  C6  UNL     1       2.170  55.151 -10.857  1.00  0.00     0.008 C 
BRANCH  26  27
HETATM   27  C5  UNL     1       3.210  56.215 -10.475  1.00  0.00     0.028 C 
BRANCH  27  28
HETATM   28  C4  UNL     1       4.578  55.599 -10.348  1.00  0.00    -0.025 C 
HETATM   29  C2  UNL     1       5.315  55.434  -9.232  1.00  0.00    -0.091 C 
HETATM   30  C1  UNL     1       6.678  54.796  -9.308  1.00  0.00     0.042 C 
HETATM   31  C3  UNL     1       4.898  55.828  -7.843  1.00  0.00     0.042 C 
ENDBRANCH  27  28
ENDBRANCH  26  27
ENDBRANCH  24  26
ENDBRANCH   1  24
TORSDOF 4
ENDMDL
MODEL 2
REMARK minimizedAffinity -7.37329388
REMARK CNNscore 0.493530571
REMARK CNNaffinity 6.49241877
REMARK  4 active torsions:
REMARK  status: ('A' for Active; 'I' for Inactive)
REMARK    1  A    between atoms: C4_4  and  C5_5 
REMARK    2  A    between atoms: C5_5  and  C6_6 
REMARK    3  A    between atoms: C6_6  and  C7_7 
REMARK    4  A    between atoms: C7_7  and  C9_9 
ROOT
HETATM    1  C9  UNL     1       4.398  55.052  -8.667  1.00  0.00    -0.002 C 
HETATM    2  C10 UNL     1       3.624  56.318  -8.192  1.00  0.00     0.006 C 
HETATM    3  C11 UNL     1       2.221  56.280  -8.825  1.00  0.00     0.011 C 
HETATM    4  C12 UNL     1       2.063  54.843  -9.351  1.00  0.00    -0.032 C 
HETATM    5  C13 UNL     1       1.621  53.966  -8.137  1.00  0.00     0.016 C 
HETATM    6  C14 UNL     1       1.050  54.674 -10.521  1.00  0.00     0.004 C 
HETATM    7  C15 UNL     1      -0.397  55.073 -10.160  1.00  0.00     0.007 C 
HETATM    8  C16 UNL     1      -1.291  53.919  -9.721  1.00  0.00     0.007 C 
HETATM    9  C17 UNL     1      -1.497  52.895 -10.850  1.00  0.00     0.010 C 
HETATM   10  C18 UNL     1      -2.511  51.764 -10.451  1.00  0.00     0.018 C 
HETATM   11  C19 UNL     1      -3.943  52.351 -10.421  1.00  0.00     0.023 C 
HETATM   12  C20 UNL     1      -2.238  51.139  -9.069  1.00  0.00     0.023 C 
HETATM   13  C21 UNL     1      -2.512  50.634 -11.491  1.00  0.00     0.135 C 
HETATM   14  O1  UNL     1      -3.519  49.961 -11.726  1.00  0.00    -0.297 OA
HETATM   15  C22 UNL     1      -1.238  50.336 -12.240  1.00  0.00     0.080 C 
HETATM   16  C23 UNL     1      -0.020  50.892 -11.534  1.00  0.00     0.018 C 
HETATM   17  C24 UNL     1      -0.132  52.397 -11.374  1.00  0.00    -0.026 A 
HETATM   18  C25 UNL     1       0.439  53.194 -12.523  1.00  0.00     0.021 A 
HETATM   19  C26 UNL     1       1.148  53.273 -11.183  1.00  0.00    -0.027 A 
HETATM   20  C27 UNL     1       2.552  52.628 -11.229  1.00  0.00     0.011 C 
HETATM   21  C28 UNL     1       3.578  53.046 -10.165  1.00  0.00     0.011 C 
HETATM   22  C29 UNL     1       3.527  54.551  -9.866  1.00  0.00    -0.032 C 
HETATM   23  C30 UNL     1       3.918  55.350 -11.149  1.00  0.00     0.016 C 
ENDROOT
BRANCH   1  24
HETATM   24  C7  UNL     1       5.921  55.342  -8.858  1.00  0.00    -0.014 C 
HETATM   25  C8  UNL     1       6.532  55.873  -7.546  1.00  0.00     0.010 C 
BRANCH  24  26
HETATM   26  C6  UNL     1       6.705  54.103  -9.348  1.00  0.00     0.008 C 
BRANCH  26  27
HETATM   27  C5  UNL     1       6.665  52.900  -8.395  1.00  0.00     0.028 C 
BRANCH  27  28
HETATM   28  C4  UNL     1       6.801  51.611  -9.160  1.00  0.00    -0.025 C 
HETATM   29  C2  UNL     1       7.488  50.505  -8.812  1.00  0.00    -0.091 C 
HETATM   30  C1  UNL     1       7.511  49.304  -9.722  1.00  0.00     0.042 C 
HETATM   31  C3  UNL     1       8.267  50.325  -7.538  1.00  0.00     0.042 C 
ENDBRANCH  27  28
ENDBRANCH  26  27
ENDBRANCH  24  26
ENDBRANCH   1  24
TORSDOF 4
ENDMDL
MODEL 3
REMARK minimizedAffinity -7.28766918
REMARK CNNscore 0.485520214
REMARK CNNaffinity 6.67245436
REMARK  4 active torsions:
REMARK  status: ('A' for Active; 'I' for Inactive)
REMARK    1  A    between atoms: C4_4  and  C5_5 
REMARK    2  A    between atoms: C5_5  and  C6_6 
REMARK    3  A    between atoms: C6_6  and  C7_7 
REMARK    4  A    between atoms: C7_7  and  C9_9 
ROOT
HETATM    1  C9  UNL     1       4.158  54.784  -8.261  1.00  0.00    -0.002 C 
HETATM    2  C10 UNL     1       3.452  56.134  -7.935  1.00  0.00     0.006 C 
HETATM    3  C11 UNL     1       2.127  56.175  -8.717  1.00  0.00     0.011 C 
HETATM    4  C12 UNL     1       1.900  54.729  -9.189  1.00  0.00    -0.032 C 
HETATM    5  C13 UNL     1       1.257  53.961  -7.992  1.00  0.00     0.016 C 
HETATM    6  C14 UNL     1       1.006  54.578 -10.454  1.00  0.00     0.004 C 
HETATM    7  C15 UNL     1      -0.430  55.114 -10.275  1.00  0.00     0.007 C 
HETATM    8  C16 UNL     1      -1.464  54.064  -9.884  1.00  0.00     0.007 C 
HETATM    9  C17 UNL     1      -1.637  52.998 -10.980  1.00  0.00     0.010 C 
HETATM   10  C18 UNL     1      -2.783  51.979 -10.642  1.00  0.00     0.018 C 
HETATM   11  C19 UNL     1      -4.154  52.683 -10.799  1.00  0.00     0.023 C 
HETATM   12  C20 UNL     1      -2.715  51.413  -9.210  1.00  0.00     0.023 C 
HETATM   13  C21 UNL     1      -2.773  50.797 -11.622  1.00  0.00     0.135 C 
HETATM   14  O1  UNL     1      -3.805  50.196 -11.935  1.00  0.00    -0.297 OA
HETATM   15  C22 UNL     1      -1.458  50.352 -12.210  1.00  0.00     0.080 C 
HETATM   16  C23 UNL     1      -0.278  50.846 -11.400  1.00  0.00     0.018 C 
HETATM   17  C24 UNL     1      -0.274  52.361 -11.325  1.00  0.00    -0.026 A 
HETATM   18  C25 UNL     1       0.484  53.043 -12.440  1.00  0.00     0.021 A 
HETATM   19  C26 UNL     1       1.051  53.139 -11.035  1.00  0.00    -0.027 A 
HETATM   20  C27 UNL     1       2.390  52.378 -10.895  1.00  0.00     0.011 C 
HETATM   21  C28 UNL     1       3.329  52.771  -9.744  1.00  0.00     0.011 C 
HETATM   22  C29 UNL     1       3.379  54.289  -9.525  1.00  0.00    -0.032 C 
HETATM   23  C30 UNL     1       3.973  54.979 -10.793  1.00  0.00     0.016 C 
ENDROOT
BRANCH   1  24
HETATM   24  C7  UNL     1       5.713  54.936  -8.296  1.00  0.00    -0.014 C 
HETATM   25  C8  UNL     1       6.216  54.939  -9.753  1.00  0.00     0.010 C 
BRANCH  24  26
HETATM   26  C6  UNL     1       6.203  56.205  -7.560  1.00  0.00     0.008 C 
BRANCH  26  27
HETATM   27  C5  UNL     1       6.587  55.985  -6.090  1.00  0.00     0.028 C 
BRANCH  27  28
HETATM   28  C4  UNL     1       6.990  57.286  -5.446  1.00  0.00    -0.025 C 
HETATM   29  C2  UNL     1       6.192  58.235  -4.918  1.00  0.00    -0.091 C 
HETATM   30  C1  UNL     1       6.788  59.483  -4.319  1.00  0.00     0.042 C 
HETATM   31  C3  UNL     1       4.692  58.176  -4.848  1.00  0.00     0.042 C 
ENDBRANCH  27  28
ENDBRANCH  26  27
ENDBRANCH  24  26
ENDBRANCH   1  24
TORSDOF 4
ENDMDL
MODEL 4
REMARK minimizedAffinity -7.65451241
REMARK CNNscore 0.433372557
REMARK CNNaffinity 5.21438789
REMARK  4 active torsions:
REMARK  status: ('A' for Active; 'I' for Inactive)
REMARK    1  A    between atoms: C4_4  and  C5_5 
REMARK    2  A    between atoms: C5_5  and  C6_6 
REMARK    3  A    between atoms: C6_6  and  C7_7 
REMARK    4  A    between atoms: C7_7  and  C9_9 
ROOT
HETATM    1  C9  UNL     1       3.435  65.989 -37.123  1.00  0.00    -0.002 C 
HETATM    2  C10 UNL     1       2.269  66.033 -36.091  1.00  0.00     0.006 C 
HETATM    3  C11 UNL     1       1.302  67.152 -36.518  1.00  0.00     0.011 C 
HETATM    4  C12 UNL     1       1.706  67.495 -37.962  1.00  0.00    -0.032 C 
HETATM    5  C13 UNL     1       1.015  66.442 -38.885  1.00  0.00     0.016 C 
HETATM    6  C14 UNL     1       1.333  68.932 -38.430  1.00  0.00     0.004 C 
HETATM    7  C15 UNL     1      -0.183  69.223 -38.415  1.00  0.00     0.007 C 
HETATM    8  C16 UNL     1      -0.890  69.015 -39.749  1.00  0.00     0.007 C 
HETATM    9  C17 UNL     1      -0.373  69.982 -40.827  1.00  0.00     0.010 C 
HETATM   10  C18 UNL     1      -1.175  69.860 -42.171  1.00  0.00     0.018 C 
HETATM   11  C19 UNL     1      -2.585  70.472 -41.982  1.00  0.00     0.023 C 
HETATM   12  C20 UNL     1      -1.363  68.409 -42.657  1.00  0.00     0.023 C 
HETATM   13  C21 UNL     1      -0.490  70.651 -43.295  1.00  0.00     0.135 C 
HETATM   14  O1  UNL     1      -1.129  71.166 -44.217  1.00  0.00    -0.297 OA
HETATM   15  C22 UNL     1       1.010  70.795 -43.271  1.00  0.00     0.080 C 
HETATM   16  C23 UNL     1       1.667  69.753 -42.391  1.00  0.00     0.018 C 
HETATM   17  C24 UNL     1       1.160  69.857 -40.964  1.00  0.00    -0.026 A 
HETATM   18  C25 UNL     1       1.957  70.790 -40.083  1.00  0.00     0.021 A 
HETATM   19  C26 UNL     1       2.012  69.305 -39.776  1.00  0.00    -0.027 A 
HETATM   20  C27 UNL     1       3.416  68.709 -40.030  1.00  0.00     0.011 C 
HETATM   21  C28 UNL     1       3.786  67.397 -39.322  1.00  0.00     0.011 C 
HETATM   22  C29 UNL     1       3.276  67.352 -37.875  1.00  0.00    -0.032 C 
HETATM   23  C30 UNL     1       3.969  68.477 -37.043  1.00  0.00     0.016 C 
ENDROOT
BRANCH   1  24
HETATM   24  C7  UNL     1       4.792  65.608 -36.449  1.00  0.00    -0.014 C 
HETATM   25  C8  UNL     1       5.953  65.786 -37.448  1.00  0.00     0.010 C 
BRANCH  24  26
HETATM   26  C6  UNL     1       5.066  66.422 -35.163  1.00  0.00     0.008 C 
BRANCH  26  27
HETATM   27  C5  UNL     1       5.812  65.651 -34.063  1.00  0.00     0.028 C 
BRANCH  27  28
HETATM   28  C4  UNL     1       5.227  64.275 -33.889  1.00  0.00    -0.025 C 
HETATM   29  C2  UNL     1       4.463  63.817 -32.877  1.00  0.00    -0.091 C 
HETATM   30  C1  UNL     1       3.973  62.392 -32.877  1.00  0.00     0.042 C 
HETATM   31  C3  UNL     1       4.013  64.622 -31.689  1.00  0.00     0.042 C 
ENDBRANCH  27  28
ENDBRANCH  26  27
ENDBRANCH  24  26
ENDBRANCH   1  24
TORSDOF 4
ENDMDL
MODEL 5
REMARK minimizedAffinity -7.06566048
REMARK CNNscore 0.391115308
REMARK CNNaffinity 6.36427498
REMARK  4 active torsions:
REMARK  status: ('A' for Active; 'I' for Inactive)
REMARK    1  A    between atoms: C4_4  and  C5_5 
REMARK    2  A    between atoms: C5_5  and  C6_6 
REMARK    3  A    between atoms: C6_6  and  C7_7 
REMARK    4  A    between atoms: C7_7  and  C9_9 
ROOT
HETATM    1  C9  UNL     1       3.483  53.987 -10.680  1.00  0.00    -0.002 C 
HETATM    2  C10 UNL     1       4.124  52.842  -9.840  1.00  0.00     0.006 C 
HETATM    3  C11 UNL     1       2.988  52.087  -9.127  1.00  0.00     0.011 C 
HETATM    4  C12 UNL     1       1.702  52.551  -9.831  1.00  0.00    -0.032 C 
HETATM    5  C13 UNL     1       1.562  51.690 -11.125  1.00  0.00     0.016 C 
HETATM    6  C14 UNL     1       0.403  52.436  -8.979  1.00  0.00     0.004 C 
HETATM    7  C15 UNL     1       0.063  50.994  -8.545  1.00  0.00     0.007 C 
HETATM    8  C16 UNL     1      -0.922  50.267  -9.453  1.00  0.00     0.007 C 
HETATM    9  C17 UNL     1      -2.301  50.949  -9.464  1.00  0.00     0.010 C 
HETATM   10  C18 UNL     1      -3.357  50.143 -10.300  1.00  0.00     0.018 C 
HETATM   11  C19 UNL     1      -3.751  48.861  -9.525  1.00  0.00     0.023 C 
HETATM   12  C20 UNL     1      -2.854  49.707 -11.690  1.00  0.00     0.023 C 
HETATM   13  C21 UNL     1      -4.643  50.960 -10.496  1.00  0.00     0.135 C 
HETATM   14  O1  UNL     1      -5.750  50.425 -10.600  1.00  0.00    -0.297 OA
HETATM   15  C22 UNL     1      -4.544  52.462 -10.570  1.00  0.00     0.080 C 
HETATM   16  C23 UNL     1      -3.140  52.923 -10.898  1.00  0.00     0.018 C 
HETATM   17  C24 UNL     1      -2.156  52.437  -9.849  1.00  0.00    -0.026 A 
HETATM   18  C25 UNL     1      -1.962  53.381  -8.686  1.00  0.00     0.021 A 
HETATM   19  C26 UNL     1      -0.795  53.175  -9.634  1.00  0.00    -0.027 A 
HETATM   20  C27 UNL     1      -0.463  54.454 -10.436  1.00  0.00     0.011 C 
HETATM   21  C28 UNL     1       0.943  54.587 -11.039  1.00  0.00     0.011 C 
HETATM   22  C29 UNL     1       2.035  54.072 -10.093  1.00  0.00    -0.032 C 
HETATM   23  C30 UNL     1       2.060  54.946  -8.800  1.00  0.00     0.016 C 
ENDROOT
BRANCH   1  24
HETATM   24  C7  UNL     1       4.397  55.254 -10.725  1.00  0.00    -0.014 C 
HETATM   25  C8  UNL     1       3.587  56.479 -11.193  1.00  0.00     0.010 C 
BRANCH  24  26
HETATM   26  C6  UNL     1       5.072  55.549  -9.366  1.00  0.00     0.008 C 
BRANCH  26  27
HETATM   27  C5  UNL     1       6.548  55.132  -9.280  1.00  0.00     0.028 C 
BRANCH  27  28
HETATM   28  C4  UNL     1       7.085  55.364  -7.892  1.00  0.00    -0.025 C 
HETATM   29  C2  UNL     1       6.974  54.564  -6.813  1.00  0.00    -0.091 C 
HETATM   30  C1  UNL     1       7.579  54.975  -5.495  1.00  0.00     0.042 C 
HETATM   31  C3  UNL     1       6.284  53.229  -6.781  1.00  0.00     0.042 C 
ENDBRANCH  27  28
ENDBRANCH  26  27
ENDBRANCH  24  26
ENDBRANCH   1  24
TORSDOF 4
ENDMDL
MODEL 6
REMARK minimizedAffinity -6.97199917
REMARK CNNscore 0.33934468
REMARK CNNaffinity 5.4476676
REMARK  4 active torsions:
REMARK  status: ('A' for Active; 'I' for Inactive)
REMARK    1  A    between atoms: C4_4  and  C5_5 
REMARK    2  A    between atoms: C5_5  and  C6_6 
REMARK    3  A    between atoms: C6_6  and  C7_7 
REMARK    4  A    between atoms: C7_7  and  C9_9 
ROOT
HETATM    1  C9  UNL     1     -12.274  45.481 -27.181  1.00  0.00    -0.002 C 
HETATM    2  C10 UNL     1     -13.242  45.257 -28.381  1.00  0.00     0.006 C 
HETATM    3  C11 UNL     1     -12.643  45.963 -29.610  1.00  0.00     0.011 C 
HETATM    4  C12 UNL     1     -11.187  46.270 -29.220  1.00  0.00    -0.032 C 
HETATM    5  C13 UNL     1     -10.369  44.965 -29.477  1.00  0.00     0.016 C 
HETATM    6  C14 UNL     1     -10.534  47.460 -29.982  1.00  0.00     0.004 C 
HETATM    7  C15 UNL     1     -10.450  47.256 -31.510  1.00  0.00     0.007 C 
HETATM    8  C16 UNL     1      -9.121  46.702 -32.011  1.00  0.00     0.007 C 
HETATM    9  C17 UNL     1      -7.957  47.670 -31.736  1.00  0.00     0.010 C 
HETATM   10  C18 UNL     1      -6.605  47.165 -32.353  1.00  0.00     0.018 C 
HETATM   11  C19 UNL     1      -6.659  47.315 -33.894  1.00  0.00     0.023 C 
HETATM   12  C20 UNL     1      -6.289  45.688 -32.044  1.00  0.00     0.023 C 
HETATM   13  C21 UNL     1      -5.425  48.016 -31.861  1.00  0.00     0.135 C 
HETATM   14  O1  UNL     1      -4.421  48.206 -32.554  1.00  0.00    -0.297 OA
HETATM   15  C22 UNL     1      -5.495  48.628 -30.486  1.00  0.00     0.080 C 
HETATM   16  C23 UNL     1      -6.521  47.942 -29.610  1.00  0.00     0.018 C 
HETATM   17  C24 UNL     1      -7.902  48.024 -30.235  1.00  0.00    -0.026 A 
HETATM   18  C25 UNL     1      -8.698  49.244 -29.838  1.00  0.00     0.021 A 
HETATM   19  C26 UNL     1      -9.183  47.891 -29.349  1.00  0.00    -0.027 A 
HETATM   20  C27 UNL     1      -9.063  47.749 -27.814  1.00  0.00     0.011 C 
HETATM   21  C28 UNL     1      -9.939  46.700 -27.113  1.00  0.00     0.011 C 
HETATM   22  C29 UNL     1     -11.357  46.641 -27.695  1.00  0.00    -0.032 C 
HETATM   23  C30 UNL     1     -12.077  48.005 -27.453  1.00  0.00     0.016 C 
ENDROOT
BRANCH   1  24
HETATM   24  C7  UNL     1     -13.047  45.619 -25.830  1.00  0.00    -0.014 C 
HETATM   25  C8  UNL     1     -12.190  46.384 -24.802  1.00  0.00     0.010 C 
BRANCH  24  26
HETATM   26  C6  UNL     1     -14.420  46.309 -25.999  1.00  0.00     0.008 C 
BRANCH  26  27
HETATM   27  C5  UNL     1     -15.620  45.472 -25.531  1.00  0.00     0.028 C 
BRANCH  27  28
HETATM   28  C4  UNL     1     -16.755  46.364 -25.103  1.00  0.00    -0.025 C 
HETATM   29  C2  UNL     1     -18.006  46.006 -24.750  1.00  0.00    -0.091 C 
HETATM   30  C1  UNL     1     -19.014  47.054 -24.355  1.00  0.00     0.042 C 
HETATM   31  C3  UNL     1     -18.530  44.598 -24.695  1.00  0.00     0.042 C 
ENDBRANCH  27  28
ENDBRANCH  26  27
ENDBRANCH  24  26
ENDBRANCH   1  24
TORSDOF 4
ENDMDL
MODEL 7
REMARK minimizedAffinity -7.13589048
REMARK CNNscore 0.321876734
REMARK CNNaffinity 6.43285561
REMARK  4 active torsions:
REMARK  status: ('A' for Active; 'I' for Inactive)
REMARK    1  A    between atoms: C4_4  and  C5_5 
REMARK    2  A    between atoms: C5_5  and  C6_6 
REMARK    3  A    between atoms: C6_6  and  C7_7 
REMARK    4  A    between atoms: C7_7  and  C9_9 
ROOT
HETATM    1  C9  UNL     1       4.103  55.006  -8.937  1.00  0.00    -0.002 C 
HETATM    2  C10 UNL     1       4.497  55.157 -10.437  1.00  0.00     0.006 C 
HETATM    3  C11 UNL     1       3.560  54.257 -11.264  1.00  0.00     0.011 C 
HETATM    4  C12 UNL     1       2.418  53.885 -10.303  1.00  0.00    -0.032 C 
HETATM    5  C13 UNL     1       1.410  55.076 -10.319  1.00  0.00     0.016 C 
HETATM    6  C14 UNL     1       1.674  52.560 -10.641  1.00  0.00     0.004 C 
HETATM    7  C15 UNL     1       0.981  52.564 -12.020  1.00  0.00     0.007 C 
HETATM    8  C16 UNL     1      -0.496  52.943 -11.995  1.00  0.00     0.007 C 
HETATM    9  C17 UNL     1      -1.333  51.926 -11.201  1.00  0.00     0.010 C 
HETATM   10  C18 UNL     1      -2.870  52.239 -11.268  1.00  0.00     0.018 C 
HETATM   11  C19 UNL     1      -3.398  51.903 -12.684  1.00  0.00     0.023 C 
HETATM   12  C20 UNL     1      -3.222  53.712 -10.980  1.00  0.00     0.023 C 
HETATM   13  C21 UNL     1      -3.653  51.363 -10.279  1.00  0.00     0.135 C 
HETATM   14  O1  UNL     1      -4.815  51.007 -10.496  1.00  0.00    -0.297 OA
HETATM   15  C22 UNL     1      -2.981  50.933  -9.000  1.00  0.00     0.080 C 
HETATM   16  C23 UNL     1      -1.789  51.804  -8.664  1.00  0.00     0.018 C 
HETATM   17  C24 UNL     1      -0.759  51.758  -9.778  1.00  0.00    -0.026 A 
HETATM   18  C25 UNL     1       0.273  50.665  -9.632  1.00  0.00     0.021 A 
HETATM   19  C26 UNL     1       0.738  52.103  -9.489  1.00  0.00    -0.027 A 
HETATM   20  C27 UNL     1       1.205  52.424  -8.051  1.00  0.00     0.011 C 
HETATM   21  C28 UNL     1       2.147  53.620  -7.845  1.00  0.00     0.011 C 
HETATM   22  C29 UNL     1       3.210  53.720  -8.946  1.00  0.00    -0.032 C 
HETATM   23  C30 UNL     1       4.130  52.460  -8.899  1.00  0.00     0.016 C 
ENDROOT
BRANCH   1  24
HETATM   24  C7  UNL     1       5.349  55.100  -7.999  1.00  0.00    -0.014 C 
HETATM   25  C8  UNL     1       6.636  55.248  -8.835  1.00  0.00     0.010 C 
BRANCH  24  26
HETATM   26  C6  UNL     1       5.240  56.256  -6.979  1.00  0.00     0.008 C 
BRANCH  26  27
HETATM   27  C5  UNL     1       4.523  57.509  -7.504  1.00  0.00     0.028 C 
BRANCH  27  28
HETATM   28  C4  UNL     1       3.048  57.248  -7.663  1.00  0.00    -0.025 C 
HETATM   29  C2  UNL     1       2.077  57.371  -6.737  1.00  0.00    -0.091 C 
HETATM   30  C1  UNL     1       0.646  57.056  -7.088  1.00  0.00     0.042 C 
HETATM   31  C3  UNL     1       2.275  57.823  -5.317  1.00  0.00     0.042 C 
ENDBRANCH  27  28
ENDBRANCH  26  27
ENDBRANCH  24  26
ENDBRANCH   1  24
TORSDOF 4
ENDMDL
MODEL 8
REMARK minimizedAffinity -6.91502094
REMARK CNNscore 0.281020999
REMARK CNNaffinity 6.58148384
REMARK  4 active torsions:
REMARK  status: ('A' for Active; 'I' for Inactive)
REMARK    1  A    between atoms: C4_4  and  C5_5 
REMARK    2  A    between atoms: C5_5  and  C6_6 
REMARK    3  A    between atoms: C6_6  and  C7_7 
REMARK    4  A    between atoms: C7_7  and  C9_9 
ROOT
HETATM    1  C9  UNL     1      -0.038  52.293 -12.096  1.00  0.00    -0.002 C 
HETATM    2  C10 UNL     1      -1.273  52.477 -11.163  1.00  0.00     0.006 C 
HETATM    3  C11 UNL     1      -0.759  52.914  -9.780  1.00  0.00     0.011 C 
HETATM    4  C12 UNL     1       0.703  53.332 -10.014  1.00  0.00    -0.032 C 
HETATM    5  C13 UNL     1       0.672  54.798 -10.550  1.00  0.00     0.016 C 
HETATM    6  C14 UNL     1       1.625  53.247  -8.762  1.00  0.00     0.004 C 
HETATM    7  C15 UNL     1       1.185  54.159  -7.597  1.00  0.00     0.007 C 
HETATM    8  C16 UNL     1       1.879  55.515  -7.546  1.00  0.00     0.007 C 
HETATM    9  C17 UNL     1       3.393  55.374  -7.310  1.00  0.00     0.010 C 
HETATM   10  C18 UNL     1       4.100  56.765  -7.136  1.00  0.00     0.018 C 
HETATM   11  C19 UNL     1       3.716  57.364  -5.761  1.00  0.00     0.023 C 
HETATM   12  C20 UNL     1       3.720  57.799  -8.214  1.00  0.00     0.023 C 
HETATM   13  C21 UNL     1       5.628  56.609  -7.146  1.00  0.00     0.135 C 
HETATM   14  O1  UNL     1       6.368  57.368  -6.513  1.00  0.00    -0.297 OA
HETATM   15  C22 UNL     1       6.239  55.499  -7.962  1.00  0.00     0.080 C 
HETATM   16  C23 UNL     1       5.287  54.979  -9.017  1.00  0.00     0.018 C 
HETATM   17  C24 UNL     1       4.015  54.450  -8.379  1.00  0.00    -0.026 A 
HETATM   18  C25 UNL     1       4.061  52.987  -8.008  1.00  0.00     0.021 A 
HETATM   19  C26 UNL     1       3.125  53.405  -9.127  1.00  0.00    -0.027 A 
HETATM   20  C27 UNL     1       3.567  52.840 -10.497  1.00  0.00     0.011 C 
HETATM   21  C28 UNL     1       2.514  52.732 -11.610  1.00  0.00     0.011 C 
HETATM   22  C29 UNL     1       1.153  52.259 -11.082  1.00  0.00    -0.032 C 
HETATM   23  C30 UNL     1       1.292  50.814 -10.507  1.00  0.00     0.016 C 
ENDROOT
BRANCH   1  24
HETATM   24  C7  UNL     1      -0.249  51.127 -13.113  1.00  0.00    -0.014 C 
HETATM   25  C8  UNL     1      -1.564  50.383 -12.808  1.00  0.00     0.010 C 
BRANCH  24  26
HETATM   26  C6  UNL     1      -0.238  51.609 -14.582  1.00  0.00     0.008 C 
BRANCH  26  27
HETATM   27  C5  UNL     1       0.755  50.870 -15.492  1.00  0.00     0.028 C 
BRANCH  27  28
HETATM   28  C4  UNL     1       1.873  51.786 -15.914  1.00  0.00    -0.025 C 
HETATM   29  C2  UNL     1       3.141  51.816 -15.459  1.00  0.00    -0.091 C 
HETATM   30  C1  UNL     1       4.122  52.820 -16.005  1.00  0.00     0.042 C 
HETATM   31  C3  UNL     1       3.717  50.898 -14.417  1.00  0.00     0.042 C 
ENDBRANCH  27  28
ENDBRANCH  26  27
ENDBRANCH  24  26
ENDBRANCH   1  24
TORSDOF 4
ENDMDL
MODEL 9
REMARK minimizedAffinity -7.56739616
REMARK CNNscore 0.258402288
REMARK CNNaffinity 5.48217583
REMARK  4 active torsions:
REMARK  status: ('A' for Active; 'I' for Inactive)
REMARK    1  A    between atoms: C4_4  and  C5_5 
REMARK    2  A    between atoms: C5_5  and  C6_6 
REMARK    3  A    between atoms: C6_6  and  C7_7 
REMARK    4  A    between atoms: C7_7  and  C9_9 
ROOT
HETATM    1  C9  UNL     1       4.711  66.385 -34.648  1.00  0.00    -0.002 C 
HETATM    2  C10 UNL     1       5.936  67.331 -34.826  1.00  0.00     0.006 C 
HETATM    3  C11 UNL     1       5.780  68.057 -36.174  1.00  0.00     0.011 C 
HETATM    4  C12 UNL     1       4.320  67.813 -36.590  1.00  0.00    -0.032 C 
HETATM    5  C13 UNL     1       3.455  68.871 -35.835  1.00  0.00     0.016 C 
HETATM    6  C14 UNL     1       4.043  67.900 -38.120  1.00  0.00     0.004 C 
HETATM    7  C15 UNL     1       4.354  69.280 -38.736  1.00  0.00     0.007 C 
HETATM    8  C16 UNL     1       3.156  70.216 -38.851  1.00  0.00     0.007 C 
HETATM    9  C17 UNL     1       2.084  69.657 -39.802  1.00  0.00     0.010 C 
HETATM   10  C18 UNL     1       0.900  70.665 -40.022  1.00  0.00     0.018 C 
HETATM   11  C19 UNL     1       1.388  71.840 -40.905  1.00  0.00     0.023 C 
HETATM   12  C20 UNL     1       0.341  71.268 -38.718  1.00  0.00     0.023 C 
HETATM   13  C21 UNL     1      -0.261  69.995 -40.771  1.00  0.00     0.135 C 
HETATM   14  O1  UNL     1      -1.009  70.628 -41.521  1.00  0.00    -0.297 OA
HETATM   15  C22 UNL     1      -0.496  68.519 -40.574  1.00  0.00     0.080 C 
HETATM   16  C23 UNL     1       0.165  68.002 -39.314  1.00  0.00     0.018 C 
HETATM   17  C24 UNL     1       1.664  68.240 -39.357  1.00  0.00    -0.026 A 
HETATM   18  C25 UNL     1       2.460  67.116 -39.977  1.00  0.00     0.021 A 
HETATM   19  C26 UNL     1       2.632  67.370 -38.491  1.00  0.00    -0.027 A 
HETATM   20  C27 UNL     1       2.083  66.206 -37.633  1.00  0.00     0.011 C 
HETATM   21  C28 UNL     1       2.606  66.055 -36.197  1.00  0.00     0.011 C 
HETATM   22  C29 UNL     1       4.112  66.328 -36.093  1.00  0.00    -0.032 C 
HETATM   23  C30 UNL     1       4.893  65.266 -36.928  1.00  0.00     0.016 C 
ENDROOT
BRANCH   1  24
HETATM   24  C7  UNL     1       5.098  65.070 -33.898  1.00  0.00    -0.014 C 
HETATM   25  C8  UNL     1       5.245  65.342 -32.388  1.00  0.00     0.010 C 
BRANCH  24  26
HETATM   26  C6  UNL     1       4.085  63.928 -34.138  1.00  0.00     0.008 C 
BRANCH  26  27
HETATM   27  C5  UNL     1       4.698  62.519 -34.146  1.00  0.00     0.028 C 
BRANCH  27  28
HETATM   28  C4  UNL     1       6.179  62.585 -34.406  1.00  0.00    -0.025 C 
HETATM   29  C2  UNL     1       7.020  61.571 -34.692  1.00  0.00    -0.091 C 
HETATM   30  C1  UNL     1       8.486  61.837 -34.917  1.00  0.00     0.042 C 
HETATM   31  C3  UNL     1       6.630  60.125 -34.830  1.00  0.00     0.042 C 
ENDBRANCH  27  28
ENDBRANCH  26  27
ENDBRANCH  24  26
ENDBRANCH   1  24
TORSDOF 4
ENDMDL
