MODEL 1
REMARK minimizedAffinity -7.61450911
REMARK CNNscore 0.426322967
REMARK CNNaffinity 6.05739212
REMARK  11 active torsions:
REMARK  status: ('A' for Active; 'I' for Inactive)
REMARK    1  A    between atoms: C3_3  and  O1_4 
REMARK    2  A    between atoms: N1_14  and  O2_16 
REMARK    3  A    between atoms: O2_16  and  C13_17 
REMARK    4  A    between atoms: C13_17  and  C14_18 
REMARK       I    between atoms: C14_18  and  N2_20 
REMARK    5  A    between atoms: N2_20  and  C15_21 
REMARK    6  A    between atoms: C15_21  and  C16_22 
REMARK    7  A    between atoms: C15_21  and  C19_27 
REMARK    8  A    between atoms: C16_22  and  O5_24 
REMARK    9  A    between atoms: O5_24  and  C17_25 
REMARK   10  A    between atoms: C19_27  and  O6_28 
REMARK   11  A    between atoms: C19_27  and  C20_29 
ROOT
HETATM    1  C1  UNL     1       7.194  62.275 -34.029  1.00  0.00     0.015 C 
HETATM    2  C2  UNL     1       7.206  63.288 -34.677  1.00  0.00    -0.078 C 
HETATM    3  C3  UNL     1       7.237  64.530 -35.486  1.00  0.00     0.128 C 
HETATM    4  C4  UNL     1       6.704  64.235 -36.888  1.00  0.00     0.052 C 
HETATM    5  C5  UNL     1       5.186  64.384 -36.782  1.00  0.00     0.010 C 
HETATM    6  C6  UNL     1       4.899  65.176 -35.487  1.00  0.00     0.002 C 
HETATM    7  C7  UNL     1       3.866  66.309 -35.639  1.00  0.00    -0.004 C 
HETATM    8  C8  UNL     1       2.469  65.768 -35.963  1.00  0.00     0.010 C 
HETATM    9  C9  UNL     1       1.546  66.868 -36.457  1.00  0.00     0.035 C 
HETATM   10  C10 UNL     1       2.087  67.321 -37.781  1.00  0.00    -0.069 C 
HETATM   11  C11 UNL     1       1.388  67.080 -38.907  1.00  0.00     0.030 C 
HETATM   12  C12 UNL     1       1.925  67.420 -40.255  1.00  0.00     0.032 C 
HETATM   13  N1  UNL     1       1.281  67.314 -41.378  1.00  0.00    -0.271 N 
ATOM     14  H1  UNL     1       1.671  67.565 -42.287  1.00  0.00     0.194 HD
HETATM   15  C26 UNL     1       3.342  67.954 -40.337  1.00  0.00     0.060 C 
HETATM   16  C27 UNL     1       4.172  67.605 -39.105  1.00  0.00     0.020 C 
HETATM   17  C28 UNL     1       3.474  67.951 -37.763  1.00  0.00    -0.016 C 
HETATM   18  C29 UNL     1       3.280  69.492 -37.690  1.00  0.00     0.020 C 
HETATM   19  C30 UNL     1       4.337  67.529 -36.492  1.00  0.00     0.002 C 
HETATM   20  C31 UNL     1       5.861  67.522 -36.732  1.00  0.00     0.007 C 
HETATM   21  C32 UNL     1       6.640  67.080 -35.495  1.00  0.00     0.014 C 
HETATM   22  C33 UNL     1       6.282  65.655 -34.962  1.00  0.00     0.003 C 
HETATM   23  C34 UNL     1       6.294  65.752 -33.419  1.00  0.00     0.020 C 
ENDROOT
BRANCH   3  24
HETATM   24  O1  UNL     1       8.586  64.961 -35.570  1.00  0.00    -0.377 OA
HETATM   25  H2  UNL     1       8.920  65.020 -34.658  1.00  0.00     0.211 HD
ENDBRANCH   3  24
BRANCH  13  26
HETATM   26  O2  UNL     1      -0.017  66.814 -41.190  1.00  0.00    -0.271 OA
BRANCH  26  27
HETATM   27  C13 UNL     1      -0.824  67.217 -42.283  1.00  0.00     0.303 C 
BRANCH  27  28
HETATM   28  C14 UNL     1      -1.774  68.342 -41.879  1.00  0.00     0.244 C 
HETATM   29  O3  UNL     1      -1.977  68.692 -40.720  1.00  0.00    -0.271 OA
HETATM   30  N2  UNL     1      -2.390  68.955 -42.955  1.00  0.00    -0.343 N 
HETATM   31  H16 UNL     1      -2.429  68.427 -43.821  1.00  0.00     0.163 HD
BRANCH  30  32
HETATM   32  C15 UNL     1      -3.516  69.889 -42.748  1.00  0.00     0.217 C 
BRANCH  32  33
HETATM   33  C16 UNL     1      -3.130  71.032 -41.794  1.00  0.00     0.284 C 
HETATM   34  O4  UNL     1      -3.485  71.103 -40.624  1.00  0.00    -0.263 OA
BRANCH  33  35
HETATM   35  O5  UNL     1      -2.323  71.946 -42.416  1.00  0.00    -0.320 OA
BRANCH  35  36
HETATM   36  C17 UNL     1      -0.938  71.917 -42.040  1.00  0.00     0.174 C 
HETATM   37  C18 UNL     1      -0.067  71.676 -43.259  1.00  0.00     0.034 C 
ENDBRANCH  35  36
ENDBRANCH  33  35
ENDBRANCH  32  33
BRANCH  32  38
HETATM   38  C19 UNL     1      -4.785  69.145 -42.264  1.00  0.00     0.183 C 
BRANCH  38  39
HETATM   39  O6  UNL     1      -4.892  67.828 -42.809  1.00  0.00    -0.388 OA
HETATM   40  H24 UNL     1      -4.049  67.366 -42.656  1.00  0.00     0.210 HD
ENDBRANCH  38  39
BRANCH  38  41
HETATM   41  C20 UNL     1      -6.077  69.905 -42.506  1.00  0.00    -0.027 A 
HETATM   42  C21 UNL     1      -7.148  69.829 -41.602  1.00  0.00     0.010 A 
HETATM   43  C22 UNL     1      -8.344  70.505 -41.855  1.00  0.00     0.001 A 
HETATM   44  C23 UNL     1      -8.483  71.268 -43.012  1.00  0.00     0.000 A 
HETATM   45  C24 UNL     1      -7.426  71.361 -43.914  1.00  0.00     0.001 A 
HETATM   46  C25 UNL     1      -6.230  70.685 -43.664  1.00  0.00     0.010 A 
ENDBRANCH  38  41
ENDBRANCH  32  38
ENDBRANCH  30  32
ENDBRANCH  27  28
ENDBRANCH  26  27
ENDBRANCH  13  26
TORSDOF 11
ENDMDL
MODEL 2
REMARK minimizedAffinity -7.44625902
REMARK CNNscore 0.290033847
REMARK CNNaffinity 6.165411
REMARK  11 active torsions:
REMARK  status: ('A' for Active; 'I' for Inactive)
REMARK    1  A    between atoms: C3_3  and  O1_4 
REMARK    2  A    between atoms: N1_14  and  O2_16 
REMARK    3  A    between atoms: O2_16  and  C13_17 
REMARK    4  A    between atoms: C13_17  and  C14_18 
REMARK       I    between atoms: C14_18  and  N2_20 
REMARK    5  A    between atoms: N2_20  and  C15_21 
REMARK    6  A    between atoms: C15_21  and  C16_22 
REMARK    7  A    between atoms: C15_21  and  C19_27 
REMARK    8  A    between atoms: C16_22  and  O5_24 
REMARK    9  A    between atoms: O5_24  and  C17_25 
REMARK   10  A    between atoms: C19_27  and  O6_28 
REMARK   11  A    between atoms: C19_27  and  C20_29 
ROOT
HETATM    1  C1  UNL     1      -9.661  47.755 -20.428  1.00  0.00     0.015 C 
HETATM    2  C2  UNL     1      -8.654  48.221 -20.891  1.00  0.00    -0.078 C 
HETATM    3  C3  UNL     1      -7.423  48.813 -21.466  1.00  0.00     0.128 C 
HETATM    4  C4  UNL     1      -6.905  49.910 -20.537  1.00  0.00     0.052 C 
HETATM    5  C5  UNL     1      -6.034  49.189 -19.508  1.00  0.00     0.010 C 
HETATM    6  C6  UNL     1      -5.700  47.799 -20.093  1.00  0.00     0.002 C 
HETATM    7  C7  UNL     1      -4.222  47.382 -19.964  1.00  0.00    -0.004 C 
HETATM    8  C8  UNL     1      -3.811  47.187 -18.500  1.00  0.00     0.010 C 
HETATM    9  C9  UNL     1      -2.301  47.128 -18.348  1.00  0.00     0.035 C 
HETATM   10  C10 UNL     1      -1.781  48.491 -18.702  1.00  0.00    -0.069 C 
HETATM   11  C11 UNL     1      -1.227  49.264 -17.748  1.00  0.00     0.030 C 
HETATM   12  C12 UNL     1      -0.785  50.661 -18.025  1.00  0.00     0.032 C 
HETATM   13  N1  UNL     1      -0.155  51.436 -17.196  1.00  0.00    -0.271 N 
ATOM     14  H1  UNL     1       0.145  52.386 -17.416  1.00  0.00     0.194 HD
HETATM   15  C26 UNL     1      -1.076  51.234 -19.398  1.00  0.00     0.060 C 
HETATM   16  C27 UNL     1      -2.197  50.491 -20.119  1.00  0.00     0.020 C 
HETATM   17  C28 UNL     1      -2.014  48.949 -20.136  1.00  0.00    -0.016 C 
HETATM   18  C29 UNL     1      -0.728  48.614 -20.943  1.00  0.00     0.020 C 
HETATM   19  C30 UNL     1      -3.222  48.193 -20.848  1.00  0.00     0.002 C 
HETATM   20  C31 UNL     1      -3.939  49.021 -21.934  1.00  0.00     0.007 C 
HETATM   21  C32 UNL     1      -5.108  48.264 -22.562  1.00  0.00     0.014 C 
HETATM   22  C33 UNL     1      -6.220  47.815 -21.559  1.00  0.00     0.003 C 
HETATM   23  C34 UNL     1      -6.670  46.406 -22.010  1.00  0.00     0.020 C 
ENDROOT
BRANCH   3  24
HETATM   24  O1  UNL     1      -7.759  49.374 -22.726  1.00  0.00    -0.377 OA
HETATM   25  H2  UNL     1      -8.193  48.672 -23.240  1.00  0.00     0.211 HD
ENDBRANCH   3  24
BRANCH  13  26
HETATM   26  O2  UNL     1       0.063  50.810 -15.959  1.00  0.00    -0.271 OA
BRANCH  26  27
HETATM   27  C13 UNL     1       1.031  51.552 -15.236  1.00  0.00     0.303 C 
BRANCH  27  28
HETATM   28  C14 UNL     1       0.427  52.156 -13.970  1.00  0.00     0.244 C 
HETATM   29  O3  UNL     1      -0.716  52.595 -13.892  1.00  0.00    -0.271 OA
HETATM   30  N2  UNL     1       1.294  52.155 -12.893  1.00  0.00    -0.343 N 
HETATM   31  H16 UNL     1       2.285  52.083 -13.103  1.00  0.00     0.163 HD
BRANCH  30  32
HETATM   32  C15 UNL     1       0.975  52.914 -11.666  1.00  0.00     0.217 C 
BRANCH  32  33
HETATM   33  C16 UNL     1       2.252  53.372 -10.941  1.00  0.00     0.284 C 
HETATM   34  O4  UNL     1       3.319  52.770 -10.974  1.00  0.00    -0.263 OA
BRANCH  33  35
HETATM   35  O5  UNL     1       2.048  54.549 -10.273  1.00  0.00    -0.320 OA
BRANCH  35  36
HETATM   36  C17 UNL     1       2.753  55.690 -10.783  1.00  0.00     0.174 C 
HETATM   37  C18 UNL     1       3.482  56.403  -9.660  1.00  0.00     0.034 C 
ENDBRANCH  35  36
ENDBRANCH  33  35
ENDBRANCH  32  33
BRANCH  32  38
HETATM   38  C19 UNL     1       0.045  52.106 -10.729  1.00  0.00     0.183 C 
BRANCH  38  39
HETATM   39  O6  UNL     1       0.099  50.699 -10.978  1.00  0.00    -0.388 OA
HETATM   40  H24 UNL     1       1.033  50.426 -10.982  1.00  0.00     0.210 HD
ENDBRANCH  38  39
BRANCH  38  41
HETATM   41  C20 UNL     1      -1.400  52.571 -10.739  1.00  0.00    -0.027 A 
HETATM   42  C21 UNL     1      -1.737  53.912 -10.496  1.00  0.00     0.010 A 
HETATM   43  C22 UNL     1      -3.072  54.319 -10.474  1.00  0.00     0.001 A 
HETATM   44  C23 UNL     1      -4.088  53.394 -10.700  1.00  0.00     0.000 A 
HETATM   45  C24 UNL     1      -3.770  52.061 -10.952  1.00  0.00     0.001 A 
HETATM   46  C25 UNL     1      -2.435  51.652 -10.973  1.00  0.00     0.010 A 
ENDBRANCH  38  41
ENDBRANCH  32  38
ENDBRANCH  30  32
ENDBRANCH  27  28
ENDBRANCH  26  27
ENDBRANCH  13  26
TORSDOF 11
ENDMDL
MODEL 3
REMARK minimizedAffinity -7.85377979
REMARK CNNscore 0.260202527
REMARK CNNaffinity 5.70051718
REMARK  11 active torsions:
REMARK  status: ('A' for Active; 'I' for Inactive)
REMARK    1  A    between atoms: C3_3  and  O1_4 
REMARK    2  A    between atoms: N1_14  and  O2_16 
REMARK    3  A    between atoms: O2_16  and  C13_17 
REMARK    4  A    between atoms: C13_17  and  C14_18 
REMARK       I    between atoms: C14_18  and  N2_20 
REMARK    5  A    between atoms: N2_20  and  C15_21 
REMARK    6  A    between atoms: C15_21  and  C16_22 
REMARK    7  A    between atoms: C15_21  and  C19_27 
REMARK    8  A    between atoms: C16_22  and  O5_24 
REMARK    9  A    between atoms: O5_24  and  C17_25 
REMARK   10  A    between atoms: C19_27  and  O6_28 
REMARK   11  A    between atoms: C19_27  and  C20_29 
ROOT
HETATM    1  C1  UNL     1      -3.399  52.199 -25.043  1.00  0.00     0.015 C 
HETATM    2  C2  UNL     1      -3.841  51.490 -24.178  1.00  0.00    -0.078 C 
HETATM    3  C3  UNL     1      -4.388  50.634 -23.099  1.00  0.00     0.128 C 
HETATM    4  C4  UNL     1      -5.880  50.919 -22.932  1.00  0.00     0.052 C 
HETATM    5  C5  UNL     1      -6.580  50.019 -23.951  1.00  0.00     0.010 C 
HETATM    6  C6  UNL     1      -5.563  48.933 -24.367  1.00  0.00     0.002 C 
HETATM    7  C7  UNL     1      -6.129  47.500 -24.403  1.00  0.00    -0.004 C 
HETATM    8  C8  UNL     1      -7.193  47.334 -25.494  1.00  0.00     0.010 C 
HETATM    9  C9  UNL     1      -7.992  46.056 -25.303  1.00  0.00     0.035 C 
HETATM   10  C10 UNL     1      -8.779  46.227 -24.037  1.00  0.00    -0.069 C 
HETATM   11  C11 UNL     1     -10.121  46.325 -24.092  1.00  0.00     0.030 C 
HETATM   12  C12 UNL     1     -10.941  46.594 -22.877  1.00  0.00     0.032 C 
HETATM   13  N1  UNL     1     -12.239  46.605 -22.824  1.00  0.00    -0.271 N 
ATOM     14  H1  UNL     1     -12.775  46.782 -21.974  1.00  0.00     0.194 HD
HETATM   15  C26 UNL     1     -10.210  46.863 -21.577  1.00  0.00     0.060 C 
HETATM   16  C27 UNL     1      -8.766  47.304 -21.796  1.00  0.00     0.020 C 
HETATM   17  C28 UNL     1      -7.970  46.379 -22.755  1.00  0.00    -0.016 C 
HETATM   18  C29 UNL     1      -7.863  44.970 -22.107  1.00  0.00     0.020 C 
HETATM   19  C30 UNL     1      -6.482  46.889 -23.010  1.00  0.00     0.002 C 
HETATM   20  C31 UNL     1      -5.879  47.700 -21.845  1.00  0.00     0.007 C 
HETATM   21  C32 UNL     1      -4.466  48.193 -22.152  1.00  0.00     0.014 C 
HETATM   22  C33 UNL     1      -4.343  49.101 -23.418  1.00  0.00     0.003 C 
HETATM   23  C34 UNL     1      -3.026  48.694 -24.119  1.00  0.00     0.020 C 
ENDROOT
BRANCH   3  24
HETATM   24  O1  UNL     1      -3.704  50.956 -21.898  1.00  0.00    -0.377 OA
HETATM   25  H2  UNL     1      -2.753  50.876 -22.086  1.00  0.00     0.211 HD
ENDBRANCH   3  24
BRANCH  13  26
HETATM   26  O2  UNL     1     -12.815  46.344 -24.077  1.00  0.00    -0.271 OA
BRANCH  26  27
HETATM   27  C13 UNL     1     -14.088  46.967 -24.133  1.00  0.00     0.303 C 
BRANCH  27  28
HETATM   28  C14 UNL     1     -15.205  45.928 -24.196  1.00  0.00     0.244 C 
HETATM   29  O3  UNL     1     -15.091  44.767 -23.816  1.00  0.00    -0.271 OA
HETATM   30  N2  UNL     1     -16.386  46.422 -24.719  1.00  0.00    -0.343 N 
HETATM   31  H16 UNL     1     -16.318  47.258 -25.292  1.00  0.00     0.163 HD
BRANCH  30  32
HETATM   32  C15 UNL     1     -17.490  45.511 -25.083  1.00  0.00     0.217 C 
BRANCH  32  33
HETATM   33  C16 UNL     1     -17.596  45.338 -26.608  1.00  0.00     0.284 C 
HETATM   34  O4  UNL     1     -16.635  45.244 -27.361  1.00  0.00    -0.263 OA
BRANCH  33  35
HETATM   35  O5  UNL     1     -18.903  45.281 -27.010  1.00  0.00    -0.320 OA
BRANCH  35  36
HETATM   36  C17 UNL     1     -19.347  44.016 -27.522  1.00  0.00     0.174 C 
HETATM   37  C18 UNL     1     -18.941  42.896 -26.584  1.00  0.00     0.034 C 
ENDBRANCH  35  36
ENDBRANCH  33  35
ENDBRANCH  32  33
BRANCH  32  38
HETATM   38  C19 UNL     1     -18.832  45.976 -24.467  1.00  0.00     0.183 C 
BRANCH  38  39
HETATM   39  O6  UNL     1     -19.128  47.343 -24.760  1.00  0.00    -0.388 OA
HETATM   40  H24 UNL     1     -19.038  47.475 -25.720  1.00  0.00     0.210 HD
ENDBRANCH  38  39
BRANCH  38  41
HETATM   41  C20 UNL     1     -18.940  45.740 -22.970  1.00  0.00    -0.027 A 
HETATM   42  C21 UNL     1     -19.536  44.578 -22.456  1.00  0.00     0.010 A 
HETATM   43  C22 UNL     1     -19.660  44.390 -21.078  1.00  0.00     0.001 A 
HETATM   44  C23 UNL     1     -19.186  45.359 -20.196  1.00  0.00     0.000 A 
HETATM   45  C24 UNL     1     -18.584  46.513 -20.691  1.00  0.00     0.001 A 
HETATM   46  C25 UNL     1     -18.460  46.703 -22.068  1.00  0.00     0.010 A 
ENDBRANCH  38  41
ENDBRANCH  32  38
ENDBRANCH  30  32
ENDBRANCH  27  28
ENDBRANCH  26  27
ENDBRANCH  13  26
TORSDOF 11
ENDMDL
MODEL 4
REMARK minimizedAffinity -9.79467583
REMARK CNNscore 0.233408704
REMARK CNNaffinity 6.49206305
REMARK  11 active torsions:
REMARK  status: ('A' for Active; 'I' for Inactive)
REMARK    1  A    between atoms: C3_3  and  O1_4 
REMARK    2  A    between atoms: N1_14  and  O2_16 
REMARK    3  A    between atoms: O2_16  and  C13_17 
REMARK    4  A    between atoms: C13_17  and  C14_18 
REMARK       I    between atoms: C14_18  and  N2_20 
REMARK    5  A    between atoms: N2_20  and  C15_21 
REMARK    6  A    between atoms: C15_21  and  C16_22 
REMARK    7  A    between atoms: C15_21  and  C19_27 
REMARK    8  A    between atoms: C16_22  and  O5_24 
REMARK    9  A    between atoms: O5_24  and  C17_25 
REMARK   10  A    between atoms: C19_27  and  O6_28 
REMARK   11  A    between atoms: C19_27  and  C20_29 
ROOT
HETATM    1  C1  UNL     1       0.052  54.282 -27.037  1.00  0.00     0.015 C 
HETATM    2  C2  UNL     1      -0.253  53.134 -26.848  1.00  0.00    -0.078 C 
HETATM    3  C3  UNL     1      -0.608  51.714 -26.615  1.00  0.00     0.128 C 
HETATM    4  C4  UNL     1      -0.228  51.324 -25.186  1.00  0.00     0.052 C 
HETATM    5  C5  UNL     1      -1.426  51.727 -24.326  1.00  0.00     0.010 C 
HETATM    6  C6  UNL     1      -2.624  51.923 -25.281  1.00  0.00     0.002 C 
HETATM    7  C7  UNL     1      -3.939  51.274 -24.808  1.00  0.00    -0.004 C 
HETATM    8  C8  UNL     1      -4.474  51.936 -23.533  1.00  0.00     0.010 C 
HETATM    9  C9  UNL     1      -5.551  51.090 -22.876  1.00  0.00     0.035 C 
HETATM   10  C10 UNL     1      -4.878  49.839 -22.392  1.00  0.00    -0.069 C 
HETATM   11  C11 UNL     1      -4.762  49.612 -21.070  1.00  0.00     0.030 C 
HETATM   12  C12 UNL     1      -4.017  48.435 -20.537  1.00  0.00     0.032 C 
HETATM   13  N1  UNL     1      -3.940  48.088 -19.287  1.00  0.00    -0.271 N 
ATOM     14  H1  UNL     1      -3.431  47.270 -18.951  1.00  0.00     0.194 HD
HETATM   15  C26 UNL     1      -3.294  47.547 -21.530  1.00  0.00     0.060 C 
HETATM   16  C27 UNL     1      -3.024  48.251 -22.857  1.00  0.00     0.020 C 
HETATM   17  C28 UNL     1      -4.274  48.941 -23.464  1.00  0.00    -0.016 C 
HETATM   18  C29 UNL     1      -5.327  47.849 -23.799  1.00  0.00     0.020 C 
HETATM   19  C30 UNL     1      -3.954  49.713 -24.821  1.00  0.00     0.002 C 
HETATM   20  C31 UNL     1      -2.779  49.123 -25.626  1.00  0.00     0.007 C 
HETATM   21  C32 UNL     1      -2.492  49.917 -26.899  1.00  0.00     0.014 C 
HETATM   22  C33 UNL     1      -2.146  51.424 -26.675  1.00  0.00     0.003 C 
HETATM   23  C34 UNL     1      -2.838  52.204 -27.817  1.00  0.00     0.020 C 
ENDROOT
BRANCH   3  24
HETATM   24  O1  UNL     1       0.128  50.925 -27.536  1.00  0.00    -0.377 OA
HETATM   25  H2  UNL     1      -0.052  51.285 -28.421  1.00  0.00     0.211 HD
ENDBRANCH   3  24
BRANCH  13  26
HETATM   26  O2  UNL     1      -4.643  48.973 -18.455  1.00  0.00    -0.271 OA
BRANCH  26  27
HETATM   27  C13 UNL     1      -4.031  48.981 -17.177  1.00  0.00     0.303 C 
BRANCH  27  28
HETATM   28  C14 UNL     1      -2.899  50.004 -17.116  1.00  0.00     0.244 C 
HETATM   29  O3  UNL     1      -2.977  51.088 -16.546  1.00  0.00    -0.271 OA
HETATM   30  N2  UNL     1      -1.749  49.591 -17.764  1.00  0.00    -0.343 N 
HETATM   31  H16 UNL     1      -1.855  48.862 -18.463  1.00  0.00     0.163 HD
BRANCH  30  32
HETATM   32  C15 UNL     1      -0.645  50.538 -18.020  1.00  0.00     0.217 C 
BRANCH  32  33
HETATM   33  C16 UNL     1       0.138  50.850 -16.734  1.00  0.00     0.284 C 
HETATM   34  O4  UNL     1       0.082  50.178 -15.711  1.00  0.00    -0.263 OA
BRANCH  33  35
HETATM   35  O5  UNL     1       0.921  51.962 -16.887  1.00  0.00    -0.320 OA
BRANCH  35  36
HETATM   36  C17 UNL     1       1.906  52.181 -15.866  1.00  0.00     0.174 C 
HETATM   37  C18 UNL     1       3.167  52.768 -16.469  1.00  0.00     0.034 C 
ENDBRANCH  35  36
ENDBRANCH  33  35
ENDBRANCH  32  33
BRANCH  32  38
HETATM   38  C19 UNL     1      -1.156  51.830 -18.704  1.00  0.00     0.183 C 
BRANCH  38  39
HETATM   39  O6  UNL     1      -2.460  51.674 -19.270  1.00  0.00    -0.388 OA
HETATM   40  H24 UNL     1      -3.045  51.298 -18.588  1.00  0.00     0.210 HD
ENDBRANCH  38  39
BRANCH  38  41
HETATM   41  C20 UNL     1      -0.210  52.393 -19.750  1.00  0.00    -0.027 A 
HETATM   42  C21 UNL     1       0.213  53.730 -19.707  1.00  0.00     0.010 A 
HETATM   43  C22 UNL     1       1.055  54.244 -20.695  1.00  0.00     0.001 A 
HETATM   44  C23 UNL     1       1.489  53.426 -21.736  1.00  0.00     0.000 A 
HETATM   45  C24 UNL     1       1.086  52.094 -21.788  1.00  0.00     0.001 A 
HETATM   46  C25 UNL     1       0.243  51.579 -20.802  1.00  0.00     0.010 A 
ENDBRANCH  38  41
ENDBRANCH  32  38
ENDBRANCH  30  32
ENDBRANCH  27  28
ENDBRANCH  26  27
ENDBRANCH  13  26
TORSDOF 11
ENDMDL
MODEL 5
REMARK minimizedAffinity -8.72712898
REMARK CNNscore 0.226854905
REMARK CNNaffinity 6.30714226
REMARK  11 active torsions:
REMARK  status: ('A' for Active; 'I' for Inactive)
REMARK    1  A    between atoms: C3_3  and  O1_4 
REMARK    2  A    between atoms: N1_14  and  O2_16 
REMARK    3  A    between atoms: O2_16  and  C13_17 
REMARK    4  A    between atoms: C13_17  and  C14_18 
REMARK       I    between atoms: C14_18  and  N2_20 
REMARK    5  A    between atoms: N2_20  and  C15_21 
REMARK    6  A    between atoms: C15_21  and  C16_22 
REMARK    7  A    between atoms: C15_21  and  C19_27 
REMARK    8  A    between atoms: C16_22  and  O5_24 
REMARK    9  A    between atoms: O5_24  and  C17_25 
REMARK   10  A    between atoms: C19_27  and  O6_28 
REMARK   11  A    between atoms: C19_27  and  C20_29 
ROOT
HETATM    1  C1  UNL     1      -7.511  46.845 -24.320  1.00  0.00     0.015 C 
HETATM    2  C2  UNL     1      -6.900  47.847 -24.059  1.00  0.00    -0.078 C 
HETATM    3  C3  UNL     1      -6.165  49.092 -23.733  1.00  0.00     0.128 C 
HETATM    4  C4  UNL     1      -6.186  49.313 -22.221  1.00  0.00     0.052 C 
HETATM    5  C5  UNL     1      -5.000  48.514 -21.680  1.00  0.00     0.010 C 
HETATM    6  C6  UNL     1      -4.070  48.218 -22.877  1.00  0.00     0.002 C 
HETATM    7  C7  UNL     1      -2.574  48.467 -22.608  1.00  0.00    -0.004 C 
HETATM    8  C8  UNL     1      -2.014  47.499 -21.560  1.00  0.00     0.010 C 
HETATM    9  C9  UNL     1      -0.663  47.961 -21.040  1.00  0.00     0.035 C 
HETATM   10  C10 UNL     1      -0.908  49.232 -20.280  1.00  0.00    -0.069 C 
HETATM   11  C11 UNL     1      -0.737  49.255 -18.944  1.00  0.00     0.030 C 
HETATM   12  C12 UNL     1      -1.060  50.463 -18.131  1.00  0.00     0.032 C 
HETATM   13  N1  UNL     1      -0.834  50.605 -16.860  1.00  0.00    -0.271 N 
ATOM     14  H1  UNL     1      -1.057  51.447 -16.330  1.00  0.00     0.194 HD
HETATM   15  C26 UNL     1      -1.695  51.643 -18.840  1.00  0.00     0.060 C 
HETATM   16  C27 UNL     1      -2.355  51.249 -20.159  1.00  0.00     0.020 C 
HETATM   17  C28 UNL     1      -1.440  50.408 -21.089  1.00  0.00    -0.016 C 
HETATM   18  C29 UNL     1      -0.219  51.278 -21.497  1.00  0.00     0.020 C 
HETATM   19  C30 UNL     1      -2.169  49.965 -22.434  1.00  0.00     0.002 C 
HETATM   20  C31 UNL     1      -3.278  50.930 -22.904  1.00  0.00     0.007 C 
HETATM   21  C32 UNL     1      -3.966  50.444 -24.178  1.00  0.00     0.014 C 
HETATM   22  C33 UNL     1      -4.637  49.037 -24.072  1.00  0.00     0.003 C 
HETATM   23  C34 UNL     1      -4.368  48.324 -25.418  1.00  0.00     0.020 C 
ENDROOT
BRANCH   3  24
HETATM   24  O1  UNL     1      -6.824  50.168 -24.382  1.00  0.00    -0.377 OA
HETATM   25  H2  UNL     1      -6.893  49.930 -25.322  1.00  0.00     0.211 HD
ENDBRANCH   3  24
BRANCH  13  26
HETATM   26  O2  UNL     1      -0.246  49.458 -16.304  1.00  0.00    -0.271 OA
BRANCH  26  27
HETATM   27  C13 UNL     1      -0.512  49.439 -14.911  1.00  0.00     0.303 C 
BRANCH  27  28
HETATM   28  C14 UNL     1       0.356  50.454 -14.172  1.00  0.00     0.244 C 
HETATM   29  O3  UNL     1      -0.004  51.591 -13.883  1.00  0.00    -0.271 OA
HETATM   30  N2  UNL     1       1.608  49.968 -13.839  1.00  0.00    -0.343 N 
HETATM   31  H16 UNL     1       1.945  49.172 -14.371  1.00  0.00     0.163 HD
BRANCH  30  32
HETATM   32  C15 UNL     1       2.663  50.875 -13.345  1.00  0.00     0.217 C 
BRANCH  32  33
HETATM   33  C16 UNL     1       4.036  50.515 -13.938  1.00  0.00     0.284 C 
HETATM   34  O4  UNL     1       4.799  49.686 -13.457  1.00  0.00    -0.263 OA
BRANCH  33  35
HETATM   35  O5  UNL     1       4.284  51.225 -15.081  1.00  0.00    -0.320 OA
BRANCH  35  36
HETATM   36  C17 UNL     1       3.530  52.435 -15.245  1.00  0.00     0.174 C 
HETATM   37  C18 UNL     1       2.668  52.354 -16.490  1.00  0.00     0.034 C 
ENDBRANCH  35  36
ENDBRANCH  33  35
ENDBRANCH  32  33
BRANCH  32  38
HETATM   38  C19 UNL     1       2.701  50.908 -11.797  1.00  0.00     0.183 C 
BRANCH  38  39
HETATM   39  O6  UNL     1       1.631  50.167 -11.205  1.00  0.00    -0.388 OA
HETATM   40  H24 UNL     1       1.615  49.281 -11.608  1.00  0.00     0.210 HD
ENDBRANCH  38  39
BRANCH  38  41
HETATM   41  C20 UNL     1       2.740  52.307 -11.209  1.00  0.00    -0.027 A 
HETATM   42  C21 UNL     1       3.876  52.786 -10.539  1.00  0.00     0.010 A 
HETATM   43  C22 UNL     1       3.886  54.061  -9.972  1.00  0.00     0.001 A 
HETATM   44  C23 UNL     1       2.762  54.878 -10.071  1.00  0.00     0.000 A 
HETATM   45  C24 UNL     1       1.629  54.421 -10.741  1.00  0.00     0.001 A 
HETATM   46  C25 UNL     1       1.617  53.145 -11.307  1.00  0.00     0.010 A 
ENDBRANCH  38  41
ENDBRANCH  32  38
ENDBRANCH  30  32
ENDBRANCH  27  28
ENDBRANCH  26  27
ENDBRANCH  13  26
TORSDOF 11
ENDMDL
MODEL 6
REMARK minimizedAffinity -9.29034901
REMARK CNNscore 0.213819683
REMARK CNNaffinity 6.88677216
REMARK  11 active torsions:
REMARK  status: ('A' for Active; 'I' for Inactive)
REMARK    1  A    between atoms: C3_3  and  O1_4 
REMARK    2  A    between atoms: N1_14  and  O2_16 
REMARK    3  A    between atoms: O2_16  and  C13_17 
REMARK    4  A    between atoms: C13_17  and  C14_18 
REMARK       I    between atoms: C14_18  and  N2_20 
REMARK    5  A    between atoms: N2_20  and  C15_21 
REMARK    6  A    between atoms: C15_21  and  C16_22 
REMARK    7  A    between atoms: C15_21  and  C19_27 
REMARK    8  A    between atoms: C16_22  and  O5_24 
REMARK    9  A    between atoms: O5_24  and  C17_25 
REMARK   10  A    between atoms: C19_27  and  O6_28 
REMARK   11  A    between atoms: C19_27  and  C20_29 
ROOT
HETATM    1  C1  UNL     1      -7.427  49.191 -23.281  1.00  0.00     0.015 C 
HETATM    2  C2  UNL     1      -6.483  49.931 -23.371  1.00  0.00    -0.078 C 
HETATM    3  C3  UNL     1      -5.334  50.860 -23.483  1.00  0.00     0.128 C 
HETATM    4  C4  UNL     1      -5.159  51.611 -22.164  1.00  0.00     0.052 C 
HETATM    5  C5  UNL     1      -4.292  50.701 -21.293  1.00  0.00     0.010 C 
HETATM    6  C6  UNL     1      -3.622  49.678 -22.236  1.00  0.00     0.002 C 
HETATM    7  C7  UNL     1      -2.117  49.458 -21.986  1.00  0.00    -0.004 C 
HETATM    8  C8  UNL     1      -1.855  48.810 -20.621  1.00  0.00     0.010 C 
HETATM    9  C9  UNL     1      -0.392  48.918 -20.226  1.00  0.00     0.035 C 
HETATM   10  C10 UNL     1      -0.114  50.376 -20.006  1.00  0.00    -0.069 C 
HETATM   11  C11 UNL     1       0.158  50.825 -18.765  1.00  0.00     0.030 C 
HETATM   12  C12 UNL     1       0.345  52.276 -18.477  1.00  0.00     0.032 C 
HETATM   13  N1  UNL     1       0.705  52.783 -17.337  1.00  0.00    -0.271 N 
ATOM     14  H1  UNL     1       0.835  53.781 -17.170  1.00  0.00     0.194 HD
HETATM   15  C26 UNL     1       0.114  53.257 -19.609  1.00  0.00     0.060 C 
HETATM   16  C27 UNL     1      -0.743  52.670 -20.728  1.00  0.00     0.020 C 
HETATM   17  C28 UNL     1      -0.258  51.281 -21.223  1.00  0.00    -0.016 C 
HETATM   18  C29 UNL     1       1.156  51.445 -21.847  1.00  0.00     0.020 C 
HETATM   19  C30 UNL     1      -1.199  50.666 -22.353  1.00  0.00     0.002 C 
HETATM   20  C31 UNL     1      -1.929  51.717 -23.213  1.00  0.00     0.007 C 
HETATM   21  C32 UNL     1      -2.842  51.078 -24.258  1.00  0.00     0.014 C 
HETATM   22  C33 UNL     1      -3.955  50.145 -23.682  1.00  0.00     0.003 C 
HETATM   23  C34 UNL     1      -4.059  48.943 -24.650  1.00  0.00     0.020 C 
ENDROOT
BRANCH   3  24
HETATM   24  O1  UNL     1      -5.620  51.782 -24.523  1.00  0.00    -0.377 OA
HETATM   25  H2  UNL     1      -5.841  51.257 -25.311  1.00  0.00     0.211 HD
ENDBRANCH   3  24
BRANCH  13  26
HETATM   26  O2  UNL     1       0.892  51.792 -16.361  1.00  0.00    -0.271 OA
BRANCH  26  27
HETATM   27  C13 UNL     1       1.725  52.311 -15.337  1.00  0.00     0.303 C 
BRANCH  27  28
HETATM   28  C14 UNL     1       1.281  51.814 -13.963  1.00  0.00     0.244 C 
HETATM   29  O3  UNL     1       1.469  50.676 -13.546  1.00  0.00    -0.271 OA
HETATM   30  N2  UNL     1       0.644  52.782 -13.208  1.00  0.00    -0.343 N 
HETATM   31  H16 UNL     1       0.247  53.569 -13.713  1.00  0.00     0.163 HD
BRANCH  30  32
HETATM   32  C15 UNL     1      -0.066  52.423 -11.963  1.00  0.00     0.217 C 
BRANCH  32  33
HETATM   33  C16 UNL     1      -1.550  52.121 -12.231  1.00  0.00     0.284 C 
HETATM   34  O4  UNL     1      -2.115  52.327 -13.298  1.00  0.00    -0.263 OA
BRANCH  33  35
HETATM   35  O5  UNL     1      -2.151  51.572 -11.130  1.00  0.00    -0.320 OA
BRANCH  35  36
HETATM   36  C17 UNL     1      -3.238  52.323 -10.569  1.00  0.00     0.174 C 
HETATM   37  C18 UNL     1      -3.949  53.110 -11.654  1.00  0.00     0.034 C 
ENDBRANCH  35  36
ENDBRANCH  33  35
ENDBRANCH  32  33
BRANCH  32  38
HETATM   38  C19 UNL     1       0.107  53.515 -10.879  1.00  0.00     0.183 C 
BRANCH  38  39
HETATM   39  O6  UNL     1      -0.798  54.609 -11.050  1.00  0.00    -0.388 OA
HETATM   40  H24 UNL     1      -1.697  54.247 -11.144  1.00  0.00     0.210 HD
ENDBRANCH  38  39
BRANCH  38  41
HETATM   41  C20 UNL     1       1.526  54.042 -10.753  1.00  0.00    -0.027 A 
HETATM   42  C21 UNL     1       2.623  53.171 -10.671  1.00  0.00     0.010 A 
HETATM   43  C22 UNL     1       3.919  53.668 -10.520  1.00  0.00     0.001 A 
HETATM   44  C23 UNL     1       4.136  55.042 -10.452  1.00  0.00     0.000 A 
HETATM   45  C24 UNL     1       3.058  55.920 -10.541  1.00  0.00     0.001 A 
HETATM   46  C25 UNL     1       1.762  55.425 -10.691  1.00  0.00     0.010 A 
ENDBRANCH  38  41
ENDBRANCH  32  38
ENDBRANCH  30  32
ENDBRANCH  27  28
ENDBRANCH  26  27
ENDBRANCH  13  26
TORSDOF 11
ENDMDL
MODEL 7
REMARK minimizedAffinity -9.33356667
REMARK CNNscore 0.209452465
REMARK CNNaffinity 6.22176123
REMARK  11 active torsions:
REMARK  status: ('A' for Active; 'I' for Inactive)
REMARK    1  A    between atoms: C3_3  and  O1_4 
REMARK    2  A    between atoms: N1_14  and  O2_16 
REMARK    3  A    between atoms: O2_16  and  C13_17 
REMARK    4  A    between atoms: C13_17  and  C14_18 
REMARK       I    between atoms: C14_18  and  N2_20 
REMARK    5  A    between atoms: N2_20  and  C15_21 
REMARK    6  A    between atoms: C15_21  and  C16_22 
REMARK    7  A    between atoms: C15_21  and  C19_27 
REMARK    8  A    between atoms: C16_22  and  O5_24 
REMARK    9  A    between atoms: O5_24  and  C17_25 
REMARK   10  A    between atoms: C19_27  and  O6_28 
REMARK   11  A    between atoms: C19_27  and  C20_29 
ROOT
HETATM    1  C1  UNL     1      -0.142  54.418 -27.754  1.00  0.00     0.015 C 
HETATM    2  C2  UNL     1      -0.208  53.341 -27.224  1.00  0.00    -0.078 C 
HETATM    3  C3  UNL     1      -0.268  52.011 -26.573  1.00  0.00     0.128 C 
HETATM    4  C4  UNL     1       0.365  52.097 -25.184  1.00  0.00     0.052 C 
HETATM    5  C5  UNL     1      -0.759  52.562 -24.257  1.00  0.00     0.010 C 
HETATM    6  C6  UNL     1      -2.090  52.313 -25.001  1.00  0.00     0.002 C 
HETATM    7  C7  UNL     1      -3.192  51.654 -24.149  1.00  0.00    -0.004 C 
HETATM    8  C8  UNL     1      -3.661  52.571 -23.014  1.00  0.00     0.010 C 
HETATM    9  C9  UNL     1      -4.470  51.808 -21.979  1.00  0.00     0.035 C 
HETATM   10  C10 UNL     1      -3.525  50.849 -21.317  1.00  0.00    -0.069 C 
HETATM   11  C11 UNL     1      -3.192  51.024 -20.024  1.00  0.00     0.030 C 
HETATM   12  C12 UNL     1      -2.184  50.159 -19.347  1.00  0.00     0.032 C 
HETATM   13  N1  UNL     1      -1.879  50.194 -18.084  1.00  0.00    -0.271 N 
ATOM     14  H1  UNL     1      -1.191  49.582 -17.645  1.00  0.00     0.194 HD
HETATM   15  C26 UNL     1      -1.453  49.133 -20.190  1.00  0.00     0.060 C 
HETATM   16  C27 UNL     1      -1.495  49.461 -21.679  1.00  0.00     0.020 C 
HETATM   17  C28 UNL     1      -2.919  49.775 -22.211  1.00  0.00    -0.016 C 
HETATM   18  C29 UNL     1      -3.794  48.500 -22.059  1.00  0.00     0.020 C 
HETATM   19  C30 UNL     1      -2.928  50.166 -23.756  1.00  0.00     0.002 C 
HETATM   20  C31 UNL     1      -1.785  49.537 -24.578  1.00  0.00     0.007 C 
HETATM   21  C32 UNL     1      -1.819  49.968 -26.043  1.00  0.00     0.014 C 
HETATM   22  C33 UNL     1      -1.722  51.510 -26.280  1.00  0.00     0.003 C 
HETATM   23  C34 UNL     1      -2.690  51.832 -27.443  1.00  0.00     0.020 C 
ENDROOT
BRANCH   3  24
HETATM   24  O1  UNL     1       0.467  51.100 -27.375  1.00  0.00    -0.377 OA
HETATM   25  H2  UNL     1       0.108  51.167 -28.277  1.00  0.00     0.211 HD
ENDBRANCH   3  24
BRANCH  13  26
HETATM   26  O2  UNL     1      -2.611  51.176 -17.398  1.00  0.00    -0.271 OA
BRANCH  26  27
HETATM   27  C13 UNL     1      -3.224  50.579 -16.267  1.00  0.00     0.303 C 
BRANCH  27  28
HETATM   28  C14 UNL     1      -2.510  50.982 -14.979  1.00  0.00     0.244 C 
HETATM   29  O3  UNL     1      -1.302  51.183 -14.892  1.00  0.00    -0.271 OA
HETATM   30  N2  UNL     1      -3.361  51.116 -13.897  1.00  0.00    -0.343 N 
HETATM   31  H16 UNL     1      -4.255  50.638 -13.957  1.00  0.00     0.163 HD
BRANCH  30  32
HETATM   32  C15 UNL     1      -2.825  51.257 -12.528  1.00  0.00     0.217 C 
BRANCH  32  33
HETATM   33  C16 UNL     1      -3.214  50.059 -11.646  1.00  0.00     0.284 C 
HETATM   34  O4  UNL     1      -2.410  49.285 -11.140  1.00  0.00    -0.263 OA
BRANCH  33  35
HETATM   35  O5  UNL     1      -4.570  49.983 -11.482  1.00  0.00    -0.320 OA
BRANCH  35  36
HETATM   36  C17 UNL     1      -5.036  49.933 -10.125  1.00  0.00     0.174 C 
HETATM   37  C18 UNL     1      -6.536  49.707 -10.092  1.00  0.00     0.034 C 
ENDBRANCH  35  36
ENDBRANCH  33  35
ENDBRANCH  32  33
BRANCH  32  38
HETATM   38  C19 UNL     1      -3.257  52.600 -11.889  1.00  0.00     0.183 C 
BRANCH  38  39
HETATM   39  O6  UNL     1      -4.036  53.407 -12.776  1.00  0.00    -0.388 OA
HETATM   40  H24 UNL     1      -4.757  52.858 -13.132  1.00  0.00     0.210 HD
ENDBRANCH  38  39
BRANCH  38  41
HETATM   41  C20 UNL     1      -2.105  53.419 -11.332  1.00  0.00    -0.027 A 
HETATM   42  C21 UNL     1      -0.773  53.119 -11.654  1.00  0.00     0.010 A 
HETATM   43  C22 UNL     1       0.277  53.858 -11.108  1.00  0.00     0.001 A 
HETATM   44  C23 UNL     1       0.010  54.911 -10.236  1.00  0.00     0.000 A 
HETATM   45  C24 UNL     1      -1.307  55.228  -9.914  1.00  0.00     0.001 A 
HETATM   46  C25 UNL     1      -2.359  54.489 -10.458  1.00  0.00     0.010 A 
ENDBRANCH  38  41
ENDBRANCH  32  38
ENDBRANCH  30  32
ENDBRANCH  27  28
ENDBRANCH  26  27
ENDBRANCH  13  26
TORSDOF 11
ENDMDL
MODEL 8
REMARK minimizedAffinity -7.34110165
REMARK CNNscore 0.200265795
REMARK CNNaffinity 6.32557249
REMARK  11 active torsions:
REMARK  status: ('A' for Active; 'I' for Inactive)
REMARK    1  A    between atoms: C3_3  and  O1_4 
REMARK    2  A    between atoms: N1_14  and  O2_16 
REMARK    3  A    between atoms: O2_16  and  C13_17 
REMARK    4  A    between atoms: C13_17  and  C14_18 
REMARK       I    between atoms: C14_18  and  N2_20 
REMARK    5  A    between atoms: N2_20  and  C15_21 
REMARK    6  A    between atoms: C15_21  and  C16_22 
REMARK    7  A    between atoms: C15_21  and  C19_27 
REMARK    8  A    between atoms: C16_22  and  O5_24 
REMARK    9  A    between atoms: O5_24  and  C17_25 
REMARK   10  A    between atoms: C19_27  and  O6_28 
REMARK   11  A    between atoms: C19_27  and  C20_29 
ROOT
HETATM    1  C1  UNL     1       0.025  51.368 -20.809  1.00  0.00     0.015 C 
HETATM    2  C2  UNL     1      -1.025  51.165 -20.258  1.00  0.00    -0.078 C 
HETATM    3  C3  UNL     1      -2.323  50.935 -19.581  1.00  0.00     0.128 C 
HETATM    4  C4  UNL     1      -3.456  51.068 -20.598  1.00  0.00     0.052 C 
HETATM    5  C5  UNL     1      -3.587  49.687 -21.239  1.00  0.00     0.010 C 
HETATM    6  C6  UNL     1      -2.867  48.686 -20.309  1.00  0.00     0.002 C 
HETATM    7  C7  UNL     1      -3.647  47.386 -20.032  1.00  0.00    -0.004 C 
HETATM    8  C8  UNL     1      -3.809  46.538 -21.299  1.00  0.00     0.010 C 
HETATM    9  C9  UNL     1      -4.859  45.457 -21.116  1.00  0.00     0.035 C 
HETATM   10  C10 UNL     1      -6.177  46.160 -20.966  1.00  0.00    -0.069 C 
HETATM   11  C11 UNL     1      -7.112  46.039 -21.928  1.00  0.00     0.030 C 
HETATM   12  C12 UNL     1      -8.397  46.793 -21.875  1.00  0.00     0.032 C 
HETATM   13  N1  UNL     1      -9.389  46.661 -22.704  1.00  0.00    -0.271 N 
ATOM     14  H1  UNL     1     -10.262  47.184 -22.638  1.00  0.00     0.194 HD
HETATM   15  C26 UNL     1      -8.583  47.794 -20.753  1.00  0.00     0.060 C 
HETATM   16  C27 UNL     1      -7.259  48.238 -20.137  1.00  0.00     0.020 C 
HETATM   17  C28 UNL     1      -6.325  47.062 -19.747  1.00  0.00    -0.016 C 
HETATM   18  C29 UNL     1      -7.021  46.227 -18.636  1.00  0.00     0.020 C 
HETATM   19  C30 UNL     1      -4.929  47.552 -19.157  1.00  0.00     0.002 C 
HETATM   20  C31 UNL     1      -4.983  48.923 -18.452  1.00  0.00     0.007 C 
HETATM   21  C32 UNL     1      -3.615  49.362 -17.933  1.00  0.00     0.014 C 
HETATM   22  C33 UNL     1      -2.502  49.483 -19.024  1.00  0.00     0.003 C 
HETATM   23  C34 UNL     1      -1.202  48.945 -18.381  1.00  0.00     0.020 C 
ENDROOT
BRANCH   3  24
HETATM   24  O1  UNL     1      -2.468  51.923 -18.573  1.00  0.00    -0.377 OA
HETATM   25  H2  UNL     1      -1.669  51.881 -18.020  1.00  0.00     0.211 HD
ENDBRANCH   3  24
BRANCH  13  26
HETATM   26  O2  UNL     1      -9.114  45.712 -23.701  1.00  0.00    -0.271 OA
BRANCH  26  27
HETATM   27  C13 UNL     1     -10.205  45.671 -24.604  1.00  0.00     0.303 C 
BRANCH  27  28
HETATM   28  C14 UNL     1     -10.264  46.938 -25.454  1.00  0.00     0.244 C 
HETATM   29  O3  UNL     1     -10.814  47.979 -25.105  1.00  0.00    -0.271 OA
HETATM   30  N2  UNL     1      -9.619  46.815 -26.671  1.00  0.00    -0.343 N 
HETATM   31  H16 UNL     1      -9.477  45.872 -27.019  1.00  0.00     0.163 HD
BRANCH  30  32
HETATM   32  C15 UNL     1      -9.780  47.844 -27.718  1.00  0.00     0.217 C 
BRANCH  32  33
HETATM   33  C16 UNL     1     -10.849  47.437 -28.746  1.00  0.00     0.284 C 
HETATM   34  O4  UNL     1     -11.108  48.073 -29.761  1.00  0.00    -0.263 OA
BRANCH  33  35
HETATM   35  O5  UNL     1     -11.458  46.264 -28.391  1.00  0.00    -0.320 OA
BRANCH  35  36
HETATM   36  C17 UNL     1     -12.890  46.247 -28.484  1.00  0.00     0.174 C 
HETATM   37  C18 UNL     1     -13.500  47.046 -27.348  1.00  0.00     0.034 C 
ENDBRANCH  35  36
ENDBRANCH  33  35
ENDBRANCH  32  33
BRANCH  32  38
HETATM   38  C19 UNL     1      -8.429  48.171 -28.400  1.00  0.00     0.183 C 
BRANCH  38  39
HETATM   39  O6  UNL     1      -8.498  49.333 -29.230  1.00  0.00    -0.388 OA
HETATM   40  H24 UNL     1      -8.894  50.055 -28.711  1.00  0.00     0.210 HD
ENDBRANCH  38  39
BRANCH  38  41
HETATM   41  C20 UNL     1      -7.837  47.015 -29.187  1.00  0.00    -0.027 A 
HETATM   42  C21 UNL     1      -7.658  45.751 -28.605  1.00  0.00     0.010 A 
HETATM   43  C22 UNL     1      -7.080  44.707 -29.329  1.00  0.00     0.001 A 
HETATM   44  C23 UNL     1      -6.678  44.911 -30.647  1.00  0.00     0.000 A 
HETATM   45  C24 UNL     1      -6.857  46.157 -31.243  1.00  0.00     0.001 A 
HETATM   46  C25 UNL     1      -7.433  47.203 -30.519  1.00  0.00     0.010 A 
ENDBRANCH  38  41
ENDBRANCH  32  38
ENDBRANCH  30  32
ENDBRANCH  27  28
ENDBRANCH  26  27
ENDBRANCH  13  26
TORSDOF 11
ENDMDL
MODEL 9
REMARK minimizedAffinity -8.34079075
REMARK CNNscore 0.194802582
REMARK CNNaffinity 5.85828924
REMARK  11 active torsions:
REMARK  status: ('A' for Active; 'I' for Inactive)
REMARK    1  A    between atoms: C3_3  and  O1_4 
REMARK    2  A    between atoms: N1_14  and  O2_16 
REMARK    3  A    between atoms: O2_16  and  C13_17 
REMARK    4  A    between atoms: C13_17  and  C14_18 
REMARK       I    between atoms: C14_18  and  N2_20 
REMARK    5  A    between atoms: N2_20  and  C15_21 
REMARK    6  A    between atoms: C15_21  and  C16_22 
REMARK    7  A    between atoms: C15_21  and  C19_27 
REMARK    8  A    between atoms: C16_22  and  O5_24 
REMARK    9  A    between atoms: O5_24  and  C17_25 
REMARK   10  A    between atoms: C19_27  and  O6_28 
REMARK   11  A    between atoms: C19_27  and  C20_29 
ROOT
HETATM    1  C1  UNL     1       1.218  51.473 -25.852  1.00  0.00     0.015 C 
HETATM    2  C2  UNL     1       0.164  51.803 -25.376  1.00  0.00    -0.078 C 
HETATM    3  C3  UNL     1      -1.138  52.224 -24.807  1.00  0.00     0.128 C 
HETATM    4  C4  UNL     1      -2.272  51.662 -25.663  1.00  0.00     0.052 C 
HETATM    5  C5  UNL     1      -2.529  50.256 -25.120  1.00  0.00     0.010 C 
HETATM    6  C6  UNL     1      -1.882  50.188 -23.719  1.00  0.00     0.002 C 
HETATM    7  C7  UNL     1      -2.763  49.546 -22.630  1.00  0.00    -0.004 C 
HETATM    8  C8  UNL     1      -3.017  48.059 -22.906  1.00  0.00     0.010 C 
HETATM    9  C9  UNL     1      -4.152  47.520 -22.052  1.00  0.00     0.035 C 
HETATM   10  C10 UNL     1      -5.403  48.204 -22.521  1.00  0.00    -0.069 C 
HETATM   11  C11 UNL     1      -6.360  47.493 -23.146  1.00  0.00     0.030 C 
HETATM   12  C12 UNL     1      -7.576  48.140 -23.717  1.00  0.00     0.032 C 
HETATM   13  N1  UNL     1      -8.588  47.521 -24.245  1.00  0.00    -0.271 N 
ATOM     14  H1  UNL     1      -9.413  47.990 -24.619  1.00  0.00     0.194 HD
HETATM   15  C26 UNL     1      -7.659  49.653 -23.669  1.00  0.00     0.060 C 
HETATM   16  C27 UNL     1      -6.292  50.310 -23.497  1.00  0.00     0.020 C 
HETATM   17  C28 UNL     1      -5.455  49.715 -22.333  1.00  0.00    -0.016 C 
HETATM   18  C29 UNL     1      -6.201  49.990 -20.998  1.00  0.00     0.020 C 
HETATM   19  C30 UNL     1      -4.013  50.382 -22.208  1.00  0.00     0.002 C 
HETATM   20  C31 UNL     1      -3.940  51.839 -22.709  1.00  0.00     0.007 C 
HETATM   21  C32 UNL     1      -2.531  52.419 -22.598  1.00  0.00     0.014 C 
HETATM   22  C33 UNL     1      -1.430  51.638 -23.384  1.00  0.00     0.003 C 
HETATM   23  C34 UNL     1      -0.170  51.640 -22.487  1.00  0.00     0.020 C 
ENDROOT
BRANCH   3  24
HETATM   24  O1  UNL     1      -1.183  53.643 -24.827  1.00  0.00    -0.377 OA
HETATM   25  H2  UNL     1      -0.381  53.956 -24.374  1.00  0.00     0.211 HD
ENDBRANCH   3  24
BRANCH  13  26
HETATM   26  O2  UNL     1      -8.410  46.129 -24.238  1.00  0.00    -0.271 OA
BRANCH  26  27
HETATM   27  C13 UNL     1      -9.659  45.511 -23.975  1.00  0.00     0.303 C 
BRANCH  27  28
HETATM   28  C14 UNL     1     -10.797  46.256 -24.667  1.00  0.00     0.244 C 
HETATM   29  O3  UNL     1     -10.967  47.470 -24.604  1.00  0.00    -0.271 OA
HETATM   30  N2  UNL     1     -11.632  45.430 -25.397  1.00  0.00    -0.343 N 
HETATM   31  H16 UNL     1     -11.629  44.444 -25.151  1.00  0.00     0.163 HD
BRANCH  30  32
HETATM   32  C15 UNL     1     -12.916  45.931 -25.928  1.00  0.00     0.217 C 
BRANCH  32  33
HETATM   33  C16 UNL     1     -12.697  46.983 -27.028  1.00  0.00     0.284 C 
HETATM   34  O4  UNL     1     -12.993  48.167 -26.920  1.00  0.00    -0.263 OA
BRANCH  33  35
HETATM   35  O5  UNL     1     -12.109  46.430 -28.134  1.00  0.00    -0.320 OA
BRANCH  35  36
HETATM   36  C17 UNL     1     -12.889  45.451 -28.835  1.00  0.00     0.174 C 
HETATM   37  C18 UNL     1     -12.017  44.280 -29.247  1.00  0.00     0.034 C 
ENDBRANCH  35  36
ENDBRANCH  33  35
ENDBRANCH  32  33
BRANCH  32  38
HETATM   38  C19 UNL     1     -13.822  46.471 -24.795  1.00  0.00     0.183 C 
BRANCH  38  39
HETATM   39  O6  UNL     1     -13.468  45.951 -23.511  1.00  0.00    -0.388 OA
HETATM   40  H24 UNL     1     -12.512  46.081 -23.384  1.00  0.00     0.210 HD
ENDBRANCH  38  39
BRANCH  38  41
HETATM   41  C20 UNL     1     -15.307  46.263 -25.038  1.00  0.00    -0.027 A 
HETATM   42  C21 UNL     1     -15.770  45.291 -25.939  1.00  0.00     0.010 A 
HETATM   43  C22 UNL     1     -17.136  45.134 -26.178  1.00  0.00     0.001 A 
HETATM   44  C23 UNL     1     -18.058  45.943 -25.518  1.00  0.00     0.000 A 
HETATM   45  C24 UNL     1     -17.615  46.906 -24.614  1.00  0.00     0.001 A 
HETATM   46  C25 UNL     1     -16.249  47.065 -24.374  1.00  0.00     0.010 A 
ENDBRANCH  38  41
ENDBRANCH  32  38
ENDBRANCH  30  32
ENDBRANCH  27  28
ENDBRANCH  26  27
ENDBRANCH  13  26
TORSDOF 11
ENDMDL
