MODEL 1
REMARK minimizedAffinity -9.97607517
REMARK  7 active torsions:
REMARK  status: ('A' for Active; 'I' for Inactive)
REMARK    1  A    between atoms: C19_20  and  O2_21 
REMARK    2  A    between atoms: O2_21  and  C20_22 
REMARK    3  A    between atoms: C20_22  and  C21_24 
REMARK    4  A    between atoms: C21_24  and  C22_25 
REMARK    5  A    between atoms: C22_25  and  C23_26 
REMARK       I    between atoms: C23_26  and  N1_28 
REMARK    6  A    between atoms: N1_28  and  C24_29 
REMARK    7  A    between atoms: C24_29  and  C25_30 
ROOT
HETATM    1  C1  UNL     1      -2.697  51.040 -22.271  1.00  0.00     0.018 C 
HETATM    2  C2  UNL     1      -2.477  49.679 -21.588  1.00  0.00    -0.013 C 
HETATM    3  C3  UNL     1      -3.409  49.574 -20.362  1.00  0.00     0.012 C 
HETATM    4  C4  UNL     1      -2.903  50.355 -19.146  1.00  0.00     0.007 C 
HETATM    5  C5  UNL     1      -1.503  49.874 -18.716  1.00  0.00     0.002 C 
HETATM    6  C6  UNL     1      -0.499  50.034 -19.892  1.00  0.00    -0.004 C 
HETATM    7  C7  UNL     1      -0.043  51.499 -20.111  1.00  0.00     0.010 C 
HETATM    8  C8  UNL     1      -0.169  52.396 -18.882  1.00  0.00     0.035 C 
HETATM    9  C9  UNL     1       0.077  51.597 -17.637  1.00  0.00    -0.068 C 
HETATM   10  C10 UNL     1       1.158  51.827 -16.872  1.00  0.00     0.053 C 
HETATM   11  C11 UNL     1       1.457  50.999 -15.680  1.00  0.00     0.149 C 
HETATM   12  O1  UNL     1       2.402  51.308 -14.956  1.00  0.00    -0.293 OA
HETATM   13  C12 UNL     1       0.569  49.819 -15.373  1.00  0.00     0.084 C 
HETATM   14  C13 UNL     1      -0.189  49.342 -16.608  1.00  0.00     0.022 C 
HETATM   15  C14 UNL     1      -0.932  50.483 -17.368  1.00  0.00    -0.016 C 
HETATM   16  C15 UNL     1      -2.048  51.044 -16.460  1.00  0.00     0.020 C 
HETATM   17  C16 UNL     1      -0.999  49.405 -21.214  1.00  0.00     0.001 C 
HETATM   18  C17 UNL     1      -0.892  47.864 -21.196  1.00  0.00     0.008 C 
HETATM   19  C18 UNL     1      -2.040  47.329 -22.046  1.00  0.00     0.034 C 
HETATM   20  C19 UNL     1      -2.736  48.558 -22.628  1.00  0.00     0.140 C 
ENDROOT
BRANCH  20  21
HETATM   21  O2  UNL     1      -4.139  48.343 -22.813  1.00  0.00    -0.315 OA
BRANCH  21  22
HETATM   22  C20 UNL     1      -4.586  48.408 -24.097  1.00  0.00     0.259 C 
HETATM   23  O3  UNL     1      -5.755  48.310 -24.445  1.00  0.00    -0.265 OA
BRANCH  22  24
HETATM   24  C21 UNL     1      -3.421  48.615 -25.026  1.00  0.00     0.120 C 
BRANCH  24  25
HETATM   25  C22 UNL     1      -3.835  48.413 -26.478  1.00  0.00     0.112 C 
BRANCH  25  26
HETATM   26  C23 UNL     1      -3.296  49.511 -27.367  1.00  0.00     0.218 C 
HETATM   27  O4  UNL     1      -3.610  49.643 -28.544  1.00  0.00    -0.274 OA
HETATM   28  N1  UNL     1      -2.417  50.345 -26.714  1.00  0.00    -0.357 N 
HETATM   29  H32 UNL     1      -2.326  50.266 -25.709  1.00  0.00     0.162 HD
BRANCH  28  30
HETATM   30  C24 UNL     1      -1.860  51.520 -27.350  1.00  0.00     0.162 C 
BRANCH  30  31
HETATM   31  C25 UNL     1      -0.370  51.569 -27.184  1.00  0.00    -0.025 A 
HETATM   32  C26 UNL     1       0.233  51.352 -25.941  1.00  0.00     0.011 A 
HETATM   33  C27 UNL     1       1.619  51.389 -25.829  1.00  0.00     0.018 A 
HETATM   34  C28 UNL     1       2.362  51.639 -26.970  1.00  0.00     0.087 A 
HETATM   35  N2  UNL     1       1.819  51.849 -28.188  1.00  0.00    -0.375 N 
HETATM   36  C29 UNL     1       0.470  51.809 -28.267  1.00  0.00     0.096 A 
ATOM     37  H2  UNL     1       2.398  52.029 -29.008  1.00  0.00     0.164 HD
ENDBRANCH  30  31
ENDBRANCH  28  30
ENDBRANCH  25  26
ENDBRANCH  24  25
ENDBRANCH  22  24
ENDBRANCH  21  22
ENDBRANCH  20  21
TORSDOF 7
ENDMDL
MODEL 2
REMARK minimizedAffinity -9.53046608
REMARK  7 active torsions:
REMARK  status: ('A' for Active; 'I' for Inactive)
REMARK    1  A    between atoms: C19_20  and  O2_21 
REMARK    2  A    between atoms: O2_21  and  C20_22 
REMARK    3  A    between atoms: C20_22  and  C21_24 
REMARK    4  A    between atoms: C21_24  and  C22_25 
REMARK    5  A    between atoms: C22_25  and  C23_26 
REMARK       I    between atoms: C23_26  and  N1_28 
REMARK    6  A    between atoms: N1_28  and  C24_29 
REMARK    7  A    between atoms: C24_29  and  C25_30 
ROOT
HETATM    1  C1  UNL     1      -2.166  50.897 -23.954  1.00  0.00     0.018 C 
HETATM    2  C2  UNL     1      -3.147  50.329 -24.995  1.00  0.00    -0.013 C 
HETATM    3  C3  UNL     1      -4.516  51.026 -24.830  1.00  0.00     0.012 C 
HETATM    4  C4  UNL     1      -5.331  50.487 -23.651  1.00  0.00     0.007 C 
HETATM    5  C5  UNL     1      -5.586  48.974 -23.793  1.00  0.00     0.002 C 
HETATM    6  C6  UNL     1      -4.235  48.210 -23.881  1.00  0.00    -0.004 C 
HETATM    7  C7  UNL     1      -3.524  48.068 -22.512  1.00  0.00     0.010 C 
HETATM    8  C8  UNL     1      -4.447  48.163 -21.300  1.00  0.00     0.035 C 
HETATM    9  C9  UNL     1      -5.791  47.586 -21.634  1.00  0.00    -0.068 C 
HETATM   10  C10 UNL     1      -6.224  46.460 -21.042  1.00  0.00     0.053 C 
HETATM   11  C11 UNL     1      -7.515  45.834 -21.411  1.00  0.00     0.149 C 
HETATM   12  O1  UNL     1      -7.914  44.861 -20.775  1.00  0.00    -0.293 OA
HETATM   13  C12 UNL     1      -8.317  46.434 -22.540  1.00  0.00     0.084 C 
HETATM   14  C13 UNL     1      -7.447  47.275 -23.470  1.00  0.00     0.022 C 
HETATM   15  C14 UNL     1      -6.563  48.321 -22.727  1.00  0.00    -0.016 C 
HETATM   16  C15 UNL     1      -7.481  49.366 -22.057  1.00  0.00     0.020 C 
HETATM   17  C16 UNL     1      -3.276  48.787 -24.949  1.00  0.00     0.001 C 
HETATM   18  C17 UNL     1      -3.707  48.399 -26.381  1.00  0.00     0.008 C 
HETATM   19  C18 UNL     1      -3.294  49.548 -27.295  1.00  0.00     0.034 C 
HETATM   20  C19 UNL     1      -2.542  50.538 -26.408  1.00  0.00     0.140 C 
ENDROOT
BRANCH  20  21
HETATM   21  O2  UNL     1      -2.714  51.889 -26.846  1.00  0.00    -0.315 OA
BRANCH  21  22
HETATM   22  C20 UNL     1      -1.585  52.529 -27.260  1.00  0.00     0.259 C 
HETATM   23  O3  UNL     1      -1.426  53.741 -27.279  1.00  0.00    -0.265 OA
BRANCH  22  24
HETATM   24  C21 UNL     1      -0.563  51.514 -27.696  1.00  0.00     0.120 C 
BRANCH  24  25
HETATM   25  C22 UNL     1       0.218  50.977 -26.504  1.00  0.00     0.112 C 
BRANCH  25  26
HETATM   26  C23 UNL     1       1.007  52.069 -25.819  1.00  0.00     0.218 C 
HETATM   27  O4  UNL     1       2.006  52.588 -26.304  1.00  0.00    -0.274 OA
HETATM   28  N1  UNL     1       0.484  52.419 -24.594  1.00  0.00    -0.357 N 
HETATM   29  H32 UNL     1      -0.424  52.057 -24.332  1.00  0.00     0.162 HD
BRANCH  28  30
HETATM   30  C24 UNL     1       1.025  53.512 -23.815  1.00  0.00     0.162 C 
BRANCH  30  31
HETATM   31  C25 UNL     1       0.914  53.233 -22.345  1.00  0.00    -0.025 A 
HETATM   32  C26 UNL     1       1.330  54.169 -21.393  1.00  0.00     0.011 A 
HETATM   33  C27 UNL     1       1.197  53.883 -20.038  1.00  0.00     0.018 A 
HETATM   34  C28 UNL     1       0.646  52.666 -19.677  1.00  0.00     0.087 A 
HETATM   35  N2  UNL     1       0.228  51.737 -20.565  1.00  0.00    -0.375 N 
HETATM   36  C29 UNL     1       0.372  52.042 -21.874  1.00  0.00     0.096 A 
ATOM     37  H2  UNL     1      -0.175  50.851 -20.262  1.00  0.00     0.164 HD
ENDBRANCH  30  31
ENDBRANCH  28  30
ENDBRANCH  25  26
ENDBRANCH  24  25
ENDBRANCH  22  24
ENDBRANCH  21  22
ENDBRANCH  20  21
TORSDOF 7
ENDMDL
MODEL 3
REMARK minimizedAffinity -9.21101952
REMARK  7 active torsions:
REMARK  status: ('A' for Active; 'I' for Inactive)
REMARK    1  A    between atoms: C19_20  and  O2_21 
REMARK    2  A    between atoms: O2_21  and  C20_22 
REMARK    3  A    between atoms: C20_22  and  C21_24 
REMARK    4  A    between atoms: C21_24  and  C22_25 
REMARK    5  A    between atoms: C22_25  and  C23_26 
REMARK       I    between atoms: C23_26  and  N1_28 
REMARK    6  A    between atoms: N1_28  and  C24_29 
REMARK    7  A    between atoms: C24_29  and  C25_30 
ROOT
HETATM    1  C1  UNL     1      -5.382  51.314 -23.890  1.00  0.00     0.018 C 
HETATM    2  C2  UNL     1      -4.183  50.552 -23.298  1.00  0.00    -0.013 C 
HETATM    3  C3  UNL     1      -3.247  51.555 -22.590  1.00  0.00     0.012 C 
HETATM    4  C4  UNL     1      -2.365  52.348 -23.558  1.00  0.00     0.007 C 
HETATM    5  C5  UNL     1      -1.491  51.409 -24.413  1.00  0.00     0.002 C 
HETATM    6  C6  UNL     1      -2.389  50.426 -25.215  1.00  0.00    -0.004 C 
HETATM    7  C7  UNL     1      -3.068  51.083 -26.443  1.00  0.00     0.010 C 
HETATM    8  C8  UNL     1      -2.356  52.322 -26.980  1.00  0.00     0.035 C 
HETATM    9  C9  UNL     1      -0.875  52.183 -26.790  1.00  0.00    -0.068 C 
HETATM   10  C10 UNL     1      -0.052  52.068 -27.847  1.00  0.00     0.053 C 
HETATM   11  C11 UNL     1       1.405  51.856 -27.679  1.00  0.00     0.149 C 
HETATM   12  O1  UNL     1       2.129  51.854 -28.672  1.00  0.00    -0.293 OA
HETATM   13  C12 UNL     1       1.958  51.681 -26.286  1.00  0.00     0.084 C 
HETATM   14  C13 UNL     1       0.883  51.233 -25.300  1.00  0.00     0.022 C 
HETATM   15  C14 UNL     1      -0.407  52.106 -25.339  1.00  0.00    -0.016 C 
HETATM   16  C15 UNL     1      -0.060  53.533 -24.862  1.00  0.00     0.020 C 
HETATM   17  C16 UNL     1      -3.424  49.688 -24.335  1.00  0.00     0.001 C 
HETATM   18  C17 UNL     1      -2.772  48.568 -23.493  1.00  0.00     0.008 C 
HETATM   19  C18 UNL     1      -3.564  48.473 -22.192  1.00  0.00     0.034 C 
HETATM   20  C19 UNL     1      -4.721  49.460 -22.335  1.00  0.00     0.140 C 
ENDROOT
BRANCH  20  21
HETATM   21  O2  UNL     1      -5.101  50.027 -21.077  1.00  0.00    -0.315 OA
BRANCH  21  22
HETATM   22  C20 UNL     1      -5.127  49.167 -20.021  1.00  0.00     0.259 C 
HETATM   23  O3  UNL     1      -5.683  48.078 -20.010  1.00  0.00    -0.265 OA
BRANCH  22  24
HETATM   24  C21 UNL     1      -4.372  49.766 -18.866  1.00  0.00     0.120 C 
BRANCH  24  25
HETATM   25  C22 UNL     1      -3.352  48.782 -18.309  1.00  0.00     0.112 C 
BRANCH  25  26
HETATM   26  C23 UNL     1      -2.125  48.696 -19.188  1.00  0.00     0.218 C 
HETATM   27  O4  UNL     1      -1.627  47.638 -19.553  1.00  0.00    -0.274 OA
HETATM   28  N1  UNL     1      -1.628  49.933 -19.534  1.00  0.00    -0.357 N 
HETATM   29  H32 UNL     1      -2.179  50.755 -19.323  1.00  0.00     0.162 HD
BRANCH  28  30
HETATM   30  C24 UNL     1      -0.518  50.083 -20.450  1.00  0.00     0.162 C 
BRANCH  30  31
HETATM   31  C25 UNL     1       0.005  51.489 -20.440  1.00  0.00    -0.025 A 
HETATM   32  C26 UNL     1       0.764  51.991 -21.501  1.00  0.00     0.011 A 
HETATM   33  C27 UNL     1       1.219  53.306 -21.464  1.00  0.00     0.018 A 
HETATM   34  C28 UNL     1       0.895  54.080 -20.364  1.00  0.00     0.087 A 
HETATM   35  N2  UNL     1       0.161  53.634 -19.321  1.00  0.00    -0.375 N 
HETATM   36  C29 UNL     1      -0.265  52.352 -19.384  1.00  0.00     0.096 A 
ATOM     37  H2  UNL     1      -0.060  54.234 -18.527  1.00  0.00     0.164 HD
ENDBRANCH  30  31
ENDBRANCH  28  30
ENDBRANCH  25  26
ENDBRANCH  24  25
ENDBRANCH  22  24
ENDBRANCH  21  22
ENDBRANCH  20  21
TORSDOF 7
ENDMDL
MODEL 4
REMARK minimizedAffinity -9.20709801
REMARK  7 active torsions:
REMARK  status: ('A' for Active; 'I' for Inactive)
REMARK    1  A    between atoms: C19_20  and  O2_21 
REMARK    2  A    between atoms: O2_21  and  C20_22 
REMARK    3  A    between atoms: C20_22  and  C21_24 
REMARK    4  A    between atoms: C21_24  and  C22_25 
REMARK    5  A    between atoms: C22_25  and  C23_26 
REMARK       I    between atoms: C23_26  and  N1_28 
REMARK    6  A    between atoms: N1_28  and  C24_29 
REMARK    7  A    between atoms: C24_29  and  C25_30 
ROOT
HETATM    1  C1  UNL     1      -3.246  48.670 -25.809  1.00  0.00     0.018 C 
HETATM    2  C2  UNL     1      -3.283  49.799 -24.764  1.00  0.00    -0.013 C 
HETATM    3  C3  UNL     1      -2.693  49.277 -23.436  1.00  0.00     0.012 C 
HETATM    4  C4  UNL     1      -3.667  48.403 -22.642  1.00  0.00     0.007 C 
HETATM    5  C5  UNL     1      -4.963  49.169 -22.312  1.00  0.00     0.002 C 
HETATM    6  C6  UNL     1      -5.647  49.650 -23.623  1.00  0.00    -0.004 C 
HETATM    7  C7  UNL     1      -6.385  48.517 -24.378  1.00  0.00     0.010 C 
HETATM    8  C8  UNL     1      -6.801  47.334 -23.506  1.00  0.00     0.035 C 
HETATM    9  C9  UNL     1      -7.142  47.810 -22.126  1.00  0.00    -0.068 C 
HETATM   10  C10 UNL     1      -8.403  47.739 -21.664  1.00  0.00     0.053 C 
HETATM   11  C11 UNL     1      -8.774  48.272 -20.333  1.00  0.00     0.149 C 
HETATM   12  O1  UNL     1      -9.917  48.096 -19.913  1.00  0.00    -0.293 OA
HETATM   13  C12 UNL     1      -7.725  48.987 -19.517  1.00  0.00     0.084 C 
HETATM   14  C13 UNL     1      -6.587  49.509 -20.389  1.00  0.00     0.022 C 
HETATM   15  C14 UNL     1      -5.988  48.437 -21.348  1.00  0.00    -0.016 C 
HETATM   16  C15 UNL     1      -5.312  47.334 -20.505  1.00  0.00     0.020 C 
HETATM   17  C16 UNL     1      -4.690  50.416 -24.566  1.00  0.00     0.001 C 
HETATM   18  C17 UNL     1      -4.410  51.850 -24.064  1.00  0.00     0.008 C 
HETATM   19  C18 UNL     1      -2.989  52.200 -24.495  1.00  0.00     0.034 C 
HETATM   20  C19 UNL     1      -2.500  51.015 -25.325  1.00  0.00     0.140 C 
ENDROOT
BRANCH  20  21
HETATM   21  O2  UNL     1      -1.088  50.818 -25.199  1.00  0.00    -0.315 OA
BRANCH  21  22
HETATM   22  C20 UNL     1      -0.376  50.853 -26.360  1.00  0.00     0.259 C 
HETATM   23  O3  UNL     1       0.658  50.237 -26.573  1.00  0.00    -0.265 OA
BRANCH  22  24
HETATM   24  C21 UNL     1      -1.056  51.771 -27.339  1.00  0.00     0.120 C 
BRANCH  24  25
HETATM   25  C22 UNL     1      -0.087  52.817 -27.872  1.00  0.00     0.112 C 
BRANCH  25  26
HETATM   26  C23 UNL     1       0.024  54.000 -26.937  1.00  0.00     0.218 C 
HETATM   27  O4  UNL     1      -0.355  55.129 -27.227  1.00  0.00    -0.274 OA
HETATM   28  N1  UNL     1       0.593  53.674 -25.727  1.00  0.00    -0.357 N 
HETATM   29  H32 UNL     1       0.739  52.697 -25.505  1.00  0.00     0.162 HD
BRANCH  28  30
HETATM   30  C24 UNL     1       0.703  54.633 -24.649  1.00  0.00     0.162 C 
BRANCH  30  31
HETATM   31  C25 UNL     1       0.881  53.945 -23.329  1.00  0.00    -0.025 A 
HETATM   32  C26 UNL     1       1.430  54.610 -22.228  1.00  0.00     0.011 A 
HETATM   33  C27 UNL     1       1.565  53.943 -21.014  1.00  0.00     0.018 A 
HETATM   34  C28 UNL     1       1.140  52.628 -20.939  1.00  0.00     0.087 A 
HETATM   35  N2  UNL     1       0.602  51.952 -21.976  1.00  0.00    -0.375 N 
HETATM   36  C29 UNL     1       0.485  52.624 -23.144  1.00  0.00     0.096 A 
ATOM     37  H2  UNL     1       0.298  50.983 -21.884  1.00  0.00     0.164 HD
ENDBRANCH  30  31
ENDBRANCH  28  30
ENDBRANCH  25  26
ENDBRANCH  24  25
ENDBRANCH  22  24
ENDBRANCH  21  22
ENDBRANCH  20  21
TORSDOF 7
ENDMDL
MODEL 5
REMARK minimizedAffinity -9.13071823
REMARK  7 active torsions:
REMARK  status: ('A' for Active; 'I' for Inactive)
REMARK    1  A    between atoms: C19_20  and  O2_21 
REMARK    2  A    between atoms: O2_21  and  C20_22 
REMARK    3  A    between atoms: C20_22  and  C21_24 
REMARK    4  A    between atoms: C21_24  and  C22_25 
REMARK    5  A    between atoms: C22_25  and  C23_26 
REMARK       I    between atoms: C23_26  and  N1_28 
REMARK    6  A    between atoms: N1_28  and  C24_29 
REMARK    7  A    between atoms: C24_29  and  C25_30 
ROOT
HETATM    1  C1  UNL     1      -1.955  51.054 -22.817  1.00  0.00     0.018 C 
HETATM    2  C2  UNL     1      -2.406  50.760 -24.259  1.00  0.00    -0.013 C 
HETATM    3  C3  UNL     1      -3.730  51.504 -24.534  1.00  0.00     0.012 C 
HETATM    4  C4  UNL     1      -4.953  50.810 -23.927  1.00  0.00     0.007 C 
HETATM    5  C5  UNL     1      -5.100  49.371 -24.460  1.00  0.00     0.002 C 
HETATM    6  C6  UNL     1      -3.821  48.548 -24.137  1.00  0.00    -0.004 C 
HETATM    7  C7  UNL     1      -3.741  48.102 -22.655  1.00  0.00     0.010 C 
HETATM    8  C8  UNL     1      -5.086  48.029 -21.936  1.00  0.00     0.035 C 
HETATM    9  C9  UNL     1      -6.159  47.618 -22.899  1.00  0.00    -0.068 C 
HETATM   10  C10 UNL     1      -6.780  46.433 -22.775  1.00  0.00     0.053 C 
HETATM   11  C11 UNL     1      -7.790  45.977 -23.758  1.00  0.00     0.149 C 
HETATM   12  O1  UNL     1      -8.401  44.930 -23.550  1.00  0.00    -0.293 OA
HETATM   13  C12 UNL     1      -8.061  46.832 -24.972  1.00  0.00     0.084 C 
HETATM   14  C13 UNL     1      -6.898  47.772 -25.275  1.00  0.00     0.022 C 
HETATM   15  C14 UNL     1      -6.420  48.597 -24.042  1.00  0.00    -0.016 C 
HETATM   16  C15 UNL     1      -7.551  49.556 -23.614  1.00  0.00     0.020 C 
HETATM   17  C16 UNL     1      -2.515  49.249 -24.579  1.00  0.00     0.001 C 
HETATM   18  C17 UNL     1      -2.306  49.168 -26.107  1.00  0.00     0.008 C 
HETATM   19  C18 UNL     1      -1.570  50.439 -26.522  1.00  0.00     0.034 C 
HETATM   20  C19 UNL     1      -1.272  51.190 -25.226  1.00  0.00     0.140 C 
ENDROOT
BRANCH  20  21
HETATM   21  O2  UNL     1      -1.269  52.608 -25.417  1.00  0.00    -0.315 OA
BRANCH  21  22
HETATM   22  C20 UNL     1      -0.043  53.191 -25.529  1.00  0.00     0.259 C 
HETATM   23  O3  UNL     1       0.673  53.146 -26.519  1.00  0.00    -0.265 OA
BRANCH  22  24
HETATM   24  C21 UNL     1       0.298  53.896 -24.244  1.00  0.00     0.120 C 
BRANCH  24  25
HETATM   25  C22 UNL     1       0.943  52.939 -23.250  1.00  0.00     0.112 C 
BRANCH  25  26
HETATM   26  C23 UNL     1       1.063  53.562 -21.877  1.00  0.00     0.218 C 
HETATM   27  O4  UNL     1       1.515  54.684 -21.681  1.00  0.00    -0.274 OA
HETATM   28  N1  UNL     1       0.608  52.736 -20.874  1.00  0.00    -0.357 N 
HETATM   29  H32 UNL     1       0.110  51.892 -21.126  1.00  0.00     0.162 HD
BRANCH  28  30
HETATM   30  C24 UNL     1       0.540  53.172 -19.496  1.00  0.00     0.162 C 
BRANCH  30  31
HETATM   31  C25 UNL     1       0.386  52.004 -18.566  1.00  0.00    -0.025 A 
HETATM   32  C26 UNL     1       0.922  52.025 -17.275  1.00  0.00     0.011 A 
HETATM   33  C27 UNL     1       0.746  50.930 -16.436  1.00  0.00     0.018 A 
HETATM   34  C28 UNL     1       0.031  49.845 -16.915  1.00  0.00     0.087 A 
HETATM   35  N2  UNL     1      -0.506  49.788 -18.153  1.00  0.00    -0.375 N 
HETATM   36  C29 UNL     1      -0.317  50.866 -18.947  1.00  0.00     0.096 A 
ATOM     37  H2  UNL     1      -1.028  48.972 -18.472  1.00  0.00     0.164 HD
ENDBRANCH  30  31
ENDBRANCH  28  30
ENDBRANCH  25  26
ENDBRANCH  24  25
ENDBRANCH  22  24
ENDBRANCH  21  22
ENDBRANCH  20  21
TORSDOF 7
ENDMDL
MODEL 6
REMARK minimizedAffinity -9.08392525
REMARK  7 active torsions:
REMARK  status: ('A' for Active; 'I' for Inactive)
REMARK    1  A    between atoms: C19_20  and  O2_21 
REMARK    2  A    between atoms: O2_21  and  C20_22 
REMARK    3  A    between atoms: C20_22  and  C21_24 
REMARK    4  A    between atoms: C21_24  and  C22_25 
REMARK    5  A    between atoms: C22_25  and  C23_26 
REMARK       I    between atoms: C23_26  and  N1_28 
REMARK    6  A    between atoms: N1_28  and  C24_29 
REMARK    7  A    between atoms: C24_29  and  C25_30 
ROOT
HETATM    1  C1  UNL     1      -5.271  51.173 -23.831  1.00  0.00     0.018 C 
HETATM    2  C2  UNL     1      -4.019  50.604 -23.140  1.00  0.00    -0.013 C 
HETATM    3  C3  UNL     1      -3.182  51.770 -22.573  1.00  0.00     0.012 C 
HETATM    4  C4  UNL     1      -2.358  52.499 -23.639  1.00  0.00     0.007 C 
HETATM    5  C5  UNL     1      -1.396  51.533 -24.358  1.00  0.00     0.002 C 
HETATM    6  C6  UNL     1      -2.196  50.376 -25.021  1.00  0.00    -0.004 C 
HETATM    7  C7  UNL     1      -2.913  50.800 -26.327  1.00  0.00     0.010 C 
HETATM    8  C8  UNL     1      -2.303  52.012 -27.026  1.00  0.00     0.035 C 
HETATM    9  C9  UNL     1      -0.818  52.029 -26.818  1.00  0.00    -0.068 C 
HETATM   10  C10 UNL     1       0.025  51.844 -27.848  1.00  0.00     0.053 C 
HETATM   11  C11 UNL     1       1.492  51.784 -27.651  1.00  0.00     0.149 C 
HETATM   12  O1  UNL     1       2.227  51.711 -28.634  1.00  0.00    -0.293 OA
HETATM   13  C12 UNL     1       2.041  51.847 -26.247  1.00  0.00     0.084 C 
HETATM   14  C13 UNL     1       0.995  51.445 -25.211  1.00  0.00     0.022 C 
HETATM   15  C14 UNL     1      -0.364  52.190 -25.369  1.00  0.00    -0.016 C 
HETATM   16  C15 UNL     1      -0.147  53.692 -25.089  1.00  0.00     0.020 C 
HETATM   17  C16 UNL     1      -3.176  49.677 -24.050  1.00  0.00     0.001 C 
HETATM   18  C17 UNL     1      -2.441  48.742 -23.063  1.00  0.00     0.008 C 
HETATM   19  C18 UNL     1      -3.239  48.755 -21.762  1.00  0.00     0.034 C 
HETATM   20  C19 UNL     1      -4.474  49.610 -22.039  1.00  0.00     0.140 C 
ENDROOT
BRANCH  20  21
HETATM   21  O2  UNL     1      -4.916  50.306 -20.870  1.00  0.00    -0.315 OA
BRANCH  21  22
HETATM   22  C20 UNL     1      -4.417  49.856 -19.685  1.00  0.00     0.259 C 
HETATM   23  O3  UNL     1      -4.727  48.806 -19.141  1.00  0.00    -0.265 OA
BRANCH  22  24
HETATM   24  C21 UNL     1      -3.430  50.855 -19.143  1.00  0.00     0.120 C 
BRANCH  24  25
HETATM   25  C22 UNL     1      -2.421  50.182 -18.223  1.00  0.00     0.112 C 
BRANCH  25  26
HETATM   26  C23 UNL     1      -1.006  50.611 -18.543  1.00  0.00     0.218 C 
HETATM   27  O4  UNL     1      -0.369  50.180 -19.497  1.00  0.00    -0.274 OA
HETATM   28  N1  UNL     1      -0.513  51.535 -17.650  1.00  0.00    -0.357 N 
HETATM   29  H32 UNL     1      -1.148  51.955 -16.983  1.00  0.00     0.162 HD
BRANCH  28  30
HETATM   30  C24 UNL     1       0.784  52.153 -17.827  1.00  0.00     0.162 C 
BRANCH  30  31
HETATM   31  C25 UNL     1       1.655  51.933 -16.626  1.00  0.00    -0.025 A 
HETATM   32  C26 UNL     1       2.940  52.480 -16.546  1.00  0.00     0.011 A 
HETATM   33  C27 UNL     1       3.713  52.268 -15.409  1.00  0.00     0.018 A 
HETATM   34  C28 UNL     1       3.173  51.514 -14.382  1.00  0.00     0.087 A 
HETATM   35  N2  UNL     1       1.937  50.971 -14.418  1.00  0.00    -0.375 N 
HETATM   36  C29 UNL     1       1.210  51.193 -15.536  1.00  0.00     0.096 A 
ATOM     37  H2  UNL     1       1.571  50.422 -13.640  1.00  0.00     0.164 HD
ENDBRANCH  30  31
ENDBRANCH  28  30
ENDBRANCH  25  26
ENDBRANCH  24  25
ENDBRANCH  22  24
ENDBRANCH  21  22
ENDBRANCH  20  21
TORSDOF 7
ENDMDL
MODEL 7
REMARK minimizedAffinity -9.02862072
REMARK  7 active torsions:
REMARK  status: ('A' for Active; 'I' for Inactive)
REMARK    1  A    between atoms: C19_20  and  O2_21 
REMARK    2  A    between atoms: O2_21  and  C20_22 
REMARK    3  A    between atoms: C20_22  and  C21_24 
REMARK    4  A    between atoms: C21_24  and  C22_25 
REMARK    5  A    between atoms: C22_25  and  C23_26 
REMARK       I    between atoms: C23_26  and  N1_28 
REMARK    6  A    between atoms: N1_28  and  C24_29 
REMARK    7  A    between atoms: C24_29  and  C25_30 
ROOT
HETATM    1  C1  UNL     1      -4.641  48.657 -20.774  1.00  0.00     0.018 C 
HETATM    2  C2  UNL     1      -3.277  49.259 -20.395  1.00  0.00    -0.013 C 
HETATM    3  C3  UNL     1      -3.357  50.797 -20.508  1.00  0.00     0.012 C 
HETATM    4  C4  UNL     1      -3.269  51.305 -21.950  1.00  0.00     0.007 C 
HETATM    5  C5  UNL     1      -1.959  50.850 -22.623  1.00  0.00     0.002 C 
HETATM    6  C6  UNL     1      -1.863  49.298 -22.612  1.00  0.00    -0.004 C 
HETATM    7  C7  UNL     1      -2.766  48.623 -23.674  1.00  0.00     0.010 C 
HETATM    8  C8  UNL     1      -3.129  49.512 -24.861  1.00  0.00     0.035 C 
HETATM    9  C9  UNL     1      -1.997  50.447 -25.166  1.00  0.00    -0.068 C 
HETATM   10  C10 UNL     1      -1.302  50.338 -26.311  1.00  0.00     0.053 C 
HETATM   11  C11 UNL     1      -0.133  51.203 -26.597  1.00  0.00     0.149 C 
HETATM   12  O1  UNL     1       0.410  51.134 -27.697  1.00  0.00    -0.293 OA
HETATM   13  C12 UNL     1       0.333  52.170 -25.535  1.00  0.00     0.084 C 
HETATM   14  C13 UNL     1      -0.137  51.754 -24.144  1.00  0.00     0.022 C 
HETATM   15  C14 UNL     1      -1.662  51.447 -24.062  1.00  0.00    -0.016 C 
HETATM   16  C15 UNL     1      -2.449  52.749 -24.329  1.00  0.00     0.020 C 
HETATM   17  C16 UNL     1      -2.095  48.682 -21.212  1.00  0.00     0.001 C 
HETATM   18  C17 UNL     1      -0.869  48.867 -20.290  1.00  0.00     0.008 C 
HETATM   19  C18 UNL     1      -1.402  48.999 -18.866  1.00  0.00     0.034 C 
HETATM   20  C19 UNL     1      -2.911  48.788 -18.963  1.00  0.00     0.140 C 
ENDROOT
BRANCH  20  21
HETATM   21  O2  UNL     1      -3.623  49.541 -17.977  1.00  0.00    -0.315 OA
BRANCH  21  22
HETATM   22  C20 UNL     1      -2.879  50.417 -17.246  1.00  0.00     0.259 C 
HETATM   23  O3  UNL     1      -2.598  51.558 -17.584  1.00  0.00    -0.265 OA
BRANCH  22  24
HETATM   24  C21 UNL     1      -2.450  49.763 -15.961  1.00  0.00     0.120 C 
BRANCH  24  25
HETATM   25  C22 UNL     1      -2.820  50.622 -14.759  1.00  0.00     0.112 C 
BRANCH  25  26
HETATM   26  C23 UNL     1      -1.598  51.015 -13.960  1.00  0.00     0.218 C 
HETATM   27  O4  UNL     1      -1.652  51.610 -12.890  1.00  0.00    -0.274 OA
HETATM   28  N1  UNL     1      -0.420  50.632 -14.561  1.00  0.00    -0.357 N 
HETATM   29  H32 UNL     1      -0.460  50.013 -15.361  1.00  0.00     0.162 HD
BRANCH  28  30
HETATM   30  C24 UNL     1       0.863  50.820 -13.918  1.00  0.00     0.162 C 
BRANCH  30  31
HETATM   31  C25 UNL     1       1.805  51.579 -14.805  1.00  0.00    -0.025 A 
HETATM   32  C26 UNL     1       3.191  51.437 -14.688  1.00  0.00     0.011 A 
HETATM   33  C27 UNL     1       4.034  52.145 -15.539  1.00  0.00     0.018 A 
HETATM   34  C28 UNL     1       3.460  52.974 -16.487  1.00  0.00     0.087 A 
HETATM   35  N2  UNL     1       2.127  53.136 -16.636  1.00  0.00    -0.375 N 
HETATM   36  C29 UNL     1       1.334  52.437 -15.793  1.00  0.00     0.096 A 
ATOM     37  H2  UNL     1       1.740  53.755 -17.347  1.00  0.00     0.164 HD
ENDBRANCH  30  31
ENDBRANCH  28  30
ENDBRANCH  25  26
ENDBRANCH  24  25
ENDBRANCH  22  24
ENDBRANCH  21  22
ENDBRANCH  20  21
TORSDOF 7
ENDMDL
MODEL 8
REMARK minimizedAffinity -8.94349861
REMARK  7 active torsions:
REMARK  status: ('A' for Active; 'I' for Inactive)
REMARK    1  A    between atoms: C19_20  and  O2_21 
REMARK    2  A    between atoms: O2_21  and  C20_22 
REMARK    3  A    between atoms: C20_22  and  C21_24 
REMARK    4  A    between atoms: C21_24  and  C22_25 
REMARK    5  A    between atoms: C22_25  and  C23_26 
REMARK       I    between atoms: C23_26  and  N1_28 
REMARK    6  A    between atoms: N1_28  and  C24_29 
REMARK    7  A    between atoms: C24_29  and  C25_30 
ROOT
HETATM    1  C1  UNL     1      -2.738  52.184 -23.749  1.00  0.00     0.018 C 
HETATM    2  C2  UNL     1      -3.179  50.806 -24.272  1.00  0.00    -0.013 C 
HETATM    3  C3  UNL     1      -4.700  50.829 -24.534  1.00  0.00     0.012 C 
HETATM    4  C4  UNL     1      -5.537  50.700 -23.259  1.00  0.00     0.007 C 
HETATM    5  C5  UNL     1      -5.208  49.396 -22.505  1.00  0.00     0.002 C 
HETATM    6  C6  UNL     1      -3.697  49.356 -22.142  1.00  0.00    -0.004 C 
HETATM    7  C7  UNL     1      -3.333  50.265 -20.941  1.00  0.00     0.010 C 
HETATM    8  C8  UNL     1      -4.496  50.576 -20.001  1.00  0.00     0.035 C 
HETATM    9  C9  UNL     1      -5.432  49.406 -19.940  1.00  0.00    -0.068 C 
HETATM   10  C10 UNL     1      -5.576  48.697 -18.808  1.00  0.00     0.053 C 
HETATM   11  C11 UNL     1      -6.439  47.494 -18.748  1.00  0.00     0.149 C 
HETATM   12  O1  UNL     1      -6.616  46.935 -17.667  1.00  0.00    -0.293 OA
HETATM   13  C12 UNL     1      -7.102  47.011 -20.015  1.00  0.00     0.084 C 
HETATM   14  C13 UNL     1      -6.381  47.518 -21.261  1.00  0.00     0.022 C 
HETATM   15  C14 UNL     1      -6.123  49.055 -21.255  1.00  0.00    -0.016 C 
HETATM   16  C15 UNL     1      -7.480  49.790 -21.305  1.00  0.00     0.020 C 
HETATM   17  C16 UNL     1      -2.770  49.632 -23.349  1.00  0.00     0.001 C 
HETATM   18  C17 UNL     1      -2.680  48.416 -24.298  1.00  0.00     0.008 C 
HETATM   19  C18 UNL     1      -2.485  48.967 -25.707  1.00  0.00     0.034 C 
HETATM   20  C19 UNL     1      -2.362  50.481 -25.551  1.00  0.00     0.140 C 
ENDROOT
BRANCH  20  21
HETATM   21  O2  UNL     1      -2.881  51.181 -26.685  1.00  0.00    -0.315 OA
BRANCH  21  22
HETATM   22  C20 UNL     1      -2.081  52.155 -27.201  1.00  0.00     0.259 C 
HETATM   23  O3  UNL     1      -2.353  53.347 -27.240  1.00  0.00    -0.265 OA
BRANCH  22  24
HETATM   24  C21 UNL     1      -0.811  51.539 -27.721  1.00  0.00     0.120 C 
BRANCH  24  25
HETATM   25  C22 UNL     1       0.187  51.306 -26.594  1.00  0.00     0.112 C 
BRANCH  25  26
HETATM   26  C23 UNL     1       0.587  52.604 -25.929  1.00  0.00     0.218 C 
HETATM   27  O4  UNL     1       0.812  53.638 -26.547  1.00  0.00    -0.274 OA
HETATM   28  N1  UNL     1       0.670  52.500 -24.559  1.00  0.00    -0.357 N 
HETATM   29  H32 UNL     1       0.322  51.661 -24.113  1.00  0.00     0.162 HD
BRANCH  28  30
HETATM   30  C24 UNL     1       0.940  53.647 -23.719  1.00  0.00     0.162 C 
BRANCH  30  31
HETATM   31  C25 UNL     1       0.798  53.299 -22.267  1.00  0.00    -0.025 A 
HETATM   32  C26 UNL     1       0.145  52.132 -21.858  1.00  0.00     0.011 A 
HETATM   33  C27 UNL     1       0.047  51.834 -20.503  1.00  0.00     0.018 A 
HETATM   34  C28 UNL     1       0.611  52.714 -19.596  1.00  0.00     0.087 A 
HETATM   35  N2  UNL     1       1.253  53.848 -19.950  1.00  0.00    -0.375 N 
HETATM   36  C29 UNL     1       1.331  54.113 -21.274  1.00  0.00     0.096 A 
ATOM     37  H2  UNL     1       1.659  54.473 -19.254  1.00  0.00     0.164 HD
ENDBRANCH  30  31
ENDBRANCH  28  30
ENDBRANCH  25  26
ENDBRANCH  24  25
ENDBRANCH  22  24
ENDBRANCH  21  22
ENDBRANCH  20  21
TORSDOF 7
ENDMDL
MODEL 9
REMARK minimizedAffinity -8.92235184
REMARK  7 active torsions:
REMARK  status: ('A' for Active; 'I' for Inactive)
REMARK    1  A    between atoms: C19_20  and  O2_21 
REMARK    2  A    between atoms: O2_21  and  C20_22 
REMARK    3  A    between atoms: C20_22  and  C21_24 
REMARK    4  A    between atoms: C21_24  and  C22_25 
REMARK    5  A    between atoms: C22_25  and  C23_26 
REMARK       I    between atoms: C23_26  and  N1_28 
REMARK    6  A    between atoms: N1_28  and  C24_29 
REMARK    7  A    between atoms: C24_29  and  C25_30 
ROOT
HETATM    1  C1  UNL     1      -1.764  51.520 -22.132  1.00  0.00     0.018 C 
HETATM    2  C2  UNL     1      -0.493  51.963 -21.386  1.00  0.00    -0.013 C 
HETATM    3  C3  UNL     1       0.316  50.711 -20.983  1.00  0.00     0.012 C 
HETATM    4  C4  UNL     1      -0.250  49.993 -19.755  1.00  0.00     0.007 C 
HETATM    5  C5  UNL     1      -0.305  50.932 -18.534  1.00  0.00     0.002 C 
HETATM    6  C6  UNL     1      -1.178  52.177 -18.856  1.00  0.00    -0.004 C 
HETATM    7  C7  UNL     1      -2.699  51.880 -18.827  1.00  0.00     0.010 C 
HETATM    8  C8  UNL     1      -3.097  50.672 -17.981  1.00  0.00     0.035 C 
HETATM    9  C9  UNL     1      -2.174  50.543 -16.807  1.00  0.00    -0.068 C 
HETATM   10  C10 UNL     1      -2.622  50.732 -15.554  1.00  0.00     0.053 C 
HETATM   11  C11 UNL     1      -1.712  50.682 -14.386  1.00  0.00     0.149 C 
HETATM   12  O1  UNL     1      -2.183  50.763 -13.253  1.00  0.00    -0.293 OA
HETATM   13  C12 UNL     1      -0.233  50.500 -14.625  1.00  0.00     0.084 C 
HETATM   14  C13 UNL     1       0.169  50.910 -16.038  1.00  0.00     0.022 C 
HETATM   15  C14 UNL     1      -0.713  50.268 -17.152  1.00  0.00    -0.016 C 
HETATM   16  C15 UNL     1      -0.490  48.741 -17.148  1.00  0.00     0.020 C 
HETATM   17  C16 UNL     1      -0.775  52.882 -20.172  1.00  0.00     0.001 C 
HETATM   18  C17 UNL     1       0.522  53.707 -20.011  1.00  0.00     0.008 C 
HETATM   19  C18 UNL     1       1.240  53.671 -21.356  1.00  0.00     0.034 C 
HETATM   20  C19 UNL     1       0.311  52.918 -22.306  1.00  0.00     0.140 C 
ENDROOT
BRANCH  20  21
HETATM   21  O2  UNL     1       1.036  52.186 -23.299  1.00  0.00    -0.315 OA
BRANCH  21  22
HETATM   22  C20 UNL     1       0.993  52.693 -24.562  1.00  0.00     0.259 C 
HETATM   23  O3  UNL     1       0.769  53.861 -24.848  1.00  0.00    -0.265 OA
BRANCH  22  24
HETATM   24  C21 UNL     1       1.259  51.594 -25.554  1.00  0.00     0.120 C 
BRANCH  24  25
HETATM   25  C22 UNL     1       1.338  52.144 -26.972  1.00  0.00     0.112 C 
BRANCH  25  26
HETATM   26  C23 UNL     1       0.027  51.978 -27.707  1.00  0.00     0.218 C 
HETATM   27  O4  UNL     1      -0.051  51.709 -28.900  1.00  0.00    -0.274 OA
HETATM   28  N1  UNL     1      -1.069  52.159 -26.893  1.00  0.00    -0.357 N 
HETATM   29  H32 UNL     1      -0.926  52.227 -25.893  1.00  0.00     0.162 HD
BRANCH  28  30
HETATM   30  C24 UNL     1      -2.419  51.949 -27.369  1.00  0.00     0.162 C 
BRANCH  30  31
HETATM   31  C25 UNL     1      -3.078  50.816 -26.640  1.00  0.00    -0.025 A 
HETATM   32  C26 UNL     1      -2.930  49.492 -27.065  1.00  0.00     0.011 A 
HETATM   33  C27 UNL     1      -3.543  48.465 -26.354  1.00  0.00     0.018 A 
HETATM   34  C28 UNL     1      -4.285  48.796 -25.234  1.00  0.00     0.087 A 
HETATM   35  N2  UNL     1      -4.449  50.060 -24.788  1.00  0.00    -0.375 N 
HETATM   36  C29 UNL     1      -3.843  51.037 -25.500  1.00  0.00     0.096 A 
ATOM     37  H2  UNL     1      -5.001  50.267 -23.956  1.00  0.00     0.164 HD
ENDBRANCH  30  31
ENDBRANCH  28  30
ENDBRANCH  25  26
ENDBRANCH  24  25
ENDBRANCH  22  24
ENDBRANCH  21  22
ENDBRANCH  20  21
TORSDOF 7
ENDMDL
