MODEL 1
REMARK minimizedAffinity -8.58467388
REMARK  5 active torsions:
REMARK  status: ('A' for Active; 'I' for Inactive)
REMARK    1  A    between atoms: C2_2  and  C4_4 
REMARK    2  A    between atoms: C7_7  and  C8_8 
REMARK    3  A    between atoms: C8_8  and  O2_10 
REMARK    4  A    between atoms: C11_13  and  C12_14 
REMARK    5  A    between atoms: C12_14  and  O4_16 
ROOT
HETATM    1  C4  UNL     1       3.417   8.506  10.210  1.00  0.00     0.019 C 
HETATM    2  C5  UNL     1       4.957   8.625  10.396  1.00  0.00     0.011 C 
HETATM    3  C6  UNL     1       5.248   8.400  11.895  1.00  0.00     0.021 C 
HETATM    4  C7  UNL     1       3.910   8.721  12.578  1.00  0.00     0.050 C 
HETATM    5  C9  UNL     1       3.722   8.194  14.016  1.00  0.00     0.022 C 
HETATM    6  C10 UNL     1       2.654   7.098  14.188  1.00  0.00     0.023 C 
HETATM    7  C11 UNL     1       1.303   7.230  13.376  1.00  0.00     0.057 C 
HETATM    8  C13 UNL     1       1.522   8.119  12.100  1.00  0.00     0.011 C 
HETATM    9  C14 UNL     1       0.379   8.004  11.099  1.00  0.00     0.007 C 
HETATM   10  C15 UNL     1      -0.979   7.822  11.799  1.00  0.00     0.006 C 
HETATM   11  C16 UNL     1      -1.054   8.497  13.199  1.00  0.00     0.003 C 
HETATM   12  C17 UNL     1      -2.550   8.698  13.783  1.00  0.00    -0.035 C 
HETATM   13  C18 UNL     1      -2.628  10.190  14.267  1.00  0.00     0.016 C 
HETATM   14  C19 UNL     1      -3.635   8.581  12.668  1.00  0.00     0.017 C 
HETATM   15  C20 UNL     1      -5.051   8.471  13.209  1.00  0.00     0.080 C 
HETATM   16  C21 UNL     1      -5.204   7.177  13.967  1.00  0.00     0.135 C 
HETATM   17  O5  UNL     1      -6.294   6.597  13.969  1.00  0.00    -0.297 OA
HETATM   18  C22 UNL     1      -3.981   6.632  14.733  1.00  0.00     0.017 C 
HETATM   19  C23 UNL     1      -4.534   6.046  16.058  1.00  0.00     0.023 C 
HETATM   20  C24 UNL     1      -3.401   5.467  13.921  1.00  0.00     0.023 C 
HETATM   21  C25 UNL     1      -2.973   7.814  15.026  1.00  0.00     0.009 C 
HETATM   22  C26 UNL     1      -1.786   7.459  15.931  1.00  0.00     0.007 C 
HETATM   23  C27 UNL     1      -0.589   6.918  15.174  1.00  0.00     0.011 C 
HETATM   24  C28 UNL     1       0.060   7.912  14.191  1.00  0.00    -0.022 C 
HETATM   25  C29 UNL     1       0.628   9.094  15.038  1.00  0.00     0.017 C 
HETATM   26  C30 UNL     1       2.959   7.995  11.590  1.00  0.00     0.018 C 
ENDROOT
BRANCH   4  27
HETATM   27  C8  UNL     1       3.872  10.257  12.678  1.00  0.00     0.149 C 
HETATM   28  O1  UNL     1       4.835  10.994  12.514  1.00  0.00    -0.649 OA
BRANCH  27  29
HETATM   29  O2  UNL     1       2.686  10.806  12.979  1.00  0.00    -0.776 OA
HETATM   30  H11 UNL     1       2.872  11.769  12.988  1.00  0.00     0.167 HD
ENDBRANCH  27  29
ENDBRANCH   4  27
BRANCH   1  31
HETATM   31  C2  UNL     1       3.093   7.708   8.957  1.00  0.00    -0.088 C 
HETATM   32  C1  UNL     1       2.731   8.237   7.778  1.00  0.00     0.014 C 
HETATM   33  C3  UNL     1       3.182   6.212   9.119  1.00  0.00     0.043 C 
ENDBRANCH   1  31
BRANCH   7  34
HETATM   34  C12 UNL     1       1.032   5.733  13.040  1.00  0.00     0.149 C 
HETATM   35  O3  UNL     1       1.263   5.174  11.978  1.00  0.00    -0.649 OA
BRANCH  34  36
HETATM   36  O4  UNL     1       0.384   5.027  13.978  1.00  0.00    -0.776 OA
HETATM   37  H16 UNL     1       0.275   4.144  13.568  1.00  0.00     0.167 HD
ENDBRANCH  34  36
ENDBRANCH   7  34
TORSDOF 5
ENDMDL
MODEL 2
REMARK minimizedAffinity -8.32549095
REMARK  5 active torsions:
REMARK  status: ('A' for Active; 'I' for Inactive)
REMARK    1  A    between atoms: C2_2  and  C4_4 
REMARK    2  A    between atoms: C7_7  and  C8_8 
REMARK    3  A    between atoms: C8_8  and  O2_10 
REMARK    4  A    between atoms: C11_13  and  C12_14 
REMARK    5  A    between atoms: C12_14  and  O4_16 
ROOT
HETATM    1  C4  UNL     1      -3.505   4.555  13.046  1.00  0.00     0.019 C 
HETATM    2  C5  UNL     1      -5.060   4.594  12.983  1.00  0.00     0.011 C 
HETATM    3  C6  UNL     1      -5.481   6.062  13.207  1.00  0.00     0.021 C 
HETATM    4  C7  UNL     1      -4.275   6.683  13.927  1.00  0.00     0.050 C 
HETATM    5  C9  UNL     1      -4.181   8.223  13.921  1.00  0.00     0.022 C 
HETATM    6  C10 UNL     1      -3.012   8.813  13.113  1.00  0.00     0.023 C 
HETATM    7  C11 UNL     1      -1.607   8.090  13.182  1.00  0.00     0.057 C 
HETATM    8  C13 UNL     1      -1.793   6.581  13.574  1.00  0.00     0.011 C 
HETATM    9  C14 UNL     1      -0.543   5.748  13.321  1.00  0.00     0.007 C 
HETATM   10  C15 UNL     1       0.743   6.551  13.580  1.00  0.00     0.006 C 
HETATM   11  C16 UNL     1       0.582   7.651  14.668  1.00  0.00     0.003 C 
HETATM   12  C17 UNL     1       1.970   8.228  15.269  1.00  0.00    -0.035 C 
HETATM   13  C18 UNL     1       1.811   8.195  16.832  1.00  0.00     0.016 C 
HETATM   14  C19 UNL     1       3.176   7.285  14.969  1.00  0.00     0.017 C 
HETATM   15  C20 UNL     1       4.527   7.918  15.253  1.00  0.00     0.080 C 
HETATM   16  C21 UNL     1       4.755   9.070  14.307  1.00  0.00     0.135 C 
HETATM   17  O5  UNL     1       5.900   9.331  13.930  1.00  0.00    -0.297 OA
HETATM   18  C22 UNL     1       3.532   9.895  13.856  1.00  0.00     0.017 C 
HETATM   19  C23 UNL     1       4.006  11.371  13.814  1.00  0.00     0.023 C 
HETATM   20  C24 UNL     1       3.191   9.479  12.419  1.00  0.00     0.023 C 
HETATM   21  C25 UNL     1       2.360   9.717  14.902  1.00  0.00     0.009 C 
HETATM   22  C26 UNL     1       1.135  10.613  14.678  1.00  0.00     0.007 C 
HETATM   23  C27 UNL     1       0.103  10.004  13.749  1.00  0.00     0.011 C 
HETATM   24  C28 UNL     1      -0.553   8.709  14.268  1.00  0.00    -0.022 C 
HETATM   25  C29 UNL     1      -1.350   9.081  15.558  1.00  0.00     0.017 C 
HETATM   26  C30 UNL     1      -3.141   6.051  13.077  1.00  0.00     0.018 C 
ENDROOT
BRANCH   4  27
HETATM   27  C8  UNL     1      -4.437   6.271  15.403  1.00  0.00     0.149 C 
HETATM   28  O1  UNL     1      -5.502   6.005  15.943  1.00  0.00    -0.649 OA
BRANCH  27  29
HETATM   29  O2  UNL     1      -3.315   6.217  16.133  1.00  0.00    -0.776 OA
HETATM   30  H11 UNL     1      -3.628   5.937  17.019  1.00  0.00     0.167 HD
ENDBRANCH  27  29
ENDBRANCH   4  27
BRANCH   1  31
HETATM   31  C2  UNL     1      -2.952   3.659  11.949  1.00  0.00    -0.088 C 
HETATM   32  C1  UNL     1      -2.133   4.061  10.965  1.00  0.00     0.014 C 
HETATM   33  C3  UNL     1      -3.413   2.225  12.011  1.00  0.00     0.043 C 
ENDBRANCH   1  31
BRANCH   7  34
HETATM   34  C12 UNL     1      -1.119   8.286  11.715  1.00  0.00     0.149 C 
HETATM   35  O3  UNL     1      -1.388   9.226  10.982  1.00  0.00    -0.649 OA
BRANCH  34  36
HETATM   36  O4  UNL     1      -0.429   7.268  11.183  1.00  0.00    -0.776 OA
HETATM   37  H16 UNL     1      -0.255   7.562  10.264  1.00  0.00     0.167 HD
ENDBRANCH  34  36
ENDBRANCH   7  34
TORSDOF 5
ENDMDL
MODEL 3
REMARK minimizedAffinity -8.27826309
REMARK  5 active torsions:
REMARK  status: ('A' for Active; 'I' for Inactive)
REMARK    1  A    between atoms: C2_2  and  C4_4 
REMARK    2  A    between atoms: C7_7  and  C8_8 
REMARK    3  A    between atoms: C8_8  and  O2_10 
REMARK    4  A    between atoms: C11_13  and  C12_14 
REMARK    5  A    between atoms: C12_14  and  O4_16 
ROOT
HETATM    1  C4  UNL     1       2.783   6.573  11.464  1.00  0.00     0.019 C 
HETATM    2  C5  UNL     1       1.237   6.718  11.571  1.00  0.00     0.011 C 
HETATM    3  C6  UNL     1       0.961   7.965  12.437  1.00  0.00     0.021 C 
HETATM    4  C7  UNL     1       2.260   8.150  13.236  1.00  0.00     0.050 C 
HETATM    5  C9  UNL     1       2.489   9.534  13.877  1.00  0.00     0.022 C 
HETATM    6  C10 UNL     1       3.654  10.353  13.291  1.00  0.00     0.023 C 
HETATM    7  C11 UNL     1       4.991   9.597  12.912  1.00  0.00     0.057 C 
HETATM    8  C13 UNL     1       4.696   8.079  12.640  1.00  0.00     0.011 C 
HETATM    9  C14 UNL     1       5.850   7.372  11.940  1.00  0.00     0.007 C 
HETATM   10  C15 UNL     1       7.215   7.916  12.394  1.00  0.00     0.006 C 
HETATM   11  C16 UNL     1       7.221   8.445  13.857  1.00  0.00     0.003 C 
HETATM   12  C17 UNL     1       8.688   8.632  14.513  1.00  0.00    -0.035 C 
HETATM   13  C18 UNL     1       8.625   7.935  15.920  1.00  0.00     0.016 C 
HETATM   14  C19 UNL     1       9.785   7.848  13.727  1.00  0.00     0.017 C 
HETATM   15  C20 UNL     1      11.202   8.224  14.126  1.00  0.00     0.080 C 
HETATM   16  C21 UNL     1      11.471   9.657  13.743  1.00  0.00     0.135 C 
HETATM   17  O5  UNL     1      12.610   9.995  13.408  1.00  0.00    -0.297 OA
HETATM   18  C22 UNL     1      10.300  10.660  13.803  1.00  0.00     0.017 C 
HETATM   19  C23 UNL     1      10.900  11.982  14.350  1.00  0.00     0.023 C 
HETATM   20  C24 UNL     1       9.836  10.924  12.366  1.00  0.00     0.023 C 
HETATM   21  C25 UNL     1       9.185  10.110  14.780  1.00  0.00     0.009 C 
HETATM   22  C26 UNL     1       8.032  11.078  15.075  1.00  0.00     0.007 C 
HETATM   23  C27 UNL     1       6.895  10.985  14.077  1.00  0.00     0.011 C 
HETATM   24  C28 UNL     1       6.161   9.630  14.054  1.00  0.00    -0.022 C 
HETATM   25  C29 UNL     1       5.481   9.450  15.449  1.00  0.00     0.017 C 
HETATM   26  C30 UNL     1       3.279   7.888  12.095  1.00  0.00     0.018 C 
ENDROOT
BRANCH   4  27
HETATM   27  C8  UNL     1       2.155   7.151  14.403  1.00  0.00     0.149 C 
HETATM   28  O1  UNL     1       2.706   7.280  15.488  1.00  0.00    -0.649 OA
BRANCH  27  29
HETATM   29  O2  UNL     1       1.406   6.060  14.189  1.00  0.00    -0.776 OA
HETATM   30  H11 UNL     1       1.464   5.569  15.036  1.00  0.00     0.167 HD
ENDBRANCH  27  29
ENDBRANCH   4  27
BRANCH   1  31
HETATM   31  C2  UNL     1       3.185   6.210  10.044  1.00  0.00    -0.088 C 
HETATM   32  C1  UNL     1       3.593   4.995   9.643  1.00  0.00     0.014 C 
HETATM   33  C3  UNL     1       3.123   7.349   9.058  1.00  0.00     0.043 C 
ENDBRANCH   1  31
BRANCH   7  34
HETATM   34  C12 UNL     1       5.402  10.381  11.630  1.00  0.00     0.149 C 
HETATM   35  O3  UNL     1       5.694  11.566  11.568  1.00  0.00    -0.649 OA
BRANCH  34  36
HETATM   36  O4  UNL     1       5.317   9.706  10.475  1.00  0.00    -0.776 OA
HETATM   37  H16 UNL     1       5.570  10.371   9.801  1.00  0.00     0.167 HD
ENDBRANCH  34  36
ENDBRANCH   7  34
TORSDOF 5
ENDMDL
MODEL 4
REMARK minimizedAffinity -8.25654507
REMARK  5 active torsions:
REMARK  status: ('A' for Active; 'I' for Inactive)
REMARK    1  A    between atoms: C2_2  and  C4_4 
REMARK    2  A    between atoms: C7_7  and  C8_8 
REMARK    3  A    between atoms: C8_8  and  O2_10 
REMARK    4  A    between atoms: C11_13  and  C12_14 
REMARK    5  A    between atoms: C12_14  and  O4_16 
ROOT
HETATM    1  C4  UNL     1      -2.018   4.553  12.568  1.00  0.00     0.019 C 
HETATM    2  C5  UNL     1      -3.556   4.672  12.773  1.00  0.00     0.011 C 
HETATM    3  C6  UNL     1      -3.862   6.165  13.019  1.00  0.00     0.021 C 
HETATM    4  C7  UNL     1      -2.521   6.738  13.500  1.00  0.00     0.050 C 
HETATM    5  C9  UNL     1      -2.356   8.270  13.430  1.00  0.00     0.022 C 
HETATM    6  C10 UNL     1      -1.318   8.780  12.413  1.00  0.00     0.023 C 
HETATM    7  C11 UNL     1       0.042   7.985  12.262  1.00  0.00     0.057 C 
HETATM    8  C13 UNL     1      -0.146   6.498  12.728  1.00  0.00     0.011 C 
HETATM    9  C14 UNL     1       1.001   5.595  12.290  1.00  0.00     0.007 C 
HETATM   10  C15 UNL     1       2.349   6.336  12.298  1.00  0.00     0.006 C 
HETATM   11  C16 UNL     1       2.432   7.467  13.362  1.00  0.00     0.003 C 
HETATM   12  C17 UNL     1       3.929   7.984  13.697  1.00  0.00    -0.035 C 
HETATM   13  C18 UNL     1       4.042   7.995  15.264  1.00  0.00     0.016 C 
HETATM   14  C19 UNL     1       5.018   6.972  13.223  1.00  0.00     0.017 C 
HETATM   15  C20 UNL     1       6.427   7.540  13.250  1.00  0.00     0.080 C 
HETATM   16  C21 UNL     1       6.541   8.657  12.243  1.00  0.00     0.135 C 
HETATM   17  O5  UNL     1       7.615   8.849  11.666  1.00  0.00    -0.297 OA
HETATM   18  C22 UNL     1       5.299   9.534  11.983  1.00  0.00     0.017 C 
HETATM   19  C23 UNL     1       5.829  10.982  11.813  1.00  0.00     0.023 C 
HETATM   20  C24 UNL     1       4.695   9.104  10.640  1.00  0.00     0.023 C 
HETATM   21  C25 UNL     1       4.320   9.441  13.221  1.00  0.00     0.009 C 
HETATM   22  C26 UNL     1       3.119  10.395  13.183  1.00  0.00     0.007 C 
HETATM   23  C27 UNL     1       1.914   9.820  12.466  1.00  0.00     0.011 C 
HETATM   24  C28 UNL     1       1.297   8.573  13.131  1.00  0.00    -0.022 C 
HETATM   25  C29 UNL     1       0.754   9.016  14.526  1.00  0.00     0.017 C 
HETATM   26  C30 UNL     1      -1.582   6.028  12.488  1.00  0.00     0.018 C 
ENDROOT
BRANCH   4  27
HETATM   27  C8  UNL     1      -2.443   6.369  14.994  1.00  0.00     0.149 C 
HETATM   28  O1  UNL     1      -3.408   6.255  15.738  1.00  0.00    -0.649 OA
BRANCH  27  29
HETATM   29  O2  UNL     1      -1.216   6.173  15.497  1.00  0.00    -0.776 OA
HETATM   30  H11 UNL     1      -1.384   5.947  16.436  1.00  0.00     0.167 HD
ENDBRANCH  27  29
ENDBRANCH   4  27
BRANCH   1  31
HETATM   31  C2  UNL     1      -1.707   3.604  11.421  1.00  0.00    -0.088 C 
HETATM   32  C1  UNL     1      -0.674   2.747  11.386  1.00  0.00     0.014 C 
HETATM   33  C3  UNL     1      -2.653   3.695  10.251  1.00  0.00     0.043 C 
ENDBRANCH   1  31
BRANCH   7  34
HETATM   34  C12 UNL     1       0.276   8.122  10.728  1.00  0.00     0.149 C 
HETATM   35  O3  UNL     1      -0.285   8.906   9.976  1.00  0.00    -0.649 OA
BRANCH  34  36
HETATM   36  O4  UNL     1       1.094   7.216  10.174  1.00  0.00    -0.776 OA
HETATM   37  H16 UNL     1       1.076   7.442   9.220  1.00  0.00     0.167 HD
ENDBRANCH  34  36
ENDBRANCH   7  34
TORSDOF 5
ENDMDL
MODEL 5
REMARK minimizedAffinity -8.08298111
REMARK  5 active torsions:
REMARK  status: ('A' for Active; 'I' for Inactive)
REMARK    1  A    between atoms: C2_2  and  C4_4 
REMARK    2  A    between atoms: C7_7  and  C8_8 
REMARK    3  A    between atoms: C8_8  and  O2_10 
REMARK    4  A    between atoms: C11_13  and  C12_14 
REMARK    5  A    between atoms: C12_14  and  O4_16 
ROOT
HETATM    1  C4  UNL     1      -2.359   5.171  13.686  1.00  0.00     0.019 C 
HETATM    2  C5  UNL     1      -3.357   4.410  12.766  1.00  0.00     0.011 C 
HETATM    3  C6  UNL     1      -4.487   5.401  12.414  1.00  0.00     0.021 C 
HETATM    4  C7  UNL     1      -4.420   6.446  13.538  1.00  0.00     0.050 C 
HETATM    5  C9  UNL     1      -5.118   7.795  13.273  1.00  0.00     0.022 C 
HETATM    6  C10 UNL     1      -4.184   9.013  13.149  1.00  0.00     0.023 C 
HETATM    7  C11 UNL     1      -2.948   9.117  14.130  1.00  0.00     0.057 C 
HETATM    8  C13 UNL     1      -2.547   7.691  14.650  1.00  0.00     0.011 C 
HETATM    9  C14 UNL     1      -1.173   7.668  15.308  1.00  0.00     0.007 C 
HETATM   10  C15 UNL     1      -0.880   8.974  16.067  1.00  0.00     0.006 C 
HETATM   11  C16 UNL     1      -2.154   9.665  16.633  1.00  0.00     0.003 C 
HETATM   12  C17 UNL     1      -1.879  10.783  17.770  1.00  0.00    -0.035 C 
HETATM   13  C18 UNL     1      -2.862  10.451  18.950  1.00  0.00     0.016 C 
HETATM   14  C19 UNL     1      -0.452  10.652  18.388  1.00  0.00     0.017 C 
HETATM   15  C20 UNL     1      -0.046  11.844  19.238  1.00  0.00     0.080 C 
HETATM   16  C21 UNL     1       0.074  13.069  18.367  1.00  0.00     0.135 C 
HETATM   17  O5  UNL     1       0.908  13.934  18.645  1.00  0.00    -0.297 OA
HETATM   18  C22 UNL     1      -0.874  13.198  17.157  1.00  0.00     0.017 C 
HETATM   19  C23 UNL     1      -1.272  14.696  17.086  1.00  0.00     0.023 C 
HETATM   20  C24 UNL     1      -0.067  12.876  15.893  1.00  0.00     0.023 C 
HETATM   21  C25 UNL     1      -2.150  12.295  17.388  1.00  0.00     0.009 C 
HETATM   22  C26 UNL     1      -3.266  12.451  16.346  1.00  0.00     0.007 C 
HETATM   23  C27 UNL     1      -3.105  11.536  15.148  1.00  0.00     0.011 C 
HETATM   24  C28 UNL     1      -3.189  10.030  15.466  1.00  0.00    -0.022 C 
HETATM   25  C29 UNL     1      -4.634   9.749  15.989  1.00  0.00     0.017 C 
HETATM   26  C30 UNL     1      -2.880   6.618  13.609  1.00  0.00     0.018 C 
ENDROOT
BRANCH   4  27
HETATM   27  C8  UNL     1      -5.168   5.805  14.723  1.00  0.00     0.149 C 
HETATM   28  O1  UNL     1      -6.119   5.042  14.621  1.00  0.00    -0.649 OA
BRANCH  27  29
HETATM   29  O2  UNL     1      -4.732   6.129  15.948  1.00  0.00    -0.776 OA
HETATM   30  H11 UNL     1      -5.323   5.623  16.546  1.00  0.00     0.167 HD
ENDBRANCH  27  29
ENDBRANCH   4  27
BRANCH   1  31
HETATM   31  C2  UNL     1      -0.925   4.855  13.290  1.00  0.00    -0.088 C 
HETATM   32  C1  UNL     1       0.167   5.271  13.950  1.00  0.00     0.014 C 
HETATM   33  C3  UNL     1      -0.782   4.028  12.038  1.00  0.00     0.043 C 
ENDBRANCH   1  31
BRANCH   7  34
HETATM   34  C12 UNL     1      -1.886   9.743  13.177  1.00  0.00     0.149 C 
HETATM   35  O3  UNL     1      -1.507   9.281  12.111  1.00  0.00    -0.649 OA
BRANCH  34  36
HETATM   36  O4  UNL     1      -1.258  10.836  13.633  1.00  0.00    -0.776 OA
HETATM   37  H16 UNL     1      -0.615  11.046  12.923  1.00  0.00     0.167 HD
ENDBRANCH  34  36
ENDBRANCH   7  34
TORSDOF 5
ENDMDL
MODEL 6
REMARK minimizedAffinity -7.92486
REMARK  5 active torsions:
REMARK  status: ('A' for Active; 'I' for Inactive)
REMARK    1  A    between atoms: C2_2  and  C4_4 
REMARK    2  A    between atoms: C7_7  and  C8_8 
REMARK    3  A    between atoms: C8_8  and  O2_10 
REMARK    4  A    between atoms: C11_13  and  C12_14 
REMARK    5  A    between atoms: C12_14  and  O4_16 
ROOT
HETATM    1  C4  UNL     1       7.132  12.126  15.426  1.00  0.00     0.019 C 
HETATM    2  C5  UNL     1       8.474  12.125  16.215  1.00  0.00     0.011 C 
HETATM    3  C6  UNL     1       9.222  10.831  15.827  1.00  0.00     0.021 C 
HETATM    4  C7  UNL     1       8.108   9.905  15.315  1.00  0.00     0.050 C 
HETATM    5  C9  UNL     1       8.548   8.700  14.458  1.00  0.00     0.022 C 
HETATM    6  C10 UNL     1       8.116   8.745  12.980  1.00  0.00     0.023 C 
HETATM    7  C11 UNL     1       6.667   9.279  12.635  1.00  0.00     0.057 C 
HETATM    8  C13 UNL     1       6.149  10.219  13.780  1.00  0.00     0.011 C 
HETATM    9  C14 UNL     1       4.933  11.038  13.365  1.00  0.00     0.007 C 
HETATM   10  C15 UNL     1       4.013  10.254  12.412  1.00  0.00     0.006 C 
HETATM   11  C16 UNL     1       4.045   8.716  12.640  1.00  0.00     0.003 C 
HETATM   12  C17 UNL     1       2.817   7.898  11.975  1.00  0.00    -0.035 C 
HETATM   13  C18 UNL     1       2.263   6.956  13.103  1.00  0.00     0.016 C 
HETATM   14  C19 UNL     1       1.621   8.833  11.610  1.00  0.00     0.017 C 
HETATM   15  C20 UNL     1       0.579   8.167  10.727  1.00  0.00     0.080 C 
HETATM   16  C21 UNL     1       1.183   7.850   9.383  1.00  0.00     0.135 C 
HETATM   17  O5  UNL     1       0.474   7.885   8.373  1.00  0.00    -0.297 OA
HETATM   18  C22 UNL     1       2.678   7.475   9.326  1.00  0.00     0.017 C 
HETATM   19  C23 UNL     1       2.793   6.345   8.269  1.00  0.00     0.023 C 
HETATM   20  C24 UNL     1       3.445   8.689   8.787  1.00  0.00     0.023 C 
HETATM   21  C25 UNL     1       3.146   6.960  10.745  1.00  0.00     0.009 C 
HETATM   22  C26 UNL     1       4.569   6.387  10.801  1.00  0.00     0.007 C 
HETATM   23  C27 UNL     1       5.631   7.435  11.074  1.00  0.00     0.011 C 
HETATM   24  C28 UNL     1       5.522   8.126  12.448  1.00  0.00    -0.022 C 
HETATM   25  C29 UNL     1       5.757   7.030  13.535  1.00  0.00     0.017 C 
HETATM   26  C30 UNL     1       7.314  10.934  14.467  1.00  0.00     0.018 C 
ENDROOT
BRANCH   4  27
HETATM   27  C8  UNL     1       7.468   9.314  16.585  1.00  0.00     0.149 C 
HETATM   28  O1  UNL     1       7.285   9.927  17.628  1.00  0.00    -0.649 OA
BRANCH  27  29
HETATM   29  O2  UNL     1       7.101   8.026  16.524  1.00  0.00    -0.776 OA
HETATM   30  H11 UNL     1       6.719   7.851  17.410  1.00  0.00     0.167 HD
ENDBRANCH  27  29
ENDBRANCH   4  27
BRANCH   1  31
HETATM   31  C2  UNL     1       6.843  13.512  14.872  1.00  0.00    -0.088 C 
HETATM   32  C1  UNL     1       6.071  14.436  15.467  1.00  0.00     0.014 C 
HETATM   33  C3  UNL     1       7.482  13.806  13.539  1.00  0.00     0.043 C 
ENDBRANCH   1  31
BRANCH   7  34
HETATM   34  C12 UNL     1       6.959  10.036  11.305  1.00  0.00     0.149 C 
HETATM   35  O3  UNL     1       6.183  10.187  10.372  1.00  0.00    -0.649 OA
BRANCH  34  36
HETATM   36  O4  UNL     1       8.217  10.464  11.134  1.00  0.00    -0.776 OA
HETATM   37  H16 UNL     1       8.205  10.866  10.241  1.00  0.00     0.167 HD
ENDBRANCH  34  36
ENDBRANCH   7  34
TORSDOF 5
ENDMDL
MODEL 7
REMARK minimizedAffinity -7.74926376
REMARK  5 active torsions:
REMARK  status: ('A' for Active; 'I' for Inactive)
REMARK    1  A    between atoms: C2_2  and  C4_4 
REMARK    2  A    between atoms: C7_7  and  C8_8 
REMARK    3  A    between atoms: C8_8  and  O2_10 
REMARK    4  A    between atoms: C11_13  and  C12_14 
REMARK    5  A    between atoms: C12_14  and  O4_16 
ROOT
HETATM    1  C4  UNL     1      -0.774   6.065  11.606  1.00  0.00     0.019 C 
HETATM    2  C5  UNL     1       0.404   5.268  10.974  1.00  0.00     0.011 C 
HETATM    3  C6  UNL     1       1.697   5.761  11.657  1.00  0.00     0.021 C 
HETATM    4  C7  UNL     1       1.318   7.146  12.202  1.00  0.00     0.050 C 
HETATM    5  C9  UNL     1       2.231   7.735  13.297  1.00  0.00     0.022 C 
HETATM    6  C10 UNL     1       1.591   7.873  14.691  1.00  0.00     0.023 C 
HETATM    7  C11 UNL     1       0.089   8.359  14.786  1.00  0.00     0.057 C 
HETATM    8  C13 UNL     1      -0.668   8.044  13.447  1.00  0.00     0.011 C 
HETATM    9  C14 UNL     1      -2.181   8.158  13.584  1.00  0.00     0.007 C 
HETATM   10  C15 UNL     1      -2.584   9.279  14.557  1.00  0.00     0.006 C 
HETATM   11  C16 UNL     1      -1.570  10.458  14.604  1.00  0.00     0.003 C 
HETATM   12  C17 UNL     1      -2.135  11.821  15.270  1.00  0.00    -0.035 C 
HETATM   13  C18 UNL     1      -1.764  12.976  14.271  1.00  0.00     0.016 C 
HETATM   14  C19 UNL     1      -3.694  11.837  15.339  1.00  0.00     0.017 C 
HETATM   15  C20 UNL     1      -4.250  12.950  16.211  1.00  0.00     0.080 C 
HETATM   16  C21 UNL     1      -3.850  12.718  17.646  1.00  0.00     0.135 C 
HETATM   17  O5  UNL     1      -4.606  13.072  18.554  1.00  0.00    -0.297 OA
HETATM   18  C22 UNL     1      -2.486  12.053  17.923  1.00  0.00     0.017 C 
HETATM   19  C23 UNL     1      -1.904  12.777  19.166  1.00  0.00     0.023 C 
HETATM   20  C24 UNL     1      -2.748  10.595  18.319  1.00  0.00     0.023 C 
HETATM   21  C25 UNL     1      -1.540  12.249  16.672  1.00  0.00     0.009 C 
HETATM   22  C26 UNL     1      -0.088  11.790  16.864  1.00  0.00     0.007 C 
HETATM   23  C27 UNL     1       0.132  10.328  16.526  1.00  0.00     0.011 C 
HETATM   24  C28 UNL     1      -0.114   9.960  15.050  1.00  0.00    -0.022 C 
HETATM   25  C29 UNL     1       0.946  10.729  14.199  1.00  0.00     0.017 C 
HETATM   26  C30 UNL     1      -0.085   6.800  12.771  1.00  0.00     0.018 C 
ENDROOT
BRANCH   4  27
HETATM   27  C8  UNL     1       1.433   8.095  10.995  1.00  0.00     0.149 C 
HETATM   28  O1  UNL     1       0.564   8.877  10.632  1.00  0.00    -0.649 OA
BRANCH  27  29
HETATM   29  O2  UNL     1       2.576   8.036  10.297  1.00  0.00    -0.776 OA
HETATM   30  H11 UNL     1       2.453   8.706   9.592  1.00  0.00     0.167 HD
ENDBRANCH  27  29
ENDBRANCH   4  27
BRANCH   1  31
HETATM   31  C2  UNL     1      -1.953   5.144  11.878  1.00  0.00    -0.088 C 
HETATM   32  C1  UNL     1      -2.848   5.308  12.865  1.00  0.00     0.014 C 
HETATM   33  C3  UNL     1      -2.059   3.962  10.948  1.00  0.00     0.043 C 
ENDBRANCH   1  31
BRANCH   7  34
HETATM   34  C12 UNL     1      -0.407   7.500  15.987  1.00  0.00     0.149 C 
HETATM   35  O3  UNL     1      -1.508   7.560  16.516  1.00  0.00    -0.649 OA
BRANCH  34  36
HETATM   36  O4  UNL     1       0.505   6.699  16.555  1.00  0.00    -0.776 OA
HETATM   37  H16 UNL     1       0.019   6.287  17.299  1.00  0.00     0.167 HD
ENDBRANCH  34  36
ENDBRANCH   7  34
TORSDOF 5
ENDMDL
MODEL 8
REMARK minimizedAffinity -7.55356169
REMARK  5 active torsions:
REMARK  status: ('A' for Active; 'I' for Inactive)
REMARK    1  A    between atoms: C2_2  and  C4_4 
REMARK    2  A    between atoms: C7_7  and  C8_8 
REMARK    3  A    between atoms: C8_8  and  O2_10 
REMARK    4  A    between atoms: C11_13  and  C12_14 
REMARK    5  A    between atoms: C12_14  and  O4_16 
ROOT
HETATM    1  C4  UNL     1       4.533   8.324  10.885  1.00  0.00     0.019 C 
HETATM    2  C5  UNL     1       6.066   8.092  10.758  1.00  0.00     0.011 C 
HETATM    3  C6  UNL     1       6.668   8.284  12.166  1.00  0.00     0.021 C 
HETATM    4  C7  UNL     1       5.623   9.139  12.897  1.00  0.00     0.050 C 
HETATM    5  C9  UNL     1       5.699   9.161  14.438  1.00  0.00     0.022 C 
HETATM    6  C10 UNL     1       4.520   8.492  15.170  1.00  0.00     0.023 C 
HETATM    7  C11 UNL     1       3.060   8.708  14.601  1.00  0.00     0.057 C 
HETATM    8  C13 UNL     1       3.121   9.060  13.072  1.00  0.00     0.011 C 
HETATM    9  C14 UNL     1       1.767   8.937  12.385  1.00  0.00     0.007 C 
HETATM   10  C15 UNL     1       0.613   9.345  13.317  1.00  0.00     0.006 C 
HETATM   11  C16 UNL     1       1.010  10.421  14.367  1.00  0.00     0.003 C 
HETATM   12  C17 UNL     1      -0.232  11.178  15.077  1.00  0.00    -0.035 C 
HETATM   13  C18 UNL     1       0.090  12.713  14.990  1.00  0.00     0.016 C 
HETATM   14  C19 UNL     1      -1.560  11.001  14.276  1.00  0.00     0.017 C 
HETATM   15  C20 UNL     1      -2.795  11.440  15.046  1.00  0.00     0.080 C 
HETATM   16  C21 UNL     1      -2.995  10.537  16.237  1.00  0.00     0.135 C 
HETATM   17  O5  UNL     1      -4.139  10.292  16.629  1.00  0.00    -0.297 OA
HETATM   18  C22 UNL     1      -1.745   9.963  16.935  1.00  0.00     0.017 C 
HETATM   19  C23 UNL     1      -2.056   9.990  18.455  1.00  0.00     0.023 C 
HETATM   20  C24 UNL     1      -1.610   8.493  16.518  1.00  0.00     0.023 C 
HETATM   21  C25 UNL     1      -0.494  10.872  16.607  1.00  0.00     0.009 C 
HETATM   22  C26 UNL     1       0.791  10.525  17.370  1.00  0.00     0.007 C 
HETATM   23  C27 UNL     1       1.643   9.481  16.675  1.00  0.00     0.011 C 
HETATM   24  C28 UNL     1       2.204   9.911  15.305  1.00  0.00    -0.022 C 
HETATM   25  C29 UNL     1       3.173  11.109  15.558  1.00  0.00     0.017 C 
HETATM   26  C30 UNL     1       4.340   8.412  12.412  1.00  0.00     0.018 C 
ENDROOT
BRANCH   4  27
HETATM   27  C8  UNL     1       5.897  10.583  12.436  1.00  0.00     0.149 C 
HETATM   28  O1  UNL     1       6.279  11.490  13.164  1.00  0.00    -0.649 OA
BRANCH  27  29
HETATM   29  O2  UNL     1       5.685  10.845  11.139  1.00  0.00    -0.776 OA
HETATM   30  H11 UNL     1       5.917  11.794  11.053  1.00  0.00     0.167 HD
ENDBRANCH  27  29
ENDBRANCH   4  27
BRANCH   1  31
HETATM   31  C2  UNL     1       3.769   7.285  10.080  1.00  0.00    -0.088 C 
HETATM   32  C1  UNL     1       3.701   5.977  10.376  1.00  0.00     0.014 C 
HETATM   33  C3  UNL     1       3.073   7.821   8.855  1.00  0.00     0.043 C 
ENDBRANCH   1  31
BRANCH   7  34
HETATM   34  C12 UNL     1       2.441   7.306  14.883  1.00  0.00     0.149 C 
HETATM   35  O3  UNL     1       1.342   6.912  14.519  1.00  0.00    -0.649 OA
BRANCH  34  36
HETATM   36  O4  UNL     1       3.145   6.504  15.694  1.00  0.00    -0.776 OA
HETATM   37  H16 UNL     1       2.580   5.707  15.778  1.00  0.00     0.167 HD
ENDBRANCH  34  36
ENDBRANCH   7  34
TORSDOF 5
ENDMDL
MODEL 9
REMARK minimizedAffinity -7.54963493
REMARK  5 active torsions:
REMARK  status: ('A' for Active; 'I' for Inactive)
REMARK    1  A    between atoms: C2_2  and  C4_4 
REMARK    2  A    between atoms: C7_7  and  C8_8 
REMARK    3  A    between atoms: C8_8  and  O2_10 
REMARK    4  A    between atoms: C11_13  and  C12_14 
REMARK    5  A    between atoms: C12_14  and  O4_16 
ROOT
HETATM    1  C4  UNL     1      -3.429   6.776  13.313  1.00  0.00     0.019 C 
HETATM    2  C5  UNL     1      -2.422   5.746  12.722  1.00  0.00     0.011 C 
HETATM    3  C6  UNL     1      -1.009   6.218  13.126  1.00  0.00     0.021 C 
HETATM    4  C7  UNL     1      -1.191   7.715  13.414  1.00  0.00     0.050 C 
HETATM    5  C9  UNL     1      -0.086   8.401  14.244  1.00  0.00     0.022 C 
HETATM    6  C10 UNL     1      -0.509   8.878  15.645  1.00  0.00     0.023 C 
HETATM    7  C11 UNL     1      -1.937   9.536  15.818  1.00  0.00     0.057 C 
HETATM    8  C13 UNL     1      -2.899   9.051  14.676  1.00  0.00     0.011 C 
HETATM    9  C14 UNL     1      -4.362   9.356  14.969  1.00  0.00     0.007 C 
HETATM   10  C15 UNL     1      -4.529  10.683  15.729  1.00  0.00     0.006 C 
HETATM   11  C16 UNL     1      -3.424  11.729  15.408  1.00  0.00     0.003 C 
HETATM   12  C17 UNL     1      -3.773  13.250  15.839  1.00  0.00    -0.035 C 
HETATM   13  C18 UNL     1      -3.452  14.140  14.585  1.00  0.00     0.016 C 
HETATM   14  C19 UNL     1      -5.300  13.451  16.092  1.00  0.00     0.017 C 
HETATM   15  C20 UNL     1      -5.633  14.767  16.775  1.00  0.00     0.080 C 
HETATM   16  C21 UNL     1      -5.055  14.775  18.167  1.00  0.00     0.135 C 
HETATM   17  O5  UNL     1      -5.644  15.381  19.067  1.00  0.00    -0.297 OA
HETATM   18  C22 UNL     1      -3.726  14.031  18.409  1.00  0.00     0.017 C 
HETATM   19  C23 UNL     1      -2.916  14.914  19.394  1.00  0.00     0.023 C 
HETATM   20  C24 UNL     1      -4.050  12.716  19.128  1.00  0.00     0.023 C 
HETATM   21  C25 UNL     1      -2.953  13.874  17.039  1.00  0.00     0.009 C 
HETATM   22  C26 UNL     1      -1.532  13.304  17.145  1.00  0.00     0.007 C 
HETATM   23  C27 UNL     1      -1.484  11.789  17.094  1.00  0.00     0.011 C 
HETATM   24  C28 UNL     1      -1.967  11.170  15.767  1.00  0.00    -0.022 C 
HETATM   25  C29 UNL     1      -0.976  11.637  14.653  1.00  0.00     0.017 C 
HETATM   26  C30 UNL     1      -2.523   7.643  14.208  1.00  0.00     0.018 C 
ENDROOT
BRANCH   4  27
HETATM   27  C8  UNL     1      -1.168   8.392  12.030  1.00  0.00     0.149 C 
HETATM   28  O1  UNL     1      -1.896   9.315  11.690  1.00  0.00    -0.649 OA
BRANCH  27  29
HETATM   29  O2  UNL     1      -0.283   7.912  11.146  1.00  0.00    -0.776 OA
HETATM   30  H11 UNL     1      -0.422   8.470  10.352  1.00  0.00     0.167 HD
ENDBRANCH  27  29
ENDBRANCH   4  27
BRANCH   1  31
HETATM   31  C2  UNL     1      -4.630   6.062  13.910  1.00  0.00    -0.088 C 
HETATM   32  C1  UNL     1      -5.039   6.173  15.184  1.00  0.00     0.014 C 
HETATM   33  C3  UNL     1      -5.365   5.154  12.957  1.00  0.00     0.043 C 
ENDBRANCH   1  31
BRANCH   7  34
HETATM   34  C12 UNL     1      -2.329   8.987  17.223  1.00  0.00     0.149 C 
HETATM   35  O3  UNL     1      -2.462   9.643  18.246  1.00  0.00    -0.649 OA
BRANCH  34  36
HETATM   36  O4  UNL     1      -2.420   7.654  17.330  1.00  0.00    -0.776 OA
HETATM   37  H16 UNL     1      -2.629   7.512  18.277  1.00  0.00     0.167 HD
ENDBRANCH  34  36
ENDBRANCH   7  34
TORSDOF 5
ENDMDL
