MODEL 1
REMARK minimizedAffinity -8.7217083
REMARK  4 active torsions:
REMARK  status: ('A' for Active; 'I' for Inactive)
REMARK    1  A    between atoms: O1_2  and  C2_3 
REMARK    2  A    between atoms: C6_9  and  C7_10 
REMARK       I    between atoms: C7_10  and  N2_12 
REMARK    3  A    between atoms: C23_29  and  O3_30 
REMARK    4  A    between atoms: C26_33  and  O4_34 
ROOT
HETATM    1  C7  UNL     1      13.385  36.165  16.837  1.00  0.00     0.258 C 
HETATM    2  O2  UNL     1      12.968  36.472  15.722  1.00  0.00    -0.267 OA
HETATM    3  N2  UNL     1      14.728  35.904  17.107  1.00  0.00    -0.339 N 
HETATM    4  C8  UNL     1      15.215  35.237  18.322  1.00  0.00     0.127 C 
HETATM    5  C9  UNL     1      16.091  34.045  17.966  1.00  0.00     0.024 C 
HETATM    6  C10 UNL     1      17.343  34.476  17.209  1.00  0.00     0.037 C 
HETATM    7  C11 UNL     1      17.153  35.763  16.453  1.00  0.00    -0.060 C 
HETATM    8  C12 UNL     1      18.193  36.643  16.258  1.00  0.00    -0.015 C 
HETATM    9  C13 UNL     1      18.077  37.940  15.382  1.00  0.00     0.031 C 
HETATM   10  C14 UNL     1      16.877  37.658  14.526  1.00  0.00     0.019 C 
HETATM   11  C15 UNL     1      15.824  37.585  15.644  1.00  0.00     0.031 C 
HETATM   12  C16 UNL     1      15.176  38.935  15.666  1.00  0.00     0.124 C 
HETATM   13  N3  UNL     1      16.303  39.872  16.038  1.00  0.00    -0.407 N 
HETATM   14  C17 UNL     1      16.135  41.228  15.537  1.00  0.00     0.117 C 
HETATM   15  C18 UNL     1      16.869  41.455  14.220  1.00  0.00     0.019 C 
HETATM   16  C19 UNL     1      18.332  41.008  14.259  1.00  0.00     0.004 C 
HETATM   17  C20 UNL     1      18.732  40.430  15.613  1.00  0.00     0.026 C 
HETATM   18  C21 UNL     1      17.743  39.352  16.098  1.00  0.00     0.086 C 
HETATM   19  C22 UNL     1      15.671  36.118  16.005  1.00  0.00     0.122 C 
ENDROOT
BRANCH   1  20
HETATM   20  C6  UNL     1      12.418  36.142  17.940  1.00  0.00     0.081 A 
HETATM   21  C5  UNL     1      12.893  36.290  19.229  1.00  0.00     0.108 A 
HETATM   22  N1  UNL     1      12.100  36.289  20.327  1.00  0.00    -0.364 N 
HETATM   23  C4  UNL     1      10.778  36.095  20.156  1.00  0.00     0.048 A 
ATOM     24  H1  UNL     1      12.493  36.430  21.257  1.00  0.00     0.165 HD
HETATM   25  C3  UNL     1       9.959  36.081  21.276  1.00  0.00     0.070 A 
HETATM   26  C24 UNL     1      10.196  35.903  18.886  1.00  0.00     0.028 A 
HETATM   27  C2  UNL     1       8.577  35.874  21.181  1.00  0.00     0.103 A 
HETATM   28  C26 UNL     1       7.991  35.674  19.920  1.00  0.00     0.102 A 
HETATM   29  C25 UNL     1       8.803  35.694  18.784  1.00  0.00     0.056 A 
HETATM   30  C23 UNL     1      11.052  35.927  17.766  1.00  0.00     0.095 A 
BRANCH  27  31
HETATM   31  O1  UNL     1       7.722  35.837  22.255  1.00  0.00    -0.353 OA
HETATM   32  C1  UNL     1       8.043  34.956  23.323  1.00  0.00     0.210 C 
ENDBRANCH  27  31
BRANCH  28  33
HETATM   33  O4  UNL     1       6.634  35.480  19.903  1.00  0.00    -0.353 OA
HETATM   34  C27 UNL     1       6.161  34.141  19.822  1.00  0.00     0.210 C 
ENDBRANCH  28  33
BRANCH  30  35
HETATM   35  O3  UNL     1      10.492  35.725  16.525  1.00  0.00    -0.359 OA
HETATM   36  H29 UNL     1      11.184  35.700  15.838  1.00  0.00     0.217 HD
ENDBRANCH  30  35
ENDBRANCH   1  20
TORSDOF 4
ENDMDL
MODEL 2
REMARK minimizedAffinity -8.46990776
REMARK  4 active torsions:
REMARK  status: ('A' for Active; 'I' for Inactive)
REMARK    1  A    between atoms: O1_2  and  C2_3 
REMARK    2  A    between atoms: C6_9  and  C7_10 
REMARK       I    between atoms: C7_10  and  N2_12 
REMARK    3  A    between atoms: C23_29  and  O3_30 
REMARK    4  A    between atoms: C26_33  and  O4_34 
ROOT
HETATM    1  C7  UNL     1      15.190  36.106  16.967  1.00  0.00     0.258 C 
HETATM    2  O2  UNL     1      15.943  35.170  17.227  1.00  0.00    -0.267 OA
HETATM    3  N2  UNL     1      15.612  37.277  16.339  1.00  0.00    -0.339 N 
HETATM    4  C8  UNL     1      14.834  38.523  16.297  1.00  0.00     0.127 C 
HETATM    5  C9  UNL     1      15.662  39.690  16.814  1.00  0.00     0.024 C 
HETATM    6  C10 UNL     1      16.883  39.943  15.935  1.00  0.00     0.037 C 
HETATM    7  C11 UNL     1      17.346  38.709  15.211  1.00  0.00    -0.060 C 
HETATM    8  C12 UNL     1      17.936  38.781  13.969  1.00  0.00    -0.015 C 
HETATM    9  C13 UNL     1      18.539  37.539  13.223  1.00  0.00     0.031 C 
HETATM   10  C14 UNL     1      18.744  36.550  14.334  1.00  0.00     0.019 C 
HETATM   11  C15 UNL     1      17.271  36.362  14.733  1.00  0.00     0.031 C 
HETATM   12  C16 UNL     1      16.830  35.110  14.041  1.00  0.00     0.124 C 
HETATM   13  N3  UNL     1      16.960  35.443  12.571  1.00  0.00    -0.407 N 
HETATM   14  C17 UNL     1      17.204  34.289  11.721  1.00  0.00     0.117 C 
HETATM   15  C18 UNL     1      18.688  34.086  11.430  1.00  0.00     0.019 C 
HETATM   16  C19 UNL     1      19.384  35.353  10.932  1.00  0.00     0.004 C 
HETATM   17  C20 UNL     1      18.436  36.545  10.840  1.00  0.00     0.026 C 
HETATM   18  C21 UNL     1      17.633  36.750  12.139  1.00  0.00     0.086 C 
HETATM   19  C22 UNL     1      17.007  37.312  15.887  1.00  0.00     0.122 C 
ENDROOT
BRANCH   1  20
HETATM   20  C6  UNL     1      13.767  35.938  17.281  1.00  0.00     0.081 A 
HETATM   21  C5  UNL     1      12.841  36.232  16.298  1.00  0.00     0.108 A 
HETATM   22  N1  UNL     1      11.503  36.114  16.467  1.00  0.00    -0.364 N 
HETATM   23  C4  UNL     1      11.046  35.723  17.673  1.00  0.00     0.048 A 
ATOM     24  H1  UNL     1      10.858  36.316  15.703  1.00  0.00     0.165 HD
HETATM   25  C3  UNL     1       9.675  35.610  17.858  1.00  0.00     0.070 A 
HETATM   26  C24 UNL     1      11.905  35.428  18.752  1.00  0.00     0.028 A 
HETATM   27  C2  UNL     1       9.123  35.220  19.086  1.00  0.00     0.103 A 
HETATM   28  C26 UNL     1       9.972  34.933  20.167  1.00  0.00     0.102 A 
HETATM   29  C25 UNL     1      11.354  35.035  19.991  1.00  0.00     0.056 A 
HETATM   30  C23 UNL     1      13.293  35.548  18.532  1.00  0.00     0.095 A 
BRANCH  27  31
HETATM   31  O1  UNL     1       7.777  35.105  19.329  1.00  0.00    -0.353 OA
HETATM   32  C1  UNL     1       6.967  36.253  19.113  1.00  0.00     0.210 C 
ENDBRANCH  27  31
BRANCH  28  33
HETATM   33  O4  UNL     1       9.362  34.556  21.336  1.00  0.00    -0.353 OA
HETATM   34  C27 UNL     1      10.158  34.528  22.514  1.00  0.00     0.210 C 
ENDBRANCH  28  33
BRANCH  30  35
HETATM   35  O3  UNL     1      14.135  35.276  19.586  1.00  0.00    -0.359 OA
HETATM   36  H29 UNL     1      15.061  35.452  19.336  1.00  0.00     0.217 HD
ENDBRANCH  30  35
ENDBRANCH   1  20
TORSDOF 4
ENDMDL
MODEL 3
REMARK minimizedAffinity -8.26723671
REMARK  4 active torsions:
REMARK  status: ('A' for Active; 'I' for Inactive)
REMARK    1  A    between atoms: O1_2  and  C2_3 
REMARK    2  A    between atoms: C6_9  and  C7_10 
REMARK       I    between atoms: C7_10  and  N2_12 
REMARK    3  A    between atoms: C23_29  and  O3_30 
REMARK    4  A    between atoms: C26_33  and  O4_34 
ROOT
HETATM    1  C7  UNL     1      14.993  36.431  17.958  1.00  0.00     0.258 C 
HETATM    2  O2  UNL     1      14.522  37.531  17.676  1.00  0.00    -0.267 OA
HETATM    3  N2  UNL     1      14.697  35.750  19.138  1.00  0.00    -0.339 N 
HETATM    4  C8  UNL     1      15.465  34.608  19.653  1.00  0.00     0.127 C 
HETATM    5  C9  UNL     1      15.906  34.860  21.087  1.00  0.00     0.024 C 
HETATM    6  C10 UNL     1      14.711  35.001  22.024  1.00  0.00     0.037 C 
HETATM    7  C11 UNL     1      13.474  35.489  21.321  1.00  0.00    -0.060 C 
HETATM    8  C12 UNL     1      12.217  35.103  21.727  1.00  0.00    -0.015 C 
HETATM    9  C13 UNL     1      10.893  35.671  21.103  1.00  0.00     0.031 C 
HETATM   10  C14 UNL     1      11.351  36.945  20.453  1.00  0.00     0.019 C 
HETATM   11  C15 UNL     1      12.298  36.328  19.410  1.00  0.00     0.031 C 
HETATM   12  C16 UNL     1      11.503  36.264  18.143  1.00  0.00     0.124 C 
HETATM   13  N3  UNL     1      10.367  35.321  18.474  1.00  0.00    -0.407 N 
HETATM   14  C17 UNL     1       9.158  35.554  17.700  1.00  0.00     0.117 C 
HETATM   15  C18 UNL     1       8.157  36.436  18.440  1.00  0.00     0.019 C 
HETATM   16  C19 UNL     1       7.872  35.960  19.866  1.00  0.00     0.004 C 
HETATM   17  C20 UNL     1       8.659  34.706  20.233  1.00  0.00     0.026 C 
HETATM   18  C21 UNL     1      10.160  34.849  19.918  1.00  0.00     0.086 C 
HETATM   19  C22 UNL     1      13.691  36.362  20.012  1.00  0.00     0.122 C 
ENDROOT
BRANCH   1  20
HETATM   20  C6  UNL     1      15.855  35.787  16.960  1.00  0.00     0.081 A 
HETATM   21  C5  UNL     1      16.798  34.877  17.401  1.00  0.00     0.108 A 
HETATM   22  N1  UNL     1      17.647  34.217  16.578  1.00  0.00    -0.364 N 
HETATM   23  C4  UNL     1      17.595  34.490  15.260  1.00  0.00     0.048 A 
ATOM     24  H1  UNL     1      18.308  33.533  16.945  1.00  0.00     0.165 HD
HETATM   25  C3  UNL     1      18.470  33.827  14.410  1.00  0.00     0.070 A 
HETATM   26  C24 UNL     1      16.692  35.424  14.712  1.00  0.00     0.028 A 
HETATM   27  C2  UNL     1      18.485  34.065  13.029  1.00  0.00     0.103 A 
HETATM   28  C26 UNL     1      17.594  35.000  12.477  1.00  0.00     0.102 A 
HETATM   29  C25 UNL     1      16.703  35.668  13.321  1.00  0.00     0.056 A 
HETATM   30  C23 UNL     1      15.813  36.079  15.598  1.00  0.00     0.095 A 
BRANCH  27  31
HETATM   31  O1  UNL     1      19.336  33.449  12.145  1.00  0.00    -0.353 OA
HETATM   32  C1  UNL     1      19.167  32.055  11.929  1.00  0.00     0.210 C 
ENDBRANCH  27  31
BRANCH  28  33
HETATM   33  O4  UNL     1      17.663  35.180  11.120  1.00  0.00    -0.353 OA
HETATM   34  C27 UNL     1      17.887  36.499  10.641  1.00  0.00     0.210 C 
ENDBRANCH  28  33
BRANCH  30  35
HETATM   35  O3  UNL     1      14.939  37.003  15.072  1.00  0.00    -0.359 OA
HETATM   36  H29 UNL     1      14.429  37.433  15.782  1.00  0.00     0.217 HD
ENDBRANCH  30  35
ENDBRANCH   1  20
TORSDOF 4
ENDMDL
MODEL 4
REMARK minimizedAffinity -8.22405148
REMARK  4 active torsions:
REMARK  status: ('A' for Active; 'I' for Inactive)
REMARK    1  A    between atoms: O1_2  and  C2_3 
REMARK    2  A    between atoms: C6_9  and  C7_10 
REMARK       I    between atoms: C7_10  and  N2_12 
REMARK    3  A    between atoms: C23_29  and  O3_30 
REMARK    4  A    between atoms: C26_33  and  O4_34 
ROOT
HETATM    1  C7  UNL     1      14.751  36.444  17.226  1.00  0.00     0.258 C 
HETATM    2  O2  UNL     1      14.301  37.587  17.269  1.00  0.00    -0.267 OA
HETATM    3  N2  UNL     1      14.653  35.541  18.284  1.00  0.00    -0.339 N 
HETATM    4  C8  UNL     1      15.437  34.303  18.394  1.00  0.00     0.127 C 
HETATM    5  C9  UNL     1      16.166  34.246  19.728  1.00  0.00     0.024 C 
HETATM    6  C10 UNL     1      15.189  34.214  20.899  1.00  0.00     0.037 C 
HETATM    7  C11 UNL     1      13.869  34.859  20.575  1.00  0.00    -0.060 C 
HETATM    8  C12 UNL     1      12.696  34.422  21.146  1.00  0.00    -0.015 C 
HETATM    9  C13 UNL     1      11.312  35.131  20.931  1.00  0.00     0.031 C 
HETATM   10  C14 UNL     1      11.709  36.503  20.466  1.00  0.00     0.019 C 
HETATM   11  C15 UNL     1      12.393  36.096  19.150  1.00  0.00     0.031 C 
HETATM   12  C16 UNL     1      11.361  36.309  18.086  1.00  0.00     0.124 C 
HETATM   13  N3  UNL     1      10.259  35.340  18.450  1.00  0.00    -0.407 N 
HETATM   14  C17 UNL     1       8.937  35.750  18.002  1.00  0.00     0.117 C 
HETATM   15  C18 UNL     1       8.156  36.479  19.091  1.00  0.00     0.019 C 
HETATM   16  C19 UNL     1       8.129  35.725  20.422  1.00  0.00     0.004 C 
HETATM   17  C20 UNL     1       8.896  34.408  20.364  1.00  0.00     0.026 C 
HETATM   18  C21 UNL     1      10.312  34.585  19.782  1.00  0.00     0.086 C 
HETATM   19  C22 UNL     1      13.877  35.979  19.449  1.00  0.00     0.122 C 
ENDROOT
BRANCH   1  20
HETATM   20  C6  UNL     1      15.360  36.003  15.966  1.00  0.00     0.081 A 
HETATM   21  C5  UNL     1      14.529  35.513  14.975  1.00  0.00     0.108 A 
HETATM   22  N1  UNL     1      14.972  35.080  13.771  1.00  0.00    -0.364 N 
HETATM   23  C4  UNL     1      16.299  35.092  13.539  1.00  0.00     0.048 A 
ATOM     24  H1  UNL     1      14.319  34.753  13.059  1.00  0.00     0.165 HD
HETATM   25  C3  UNL     1      16.762  34.639  12.311  1.00  0.00     0.070 A 
HETATM   26  C24 UNL     1      17.233  35.542  14.494  1.00  0.00     0.028 A 
HETATM   27  C2  UNL     1      18.127  34.610  11.999  1.00  0.00     0.103 A 
HETATM   28  C26 UNL     1      19.064  35.049  12.949  1.00  0.00     0.102 A 
HETATM   29  C25 UNL     1      18.611  35.515  14.185  1.00  0.00     0.056 A 
HETATM   30  C23 UNL     1      16.733  36.001  15.730  1.00  0.00     0.095 A 
BRANCH  27  31
HETATM   31  O1  UNL     1      18.641  34.160  10.808  1.00  0.00    -0.353 OA
HETATM   32  C1  UNL     1      18.480  32.783  10.498  1.00  0.00     0.210 C 
ENDBRANCH  27  31
BRANCH  28  33
HETATM   33  O4  UNL     1      20.382  34.994  12.574  1.00  0.00    -0.353 OA
HETATM   34  C27 UNL     1      21.276  34.278  13.415  1.00  0.00     0.210 C 
ENDBRANCH  28  33
BRANCH  30  35
HETATM   35  O3  UNL     1      17.641  36.428  16.672  1.00  0.00    -0.359 OA
HETATM   36  H29 UNL     1      17.187  36.660  17.503  1.00  0.00     0.217 HD
ENDBRANCH  30  35
ENDBRANCH   1  20
TORSDOF 4
ENDMDL
MODEL 5
REMARK minimizedAffinity -8.08204556
REMARK  4 active torsions:
REMARK  status: ('A' for Active; 'I' for Inactive)
REMARK    1  A    between atoms: O1_2  and  C2_3 
REMARK    2  A    between atoms: C6_9  and  C7_10 
REMARK       I    between atoms: C7_10  and  N2_12 
REMARK    3  A    between atoms: C23_29  and  O3_30 
REMARK    4  A    between atoms: C26_33  and  O4_34 
ROOT
HETATM    1  C7  UNL     1      16.317  35.036  17.749  1.00  0.00     0.258 C 
HETATM    2  O2  UNL     1      16.923  34.001  17.482  1.00  0.00    -0.267 OA
HETATM    3  N2  UNL     1      16.792  36.307  17.429  1.00  0.00    -0.339 N 
HETATM    4  C8  UNL     1      16.269  37.556  17.998  1.00  0.00     0.127 C 
HETATM    5  C9  UNL     1      17.393  38.383  18.604  1.00  0.00     0.024 C 
HETATM    6  C10 UNL     1      18.406  38.810  17.547  1.00  0.00     0.037 C 
HETATM    7  C11 UNL     1      18.456  37.871  16.374  1.00  0.00    -0.060 C 
HETATM    8  C12 UNL     1      18.750  38.318  15.105  1.00  0.00    -0.015 C 
HETATM    9  C13 UNL     1      18.928  37.365  13.870  1.00  0.00     0.031 C 
HETATM   10  C14 UNL     1      19.196  36.034  14.512  1.00  0.00     0.019 C 
HETATM   11  C15 UNL     1      17.843  35.860  15.224  1.00  0.00     0.031 C 
HETATM   12  C16 UNL     1      17.033  34.979  14.324  1.00  0.00     0.124 C 
HETATM   13  N3  UNL     1      16.883  35.793  13.058  1.00  0.00    -0.407 N 
HETATM   14  C17 UNL     1      16.710  34.993  11.856  1.00  0.00     0.117 C 
HETATM   15  C18 UNL     1      18.025  34.764  11.117  1.00  0.00     0.019 C 
HETATM   16  C19 UNL     1      18.811  36.053  10.870  1.00  0.00     0.004 C 
HETATM   17  C20 UNL     1      18.103  37.285  11.422  1.00  0.00     0.026 C 
HETATM   18  C21 UNL     1      17.669  37.098  12.889  1.00  0.00     0.086 C 
HETATM   19  C22 UNL     1      18.029  36.365  16.643  1.00  0.00     0.122 C 
ENDROOT
BRANCH   1  20
HETATM   20  C6  UNL     1      14.997  34.905  18.376  1.00  0.00     0.081 A 
HETATM   21  C5  UNL     1      14.934  34.445  19.678  1.00  0.00     0.108 A 
HETATM   22  N1  UNL     1      13.777  34.285  20.363  1.00  0.00    -0.364 N 
HETATM   23  C4  UNL     1      12.620  34.554  19.729  1.00  0.00     0.048 A 
ATOM     24  H1  UNL     1      13.782  33.969  21.332  1.00  0.00     0.165 HD
HETATM   25  C3  UNL     1      11.428  34.383  20.420  1.00  0.00     0.070 A 
HETATM   26  C24 UNL     1      12.572  35.000  18.392  1.00  0.00     0.028 A 
HETATM   27  C2  UNL     1      10.184  34.631  19.826  1.00  0.00     0.103 A 
HETATM   28  C26 UNL     1      10.129  35.067  18.492  1.00  0.00     0.102 A 
HETATM   29  C25 UNL     1      11.321  35.252  17.787  1.00  0.00     0.056 A 
HETATM   30  C23 UNL     1      13.798  35.170  17.716  1.00  0.00     0.095 A 
BRANCH  27  31
HETATM   31  O1  UNL     1       8.976  34.465  20.457  1.00  0.00    -0.353 OA
HETATM   32  C1  UNL     1       8.961  34.517  21.876  1.00  0.00     0.210 C 
ENDBRANCH  27  31
BRANCH  28  33
HETATM   33  O4  UNL     1       8.878  35.292  17.976  1.00  0.00    -0.353 OA
HETATM   34  C27 UNL     1       8.307  36.579  18.172  1.00  0.00     0.210 C 
ENDBRANCH  28  33
BRANCH  30  35
HETATM   35  O3  UNL     1      13.757  35.590  16.407  1.00  0.00    -0.359 OA
HETATM   36  H29 UNL     1      14.655  35.610  16.027  1.00  0.00     0.217 HD
ENDBRANCH  30  35
ENDBRANCH   1  20
TORSDOF 4
ENDMDL
MODEL 6
REMARK minimizedAffinity -7.88212109
REMARK  4 active torsions:
REMARK  status: ('A' for Active; 'I' for Inactive)
REMARK    1  A    between atoms: O1_2  and  C2_3 
REMARK    2  A    between atoms: C6_9  and  C7_10 
REMARK       I    between atoms: C7_10  and  N2_12 
REMARK    3  A    between atoms: C23_29  and  O3_30 
REMARK    4  A    between atoms: C26_33  and  O4_34 
ROOT
HETATM    1  C7  UNL     1      14.338  35.022  18.085  1.00  0.00     0.258 C 
HETATM    2  O2  UNL     1      14.787  33.893  17.900  1.00  0.00    -0.267 OA
HETATM    3  N2  UNL     1      15.131  36.169  18.104  1.00  0.00    -0.339 N 
HETATM    4  C8  UNL     1      14.695  37.471  18.627  1.00  0.00     0.127 C 
HETATM    5  C9  UNL     1      15.676  37.987  19.668  1.00  0.00     0.024 C 
HETATM    6  C10 UNL     1      17.055  38.233  19.065  1.00  0.00     0.037 C 
HETATM    7  C11 UNL     1      17.327  37.372  17.863  1.00  0.00    -0.060 C 
HETATM    8  C12 UNL     1      18.123  37.810  16.829  1.00  0.00    -0.015 C 
HETATM    9  C13 UNL     1      18.531  36.911  15.608  1.00  0.00     0.031 C 
HETATM   10  C14 UNL     1      18.297  35.521  16.126  1.00  0.00     0.019 C 
HETATM   11  C15 UNL     1      16.775  35.618  16.327  1.00  0.00     0.031 C 
HETATM   12  C16 UNL     1      16.174  34.993  15.106  1.00  0.00     0.124 C 
HETATM   13  N3  UNL     1      16.633  35.888  13.976  1.00  0.00    -0.407 N 
HETATM   14  C17 UNL     1      16.737  35.215  12.691  1.00  0.00     0.117 C 
HETATM   15  C18 UNL     1      18.156  34.736  12.401  1.00  0.00     0.019 C 
HETATM   16  C19 UNL     1      19.212  35.826  12.592  1.00  0.00     0.004 C 
HETATM   17  C20 UNL     1      18.609  37.155  13.037  1.00  0.00     0.026 C 
HETATM   18  C21 UNL     1      17.665  36.989  14.244  1.00  0.00     0.086 C 
HETATM   19  C22 UNL     1      16.550  35.989  17.781  1.00  0.00     0.122 C 
ENDROOT
BRANCH   1  20
HETATM   20  C6  UNL     1      12.884  35.158  18.223  1.00  0.00     0.081 A 
HETATM   21  C5  UNL     1      12.180  35.740  17.185  1.00  0.00     0.108 A 
HETATM   22  N1  UNL     1      10.837  35.917  17.195  1.00  0.00    -0.364 N 
HETATM   23  C4  UNL     1      10.154  35.540  18.293  1.00  0.00     0.048 A 
ATOM     24  H1  UNL     1      10.357  36.326  16.394  1.00  0.00     0.165 HD
HETATM   25  C3  UNL     1       8.779  35.728  18.316  1.00  0.00     0.070 A 
HETATM   26  C24 UNL     1      10.780  34.965  19.418  1.00  0.00     0.028 A 
HETATM   27  C2  UNL     1       8.000  35.372  19.425  1.00  0.00     0.103 A 
HETATM   28  C26 UNL     1       8.619  34.807  20.553  1.00  0.00     0.102 A 
HETATM   29  C25 UNL     1      10.001  34.605  20.539  1.00  0.00     0.056 A 
HETATM   30  C23 UNL     1      12.177  34.782  19.364  1.00  0.00     0.095 A 
BRANCH  27  31
HETATM   31  O1  UNL     1       6.641  35.549  19.508  1.00  0.00    -0.353 OA
HETATM   32  C1  UNL     1       5.810  34.497  19.038  1.00  0.00     0.210 C 
ENDBRANCH  27  31
BRANCH  28  33
HETATM   33  O4  UNL     1       7.795  34.482  21.599  1.00  0.00    -0.353 OA
HETATM   34  C27 UNL     1       7.854  35.298  22.762  1.00  0.00     0.210 C 
ENDBRANCH  28  33
BRANCH  30  35
HETATM   35  O3  UNL     1      12.796  34.236  20.465  1.00  0.00    -0.359 OA
HETATM   36  H29 UNL     1      13.763  34.216  20.338  1.00  0.00     0.217 HD
ENDBRANCH  30  35
ENDBRANCH   1  20
TORSDOF 4
ENDMDL
MODEL 7
REMARK minimizedAffinity -7.83088017
REMARK  4 active torsions:
REMARK  status: ('A' for Active; 'I' for Inactive)
REMARK    1  A    between atoms: O1_2  and  C2_3 
REMARK    2  A    between atoms: C6_9  and  C7_10 
REMARK       I    between atoms: C7_10  and  N2_12 
REMARK    3  A    between atoms: C23_29  and  O3_30 
REMARK    4  A    between atoms: C26_33  and  O4_34 
ROOT
HETATM    1  C7  UNL     1      16.315  37.004  15.047  1.00  0.00     0.258 C 
HETATM    2  O2  UNL     1      16.474  38.208  15.233  1.00  0.00    -0.267 OA
HETATM    3  N2  UNL     1      16.951  36.295  14.028  1.00  0.00    -0.339 N 
HETATM    4  C8  UNL     1      16.555  34.954  13.579  1.00  0.00     0.127 C 
HETATM    5  C9  UNL     1      16.318  34.939  12.076  1.00  0.00     0.024 C 
HETATM    6  C10 UNL     1      17.593  35.267  11.305  1.00  0.00     0.037 C 
HETATM    7  C11 UNL     1      18.553  36.110  12.098  1.00  0.00    -0.060 C 
HETATM    8  C12 UNL     1      19.915  36.001  11.930  1.00  0.00    -0.015 C 
HETATM    9  C13 UNL     1      20.954  36.935  12.646  1.00  0.00     0.031 C 
HETATM   10  C14 UNL     1      20.120  38.120  13.038  1.00  0.00     0.019 C 
HETATM   11  C15 UNL     1      19.172  37.406  14.016  1.00  0.00     0.031 C 
HETATM   12  C16 UNL     1      19.735  37.669  15.378  1.00  0.00     0.124 C 
HETATM   13  N3  UNL     1      21.091  37.000  15.346  1.00  0.00    -0.407 N 
HETATM   14  C17 UNL     1      22.069  37.600  16.240  1.00  0.00     0.117 C 
HETATM   15  C18 UNL     1      22.959  38.614  15.530  1.00  0.00     0.019 C 
HETATM   16  C19 UNL     1      23.580  38.075  14.240  1.00  0.00     0.004 C 
HETATM   17  C20 UNL     1      23.166  36.636  13.948  1.00  0.00     0.026 C 
HETATM   18  C21 UNL     1      21.639  36.444  14.027  1.00  0.00     0.086 C 
HETATM   19  C22 UNL     1      17.929  37.037  13.226  1.00  0.00     0.122 C 
ENDROOT
BRANCH   1  20
HETATM   20  C6  UNL     1      15.462  36.279  15.995  1.00  0.00     0.081 A 
HETATM   21  C5  UNL     1      16.055  35.351  16.831  1.00  0.00     0.108 A 
HETATM   22  N1  UNL     1      15.374  34.623  17.747  1.00  0.00    -0.364 N 
HETATM   23  C4  UNL     1      14.039  34.785  17.825  1.00  0.00     0.048 A 
ATOM     24  H1  UNL     1      15.859  33.969  18.362  1.00  0.00     0.165 HD
HETATM   25  C3  UNL     1      13.332  34.034  18.754  1.00  0.00     0.070 A 
HETATM   26  C24 UNL     1      13.334  35.683  16.997  1.00  0.00     0.028 A 
HETATM   27  C2  UNL     1      11.942  34.138  18.887  1.00  0.00     0.103 A 
HETATM   28  C26 UNL     1      11.231  35.025  18.061  1.00  0.00     0.102 A 
HETATM   29  C25 UNL     1      11.932  35.792  17.127  1.00  0.00     0.056 A 
HETATM   30  C23 UNL     1      14.079  36.435  16.066  1.00  0.00     0.095 A 
BRANCH  27  31
HETATM   31  O1  UNL     1      11.191  33.412  19.778  1.00  0.00    -0.353 OA
HETATM   32  C1  UNL     1      11.326  33.719  21.158  1.00  0.00     0.210 C 
ENDBRANCH  27  31
BRANCH  28  33
HETATM   33  O4  UNL     1       9.874  35.075  18.247  1.00  0.00    -0.353 OA
HETATM   34  C27 UNL     1       9.153  36.094  17.566  1.00  0.00     0.210 C 
ENDBRANCH  28  33
BRANCH  30  35
HETATM   35  O3  UNL     1      13.394  37.302  15.246  1.00  0.00    -0.359 OA
HETATM   36  H29 UNL     1      14.001  37.716  14.605  1.00  0.00     0.217 HD
ENDBRANCH  30  35
ENDBRANCH   1  20
TORSDOF 4
ENDMDL
MODEL 8
REMARK minimizedAffinity -7.82236242
REMARK  4 active torsions:
REMARK  status: ('A' for Active; 'I' for Inactive)
REMARK    1  A    between atoms: O1_2  and  C2_3 
REMARK    2  A    between atoms: C6_9  and  C7_10 
REMARK       I    between atoms: C7_10  and  N2_12 
REMARK    3  A    between atoms: C23_29  and  O3_30 
REMARK    4  A    between atoms: C26_33  and  O4_34 
ROOT
HETATM    1  C7  UNL     1      16.928  36.436  16.792  1.00  0.00     0.258 C 
HETATM    2  O2  UNL     1      17.852  35.736  17.201  1.00  0.00    -0.267 OA
HETATM    3  N2  UNL     1      16.978  37.148  15.594  1.00  0.00    -0.339 N 
HETATM    4  C8  UNL     1      16.047  38.224  15.229  1.00  0.00     0.127 C 
HETATM    5  C9  UNL     1      16.808  39.486  14.849  1.00  0.00     0.024 C 
HETATM    6  C10 UNL     1      17.679  39.265  13.616  1.00  0.00     0.037 C 
HETATM    7  C11 UNL     1      18.093  37.830  13.444  1.00  0.00    -0.060 C 
HETATM    8  C12 UNL     1      18.289  37.282  12.197  1.00  0.00    -0.015 C 
HETATM    9  C13 UNL     1      18.830  35.827  11.966  1.00  0.00     0.031 C 
HETATM   10  C14 UNL     1      19.485  35.503  13.277  1.00  0.00     0.019 C 
HETATM   11  C15 UNL     1      18.229  35.549  14.164  1.00  0.00     0.031 C 
HETATM   12  C16 UNL     1      17.798  34.122  14.315  1.00  0.00     0.124 C 
HETATM   13  N3  UNL     1      17.455  33.696  12.904  1.00  0.00    -0.407 N 
HETATM   14  C17 UNL     1      17.614  32.271  12.661  1.00  0.00     0.117 C 
HETATM   15  C18 UNL     1      18.968  31.936  12.042  1.00  0.00     0.019 C 
HETATM   16  C19 UNL     1      19.301  32.793  10.819  1.00  0.00     0.004 C 
HETATM   17  C20 UNL     1      18.203  33.799  10.491  1.00  0.00     0.026 C 
HETATM   18  C21 UNL     1      17.780  34.620  11.725  1.00  0.00     0.086 C 
HETATM   19  C22 UNL     1      18.167  36.943  14.760  1.00  0.00     0.122 C 
ENDROOT
BRANCH   1  20
HETATM   20  C6  UNL     1      15.693  36.458  17.584  1.00  0.00     0.081 A 
HETATM   21  C5  UNL     1      15.750  36.958  18.871  1.00  0.00     0.108 A 
HETATM   22  N1  UNL     1      14.679  37.033  19.696  1.00  0.00    -0.364 N 
HETATM   23  C4  UNL     1      13.499  36.559  19.251  1.00  0.00     0.048 A 
ATOM     24  H1  UNL     1      14.763  37.436  20.628  1.00  0.00     0.165 HD
HETATM   25  C3  UNL     1      12.398  36.622  20.094  1.00  0.00     0.070 A 
HETATM   26  C24 UNL     1      13.341  36.001  17.966  1.00  0.00     0.028 A 
HETATM   27  C2  UNL     1      11.141  36.140  19.708  1.00  0.00     0.103 A 
HETATM   28  C26 UNL     1      10.977  35.575  18.432  1.00  0.00     0.102 A 
HETATM   29  C25 UNL     1      12.075  35.513  17.571  1.00  0.00     0.056 A 
HETATM   30  C23 UNL     1      14.475  35.955  17.130  1.00  0.00     0.095 A 
BRANCH  27  31
HETATM   31  O1  UNL     1      10.023  36.164  20.504  1.00  0.00    -0.353 OA
HETATM   32  C1  UNL     1      10.216  36.187  21.912  1.00  0.00     0.210 C 
ENDBRANCH  27  31
BRANCH  28  33
HETATM   33  O4  UNL     1       9.719  35.126  18.122  1.00  0.00    -0.353 OA
HETATM   34  C27 UNL     1       8.907  35.958  17.304  1.00  0.00     0.210 C 
ENDBRANCH  28  33
BRANCH  30  35
HETATM   35  O3  UNL     1      14.330  35.398  15.880  1.00  0.00    -0.359 OA
HETATM   36  H29 UNL     1      15.189  35.363  15.420  1.00  0.00     0.217 HD
ENDBRANCH  30  35
ENDBRANCH   1  20
TORSDOF 4
ENDMDL
MODEL 9
REMARK minimizedAffinity -7.47552204
REMARK  4 active torsions:
REMARK  status: ('A' for Active; 'I' for Inactive)
REMARK    1  A    between atoms: O1_2  and  C2_3 
REMARK    2  A    between atoms: C6_9  and  C7_10 
REMARK       I    between atoms: C7_10  and  N2_12 
REMARK    3  A    between atoms: C23_29  and  O3_30 
REMARK    4  A    between atoms: C26_33  and  O4_34 
ROOT
HETATM    1  C7  UNL     1      17.144  34.994  15.354  1.00  0.00     0.258 C 
HETATM    2  O2  UNL     1      17.819  34.138  15.923  1.00  0.00    -0.267 OA
HETATM    3  N2  UNL     1      17.577  35.686  14.223  1.00  0.00    -0.339 N 
HETATM    4  C8  UNL     1      16.954  36.913  13.711  1.00  0.00     0.127 C 
HETATM    5  C9  UNL     1      17.990  38.016  13.553  1.00  0.00     0.024 C 
HETATM    6  C10 UNL     1      19.053  37.641  12.526  1.00  0.00     0.037 C 
HETATM    7  C11 UNL     1      19.234  36.155  12.389  1.00  0.00    -0.060 C 
HETATM    8  C12 UNL     1      19.595  35.581  11.191  1.00  0.00    -0.015 C 
HETATM    9  C13 UNL     1      19.908  34.051  11.023  1.00  0.00     0.031 C 
HETATM   10  C14 UNL     1      20.194  33.613  12.430  1.00  0.00     0.019 C 
HETATM   11  C15 UNL     1      18.805  33.886  13.031  1.00  0.00     0.031 C 
HETATM   12  C16 UNL     1      18.106  32.562  13.029  1.00  0.00     0.124 C 
HETATM   13  N3  UNL     1      18.007  32.205  11.563  1.00  0.00    -0.407 N 
HETATM   14  C17 UNL     1      17.960  30.775  11.302  1.00  0.00     0.117 C 
HETATM   15  C18 UNL     1      19.334  30.201  10.973  1.00  0.00     0.019 C 
HETATM   16  C19 UNL     1      20.071  30.983   9.884  1.00  0.00     0.004 C 
HETATM   17  C20 UNL     1      19.265  32.172   9.370  1.00  0.00     0.026 C 
HETATM   18  C21 UNL     1      18.737  33.055  10.517  1.00  0.00     0.086 C 
HETATM   19  C22 UNL     1      18.863  35.269  13.654  1.00  0.00     0.122 C 
ENDROOT
BRANCH   1  20
HETATM   20  C6  UNL     1      15.791  35.240  15.865  1.00  0.00     0.081 A 
HETATM   21  C5  UNL     1      14.864  35.812  15.013  1.00  0.00     0.108 A 
HETATM   22  N1  UNL     1      13.586  36.083  15.368  1.00  0.00    -0.364 N 
HETATM   23  C4  UNL     1      13.206  35.815  16.632  1.00  0.00     0.048 A 
ATOM     24  H1  UNL     1      12.929  36.480  14.696  1.00  0.00     0.165 HD
HETATM   25  C3  UNL     1      11.900  36.101  17.007  1.00  0.00     0.070 A 
HETATM   26  C24 UNL     1      14.081  35.260  17.587  1.00  0.00     0.028 A 
HETATM   27  C2  UNL     1      11.432  35.861  18.305  1.00  0.00     0.103 A 
HETATM   28  C26 UNL     1      12.302  35.317  19.265  1.00  0.00     0.102 A 
HETATM   29  C25 UNL     1      13.616  35.017  18.898  1.00  0.00     0.056 A 
HETATM   30  C23 UNL     1      15.400  34.976  17.176  1.00  0.00     0.095 A 
BRANCH  27  31
HETATM   31  O1  UNL     1      10.158  36.137  18.734  1.00  0.00    -0.353 OA
HETATM   32  C1  UNL     1       9.112  36.082  17.774  1.00  0.00     0.210 C 
ENDBRANCH  27  31
BRANCH  28  33
HETATM   33  O4  UNL     1      11.776  35.107  20.514  1.00  0.00    -0.353 OA
HETATM   34  C27 UNL     1      12.278  34.010  21.264  1.00  0.00     0.210 C 
ENDBRANCH  28  33
BRANCH  30  35
HETATM   35  O3  UNL     1      16.264  34.449  18.109  1.00  0.00    -0.359 OA
HETATM   36  H29 UNL     1      17.157  34.354  17.731  1.00  0.00     0.217 HD
ENDBRANCH  30  35
ENDBRANCH   1  20
TORSDOF 4
ENDMDL
