MODEL 1
REMARK minimizedAffinity -6.97530937
REMARK CNNscore 0.696153283
REMARK CNNaffinity 6.98694754
REMARK  4 active torsions:
REMARK  status: ('A' for Active; 'I' for Inactive)
REMARK    1  A    between atoms: C14_16  and  C15_17 
REMARK    2  A    between atoms: C15_17  and  C17_19 
REMARK    3  A    between atoms: C17_19  and  C18_20 
REMARK    4  A    between atoms: C18_20  and  C19_21 
ROOT
HETATM    1  C1  UNL     1      -4.190  51.894 -10.828  1.00  0.00     0.017 C 
HETATM    2  C2  UNL     1      -3.051  52.408 -11.332  1.00  0.00    -0.060 C 
HETATM    3  C3  UNL     1      -2.899  52.592 -12.829  1.00  0.00     0.212 C 
HETATM    4  O1  UNL     1      -1.752  51.895 -13.310  1.00  0.00    -0.317 OA
HETATM    5  C4  UNL     1      -1.771  50.567 -13.019  1.00  0.00     0.259 C 
HETATM    6  O2  UNL     1      -2.725  49.820 -13.183  1.00  0.00    -0.265 OA
HETATM    7  C5  UNL     1      -0.479  50.184 -12.354  1.00  0.00     0.112 C 
HETATM    8  C6  UNL     1      -0.414  50.722 -10.918  1.00  0.00     0.020 C 
HETATM    9  C7  UNL     1      -0.476  52.263 -10.791  1.00  0.00    -0.024 A 
HETATM   10  C8  UNL     1       0.423  53.059 -11.713  1.00  0.00     0.022 A 
HETATM   11  C9  UNL     1       0.750  53.074 -10.235  1.00  0.00    -0.027 A 
HETATM   12  C10 UNL     1       1.984  52.277  -9.791  1.00  0.00     0.011 C 
HETATM   13  C11 UNL     1       3.232  53.046  -9.322  1.00  0.00     0.011 C 
HETATM   14  C12 UNL     1       3.042  54.560  -9.187  1.00  0.00    -0.032 C 
HETATM   15  C13 UNL     1       3.216  55.182 -10.598  1.00  0.00     0.016 C 
HETATM   16  C14 UNL     1       3.986  55.278  -8.166  1.00  0.00    -0.002 C 
HETATM   17  C23 UNL     1       3.169  56.518  -7.710  1.00  0.00     0.006 C 
HETATM   18  C24 UNL     1       1.726  56.313  -8.201  1.00  0.00     0.011 C 
HETATM   19  C25 UNL     1       1.630  54.814  -8.543  1.00  0.00    -0.032 C 
HETATM   20  C26 UNL     1       1.383  54.059  -7.197  1.00  0.00     0.016 C 
HETATM   21  C27 UNL     1       0.520  54.457  -9.564  1.00  0.00     0.004 C 
HETATM   22  C28 UNL     1      -0.904  54.607  -9.014  1.00  0.00     0.007 C 
HETATM   23  C29 UNL     1      -1.937  54.274 -10.085  1.00  0.00     0.010 C 
HETATM   24  C30 UNL     1      -1.892  52.773 -10.405  1.00  0.00     0.025 C 
ENDROOT
BRANCH  16  25
HETATM   25  C15 UNL     1       5.485  55.589  -8.457  1.00  0.00    -0.014 C 
HETATM   26  C16 UNL     1       6.051  55.091  -9.794  1.00  0.00     0.010 C 
BRANCH  25  27
HETATM   27  C17 UNL     1       6.389  55.152  -7.280  1.00  0.00     0.008 C 
BRANCH  27  28
HETATM   28  C18 UNL     1       6.419  56.120  -6.087  1.00  0.00     0.028 C 
BRANCH  28  29
HETATM   29  C19 UNL     1       7.817  56.529  -5.708  1.00  0.00    -0.025 C 
HETATM   30  C20 UNL     1       8.242  57.711  -5.222  1.00  0.00    -0.091 C 
HETATM   31  C21 UNL     1       9.701  57.924  -4.901  1.00  0.00     0.042 C 
HETATM   32  C22 UNL     1       7.376  58.908  -4.946  1.00  0.00     0.042 C 
ENDBRANCH  28  29
ENDBRANCH  27  28
ENDBRANCH  25  27
ENDBRANCH  16  25
TORSDOF 4
ENDMDL
MODEL 2
REMARK minimizedAffinity -7.15732241
REMARK CNNscore 0.391688734
REMARK CNNaffinity 5.99958086
REMARK  4 active torsions:
REMARK  status: ('A' for Active; 'I' for Inactive)
REMARK    1  A    between atoms: C14_16  and  C15_17 
REMARK    2  A    between atoms: C15_17  and  C17_19 
REMARK    3  A    between atoms: C17_19  and  C18_20 
REMARK    4  A    between atoms: C18_20  and  C19_21 
ROOT
HETATM    1  C1  UNL     1     -10.064  46.404 -36.827  1.00  0.00     0.017 C 
HETATM    2  C2  UNL     1      -9.524  45.745 -35.783  1.00  0.00    -0.060 C 
HETATM    3  C3  UNL     1      -9.301  44.248 -35.865  1.00  0.00     0.212 C 
HETATM    4  O1  UNL     1      -9.972  43.577 -34.801  1.00  0.00    -0.317 OA
HETATM    5  C4  UNL     1     -11.308  43.833 -34.765  1.00  0.00     0.259 C 
HETATM    6  O2  UNL     1     -12.061  43.797 -35.728  1.00  0.00    -0.265 OA
HETATM    7  C5  UNL     1     -11.692  44.280 -33.383  1.00  0.00     0.112 C 
HETATM    8  C6  UNL     1     -11.190  45.703 -33.101  1.00  0.00     0.020 C 
HETATM    9  C7  UNL     1      -9.653  45.879 -33.155  1.00  0.00    -0.024 A 
HETATM   10  C8  UNL     1      -8.824  44.852 -32.415  1.00  0.00     0.022 A 
HETATM   11  C9  UNL     1      -8.843  46.262 -31.864  1.00  0.00    -0.027 A 
HETATM   12  C10 UNL     1      -9.637  46.489 -30.570  1.00  0.00     0.011 C 
HETATM   13  C11 UNL     1      -8.866  46.781 -29.271  1.00  0.00     0.011 C 
HETATM   14  C12 UNL     1      -7.358  46.984 -29.448  1.00  0.00    -0.032 C 
HETATM   15  C13 UNL     1      -6.698  45.580 -29.499  1.00  0.00     0.016 C 
HETATM   16  C14 UNL     1      -6.656  47.866 -28.364  1.00  0.00    -0.002 C 
HETATM   17  C23 UNL     1      -5.437  48.476 -29.111  1.00  0.00     0.006 C 
HETATM   18  C24 UNL     1      -5.646  48.207 -30.610  1.00  0.00     0.011 C 
HETATM   19  C25 UNL     1      -7.137  47.844 -30.746  1.00  0.00    -0.032 C 
HETATM   20  C26 UNL     1      -7.928  49.191 -30.778  1.00  0.00     0.016 C 
HETATM   21  C27 UNL     1      -7.480  46.996 -31.998  1.00  0.00     0.004 C 
HETATM   22  C28 UNL     1      -7.360  47.763 -33.321  1.00  0.00     0.007 C 
HETATM   23  C29 UNL     1      -7.678  46.855 -34.504  1.00  0.00     0.010 C 
HETATM   24  C30 UNL     1      -9.170  46.492 -34.498  1.00  0.00     0.025 C 
ENDROOT
BRANCH  16  25
HETATM   25  C15 UNL     1      -6.320  47.357 -26.930  1.00  0.00    -0.014 C 
HETATM   26  C16 UNL     1      -7.488  46.814 -26.095  1.00  0.00     0.010 C 
BRANCH  25  27
HETATM   27  C17 UNL     1      -5.516  48.410 -26.132  1.00  0.00     0.008 C 
BRANCH  27  28
HETATM   28  C18 UNL     1      -3.997  48.177 -26.091  1.00  0.00     0.028 C 
BRANCH  28  29
HETATM   29  C19 UNL     1      -3.364  48.706 -24.833  1.00  0.00    -0.025 C 
HETATM   30  C20 UNL     1      -2.559  49.776 -24.685  1.00  0.00    -0.091 C 
HETATM   31  C21 UNL     1      -2.023  50.146 -23.324  1.00  0.00     0.042 C 
HETATM   32  C22 UNL     1      -2.112  50.695 -25.787  1.00  0.00     0.042 C 
ENDBRANCH  28  29
ENDBRANCH  27  28
ENDBRANCH  25  27
ENDBRANCH  16  25
TORSDOF 4
ENDMDL
MODEL 3
REMARK minimizedAffinity -6.93048096
REMARK CNNscore 0.369600594
REMARK CNNaffinity 5.74417353
REMARK  4 active torsions:
REMARK  status: ('A' for Active; 'I' for Inactive)
REMARK    1  A    between atoms: C14_16  and  C15_17 
REMARK    2  A    between atoms: C15_17  and  C17_19 
REMARK    3  A    between atoms: C17_19  and  C18_20 
REMARK    4  A    between atoms: C18_20  and  C19_21 
ROOT
HETATM    1  C1  UNL     1       9.768  54.803  -2.347  1.00  0.00     0.017 C 
HETATM    2  C2  UNL     1       9.630  54.976  -3.676  1.00  0.00    -0.060 C 
HETATM    3  C3  UNL     1      10.844  55.283  -4.531  1.00  0.00     0.212 C 
HETATM    4  O1  UNL     1      10.661  56.501  -5.250  1.00  0.00    -0.317 OA
HETATM    5  C4  UNL     1      10.396  57.563  -4.444  1.00  0.00     0.259 C 
HETATM    6  O2  UNL     1      11.010  57.850  -3.426  1.00  0.00    -0.265 OA
HETATM    7  C5  UNL     1       9.158  58.262  -4.933  1.00  0.00     0.112 C 
HETATM    8  C6  UNL     1       7.899  57.438  -4.628  1.00  0.00     0.020 C 
HETATM    9  C7  UNL     1       7.850  56.044  -5.298  1.00  0.00    -0.024 A 
HETATM   10  C8  UNL     1       8.199  55.983  -6.770  1.00  0.00     0.022 A 
HETATM   11  C9  UNL     1       6.762  55.711  -6.381  1.00  0.00    -0.027 A 
HETATM   12  C10 UNL     1       5.736  56.804  -6.714  1.00  0.00     0.011 C 
HETATM   13  C11 UNL     1       4.710  56.540  -7.831  1.00  0.00     0.011 C 
HETATM   14  C12 UNL     1       4.718  55.113  -8.389  1.00  0.00    -0.032 C 
HETATM   15  C13 UNL     1       5.855  55.028  -9.442  1.00  0.00     0.016 C 
HETATM   16  C14 UNL     1       3.372  54.617  -9.013  1.00  0.00    -0.002 C 
HETATM   17  C23 UNL     1       3.419  53.076  -8.824  1.00  0.00     0.006 C 
HETATM   18  C24 UNL     1       4.573  52.775  -7.853  1.00  0.00     0.011 C 
HETATM   19  C25 UNL     1       4.888  54.124  -7.179  1.00  0.00    -0.032 C 
HETATM   20  C26 UNL     1       3.844  54.310  -6.032  1.00  0.00     0.016 C 
HETATM   21  C27 UNL     1       6.327  54.237  -6.611  1.00  0.00     0.004 C 
HETATM   22  C28 UNL     1       6.582  53.357  -5.381  1.00  0.00     0.007 C 
HETATM   23  C29 UNL     1       8.024  53.497  -4.905  1.00  0.00     0.010 C 
HETATM   24  C30 UNL     1       8.248  54.901  -4.325  1.00  0.00     0.025 C 
ENDROOT
BRANCH  16  25
HETATM   25  C15 UNL     1       2.864  55.060 -10.418  1.00  0.00    -0.014 C 
HETATM   26  C16 UNL     1       3.356  56.417 -10.938  1.00  0.00     0.010 C 
BRANCH  25  27
HETATM   27  C17 UNL     1       1.324  54.958 -10.517  1.00  0.00     0.008 C 
BRANCH  27  28
HETATM   28  C18 UNL     1       0.800  53.789 -11.368  1.00  0.00     0.028 C 
BRANCH  28  29
HETATM   29  C19 UNL     1      -0.646  53.478 -11.095  1.00  0.00    -0.025 C 
HETATM   30  C20 UNL     1      -1.592  54.281 -10.569  1.00  0.00    -0.091 C 
HETATM   31  C21 UNL     1      -3.000  53.775 -10.375  1.00  0.00     0.042 C 
HETATM   32  C22 UNL     1      -1.389  55.704 -10.132  1.00  0.00     0.042 C 
ENDBRANCH  28  29
ENDBRANCH  27  28
ENDBRANCH  25  27
ENDBRANCH  16  25
TORSDOF 4
ENDMDL
MODEL 4
REMARK minimizedAffinity -7.90137148
REMARK CNNscore 0.362508863
REMARK CNNaffinity 6.32597589
REMARK  4 active torsions:
REMARK  status: ('A' for Active; 'I' for Inactive)
REMARK    1  A    between atoms: C14_16  and  C15_17 
REMARK    2  A    between atoms: C15_17  and  C17_19 
REMARK    3  A    between atoms: C17_19  and  C18_20 
REMARK    4  A    between atoms: C18_20  and  C19_21 
ROOT
HETATM    1  C1  UNL     1      -1.168  52.219 -13.139  1.00  0.00     0.017 C 
HETATM    2  C2  UNL     1      -0.693  52.294 -11.880  1.00  0.00    -0.060 C 
HETATM    3  C3  UNL     1      -1.411  51.575 -10.755  1.00  0.00     0.212 C 
HETATM    4  O1  UNL     1      -1.780  52.489  -9.724  1.00  0.00    -0.317 OA
HETATM    5  C4  UNL     1      -2.552  53.515 -10.170  1.00  0.00     0.259 C 
HETATM    6  O2  UNL     1      -3.528  53.402 -10.897  1.00  0.00    -0.265 OA
HETATM    7  C5  UNL     1      -1.952  54.820  -9.726  1.00  0.00     0.112 C 
HETATM    8  C6  UNL     1      -0.680  55.144 -10.521  1.00  0.00     0.020 C 
HETATM    9  C7  UNL     1       0.467  54.115 -10.371  1.00  0.00    -0.024 A 
HETATM   10  C8  UNL     1       0.802  53.670  -8.964  1.00  0.00     0.022 A 
HETATM   11  C9  UNL     1       1.824  54.519  -9.689  1.00  0.00    -0.027 A 
HETATM   12  C10 UNL     1       1.975  55.972  -9.218  1.00  0.00     0.011 C 
HETATM   13  C11 UNL     1       3.258  56.377  -8.471  1.00  0.00     0.011 C 
HETATM   14  C12 UNL     1       4.345  55.299  -8.424  1.00  0.00    -0.032 C 
HETATM   15  C13 UNL     1       3.997  54.333  -7.260  1.00  0.00     0.016 C 
HETATM   16  C14 UNL     1       5.813  55.815  -8.270  1.00  0.00    -0.002 C 
HETATM   17  C23 UNL     1       6.670  54.709  -8.944  1.00  0.00     0.006 C 
HETATM   18  C24 UNL     1       5.704  53.797  -9.718  1.00  0.00     0.011 C 
HETATM   19  C25 UNL     1       4.400  54.609  -9.836  1.00  0.00    -0.032 C 
HETATM   20  C26 UNL     1       4.587  55.592 -11.035  1.00  0.00     0.016 C 
HETATM   21  C27 UNL     1       3.126  53.750 -10.046  1.00  0.00     0.004 C 
HETATM   22  C28 UNL     1       3.047  53.081 -11.424  1.00  0.00     0.007 C 
HETATM   23  C29 UNL     1       1.788  52.228 -11.541  1.00  0.00     0.010 C 
HETATM   24  C30 UNL     1       0.547  53.132 -11.571  1.00  0.00     0.025 C 
ENDROOT
BRANCH  16  25
HETATM   25  C15 UNL     1       6.404  56.331  -6.923  1.00  0.00    -0.014 C 
HETATM   26  C16 UNL     1       6.749  55.274  -5.866  1.00  0.00     0.010 C 
BRANCH  25  27
HETATM   27  C17 UNL     1       5.526  57.451  -6.316  1.00  0.00     0.008 C 
BRANCH  27  28
HETATM   28  C18 UNL     1       6.110  58.135  -5.070  1.00  0.00     0.028 C 
BRANCH  28  29
HETATM   29  C19 UNL     1       7.524  58.606  -5.278  1.00  0.00    -0.025 C 
HETATM   30  C20 UNL     1       8.087  59.768  -4.890  1.00  0.00    -0.091 C 
HETATM   31  C21 UNL     1       9.535  60.054  -5.198  1.00  0.00     0.042 C 
HETATM   32  C22 UNL     1       7.392  60.871  -4.142  1.00  0.00     0.042 C 
ENDBRANCH  28  29
ENDBRANCH  27  28
ENDBRANCH  25  27
ENDBRANCH  16  25
TORSDOF 4
ENDMDL
MODEL 5
REMARK minimizedAffinity -6.9508996
REMARK CNNscore 0.263949603
REMARK CNNaffinity 6.20772886
REMARK  4 active torsions:
REMARK  status: ('A' for Active; 'I' for Inactive)
REMARK    1  A    between atoms: C14_16  and  C15_17 
REMARK    2  A    between atoms: C15_17  and  C17_19 
REMARK    3  A    between atoms: C17_19  and  C18_20 
REMARK    4  A    between atoms: C18_20  and  C19_21 
ROOT
HETATM    1  C1  UNL     1     -11.965  47.239 -20.631  1.00  0.00     0.017 C 
HETATM    2  C2  UNL     1     -10.772  46.689 -20.333  1.00  0.00    -0.060 C 
HETATM    3  C3  UNL     1     -10.708  45.302 -19.725  1.00  0.00     0.212 C 
HETATM    4  O1  UNL     1     -10.009  45.326 -18.482  1.00  0.00    -0.317 OA
HETATM    5  C4  UNL     1     -10.550  46.189 -17.581  1.00  0.00     0.259 C 
HETATM    6  O2  UNL     1     -11.739  46.278 -17.312  1.00  0.00    -0.265 OA
HETATM    7  C5  UNL     1      -9.474  47.097 -17.053  1.00  0.00     0.112 C 
HETATM    8  C6  UNL     1      -9.048  48.124 -18.111  1.00  0.00     0.020 C 
HETATM    9  C7  UNL     1      -8.451  47.524 -19.406  1.00  0.00    -0.024 A 
HETATM   10  C8  UNL     1      -7.400  46.448 -19.236  1.00  0.00     0.022 A 
HETATM   11  C9  UNL     1      -6.951  47.782 -19.794  1.00  0.00    -0.027 A 
HETATM   12  C10 UNL     1      -6.122  48.678 -18.863  1.00  0.00     0.011 C 
HETATM   13  C11 UNL     1      -4.627  48.881 -19.169  1.00  0.00     0.011 C 
HETATM   14  C12 UNL     1      -4.155  48.286 -20.500  1.00  0.00    -0.032 C 
HETATM   15  C13 UNL     1      -3.881  46.776 -20.267  1.00  0.00     0.016 C 
HETATM   16  C14 UNL     1      -2.902  48.964 -21.144  1.00  0.00    -0.002 C 
HETATM   17  C23 UNL     1      -3.080  48.706 -22.666  1.00  0.00     0.006 C 
HETATM   18  C24 UNL     1      -4.519  48.203 -22.874  1.00  0.00     0.011 C 
HETATM   19  C25 UNL     1      -5.262  48.578 -21.578  1.00  0.00    -0.032 C 
HETATM   20  C26 UNL     1      -5.665  50.081 -21.707  1.00  0.00     0.016 C 
HETATM   21  C27 UNL     1      -6.516  47.714 -21.285  1.00  0.00     0.004 C 
HETATM   22  C28 UNL     1      -7.686  47.969 -22.244  1.00  0.00     0.007 C 
HETATM   23  C29 UNL     1      -8.865  47.060 -21.914  1.00  0.00     0.010 C 
HETATM   24  C30 UNL     1      -9.480  47.471 -20.569  1.00  0.00     0.025 C 
ENDROOT
BRANCH  16  25
HETATM   25  C15 UNL     1      -1.447  48.735 -20.637  1.00  0.00    -0.014 C 
HETATM   26  C16 UNL     1      -1.255  48.593 -19.121  1.00  0.00     0.010 C 
BRANCH  25  27
HETATM   27  C17 UNL     1      -0.475  49.788 -21.219  1.00  0.00     0.008 C 
BRANCH  27  28
HETATM   28  C18 UNL     1      -0.809  51.247 -20.870  1.00  0.00     0.028 C 
BRANCH  28  29
HETATM   29  C19 UNL     1       0.186  52.221 -21.441  1.00  0.00    -0.025 C 
HETATM   30  C20 UNL     1       0.657  53.359 -20.893  1.00  0.00    -0.091 C 
HETATM   31  C21 UNL     1       1.662  54.204 -21.634  1.00  0.00     0.042 C 
HETATM   32  C22 UNL     1       0.270  53.908 -19.548  1.00  0.00     0.042 C 
ENDBRANCH  28  29
ENDBRANCH  27  28
ENDBRANCH  25  27
ENDBRANCH  16  25
TORSDOF 4
ENDMDL
MODEL 6
REMARK minimizedAffinity -7.35749245
REMARK CNNscore 0.245870769
REMARK CNNaffinity 6.46129417
REMARK  4 active torsions:
REMARK  status: ('A' for Active; 'I' for Inactive)
REMARK    1  A    between atoms: C14_16  and  C15_17 
REMARK    2  A    between atoms: C15_17  and  C17_19 
REMARK    3  A    between atoms: C17_19  and  C18_20 
REMARK    4  A    between atoms: C18_20  and  C19_21 
ROOT
HETATM    1  C1  UNL     1      -2.742  45.774 -14.723  1.00  0.00     0.017 C 
HETATM    2  C2  UNL     1      -3.521  46.315 -15.680  1.00  0.00    -0.060 C 
HETATM    3  C3  UNL     1      -5.023  46.380 -15.488  1.00  0.00     0.212 C 
HETATM    4  O1  UNL     1      -5.700  45.721 -16.556  1.00  0.00    -0.317 OA
HETATM    5  C4  UNL     1      -5.320  44.424 -16.709  1.00  0.00     0.259 C 
HETATM    6  O2  UNL     1      -5.216  43.605 -15.806  1.00  0.00    -0.265 OA
HETATM    7  C5  UNL     1      -4.935  44.183 -18.142  1.00  0.00     0.112 C 
HETATM    8  C6  UNL     1      -3.590  44.845 -18.473  1.00  0.00     0.020 C 
HETATM    9  C7  UNL     1      -3.559  46.384 -18.313  1.00  0.00    -0.024 A 
HETATM   10  C8  UNL     1      -4.710  47.155 -18.922  1.00  0.00     0.022 A 
HETATM   11  C9  UNL     1      -3.347  47.316 -19.560  1.00  0.00    -0.027 A 
HETATM   12  C10 UNL     1      -3.135  46.641 -20.922  1.00  0.00     0.011 C 
HETATM   13  C11 UNL     1      -3.010  47.527 -22.175  1.00  0.00     0.011 C 
HETATM   14  C12 UNL     1      -2.940  49.031 -21.896  1.00  0.00    -0.032 C 
HETATM   15  C13 UNL     1      -4.394  49.541 -21.707  1.00  0.00     0.016 C 
HETATM   16  C14 UNL     1      -2.207  49.892 -22.977  1.00  0.00    -0.002 C 
HETATM   17  C23 UNL     1      -1.667  51.111 -22.179  1.00  0.00     0.006 C 
HETATM   18  C24 UNL     1      -1.809  50.772 -20.686  1.00  0.00     0.011 C 
HETATM   19  C25 UNL     1      -2.017  49.247 -20.641  1.00  0.00    -0.032 C 
HETATM   20  C26 UNL     1      -0.602  48.595 -20.754  1.00  0.00     0.016 C 
HETATM   21  C27 UNL     1      -2.739  48.733 -19.369  1.00  0.00     0.004 C 
HETATM   22  C28 UNL     1      -1.897  48.838 -18.091  1.00  0.00     0.007 C 
HETATM   23  C29 UNL     1      -2.686  48.348 -16.881  1.00  0.00     0.010 C 
HETATM   24  C30 UNL     1      -2.903  46.832 -16.978  1.00  0.00     0.025 C 
ENDROOT
BRANCH  16  25
HETATM   25  C15 UNL     1      -2.845  50.274 -24.346  1.00  0.00    -0.014 C 
HETATM   26  C16 UNL     1      -2.900  49.176 -25.416  1.00  0.00     0.010 C 
BRANCH  25  27
HETATM   27  C17 UNL     1      -2.220  51.569 -24.917  1.00  0.00     0.008 C 
BRANCH  27  28
HETATM   28  C18 UNL     1      -1.412  51.387 -26.212  1.00  0.00     0.028 C 
BRANCH  28  29
HETATM   29  C19 UNL     1       0.070  51.305 -25.962  1.00  0.00    -0.025 C 
HETATM   30  C20 UNL     1       1.078  51.445 -26.845  1.00  0.00    -0.091 C 
HETATM   31  C21 UNL     1       2.512  51.327 -26.391  1.00  0.00     0.042 C 
HETATM   32  C22 UNL     1       0.924  51.723 -28.314  1.00  0.00     0.042 C 
ENDBRANCH  28  29
ENDBRANCH  27  28
ENDBRANCH  25  27
ENDBRANCH  16  25
TORSDOF 4
ENDMDL
MODEL 7
REMARK minimizedAffinity -7.45582342
REMARK CNNscore 0.235016018
REMARK CNNaffinity 5.37110186
REMARK  4 active torsions:
REMARK  status: ('A' for Active; 'I' for Inactive)
REMARK    1  A    between atoms: C14_16  and  C15_17 
REMARK    2  A    between atoms: C15_17  and  C17_19 
REMARK    3  A    between atoms: C17_19  and  C18_20 
REMARK    4  A    between atoms: C18_20  and  C19_21 
ROOT
HETATM    1  C1  UNL     1      -4.896  48.524 -30.640  1.00  0.00     0.017 C 
HETATM    2  C2  UNL     1      -5.885  47.614 -30.534  1.00  0.00    -0.060 C 
HETATM    3  C3  UNL     1      -5.834  46.341 -31.355  1.00  0.00     0.212 C 
HETATM    4  O1  UNL     1      -7.005  46.210 -32.158  1.00  0.00    -0.317 OA
HETATM    5  C4  UNL     1      -7.209  47.271 -32.984  1.00  0.00     0.259 C 
HETATM    6  O2  UNL     1      -6.359  47.790 -33.692  1.00  0.00    -0.265 OA
HETATM    7  C5  UNL     1      -8.611  47.781 -32.801  1.00  0.00     0.112 C 
HETATM    8  C6  UNL     1      -8.765  48.514 -31.462  1.00  0.00     0.020 C 
HETATM    9  C7  UNL     1      -8.498  47.649 -30.206  1.00  0.00    -0.024 A 
HETATM   10  C8  UNL     1      -9.162  46.289 -30.163  1.00  0.00     0.022 A 
HETATM   11  C9  UNL     1      -9.652  47.337 -29.187  1.00  0.00    -0.027 A 
HETATM   12  C10 UNL     1     -11.031  47.952 -29.466  1.00  0.00     0.011 C 
HETATM   13  C11 UNL     1     -12.202  47.596 -28.532  1.00  0.00     0.011 C 
HETATM   14  C12 UNL     1     -11.815  46.777 -27.297  1.00  0.00    -0.032 C 
HETATM   15  C13 UNL     1     -11.734  45.288 -27.727  1.00  0.00     0.016 C 
HETATM   16  C14 UNL     1     -12.759  46.925 -26.058  1.00  0.00    -0.002 C 
HETATM   17  C23 UNL     1     -11.831  46.635 -24.846  1.00  0.00     0.006 C 
HETATM   18  C24 UNL     1     -10.385  46.654 -25.369  1.00  0.00     0.011 C 
HETATM   19  C25 UNL     1     -10.466  47.358 -26.736  1.00  0.00    -0.032 C 
HETATM   20  C26 UNL     1     -10.486  48.894 -26.452  1.00  0.00     0.016 C 
HETATM   21  C27 UNL     1      -9.307  47.012 -27.707  1.00  0.00     0.004 C 
HETATM   22  C28 UNL     1      -7.949  47.590 -27.286  1.00  0.00     0.007 C 
HETATM   23  C29 UNL     1      -6.858  47.177 -28.267  1.00  0.00     0.010 C 
HETATM   24  C30 UNL     1      -7.079  47.875 -29.617  1.00  0.00     0.025 C 
ENDROOT
BRANCH  16  25
HETATM   25  C15 UNL     1     -14.154  46.239 -25.957  1.00  0.00    -0.014 C 
HETATM   26  C16 UNL     1     -14.879  45.941 -27.276  1.00  0.00     0.010 C 
BRANCH  25  27
HETATM   27  C17 UNL     1     -15.083  46.995 -24.977  1.00  0.00     0.008 C 
BRANCH  27  28
HETATM   28  C18 UNL     1     -16.031  46.104 -24.158  1.00  0.00     0.028 C 
BRANCH  28  29
HETATM   29  C19 UNL     1     -17.430  46.086 -24.712  1.00  0.00    -0.025 C 
HETATM   30  C20 UNL     1     -18.597  46.198 -24.046  1.00  0.00    -0.091 C 
HETATM   31  C21 UNL     1     -19.907  46.157 -24.792  1.00  0.00     0.042 C 
HETATM   32  C22 UNL     1     -18.745  46.371 -22.561  1.00  0.00     0.042 C 
ENDBRANCH  28  29
ENDBRANCH  27  28
ENDBRANCH  25  27
ENDBRANCH  16  25
TORSDOF 4
ENDMDL
MODEL 8
REMARK minimizedAffinity -8.96249199
REMARK CNNscore 0.228945479
REMARK CNNaffinity 6.48140907
REMARK  4 active torsions:
REMARK  status: ('A' for Active; 'I' for Inactive)
REMARK    1  A    between atoms: C14_16  and  C15_17 
REMARK    2  A    between atoms: C15_17  and  C17_19 
REMARK    3  A    between atoms: C17_19  and  C18_20 
REMARK    4  A    between atoms: C18_20  and  C19_21 
ROOT
HETATM    1  C1  UNL     1      -7.945  45.275 -20.826  1.00  0.00     0.017 C 
HETATM    2  C2  UNL     1      -7.574  46.560 -20.990  1.00  0.00    -0.060 C 
HETATM    3  C3  UNL     1      -8.626  47.649 -21.064  1.00  0.00     0.212 C 
HETATM    4  O1  UNL     1      -8.507  48.387 -22.278  1.00  0.00    -0.317 OA
HETATM    5  C4  UNL     1      -8.587  47.606 -23.389  1.00  0.00     0.259 C 
HETATM    6  O2  UNL     1      -9.431  46.744 -23.588  1.00  0.00    -0.265 OA
HETATM    7  C5  UNL     1      -7.409  47.886 -24.280  1.00  0.00     0.112 C 
HETATM    8  C6  UNL     1      -6.119  47.298 -23.693  1.00  0.00     0.020 C 
HETATM    9  C7  UNL     1      -5.707  47.866 -22.313  1.00  0.00    -0.024 A 
HETATM   10  C8  UNL     1      -5.741  49.372 -22.159  1.00  0.00     0.022 A 
HETATM   11  C9  UNL     1      -4.385  48.699 -22.149  1.00  0.00    -0.027 A 
HETATM   12  C10 UNL     1      -3.508  48.889 -23.395  1.00  0.00     0.011 C 
HETATM   13  C11 UNL     1      -2.250  49.770 -23.286  1.00  0.00     0.011 C 
HETATM   14  C12 UNL     1      -1.911  50.237 -21.867  1.00  0.00    -0.032 C 
HETATM   15  C13 UNL     1      -2.785  51.483 -21.562  1.00  0.00     0.016 C 
HETATM   16  C14 UNL     1      -0.405  50.561 -21.597  1.00  0.00    -0.002 C 
HETATM   17  C23 UNL     1      -0.234  50.297 -20.075  1.00  0.00     0.006 C 
HETATM   18  C24 UNL     1      -1.493  49.552 -19.602  1.00  0.00     0.011 C 
HETATM   19  C25 UNL     1      -2.154  49.029 -20.891  1.00  0.00    -0.032 C 
HETATM   20  C26 UNL     1      -1.405  47.715 -21.281  1.00  0.00     0.016 C 
HETATM   21  C27 UNL     1      -3.676  48.757 -20.767  1.00  0.00     0.004 C 
HETATM   22  C28 UNL     1      -4.023  47.551 -19.884  1.00  0.00     0.007 C 
HETATM   23  C29 UNL     1      -5.534  47.371 -19.783  1.00  0.00     0.010 C 
HETATM   24  C30 UNL     1      -6.098  46.926 -21.140  1.00  0.00     0.025 C 
ENDROOT
BRANCH  16  25
HETATM   25  C15 UNL     1       0.293  51.864 -22.089  1.00  0.00    -0.014 C 
HETATM   26  C16 UNL     1       0.370  53.029 -21.093  1.00  0.00     0.010 C 
BRANCH  25  27
HETATM   27  C17 UNL     1      -0.285  52.335 -23.444  1.00  0.00     0.008 C 
BRANCH  27  28
HETATM   28  C18 UNL     1       0.750  52.879 -24.442  1.00  0.00     0.028 C 
BRANCH  28  29
HETATM   29  C19 UNL     1       0.387  52.581 -25.872  1.00  0.00    -0.025 C 
HETATM   30  C20 UNL     1       1.142  52.000 -26.825  1.00  0.00    -0.091 C 
HETATM   31  C21 UNL     1       0.588  51.788 -28.212  1.00  0.00     0.042 C 
HETATM   32  C22 UNL     1       2.552  51.512 -26.649  1.00  0.00     0.042 C 
ENDBRANCH  28  29
ENDBRANCH  27  28
ENDBRANCH  25  27
ENDBRANCH  16  25
TORSDOF 4
ENDMDL
MODEL 9
REMARK minimizedAffinity -7.65903187
REMARK CNNscore 0.224550039
REMARK CNNaffinity 5.37553787
REMARK  4 active torsions:
REMARK  status: ('A' for Active; 'I' for Inactive)
REMARK    1  A    between atoms: C14_16  and  C15_17 
REMARK    2  A    between atoms: C15_17  and  C17_19 
REMARK    3  A    between atoms: C17_19  and  C18_20 
REMARK    4  A    between atoms: C18_20  and  C19_21 
ROOT
HETATM    1  C1  UNL     1      -6.766  45.703 -32.529  1.00  0.00     0.017 C 
HETATM    2  C2  UNL     1      -7.462  46.578 -31.777  1.00  0.00    -0.060 C 
HETATM    3  C3  UNL     1      -7.147  48.059 -31.850  1.00  0.00     0.212 C 
HETATM    4  O1  UNL     1      -6.819  48.571 -30.561  1.00  0.00    -0.317 OA
HETATM    5  C4  UNL     1      -5.781  47.918 -29.973  1.00  0.00     0.259 C 
HETATM    6  O2  UNL     1      -4.721  47.641 -30.515  1.00  0.00    -0.265 OA
HETATM    7  C5  UNL     1      -6.184  47.485 -28.591  1.00  0.00     0.112 C 
HETATM    8  C6  UNL     1      -7.177  46.316 -28.644  1.00  0.00     0.020 C 
HETATM    9  C7  UNL     1      -8.513  46.622 -29.362  1.00  0.00    -0.024 A 
HETATM   10  C8  UNL     1      -9.210  47.911 -28.984  1.00  0.00     0.022 A 
HETATM   11  C9  UNL     1      -9.870  46.614 -28.570  1.00  0.00    -0.027 A 
HETATM   12  C10 UNL     1      -9.819  46.256 -27.078  1.00  0.00     0.011 C 
HETATM   13  C11 UNL     1     -11.118  46.323 -26.256  1.00  0.00     0.011 C 
HETATM   14  C12 UNL     1     -12.386  46.584 -27.075  1.00  0.00    -0.032 C 
HETATM   15  C13 UNL     1     -12.484  48.114 -27.313  1.00  0.00     0.016 C 
HETATM   16  C14 UNL     1     -13.721  46.053 -26.455  1.00  0.00    -0.002 C 
HETATM   17  C23 UNL     1     -14.628  45.794 -27.689  1.00  0.00     0.006 C 
HETATM   18  C24 UNL     1     -13.728  45.863 -28.934  1.00  0.00     0.011 C 
HETATM   19  C25 UNL     1     -12.291  45.734 -28.394  1.00  0.00    -0.032 C 
HETATM   20  C26 UNL     1     -12.029  44.210 -28.170  1.00  0.00     0.016 C 
HETATM   21  C27 UNL     1     -11.201  46.330 -29.321  1.00  0.00     0.004 C 
HETATM   22  C28 UNL     1     -10.980  45.535 -30.614  1.00  0.00     0.007 C 
HETATM   23  C29 UNL     1      -9.921  46.202 -31.486  1.00  0.00     0.010 C 
HETATM   24  C30 UNL     1      -8.544  46.083 -30.818  1.00  0.00     0.025 C 
ENDROOT
BRANCH  16  25
HETATM   25  C15 UNL     1     -14.456  46.755 -25.274  1.00  0.00    -0.014 C 
HETATM   26  C16 UNL     1     -13.706  46.832 -23.937  1.00  0.00     0.010 C 
BRANCH  25  27
HETATM   27  C17 UNL     1     -15.878  46.180 -25.075  1.00  0.00     0.008 C 
BRANCH  27  28
HETATM   28  C18 UNL     1     -16.696  46.835 -23.951  1.00  0.00     0.028 C 
BRANCH  28  29
HETATM   29  C19 UNL     1     -18.177  46.787 -24.209  1.00  0.00    -0.025 C 
HETATM   30  C20 UNL     1     -18.868  45.915 -24.970  1.00  0.00    -0.091 C 
HETATM   31  C21 UNL     1     -20.366  46.037 -25.102  1.00  0.00     0.042 C 
HETATM   32  C22 UNL     1     -18.278  44.769 -25.743  1.00  0.00     0.042 C 
ENDBRANCH  28  29
ENDBRANCH  27  28
ENDBRANCH  25  27
ENDBRANCH  16  25
TORSDOF 4
ENDMDL
