MODEL 1
REMARK minimizedAffinity -7.48278713
REMARK CNNscore 0.38453266
REMARK CNNaffinity 6.47746468
REMARK  11 active torsions:
REMARK  status: ('A' for Active; 'I' for Inactive)
REMARK    1  A    between atoms: C3_3  and  O1_4 
REMARK    2  A    between atoms: N1_14  and  O2_16 
REMARK    3  A    between atoms: O2_16  and  C13_17 
REMARK    4  A    between atoms: C13_17  and  C14_18 
REMARK       I    between atoms: C14_18  and  N2_20 
REMARK    5  A    between atoms: N2_20  and  C15_21 
REMARK    6  A    between atoms: C15_21  and  C16_22 
REMARK    7  A    between atoms: C15_21  and  C19_27 
REMARK    8  A    between atoms: C16_22  and  O5_24 
REMARK    9  A    between atoms: O5_24  and  C17_25 
REMARK   10  A    between atoms: C19_27  and  O6_28 
REMARK   11  A    between atoms: C19_27  and  C20_29 
ROOT
HETATM    1  C1  UNL     1       4.698   8.783   9.751  1.00  0.00     0.015 C 
HETATM    2  C2  UNL     1       4.107   8.050  10.498  1.00  0.00    -0.078 C 
HETATM    3  C3  UNL     1       3.399   7.142  11.429  1.00  0.00     0.128 C 
HETATM    4  C4  UNL     1       3.144   7.884  12.745  1.00  0.00     0.052 C 
HETATM    5  C5  UNL     1       1.841   8.653  12.526  1.00  0.00     0.010 C 
HETATM    6  C6  UNL     1       1.133   8.011  11.312  1.00  0.00     0.002 C 
HETATM    7  C7  UNL     1      -0.370   7.735  11.515  1.00  0.00    -0.004 C 
HETATM    8  C8  UNL     1      -1.176   9.032  11.670  1.00  0.00     0.010 C 
HETATM    9  C9  UNL     1      -2.561   8.766  12.236  1.00  0.00     0.035 C 
HETATM   10  C10 UNL     1      -2.367   8.273  13.640  1.00  0.00    -0.069 C 
HETATM   11  C11 UNL     1      -2.766   9.031  14.679  1.00  0.00     0.030 C 
HETATM   12  C12 UNL     1      -2.489   8.637  16.091  1.00  0.00     0.032 C 
HETATM   13  N1  UNL     1      -2.896   9.264  17.153  1.00  0.00    -0.271 N 
ATOM     14  H1  UNL     1      -2.672   8.974  18.106  1.00  0.00     0.194 HD
HETATM   15  C26 UNL     1      -1.667   7.388  16.328  1.00  0.00     0.060 C 
HETATM   16  C27 UNL     1      -0.825   6.998  15.120  1.00  0.00     0.020 C 
HETATM   17  C28 UNL     1      -1.623   6.951  13.791  1.00  0.00    -0.016 C 
HETATM   18  C29 UNL     1      -2.696   5.831  13.898  1.00  0.00     0.020 C 
HETATM   19  C30 UNL     1      -0.708   6.602  12.535  1.00  0.00     0.002 C 
HETATM   20  C31 UNL     1       0.523   5.731  12.870  1.00  0.00     0.007 C 
HETATM   21  C32 UNL     1       1.391   5.465  11.643  1.00  0.00     0.014 C 
HETATM   22  C33 UNL     1       1.960   6.744  10.950  1.00  0.00     0.003 C 
HETATM   23  C34 UNL     1       1.919   6.464   9.430  1.00  0.00     0.020 C 
ENDROOT
BRANCH   3  24
HETATM   24  O1  UNL     1       4.236   6.010  11.615  1.00  0.00    -0.377 OA
HETATM   25  H2  UNL     1       4.155   5.709  12.534  1.00  0.00     0.211 HD
ENDBRANCH   3  24
BRANCH  13  26
HETATM   26  O2  UNL     1      -3.682  10.386  16.840  1.00  0.00    -0.271 OA
BRANCH  26  27
HETATM   27  C13 UNL     1      -3.119  11.514  17.488  1.00  0.00     0.303 C 
BRANCH  27  28
HETATM   28  C14 UNL     1      -4.171  12.556  17.861  1.00  0.00     0.244 C 
HETATM   29  O3  UNL     1      -5.033  12.980  17.099  1.00  0.00    -0.271 OA
HETATM   30  N2  UNL     1      -4.072  12.976  19.174  1.00  0.00    -0.343 N 
HETATM   31  H16 UNL     1      -3.161  12.905  19.617  1.00  0.00     0.163 HD
BRANCH  30  32
HETATM   32  C15 UNL     1      -4.912  14.080  19.687  1.00  0.00     0.217 C 
BRANCH  32  33
HETATM   33  C16 UNL     1      -4.222  15.439  19.477  1.00  0.00     0.284 C 
HETATM   34  O4  UNL     1      -3.029  15.648  19.661  1.00  0.00    -0.263 OA
BRANCH  33  35
HETATM   35  O5  UNL     1      -5.099  16.381  19.006  1.00  0.00    -0.320 OA
BRANCH  35  36
HETATM   36  C17 UNL     1      -5.060  16.623  17.593  1.00  0.00     0.174 C 
HETATM   37  C18 UNL     1      -5.861  17.865  17.251  1.00  0.00     0.034 C 
ENDBRANCH  35  36
ENDBRANCH  33  35
ENDBRANCH  32  33
BRANCH  32  38
HETATM   38  C19 UNL     1      -5.183  13.822  21.186  1.00  0.00     0.183 C 
BRANCH  38  39
HETATM   39  O6  UNL     1      -4.692  14.911  21.984  1.00  0.00    -0.388 OA
HETATM   40  H24 UNL     1      -4.995  14.746  22.896  1.00  0.00     0.210 HD
ENDBRANCH  38  39
BRANCH  38  41
HETATM   41  C20 UNL     1      -6.600  13.459  21.573  1.00  0.00    -0.027 A 
HETATM   42  C21 UNL     1      -6.966  13.220  22.905  1.00  0.00     0.010 A 
HETATM   43  C22 UNL     1      -8.277  12.870  23.233  1.00  0.00     0.001 A 
HETATM   44  C23 UNL     1      -9.235  12.738  22.232  1.00  0.00     0.000 A 
HETATM   45  C24 UNL     1      -8.888  12.974  20.904  1.00  0.00     0.001 A 
HETATM   46  C25 UNL     1      -7.581  13.337  20.577  1.00  0.00     0.010 A 
ENDBRANCH  38  41
ENDBRANCH  32  38
ENDBRANCH  30  32
ENDBRANCH  27  28
ENDBRANCH  26  27
ENDBRANCH  13  26
TORSDOF 11
ENDMDL
MODEL 2
REMARK minimizedAffinity -8.02197838
REMARK CNNscore 0.315931559
REMARK CNNaffinity 6.47205353
REMARK  11 active torsions:
REMARK  status: ('A' for Active; 'I' for Inactive)
REMARK    1  A    between atoms: C3_3  and  O1_4 
REMARK    2  A    between atoms: N1_14  and  O2_16 
REMARK    3  A    between atoms: O2_16  and  C13_17 
REMARK    4  A    between atoms: C13_17  and  C14_18 
REMARK       I    between atoms: C14_18  and  N2_20 
REMARK    5  A    between atoms: N2_20  and  C15_21 
REMARK    6  A    between atoms: C15_21  and  C16_22 
REMARK    7  A    between atoms: C15_21  and  C19_27 
REMARK    8  A    between atoms: C16_22  and  O5_24 
REMARK    9  A    between atoms: O5_24  and  C17_25 
REMARK   10  A    between atoms: C19_27  and  O6_28 
REMARK   11  A    between atoms: C19_27  and  C20_29 
ROOT
HETATM    1  C1  UNL     1       5.001   8.863   9.633  1.00  0.00     0.015 C 
HETATM    2  C2  UNL     1       4.366   8.038  10.235  1.00  0.00    -0.078 C 
HETATM    3  C3  UNL     1       3.605   7.015  10.988  1.00  0.00     0.128 C 
HETATM    4  C4  UNL     1       3.379   7.520  12.417  1.00  0.00     0.052 C 
HETATM    5  C5  UNL     1       2.119   8.384  12.343  1.00  0.00     0.010 C 
HETATM    6  C6  UNL     1       1.388   8.010  11.034  1.00  0.00     0.002 C 
HETATM    7  C7  UNL     1      -0.129   7.781  11.186  1.00  0.00    -0.004 C 
HETATM    8  C8  UNL     1      -0.867   9.069  11.575  1.00  0.00     0.010 C 
HETATM    9  C9  UNL     1      -2.269   8.779  12.086  1.00  0.00     0.035 C 
HETATM   10  C10 UNL     1      -2.111   8.030  13.377  1.00  0.00    -0.069 C 
HETATM   11  C11 UNL     1      -2.478   8.608  14.536  1.00  0.00     0.030 C 
HETATM   12  C12 UNL     1      -2.233   7.950  15.854  1.00  0.00     0.032 C 
HETATM   13  N1  UNL     1      -2.616   8.395  17.013  1.00  0.00    -0.271 N 
ATOM     14  H1  UNL     1      -2.414   7.927  17.897  1.00  0.00     0.194 HD
HETATM   15  C26 UNL     1      -1.479   6.638  15.859  1.00  0.00     0.060 C 
HETATM   16  C27 UNL     1      -0.650   6.429  14.599  1.00  0.00     0.020 C 
HETATM   17  C28 UNL     1      -1.439   6.666  13.285  1.00  0.00    -0.016 C 
HETATM   18  C29 UNL     1      -2.570   5.603  13.189  1.00  0.00     0.020 C 
HETATM   19  C30 UNL     1      -0.534   6.502  11.985  1.00  0.00     0.002 C 
HETATM   20  C31 UNL     1       0.648   5.521  12.154  1.00  0.00     0.007 C 
HETATM   21  C32 UNL     1       1.511   5.436  10.897  1.00  0.00     0.014 C 
HETATM   22  C33 UNL     1       2.151   6.788  10.446  1.00  0.00     0.003 C 
HETATM   23  C34 UNL     1       2.107   6.790   8.901  1.00  0.00     0.020 C 
ENDROOT
BRANCH   3  24
HETATM   24  O1  UNL     1       4.380   5.826  10.964  1.00  0.00    -0.377 OA
HETATM   25  H2  UNL     1       4.276   5.369  11.813  1.00  0.00     0.211 HD
ENDBRANCH   3  24
BRANCH  13  26
HETATM   26  O2  UNL     1      -3.339   9.596  16.909  1.00  0.00    -0.271 OA
BRANCH  26  27
HETATM   27  C13 UNL     1      -2.435  10.673  17.085  1.00  0.00     0.303 C 
BRANCH  27  28
HETATM   28  C14 UNL     1      -1.749  10.640  18.449  1.00  0.00     0.244 C 
HETATM   29  O3  UNL     1      -2.271  10.235  19.482  1.00  0.00    -0.271 OA
HETATM   30  N2  UNL     1      -0.448  11.103  18.409  1.00  0.00    -0.343 N 
HETATM   31  H16 UNL     1      -0.210  11.758  17.670  1.00  0.00     0.163 HD
BRANCH  30  32
HETATM   32  C15 UNL     1       0.337  11.279  19.651  1.00  0.00     0.217 C 
BRANCH  32  33
HETATM   33  C16 UNL     1       0.555  12.771  19.958  1.00  0.00     0.284 C 
HETATM   34  O4  UNL     1      -0.292  13.642  19.803  1.00  0.00    -0.263 OA
BRANCH  33  35
HETATM   35  O5  UNL     1       1.801  13.001  20.478  1.00  0.00    -0.320 OA
BRANCH  35  36
HETATM   36  C17 UNL     1       1.933  14.171  21.297  1.00  0.00     0.174 C 
HETATM   37  C18 UNL     1       3.394  14.559  21.427  1.00  0.00     0.034 C 
ENDBRANCH  35  36
ENDBRANCH  33  35
ENDBRANCH  32  33
BRANCH  32  38
HETATM   38  C19 UNL     1       1.686  10.547  19.474  1.00  0.00     0.183 C 
BRANCH  38  39
HETATM   39  O6  UNL     1       2.527  11.252  18.547  1.00  0.00    -0.388 OA
HETATM   40  H24 UNL     1       3.396  10.811  18.568  1.00  0.00     0.210 HD
ENDBRANCH  38  39
BRANCH  38  41
HETATM   41  C20 UNL     1       2.444  10.194  20.735  1.00  0.00    -0.027 A 
HETATM   42  C21 UNL     1       1.904   9.341  21.709  1.00  0.00     0.010 A 
HETATM   43  C22 UNL     1       2.618   9.046  22.872  1.00  0.00     0.001 A 
HETATM   44  C23 UNL     1       3.872   9.612  23.085  1.00  0.00     0.000 A 
HETATM   45  C24 UNL     1       4.422  10.459  22.126  1.00  0.00     0.001 A 
HETATM   46  C25 UNL     1       3.715  10.744  20.957  1.00  0.00     0.010 A 
ENDBRANCH  38  41
ENDBRANCH  32  38
ENDBRANCH  30  32
ENDBRANCH  27  28
ENDBRANCH  26  27
ENDBRANCH  13  26
TORSDOF 11
ENDMDL
MODEL 3
REMARK minimizedAffinity -7.2157855
REMARK CNNscore 0.270104945
REMARK CNNaffinity 6.12762451
REMARK  11 active torsions:
REMARK  status: ('A' for Active; 'I' for Inactive)
REMARK    1  A    between atoms: C3_3  and  O1_4 
REMARK    2  A    between atoms: N1_14  and  O2_16 
REMARK    3  A    between atoms: O2_16  and  C13_17 
REMARK    4  A    between atoms: C13_17  and  C14_18 
REMARK       I    between atoms: C14_18  and  N2_20 
REMARK    5  A    between atoms: N2_20  and  C15_21 
REMARK    6  A    between atoms: C15_21  and  C16_22 
REMARK    7  A    between atoms: C15_21  and  C19_27 
REMARK    8  A    between atoms: C16_22  and  O5_24 
REMARK    9  A    between atoms: O5_24  and  C17_25 
REMARK   10  A    between atoms: C19_27  and  O6_28 
REMARK   11  A    between atoms: C19_27  and  C20_29 
ROOT
HETATM    1  C1  UNL     1     -13.837   7.678  23.326  1.00  0.00     0.015 C 
HETATM    2  C2  UNL     1     -13.152   8.558  23.776  1.00  0.00    -0.078 C 
HETATM    3  C3  UNL     1     -12.302   9.626  24.349  1.00  0.00     0.128 C 
HETATM    4  C4  UNL     1     -10.842   9.351  23.973  1.00  0.00     0.052 C 
HETATM    5  C5  UNL     1     -10.661   9.969  22.587  1.00  0.00     0.010 C 
HETATM    6  C6  UNL     1     -11.825  10.964  22.377  1.00  0.00     0.002 C 
HETATM    7  C7  UNL     1     -11.405  12.338  21.818  1.00  0.00    -0.004 C 
HETATM    8  C8  UNL     1     -10.853  12.231  20.390  1.00  0.00     0.010 C 
HETATM    9  C9  UNL     1     -10.103  13.489  19.984  1.00  0.00     0.035 C 
HETATM   10  C10 UNL     1      -8.884  13.566  20.855  1.00  0.00    -0.069 C 
HETATM   11  C11 UNL     1      -7.661  13.409  20.314  1.00  0.00     0.030 C 
HETATM   12  C12 UNL     1      -6.430  13.361  21.155  1.00  0.00     0.032 C 
HETATM   13  N1  UNL     1      -5.208  13.286  20.719  1.00  0.00    -0.271 N 
ATOM     14  H1  UNL     1      -4.389  13.237  21.326  1.00  0.00     0.194 HD
HETATM   15  C26 UNL     1      -6.598  13.412  22.658  1.00  0.00     0.060 C 
HETATM   16  C27 UNL     1      -7.994  13.001  23.109  1.00  0.00     0.020 C 
HETATM   17  C28 UNL     1      -9.135  13.726  22.350  1.00  0.00    -0.016 C 
HETATM   18  C29 UNL     1      -9.052  15.246  22.668  1.00  0.00     0.020 C 
HETATM   19  C30 UNL     1     -10.582  13.234  22.797  1.00  0.00     0.002 C 
HETATM   20  C31 UNL     1     -10.659  12.729  24.254  1.00  0.00     0.007 C 
HETATM   21  C32 UNL     1     -12.053  12.225  24.618  1.00  0.00     0.014 C 
HETATM   22  C33 UNL     1     -12.575  11.044  23.738  1.00  0.00     0.003 C 
HETATM   23  C34 UNL     1     -14.087  11.298  23.531  1.00  0.00     0.020 C 
ENDROOT
BRANCH   3  24
HETATM   24  O1  UNL     1     -12.500   9.599  25.754  1.00  0.00    -0.377 OA
HETATM   25  H2  UNL     1     -11.659   9.806  26.192  1.00  0.00     0.211 HD
ENDBRANCH   3  24
BRANCH  13  26
HETATM   26  O2  UNL     1      -5.145  13.282  19.314  1.00  0.00    -0.271 OA
BRANCH  26  27
HETATM   27  C13 UNL     1      -3.812  12.985  18.934  1.00  0.00     0.303 C 
BRANCH  27  28
HETATM   28  C14 UNL     1      -3.746  12.036  17.739  1.00  0.00     0.244 C 
HETATM   29  O3  UNL     1      -4.408  12.158  16.714  1.00  0.00    -0.271 OA
HETATM   30  N2  UNL     1      -2.835  11.012  17.915  1.00  0.00    -0.343 N 
HETATM   31  H16 UNL     1      -2.622  10.738  18.870  1.00  0.00     0.163 HD
BRANCH  30  32
HETATM   32  C15 UNL     1      -2.723   9.913  16.930  1.00  0.00     0.217 C 
BRANCH  32  33
HETATM   33  C16 UNL     1      -1.251   9.542  16.685  1.00  0.00     0.284 C 
HETATM   34  O4  UNL     1      -0.303  10.018  17.298  1.00  0.00    -0.263 OA
BRANCH  33  35
HETATM   35  O5  UNL     1      -1.130   8.569  15.727  1.00  0.00    -0.320 OA
BRANCH  35  36
HETATM   36  C17 UNL     1      -0.091   7.604  15.941  1.00  0.00     0.174 C 
HETATM   37  C18 UNL     1       0.151   6.806  14.674  1.00  0.00     0.034 C 
ENDBRANCH  35  36
ENDBRANCH  33  35
ENDBRANCH  32  33
BRANCH  32  38
HETATM   38  C19 UNL     1      -3.406  10.370  15.622  1.00  0.00     0.183 C 
BRANCH  38  39
HETATM   39  O6  UNL     1      -2.444  10.948  14.725  1.00  0.00    -0.388 OA
HETATM   40  H24 UNL     1      -2.909  11.106  13.883  1.00  0.00     0.210 HD
ENDBRANCH  38  39
BRANCH  38  41
HETATM   41  C20 UNL     1      -4.271   9.353  14.910  1.00  0.00    -0.027 A 
HETATM   42  C21 UNL     1      -3.868   8.747  13.712  1.00  0.00     0.010 A 
HETATM   43  C22 UNL     1      -4.694   7.825  13.066  1.00  0.00     0.001 A 
HETATM   44  C23 UNL     1      -5.940   7.510  13.600  1.00  0.00     0.000 A 
HETATM   45  C24 UNL     1      -6.354   8.102  14.790  1.00  0.00     0.001 A 
HETATM   46  C25 UNL     1      -5.524   9.013  15.444  1.00  0.00     0.010 A 
ENDBRANCH  38  41
ENDBRANCH  32  38
ENDBRANCH  30  32
ENDBRANCH  27  28
ENDBRANCH  26  27
ENDBRANCH  13  26
TORSDOF 11
ENDMDL
MODEL 4
REMARK minimizedAffinity -9.67442322
REMARK CNNscore 0.23916699
REMARK CNNaffinity 6.87284708
REMARK  11 active torsions:
REMARK  status: ('A' for Active; 'I' for Inactive)
REMARK    1  A    between atoms: C3_3  and  O1_4 
REMARK    2  A    between atoms: N1_14  and  O2_16 
REMARK    3  A    between atoms: O2_16  and  C13_17 
REMARK    4  A    between atoms: C13_17  and  C14_18 
REMARK       I    between atoms: C14_18  and  N2_20 
REMARK    5  A    between atoms: N2_20  and  C15_21 
REMARK    6  A    between atoms: C15_21  and  C16_22 
REMARK    7  A    between atoms: C15_21  and  C19_27 
REMARK    8  A    between atoms: C16_22  and  O5_24 
REMARK    9  A    between atoms: O5_24  and  C17_25 
REMARK   10  A    between atoms: C19_27  and  O6_28 
REMARK   11  A    between atoms: C19_27  and  C20_29 
ROOT
HETATM    1  C1  UNL     1       2.240   6.063   6.527  1.00  0.00     0.015 C 
HETATM    2  C2  UNL     1       2.320   6.805   7.470  1.00  0.00    -0.078 C 
HETATM    3  C3  UNL     1       2.423   7.738   8.616  1.00  0.00     0.128 C 
HETATM    4  C4  UNL     1       1.087   8.469   8.778  1.00  0.00     0.052 C 
HETATM    5  C5  UNL     1       0.221   7.540   9.629  1.00  0.00     0.010 C 
HETATM    6  C6  UNL     1       1.172   6.538  10.319  1.00  0.00     0.002 C 
HETATM    7  C7  UNL     1       0.909   6.330  11.824  1.00  0.00    -0.004 C 
HETATM    8  C8  UNL     1      -0.450   5.667  12.082  1.00  0.00     0.010 C 
HETATM    9  C9  UNL     1      -0.874   5.803  13.535  1.00  0.00     0.035 C 
HETATM   10  C10 UNL     1      -1.115   7.263  13.780  1.00  0.00    -0.069 C 
HETATM   11  C11 UNL     1      -2.363   7.706  14.021  1.00  0.00     0.030 C 
HETATM   12  C12 UNL     1      -2.669   9.160  14.155  1.00  0.00     0.032 C 
HETATM   13  N1  UNL     1      -3.823   9.674  14.458  1.00  0.00    -0.271 N 
ATOM     14  H1  UNL     1      -4.000  10.677  14.523  1.00  0.00     0.194 HD
HETATM   15  C26 UNL     1      -1.541  10.144  13.928  1.00  0.00     0.060 C 
HETATM   16  C27 UNL     1      -0.397   9.551  13.115  1.00  0.00     0.020 C 
HETATM   17  C28 UNL     1       0.097   8.177  13.639  1.00  0.00    -0.016 C 
HETATM   18  C29 UNL     1       0.690   8.375  15.062  1.00  0.00     0.020 C 
HETATM   19  C30 UNL     1       1.250   7.552  12.735  1.00  0.00     0.002 C 
HETATM   20  C31 UNL     1       2.123   8.597  12.008  1.00  0.00     0.007 C 
HETATM   21  C32 UNL     1       3.181   7.947  11.120  1.00  0.00     0.014 C 
HETATM   22  C33 UNL     1       2.616   7.020   9.996  1.00  0.00     0.003 C 
HETATM   23  C34 UNL     1       3.595   5.827   9.891  1.00  0.00     0.020 C 
ENDROOT
BRANCH   3  24
HETATM   24  O1  UNL     1       3.484   8.634   8.322  1.00  0.00    -0.377 OA
HETATM   25  H2  UNL     1       3.254   9.512   8.663  1.00  0.00     0.211 HD
ENDBRANCH   3  24
BRANCH  13  26
HETATM   26  O2  UNL     1      -4.799   8.689  14.688  1.00  0.00    -0.271 OA
BRANCH  26  27
HETATM   27  C13 UNL     1      -5.113   8.081  13.446  1.00  0.00     0.303 C 
BRANCH  27  28
HETATM   28  C14 UNL     1      -5.842   6.750  13.617  1.00  0.00     0.244 C 
HETATM   29  O3  UNL     1      -5.323   5.648  13.472  1.00  0.00    -0.271 OA
HETATM   30  N2  UNL     1      -7.167   6.903  13.977  1.00  0.00    -0.343 N 
HETATM   31  H16 UNL     1      -7.624   7.770  13.709  1.00  0.00     0.163 HD
BRANCH  30  32
HETATM   32  C15 UNL     1      -8.075   5.738  14.056  1.00  0.00     0.217 C 
BRANCH  32  33
HETATM   33  C16 UNL     1      -8.459   5.243  12.650  1.00  0.00     0.284 C 
HETATM   34  O4  UNL     1      -8.542   5.960  11.661  1.00  0.00    -0.263 OA
BRANCH  33  35
HETATM   35  O5  UNL     1      -8.645   3.886  12.628  1.00  0.00    -0.320 OA
BRANCH  35  36
HETATM   36  C17 UNL     1      -7.611   3.100  13.236  1.00  0.00     0.174 C 
HETATM   37  C18 UNL     1      -6.597   2.670  12.192  1.00  0.00     0.034 C 
ENDBRANCH  35  36
ENDBRANCH  33  35
ENDBRANCH  32  33
BRANCH  32  38
HETATM   38  C19 UNL     1      -9.327   6.159  14.856  1.00  0.00     0.183 C 
BRANCH  38  39
HETATM   39  O6  UNL     1      -9.092   6.030  16.268  1.00  0.00    -0.388 OA
HETATM   40  H24 UNL     1      -9.867   6.418  16.715  1.00  0.00     0.210 HD
ENDBRANCH  38  39
BRANCH  38  41
HETATM   41  C20 UNL     1      -9.930   7.508  14.526  1.00  0.00    -0.027 A 
HETATM   42  C21 UNL     1      -9.539   8.677  15.195  1.00  0.00     0.010 A 
HETATM   43  C22 UNL     1     -10.124   9.906  14.883  1.00  0.00     0.001 A 
HETATM   44  C23 UNL     1     -11.118   9.979  13.911  1.00  0.00     0.000 A 
HETATM   45  C24 UNL     1     -11.515   8.828  13.237  1.00  0.00     0.001 A 
HETATM   46  C25 UNL     1     -10.922   7.601  13.538  1.00  0.00     0.010 A 
ENDBRANCH  38  41
ENDBRANCH  32  38
ENDBRANCH  30  32
ENDBRANCH  27  28
ENDBRANCH  26  27
ENDBRANCH  13  26
TORSDOF 11
ENDMDL
MODEL 5
REMARK minimizedAffinity -7.1748085
REMARK CNNscore 0.222179443
REMARK CNNaffinity 6.01087189
REMARK  11 active torsions:
REMARK  status: ('A' for Active; 'I' for Inactive)
REMARK    1  A    between atoms: C3_3  and  O1_4 
REMARK    2  A    between atoms: N1_14  and  O2_16 
REMARK    3  A    between atoms: O2_16  and  C13_17 
REMARK    4  A    between atoms: C13_17  and  C14_18 
REMARK       I    between atoms: C14_18  and  N2_20 
REMARK    5  A    between atoms: N2_20  and  C15_21 
REMARK    6  A    between atoms: C15_21  and  C16_22 
REMARK    7  A    between atoms: C15_21  and  C19_27 
REMARK    8  A    between atoms: C16_22  and  O5_24 
REMARK    9  A    between atoms: O5_24  and  C17_25 
REMARK   10  A    between atoms: C19_27  and  O6_28 
REMARK   11  A    between atoms: C19_27  and  C20_29 
ROOT
HETATM    1  C1  UNL     1       2.078   6.897   8.212  1.00  0.00     0.015 C 
HETATM    2  C2  UNL     1       2.037   6.644   9.387  1.00  0.00    -0.078 C 
HETATM    3  C3  UNL     1       2.010   6.324  10.832  1.00  0.00     0.128 C 
HETATM    4  C4  UNL     1       2.712   7.449  11.600  1.00  0.00     0.052 C 
HETATM    5  C5  UNL     1       1.637   8.511  11.829  1.00  0.00     0.010 C 
HETATM    6  C6  UNL     1       0.268   7.825  11.620  1.00  0.00     0.002 C 
HETATM    7  C7  UNL     1      -0.780   8.132  12.708  1.00  0.00    -0.004 C 
HETATM    8  C8  UNL     1      -1.192   9.610  12.707  1.00  0.00     0.010 C 
HETATM    9  C9  UNL     1      -1.917   9.990  13.987  1.00  0.00     0.035 C 
HETATM   10  C10 UNL     1      -0.917   9.878  15.100  1.00  0.00    -0.069 C 
HETATM   11  C11 UNL     1      -0.500  10.986  15.741  1.00  0.00     0.030 C 
HETATM   12  C12 UNL     1       0.577  10.938  16.773  1.00  0.00     0.032 C 
HETATM   13  N1  UNL     1       0.991  11.937  17.492  1.00  0.00    -0.271 N 
ATOM     14  H1  UNL     1       1.745  11.872  18.177  1.00  0.00     0.194 HD
HETATM   15  C26 UNL     1       1.255   9.609  17.026  1.00  0.00     0.060 C 
HETATM   16  C27 UNL     1       1.101   8.637  15.863  1.00  0.00     0.020 C 
HETATM   17  C28 UNL     1      -0.361   8.484  15.365  1.00  0.00    -0.016 C 
HETATM   18  C29 UNL     1      -1.209   7.862  16.510  1.00  0.00     0.020 C 
HETATM   19  C30 UNL     1      -0.485   7.512  14.110  1.00  0.00     0.002 C 
HETATM   20  C31 UNL     1       0.600   6.414  14.048  1.00  0.00     0.007 C 
HETATM   21  C32 UNL     1       0.464   5.540  12.804  1.00  0.00     0.014 C 
HETATM   22  C33 UNL     1       0.567   6.308  11.447  1.00  0.00     0.003 C 
HETATM   23  C34 UNL     1      -0.454   5.640  10.496  1.00  0.00     0.020 C 
ENDROOT
BRANCH   3  24
HETATM   24  O1  UNL     1       2.676   5.081  10.991  1.00  0.00    -0.377 OA
HETATM   25  H2  UNL     1       3.172   5.096  11.824  1.00  0.00     0.211 HD
ENDBRANCH   3  24
BRANCH  13  26
HETATM   26  O2  UNL     1       0.282  13.120  17.217  1.00  0.00    -0.271 OA
BRANCH  26  27
HETATM   27  C13 UNL     1       0.758  14.132  18.088  1.00  0.00     0.303 C 
BRANCH  27  28
HETATM   28  C14 UNL     1       1.403  13.560  19.349  1.00  0.00     0.244 C 
HETATM   29  O3  UNL     1       0.798  13.296  20.383  1.00  0.00    -0.271 OA
HETATM   30  N2  UNL     1       2.761  13.344  19.209  1.00  0.00    -0.343 N 
HETATM   31  H16 UNL     1       3.254  13.912  18.528  1.00  0.00     0.163 HD
BRANCH  30  32
HETATM   32  C15 UNL     1       3.588  12.924  20.361  1.00  0.00     0.217 C 
BRANCH  32  33
HETATM   33  C16 UNL     1       4.896  13.732  20.424  1.00  0.00     0.284 C 
HETATM   34  O4  UNL     1       5.581  14.018  19.450  1.00  0.00    -0.263 OA
BRANCH  33  35
HETATM   35  O5  UNL     1       5.175  14.140  21.701  1.00  0.00    -0.320 OA
BRANCH  35  36
HETATM   36  C17 UNL     1       4.112  14.810  22.393  1.00  0.00     0.174 C 
HETATM   37  C18 UNL     1       4.661  15.581  23.578  1.00  0.00     0.034 C 
ENDBRANCH  35  36
ENDBRANCH  33  35
ENDBRANCH  32  33
BRANCH  32  38
HETATM   38  C19 UNL     1       3.876  11.413  20.220  1.00  0.00     0.183 C 
BRANCH  38  39
HETATM   39  O6  UNL     1       5.252  11.191  19.872  1.00  0.00    -0.388 OA
HETATM   40  H24 UNL     1       5.398  10.227  19.913  1.00  0.00     0.210 HD
ENDBRANCH  38  39
BRANCH  38  41
HETATM   41  C20 UNL     1       3.457  10.525  21.372  1.00  0.00    -0.027 A 
HETATM   42  C21 UNL     1       2.620   9.415  21.185  1.00  0.00     0.010 A 
HETATM   43  C22 UNL     1       2.234   8.623  22.268  1.00  0.00     0.001 A 
HETATM   44  C23 UNL     1       2.665   8.940  23.553  1.00  0.00     0.000 A 
HETATM   45  C24 UNL     1       3.498  10.037  23.754  1.00  0.00     0.001 A 
HETATM   46  C25 UNL     1       3.895  10.821  22.671  1.00  0.00     0.010 A 
ENDBRANCH  38  41
ENDBRANCH  32  38
ENDBRANCH  30  32
ENDBRANCH  27  28
ENDBRANCH  26  27
ENDBRANCH  13  26
TORSDOF 11
ENDMDL
MODEL 6
REMARK minimizedAffinity -6.9970727
REMARK CNNscore 0.218016714
REMARK CNNaffinity 5.70454025
REMARK  11 active torsions:
REMARK  status: ('A' for Active; 'I' for Inactive)
REMARK    1  A    between atoms: C3_3  and  O1_4 
REMARK    2  A    between atoms: N1_14  and  O2_16 
REMARK    3  A    between atoms: O2_16  and  C13_17 
REMARK    4  A    between atoms: C13_17  and  C14_18 
REMARK       I    between atoms: C14_18  and  N2_20 
REMARK    5  A    between atoms: N2_20  and  C15_21 
REMARK    6  A    between atoms: C15_21  and  C16_22 
REMARK    7  A    between atoms: C15_21  and  C19_27 
REMARK    8  A    between atoms: C16_22  and  O5_24 
REMARK    9  A    between atoms: O5_24  and  C17_25 
REMARK   10  A    between atoms: C19_27  and  O6_28 
REMARK   11  A    between atoms: C19_27  and  C20_29 
ROOT
HETATM    1  C1  UNL     1      -2.139   5.744  12.927  1.00  0.00     0.015 C 
HETATM    2  C2  UNL     1      -2.291   6.745  13.576  1.00  0.00    -0.078 C 
HETATM    3  C3  UNL     1      -2.499   7.970  14.382  1.00  0.00     0.128 C 
HETATM    4  C4  UNL     1      -2.222   7.646  15.853  1.00  0.00     0.052 C 
HETATM    5  C5  UNL     1      -0.712   7.809  16.023  1.00  0.00     0.010 C 
HETATM    6  C6  UNL     1      -0.207   8.645  14.825  1.00  0.00     0.002 C 
HETATM    7  C7  UNL     1       0.754   9.790  15.198  1.00  0.00    -0.004 C 
HETATM    8  C8  UNL     1       2.080   9.265  15.766  1.00  0.00     0.010 C 
HETATM    9  C9  UNL     1       2.861  10.361  16.472  1.00  0.00     0.035 C 
HETATM   10  C10 UNL     1       2.061  10.751  17.681  1.00  0.00    -0.069 C 
HETATM   11  C11 UNL     1       2.532  10.479  18.912  1.00  0.00     0.030 C 
HETATM   12  C12 UNL     1       1.722  10.741  20.138  1.00  0.00     0.032 C 
HETATM   13  N1  UNL     1       2.118  10.580  21.365  1.00  0.00    -0.271 N 
ATOM     14  H1  UNL     1       1.529  10.753  22.180  1.00  0.00     0.194 HD
HETATM   15  C26 UNL     1       0.309  11.251  19.956  1.00  0.00     0.060 C 
HETATM   16  C27 UNL     1      -0.253  10.949  18.573  1.00  0.00     0.020 C 
HETATM   17  C28 UNL     1       0.690  11.359  17.411  1.00  0.00    -0.016 C 
HETATM   18  C29 UNL     1       0.861  12.904  17.436  1.00  0.00     0.020 C 
HETATM   19  C30 UNL     1       0.106  10.977  15.980  1.00  0.00     0.002 C 
HETATM   20  C31 UNL     1      -1.436  10.948  15.910  1.00  0.00     0.007 C 
HETATM   21  C32 UNL     1      -1.944  10.531  14.532  1.00  0.00     0.014 C 
HETATM   22  C33 UNL     1      -1.478   9.116  14.061  1.00  0.00     0.003 C 
HETATM   23  C34 UNL     1      -1.208   9.236  12.543  1.00  0.00     0.020 C 
ENDROOT
BRANCH   3  24
HETATM   24  O1  UNL     1      -3.844   8.374  14.174  1.00  0.00    -0.377 OA
HETATM   25  H2  UNL     1      -4.192   8.738  15.003  1.00  0.00     0.211 HD
ENDBRANCH   3  24
BRANCH  13  26
HETATM   26  O2  UNL     1       3.452  10.142  21.439  1.00  0.00    -0.271 OA
BRANCH  26  27
HETATM   27  C13 UNL     1       4.059  10.765  22.558  1.00  0.00     0.303 C 
BRANCH  27  28
HETATM   28  C14 UNL     1       4.863  12.004  22.169  1.00  0.00     0.244 C 
HETATM   29  O3  UNL     1       4.385  13.017  21.670  1.00  0.00    -0.271 OA
HETATM   30  N2  UNL     1       6.210  11.883  22.456  1.00  0.00    -0.343 N 
HETATM   31  H16 UNL     1       6.595  10.945  22.491  1.00  0.00     0.163 HD
BRANCH  30  32
HETATM   32  C15 UNL     1       7.175  12.920  22.029  1.00  0.00     0.217 C 
BRANCH  32  33
HETATM   33  C16 UNL     1       8.423  12.282  21.394  1.00  0.00     0.284 C 
HETATM   34  O4  UNL     1       9.184  11.518  21.975  1.00  0.00    -0.263 OA
BRANCH  33  35
HETATM   35  O5  UNL     1       8.551  12.632  20.075  1.00  0.00    -0.320 OA
BRANCH  35  36
HETATM   36  C17 UNL     1       9.341  11.750  19.266  1.00  0.00     0.174 C 
HETATM   37  C18 UNL     1       8.442  10.807  18.488  1.00  0.00     0.034 C 
ENDBRANCH  35  36
ENDBRANCH  33  35
ENDBRANCH  32  33
BRANCH  32  38
HETATM   38  C19 UNL     1       7.553  13.762  23.267  1.00  0.00     0.183 C 
BRANCH  38  39
HETATM   39  O6  UNL     1       8.921  13.529  23.640  1.00  0.00    -0.388 OA
HETATM   40  H24 UNL     1       9.130  14.170  24.345  1.00  0.00     0.210 HD
ENDBRANCH  38  39
BRANCH  38  41
HETATM   41  C20 UNL     1       7.251  15.244  23.205  1.00  0.00    -0.027 A 
HETATM   42  C21 UNL     1       8.245  16.191  22.918  1.00  0.00     0.010 A 
HETATM   43  C22 UNL     1       7.943  17.554  22.884  1.00  0.00     0.001 A 
HETATM   44  C23 UNL     1       6.649  17.988  23.153  1.00  0.00     0.000 A 
HETATM   45  C24 UNL     1       5.651  17.061  23.438  1.00  0.00     0.001 A 
HETATM   46  C25 UNL     1       5.948  15.698  23.459  1.00  0.00     0.010 A 
ENDBRANCH  38  41
ENDBRANCH  32  38
ENDBRANCH  30  32
ENDBRANCH  27  28
ENDBRANCH  26  27
ENDBRANCH  13  26
TORSDOF 11
ENDMDL
MODEL 7
REMARK minimizedAffinity -8.31518459
REMARK CNNscore 0.205235198
REMARK CNNaffinity 6.45935392
REMARK  11 active torsions:
REMARK  status: ('A' for Active; 'I' for Inactive)
REMARK    1  A    between atoms: C3_3  and  O1_4 
REMARK    2  A    between atoms: N1_14  and  O2_16 
REMARK    3  A    between atoms: O2_16  and  C13_17 
REMARK    4  A    between atoms: C13_17  and  C14_18 
REMARK       I    between atoms: C14_18  and  N2_20 
REMARK    5  A    between atoms: N2_20  and  C15_21 
REMARK    6  A    between atoms: C15_21  and  C16_22 
REMARK    7  A    between atoms: C15_21  and  C19_27 
REMARK    8  A    between atoms: C16_22  and  O5_24 
REMARK    9  A    between atoms: O5_24  and  C17_25 
REMARK   10  A    between atoms: C19_27  and  O6_28 
REMARK   11  A    between atoms: C19_27  and  C20_29 
ROOT
HETATM    1  C1  UNL     1       2.509  12.968  22.287  1.00  0.00     0.015 C 
HETATM    2  C2  UNL     1       2.494  12.621  21.136  1.00  0.00    -0.078 C 
HETATM    3  C3  UNL     1       2.497  12.181  19.722  1.00  0.00     0.128 C 
HETATM    4  C4  UNL     1       1.938  10.756  19.647  1.00  0.00     0.052 C 
HETATM    5  C5  UNL     1       0.420  10.923  19.579  1.00  0.00     0.010 C 
HETATM    6  C6  UNL     1       0.142  12.383  19.157  1.00  0.00     0.002 C 
HETATM    7  C7  UNL     1      -0.911  12.543  18.042  1.00  0.00    -0.004 C 
HETATM    8  C8  UNL     1      -2.307  12.102  18.504  1.00  0.00     0.010 C 
HETATM    9  C9  UNL     1      -3.248  11.901  17.329  1.00  0.00     0.035 C 
HETATM   10  C10 UNL     1      -2.722  10.732  16.549  1.00  0.00    -0.069 C 
HETATM   11  C11 UNL     1      -3.424   9.583  16.509  1.00  0.00     0.030 C 
HETATM   12  C12 UNL     1      -2.888   8.358  15.845  1.00  0.00     0.032 C 
HETATM   13  N1  UNL     1      -3.518   7.233  15.693  1.00  0.00    -0.271 N 
ATOM     14  H1  UNL     1      -3.112   6.409  15.249  1.00  0.00     0.194 HD
HETATM   15  C26 UNL     1      -1.483   8.417  15.283  1.00  0.00     0.060 C 
HETATM   16  C27 UNL     1      -0.644   9.524  15.906  1.00  0.00     0.020 C 
HETATM   17  C28 UNL     1      -1.345  10.908  15.921  1.00  0.00    -0.016 C 
HETATM   18  C29 UNL     1      -1.567  11.364  14.451  1.00  0.00     0.020 C 
HETATM   19  C30 UNL     1      -0.472  12.033  16.633  1.00  0.00     0.002 C 
HETATM   20  C31 UNL     1       1.052  11.805  16.543  1.00  0.00     0.007 C 
HETATM   21  C32 UNL     1       1.841  12.885  17.280  1.00  0.00     0.014 C 
HETATM   22  C33 UNL     1       1.526  13.003  18.805  1.00  0.00     0.003 C 
HETATM   23  C34 UNL     1       1.564  14.513  19.137  1.00  0.00     0.020 C 
ENDROOT
BRANCH   3  24
HETATM   24  O1  UNL     1       3.842  12.245  19.274  1.00  0.00    -0.377 OA
HETATM   25  H2  UNL     1       4.004  11.508  18.665  1.00  0.00     0.211 HD
ENDBRANCH   3  24
BRANCH  13  26
HETATM   26  O2  UNL     1      -4.825   7.282  16.210  1.00  0.00    -0.271 OA
BRANCH  26  27
HETATM   27  C13 UNL     1      -5.601   8.117  15.368  1.00  0.00     0.303 C 
BRANCH  27  28
HETATM   28  C14 UNL     1      -6.031   7.411  14.084  1.00  0.00     0.244 C 
HETATM   29  O3  UNL     1      -5.532   7.607  12.980  1.00  0.00    -0.271 OA
HETATM   30  N2  UNL     1      -7.045   6.495  14.286  1.00  0.00    -0.343 N 
HETATM   31  H16 UNL     1      -7.658   6.648  15.082  1.00  0.00     0.163 HD
BRANCH  30  32
HETATM   32  C15 UNL     1      -7.692   5.809  13.146  1.00  0.00     0.217 C 
BRANCH  32  33
HETATM   33  C16 UNL     1      -9.141   6.294  12.962  1.00  0.00     0.284 C 
HETATM   34  O4  UNL     1      -9.710   6.385  11.881  1.00  0.00    -0.263 OA
BRANCH  33  35
HETATM   35  O5  UNL     1      -9.738   6.563  14.165  1.00  0.00    -0.320 OA
BRANCH  35  36
HETATM   36  C17 UNL     1     -10.419   7.821  14.260  1.00  0.00     0.174 C 
HETATM   37  C18 UNL     1      -9.525   8.853  14.921  1.00  0.00     0.034 C 
ENDBRANCH  35  36
ENDBRANCH  33  35
ENDBRANCH  32  33
BRANCH  32  38
HETATM   38  C19 UNL     1      -7.646   4.288  13.411  1.00  0.00     0.183 C 
BRANCH  38  39
HETATM   39  O6  UNL     1      -8.943   3.702  13.220  1.00  0.00    -0.388 OA
HETATM   40  H24 UNL     1      -8.824   2.736  13.285  1.00  0.00     0.210 HD
ENDBRANCH  38  39
BRANCH  38  41
HETATM   41  C20 UNL     1      -6.579   3.499  12.683  1.00  0.00    -0.027 A 
HETATM   42  C21 UNL     1      -6.816   2.202  12.203  1.00  0.00     0.010 A 
HETATM   43  C22 UNL     1      -5.809   1.489  11.550  1.00  0.00     0.001 A 
HETATM   44  C23 UNL     1      -4.548   2.055  11.384  1.00  0.00     0.000 A 
HETATM   45  C24 UNL     1      -4.298   3.342  11.852  1.00  0.00     0.001 A 
HETATM   46  C25 UNL     1      -5.308   4.061  12.493  1.00  0.00     0.010 A 
ENDBRANCH  38  41
ENDBRANCH  32  38
ENDBRANCH  30  32
ENDBRANCH  27  28
ENDBRANCH  26  27
ENDBRANCH  13  26
TORSDOF 11
ENDMDL
MODEL 8
REMARK minimizedAffinity -8.1826725
REMARK CNNscore 0.182091445
REMARK CNNaffinity 5.54407835
REMARK  11 active torsions:
REMARK  status: ('A' for Active; 'I' for Inactive)
REMARK    1  A    between atoms: C3_3  and  O1_4 
REMARK    2  A    between atoms: N1_14  and  O2_16 
REMARK    3  A    between atoms: O2_16  and  C13_17 
REMARK    4  A    between atoms: C13_17  and  C14_18 
REMARK       I    between atoms: C14_18  and  N2_20 
REMARK    5  A    between atoms: N2_20  and  C15_21 
REMARK    6  A    between atoms: C15_21  and  C16_22 
REMARK    7  A    between atoms: C15_21  and  C19_27 
REMARK    8  A    between atoms: C16_22  and  O5_24 
REMARK    9  A    between atoms: O5_24  and  C17_25 
REMARK   10  A    between atoms: C19_27  and  O6_28 
REMARK   11  A    between atoms: C19_27  and  C20_29 
ROOT
HETATM    1  C1  UNL     1       6.630  12.091  23.033  1.00  0.00     0.015 C 
HETATM    2  C2  UNL     1       5.918  12.792  22.365  1.00  0.00    -0.078 C 
HETATM    3  C3  UNL     1       5.060  13.669  21.535  1.00  0.00     0.128 C 
HETATM    4  C4  UNL     1       5.135  13.198  20.079  1.00  0.00     0.052 C 
HETATM    5  C5  UNL     1       4.091  12.087  19.962  1.00  0.00     0.010 C 
HETATM    6  C6  UNL     1       3.132  12.236  21.164  1.00  0.00     0.002 C 
HETATM    7  C7  UNL     1       1.634  12.149  20.810  1.00  0.00    -0.004 C 
HETATM    8  C8  UNL     1       1.246  10.755  20.298  1.00  0.00     0.010 C 
HETATM    9  C9  UNL     1      -0.106  10.770  19.605  1.00  0.00     0.035 C 
HETATM   10  C10 UNL     1       0.054  11.597  18.363  1.00  0.00    -0.069 C 
HETATM   11  C11 UNL     1      -0.027  11.012  17.153  1.00  0.00     0.030 C 
HETATM   12  C12 UNL     1       0.241  11.769  15.895  1.00  0.00     0.032 C 
HETATM   13  N1  UNL     1       0.117  11.311  14.686  1.00  0.00    -0.271 N 
ATOM     14  H1  UNL     1       0.327  11.853  13.848  1.00  0.00     0.194 HD
HETATM   15  C26 UNL     1       0.691  13.209  16.019  1.00  0.00     0.060 C 
HETATM   16  C27 UNL     1       1.285  13.526  17.385  1.00  0.00     0.020 C 
HETATM   17  C28 UNL     1       0.401  13.066  18.574  1.00  0.00    -0.016 C 
HETATM   18  C29 UNL     1      -0.933  13.862  18.533  1.00  0.00     0.020 C 
HETATM   19  C30 UNL     1       1.073  13.353  19.989  1.00  0.00     0.002 C 
HETATM   20  C31 UNL     1       2.029  14.566  20.003  1.00  0.00     0.007 C 
HETATM   21  C32 UNL     1       2.683  14.769  21.368  1.00  0.00     0.014 C 
HETATM   22  C33 UNL     1       3.533  13.561  21.875  1.00  0.00     0.003 C 
HETATM   23  C34 UNL     1       3.290  13.474  23.400  1.00  0.00     0.020 C 
ENDROOT
BRANCH   3  24
HETATM   24  O1  UNL     1       5.553  14.991  21.688  1.00  0.00    -0.377 OA
HETATM   25  H2  UNL     1       5.465  15.457  20.842  1.00  0.00     0.211 HD
ENDBRANCH   3  24
BRANCH  13  26
HETATM   26  O2  UNL     1      -0.341   9.982  14.666  1.00  0.00    -0.271 OA
BRANCH  26  27
HETATM   27  C13 UNL     1      -0.040   9.431  13.395  1.00  0.00     0.303 C 
BRANCH  27  28
HETATM   28  C14 UNL     1      -1.266   8.821  12.720  1.00  0.00     0.244 C 
HETATM   29  O3  UNL     1      -1.667   9.120  11.600  1.00  0.00    -0.271 OA
HETATM   30  N2  UNL     1      -1.888   7.862  13.497  1.00  0.00    -0.343 N 
HETATM   31  H16 UNL     1      -1.770   7.932  14.504  1.00  0.00     0.163 HD
BRANCH  30  32
HETATM   32  C15 UNL     1      -3.170   7.254  13.078  1.00  0.00     0.217 C 
BRANCH  32  33
HETATM   33  C16 UNL     1      -4.364   8.065  13.609  1.00  0.00     0.284 C 
HETATM   34  O4  UNL     1      -5.277   8.492  12.913  1.00  0.00    -0.263 OA
BRANCH  33  35
HETATM   35  O5  UNL     1      -4.310   8.209  14.970  1.00  0.00    -0.320 OA
BRANCH  35  36
HETATM   36  C17 UNL     1      -4.756   9.471  15.486  1.00  0.00     0.174 C 
HETATM   37  C18 UNL     1      -3.725  10.547  15.205  1.00  0.00     0.034 C 
ENDBRANCH  35  36
ENDBRANCH  33  35
ENDBRANCH  32  33
BRANCH  32  38
HETATM   38  C19 UNL     1      -3.207   5.802  13.605  1.00  0.00     0.183 C 
BRANCH  38  39
HETATM   39  O6  UNL     1      -3.403   5.786  15.028  1.00  0.00    -0.388 OA
HETATM   40  H24 UNL     1      -3.535   4.853  15.279  1.00  0.00     0.210 HD
ENDBRANCH  38  39
BRANCH  38  41
HETATM   41  C20 UNL     1      -4.157   4.848  12.914  1.00  0.00    -0.027 A 
HETATM   42  C21 UNL     1      -3.729   3.985  11.895  1.00  0.00     0.010 A 
HETATM   43  C22 UNL     1      -4.630   3.127  11.262  1.00  0.00     0.001 A 
HETATM   44  C23 UNL     1      -5.973   3.132  11.628  1.00  0.00     0.000 A 
HETATM   45  C24 UNL     1      -6.414   3.981  12.639  1.00  0.00     0.001 A 
HETATM   46  C25 UNL     1      -5.511   4.830  13.282  1.00  0.00     0.010 A 
ENDBRANCH  38  41
ENDBRANCH  32  38
ENDBRANCH  30  32
ENDBRANCH  27  28
ENDBRANCH  26  27
ENDBRANCH  13  26
TORSDOF 11
ENDMDL
MODEL 9
REMARK minimizedAffinity -7.66735077
REMARK CNNscore 0.179982767
REMARK CNNaffinity 6.10479307
REMARK  11 active torsions:
REMARK  status: ('A' for Active; 'I' for Inactive)
REMARK    1  A    between atoms: C3_3  and  O1_4 
REMARK    2  A    between atoms: N1_14  and  O2_16 
REMARK    3  A    between atoms: O2_16  and  C13_17 
REMARK    4  A    between atoms: C13_17  and  C14_18 
REMARK       I    between atoms: C14_18  and  N2_20 
REMARK    5  A    between atoms: N2_20  and  C15_21 
REMARK    6  A    between atoms: C15_21  and  C16_22 
REMARK    7  A    between atoms: C15_21  and  C19_27 
REMARK    8  A    between atoms: C16_22  and  O5_24 
REMARK    9  A    between atoms: O5_24  and  C17_25 
REMARK   10  A    between atoms: C19_27  and  O6_28 
REMARK   11  A    between atoms: C19_27  and  C20_29 
ROOT
HETATM    1  C1  UNL     1       5.691   9.031  10.011  1.00  0.00     0.015 C 
HETATM    2  C2  UNL     1       5.008   8.152  10.465  1.00  0.00    -0.078 C 
HETATM    3  C3  UNL     1       4.187   7.060  11.036  1.00  0.00     0.128 C 
HETATM    4  C4  UNL     1       3.850   7.405  12.491  1.00  0.00     0.052 C 
HETATM    5  C5  UNL     1       2.602   8.285  12.416  1.00  0.00     0.010 C 
HETATM    6  C6  UNL     1       1.976   8.068  11.020  1.00  0.00     0.002 C 
HETATM    7  C7  UNL     1       0.451   7.841  11.026  1.00  0.00    -0.004 C 
HETATM    8  C8  UNL     1      -0.312   9.086  11.497  1.00  0.00     0.010 C 
HETATM    9  C9  UNL     1      -1.750   8.756  11.861  1.00  0.00     0.035 C 
HETATM   10  C10 UNL     1      -1.698   7.866  13.068  1.00  0.00    -0.069 C 
HETATM   11  C11 UNL     1      -2.154   8.315  14.252  1.00  0.00     0.030 C 
HETATM   12  C12 UNL     1      -2.016   7.513  15.503  1.00  0.00     0.032 C 
HETATM   13  N1  UNL     1      -2.488   7.829  16.671  1.00  0.00    -0.271 N 
ATOM     14  H1  UNL     1      -2.358   7.263  17.509  1.00  0.00     0.194 HD
HETATM   15  C26 UNL     1      -1.268   6.199  15.420  1.00  0.00     0.060 C 
HETATM   16  C27 UNL     1      -0.342   6.123  14.214  1.00  0.00     0.020 C 
HETATM   17  C28 UNL     1      -1.023   6.513  12.876  1.00  0.00    -0.016 C 
HETATM   18  C29 UNL     1      -2.146   5.481  12.574  1.00  0.00     0.020 C 
HETATM   19  C30 UNL     1      -0.018   6.485  11.641  1.00  0.00     0.002 C 
HETATM   20  C31 UNL     1       1.143   5.479  11.792  1.00  0.00     0.007 C 
HETATM   21  C32 UNL     1       2.103   5.524  10.605  1.00  0.00     0.014 C 
HETATM   22  C33 UNL     1       2.780   6.910  10.360  1.00  0.00     0.003 C 
HETATM   23  C34 UNL     1       2.860   7.086   8.826  1.00  0.00     0.020 C 
ENDROOT
BRANCH   3  24
HETATM   24  O1  UNL     1       4.959   5.872  10.941  1.00  0.00    -0.377 OA
HETATM   25  H2  UNL     1       4.787   5.324  11.722  1.00  0.00     0.211 HD
ENDBRANCH   3  24
BRANCH  13  26
HETATM   26  O2  UNL     1      -3.198   9.042  16.645  1.00  0.00    -0.271 OA
BRANCH  26  27
HETATM   27  C13 UNL     1      -2.967   9.714  17.872  1.00  0.00     0.303 C 
BRANCH  27  28
HETATM   28  C14 UNL     1      -1.614  10.421  17.903  1.00  0.00     0.244 C 
HETATM   29  O3  UNL     1      -0.585   9.979  17.403  1.00  0.00    -0.271 OA
HETATM   30  N2  UNL     1      -1.660  11.644  18.544  1.00  0.00    -0.343 N 
HETATM   31  H16 UNL     1      -2.384  11.775  19.243  1.00  0.00     0.163 HD
BRANCH  30  32
HETATM   32  C15 UNL     1      -0.425  12.418  18.798  1.00  0.00     0.217 C 
BRANCH  32  33
HETATM   33  C16 UNL     1      -0.145  13.402  17.649  1.00  0.00     0.284 C 
HETATM   34  O4  UNL     1       0.760  14.228  17.647  1.00  0.00    -0.263 OA
BRANCH  33  35
HETATM   35  O5  UNL     1      -1.003  13.206  16.598  1.00  0.00    -0.320 OA
BRANCH  35  36
HETATM   36  C17 UNL     1      -0.392  12.876  15.343  1.00  0.00     0.174 C 
HETATM   37  C18 UNL     1      -1.313  11.986  14.530  1.00  0.00     0.034 C 
ENDBRANCH  35  36
ENDBRANCH  33  35
ENDBRANCH  32  33
BRANCH  32  38
HETATM   38  C19 UNL     1       0.741  11.420  18.970  1.00  0.00     0.183 C 
BRANCH  38  39
HETATM   39  O6  UNL     1       1.634  11.486  17.847  1.00  0.00    -0.388 OA
HETATM   40  H24 UNL     1       2.401  10.927  18.068  1.00  0.00     0.210 HD
ENDBRANCH  38  39
BRANCH  38  41
HETATM   41  C20 UNL     1       1.504  11.477  20.276  1.00  0.00    -0.027 A 
HETATM   42  C21 UNL     1       1.798  12.693  20.910  1.00  0.00     0.010 A 
HETATM   43  C22 UNL     1       2.520  12.718  22.105  1.00  0.00     0.001 A 
HETATM   44  C23 UNL     1       2.970  11.530  22.673  1.00  0.00     0.000 A 
HETATM   45  C24 UNL     1       2.685  10.314  22.057  1.00  0.00     0.001 A 
HETATM   46  C25 UNL     1       1.952  10.287  20.870  1.00  0.00     0.010 A 
ENDBRANCH  38  41
ENDBRANCH  32  38
ENDBRANCH  30  32
ENDBRANCH  27  28
ENDBRANCH  26  27
ENDBRANCH  13  26
TORSDOF 11
ENDMDL
