MODEL 1
REMARK minimizedAffinity -9.32088375
REMARK  8 active torsions:
REMARK  status: ('A' for Active; 'I' for Inactive)
REMARK    1  A    between atoms: C4_4  and  C5_5 
REMARK    2  A    between atoms: C5_5  and  C6_6 
REMARK    3  A    between atoms: C6_6  and  C7_7 
REMARK    4  A    between atoms: C7_7  and  C9_9 
REMARK    5  A    between atoms: C22_22  and  O1_23 
REMARK    6  A    between atoms: C24_25  and  O2_26 
REMARK    7  A    between atoms: C25_27  and  C27_29 
REMARK    8  A    between atoms: C27_29  and  O4_31 
ROOT
HETATM    1  C9  UNL     1      -5.500   6.683  15.076  1.00  0.00    -0.002 C 
HETATM    2  C10 UNL     1      -5.840   5.436  14.232  1.00  0.00     0.007 C 
HETATM    3  C11 UNL     1      -4.625   5.183  13.304  1.00  0.00     0.015 C 
HETATM    4  C12 UNL     1      -3.475   6.020  13.904  1.00  0.00    -0.005 C 
HETATM    5  C13 UNL     1      -2.870   5.183  15.076  1.00  0.00     0.021 C 
HETATM    6  C14 UNL     1      -2.261   6.427  13.072  1.00  0.00    -0.000 C 
HETATM    7  C15 UNL     1      -1.600   7.594  13.308  1.00  0.00    -0.058 C 
HETATM    8  C16 UNL     1      -2.100   8.572  14.391  1.00  0.00     0.036 C 
HETATM    9  C17 UNL     1      -3.376   8.190  15.171  1.00  0.00     0.015 C 
HETATM   10  C18 UNL     1      -4.293   7.310  14.320  1.00  0.00    -0.028 C 
HETATM   11  C19 UNL     1      -4.765   8.141  13.087  1.00  0.00     0.016 C 
HETATM   12  C20 UNL     1      -0.374   8.065  12.461  1.00  0.00     0.011 C 
HETATM   13  C21 UNL     1      -0.977   8.986  11.375  1.00  0.00     0.023 C 
HETATM   14  C22 UNL     1       0.679   8.824  13.348  1.00  0.00     0.133 C 
HETATM   15  C23 UNL     1       2.127   8.842  12.841  1.00  0.00     0.065 C 
HETATM   16  C24 UNL     1       2.280   8.471  11.372  1.00  0.00     0.139 C 
HETATM   17  C25 UNL     1       1.654   7.091  11.023  1.00  0.00     0.072 C 
HETATM   18  C26 UNL     1       2.676   5.959  11.318  1.00  0.00     0.030 C 
HETATM   19  C28 UNL     1       0.347   6.811  11.867  1.00  0.00     0.029 C 
HETATM   20  C29 UNL     1      -0.630   5.889  11.137  1.00  0.00     0.090 C 
HETATM   21  C30 UNL     1      -1.821   5.506  11.979  1.00  0.00     0.157 C 
HETATM   22  O5  UNL     1      -2.440   4.473  11.719  1.00  0.00    -0.293 OA
ENDROOT
BRANCH   1  23
HETATM   23  C7  UNL     1      -6.684   7.534  15.610  1.00  0.00    -0.014 C 
HETATM   24  C8  UNL     1      -7.374   6.787  16.766  1.00  0.00     0.010 C 
BRANCH  23  25
HETATM   25  C6  UNL     1      -7.735   8.154  14.658  1.00  0.00     0.008 C 
BRANCH  25  26
HETATM   26  C5  UNL     1      -8.915   8.972  15.199  1.00  0.00     0.028 C 
BRANCH  26  27
HETATM   27  C4  UNL     1     -10.258   8.318  15.046  1.00  0.00    -0.025 C 
HETATM   28  C2  UNL     1     -10.569   7.224  14.318  1.00  0.00    -0.091 C 
HETATM   29  C1  UNL     1     -11.980   6.695  14.291  1.00  0.00     0.042 C 
HETATM   30  C3  UNL     1      -9.605   6.432  13.476  1.00  0.00     0.042 C 
ENDBRANCH  26  27
ENDBRANCH  25  26
ENDBRANCH  23  25
ENDBRANCH   1  23
BRANCH  14  31
HETATM   31  O1  UNL     1       0.274  10.176  13.607  1.00  0.00    -0.394 OA
HETATM   32  H35 UNL     1       0.449  10.714  12.820  1.00  0.00     0.210 HD
ENDBRANCH  14  31
BRANCH  17  33
HETATM   33  C27 UNL     1       1.349   7.127   9.521  1.00  0.00     0.151 C 
HETATM   34  O3  UNL     1       0.641   7.946   8.959  1.00  0.00    -0.649 OA
BRANCH  33  35
HETATM   35  O4  UNL     1       1.869   6.102   8.819  1.00  0.00    -0.776 OA
HETATM   36  H43 UNL     1       1.566   6.237   7.894  1.00  0.00     0.167 HD
ENDBRANCH  33  35
ENDBRANCH  17  33
BRANCH  16  37
HETATM   37  O2  UNL     1       3.678   8.507  11.062  1.00  0.00    -0.394 OA
HETATM   38  H39 UNL     1       3.773   8.802  10.141  1.00  0.00     0.210 HD
ENDBRANCH  16  37
TORSDOF 8
ENDMDL
MODEL 2
REMARK minimizedAffinity -9.31628895
REMARK  8 active torsions:
REMARK  status: ('A' for Active; 'I' for Inactive)
REMARK    1  A    between atoms: C4_4  and  C5_5 
REMARK    2  A    between atoms: C5_5  and  C6_6 
REMARK    3  A    between atoms: C6_6  and  C7_7 
REMARK    4  A    between atoms: C7_7  and  C9_9 
REMARK    5  A    between atoms: C22_22  and  O1_23 
REMARK    6  A    between atoms: C24_25  and  O2_26 
REMARK    7  A    between atoms: C25_27  and  C27_29 
REMARK    8  A    between atoms: C27_29  and  O4_31 
ROOT
HETATM    1  C9  UNL     1      -6.229   6.957  14.463  1.00  0.00    -0.002 C 
HETATM    2  C10 UNL     1      -6.092   8.248  15.299  1.00  0.00     0.007 C 
HETATM    3  C11 UNL     1      -4.616   8.703  15.173  1.00  0.00     0.015 C 
HETATM    4  C12 UNL     1      -4.049   7.917  13.971  1.00  0.00    -0.005 C 
HETATM    5  C13 UNL     1      -4.490   8.682  12.682  1.00  0.00     0.021 C 
HETATM    6  C14 UNL     1      -2.548   7.709  13.785  1.00  0.00    -0.000 C 
HETATM    7  C15 UNL     1      -2.058   6.589  13.186  1.00  0.00    -0.058 C 
HETATM    8  C16 UNL     1      -3.010   5.464  12.730  1.00  0.00     0.036 C 
HETATM    9  C17 UNL     1      -4.518   5.647  12.997  1.00  0.00     0.015 C 
HETATM   10  C18 UNL     1      -4.753   6.522  14.228  1.00  0.00    -0.028 C 
HETATM   11  C19 UNL     1      -4.175   5.783  15.474  1.00  0.00     0.016 C 
HETATM   12  C20 UNL     1      -0.529   6.320  13.004  1.00  0.00     0.011 C 
HETATM   13  C21 UNL     1      -0.132   5.464  14.229  1.00  0.00     0.023 C 
HETATM   14  C22 UNL     1      -0.235   5.573  11.652  1.00  0.00     0.133 C 
HETATM   15  C23 UNL     1       1.172   5.738  11.062  1.00  0.00     0.065 C 
HETATM   16  C24 UNL     1       2.205   6.270  12.047  1.00  0.00     0.139 C 
HETATM   17  C25 UNL     1       1.786   7.615  12.702  1.00  0.00     0.072 C 
HETATM   18  C26 UNL     1       2.193   8.800  11.783  1.00  0.00     0.030 C 
HETATM   19  C28 UNL     1       0.225   7.689  12.944  1.00  0.00     0.029 C 
HETATM   20  C29 UNL     1      -0.139   8.588  14.126  1.00  0.00     0.090 C 
HETATM   21  C30 UNL     1      -1.627   8.773  14.290  1.00  0.00     0.157 C 
HETATM   22  O5  UNL     1      -2.051   9.767  14.880  1.00  0.00    -0.293 OA
ENDROOT
BRANCH   1  23
HETATM   23  C7  UNL     1      -7.341   5.952  14.871  1.00  0.00    -0.014 C 
HETATM   24  C8  UNL     1      -7.636   6.095  16.375  1.00  0.00     0.010 C 
BRANCH  23  25
HETATM   25  C6  UNL     1      -7.275   4.459  14.467  1.00  0.00     0.008 C 
BRANCH  25  26
HETATM   26  C5  UNL     1      -7.742   3.989  13.083  1.00  0.00     0.028 C 
BRANCH  26  27
HETATM   27  C4  UNL     1      -7.206   2.651  12.658  1.00  0.00    -0.025 C 
HETATM   28  C2  UNL     1      -6.304   2.389  11.689  1.00  0.00    -0.091 C 
HETATM   29  C1  UNL     1      -5.869   0.974  11.407  1.00  0.00     0.042 C 
HETATM   30  C3  UNL     1      -5.650   3.416  10.803  1.00  0.00     0.042 C 
ENDBRANCH  26  27
ENDBRANCH  25  26
ENDBRANCH  23  25
ENDBRANCH   1  23
BRANCH  14  31
HETATM   31  O1  UNL     1      -0.521   4.170  11.752  1.00  0.00    -0.394 OA
HETATM   32  H35 UNL     1       0.201   3.734  12.229  1.00  0.00     0.210 HD
ENDBRANCH  14  31
BRANCH  17  33
HETATM   33  C27 UNL     1       2.558   7.706  14.024  1.00  0.00     0.151 C 
HETATM   34  O3  UNL     1       3.225   8.658  14.394  1.00  0.00    -0.649 OA
BRANCH  33  35
HETATM   35  O4  UNL     1       2.526   6.585  14.769  1.00  0.00    -0.776 OA
HETATM   36  H43 UNL     1       3.084   6.777  15.556  1.00  0.00     0.167 HD
ENDBRANCH  33  35
ENDBRANCH  17  33
BRANCH  16  37
HETATM   37  O2  UNL     1       3.447   6.393  11.343  1.00  0.00    -0.394 OA
HETATM   38  H39 UNL     1       4.166   6.204  11.969  1.00  0.00     0.210 HD
ENDBRANCH  16  37
TORSDOF 8
ENDMDL
MODEL 3
REMARK minimizedAffinity -9.0811367
REMARK  8 active torsions:
REMARK  status: ('A' for Active; 'I' for Inactive)
REMARK    1  A    between atoms: C4_4  and  C5_5 
REMARK    2  A    between atoms: C5_5  and  C6_6 
REMARK    3  A    between atoms: C6_6  and  C7_7 
REMARK    4  A    between atoms: C7_7  and  C9_9 
REMARK    5  A    between atoms: C22_22  and  O1_23 
REMARK    6  A    between atoms: C24_25  and  O2_26 
REMARK    7  A    between atoms: C25_27  and  C27_29 
REMARK    8  A    between atoms: C27_29  and  O4_31 
ROOT
HETATM    1  C9  UNL     1      -2.526   7.726  13.706  1.00  0.00    -0.002 C 
HETATM    2  C10 UNL     1      -2.214   7.546  15.207  1.00  0.00     0.007 C 
HETATM    3  C11 UNL     1      -0.673   7.615  15.351  1.00  0.00     0.015 C 
HETATM    4  C12 UNL     1      -0.168   8.226  14.026  1.00  0.00    -0.005 C 
HETATM    5  C13 UNL     1      -0.340   9.773  14.147  1.00  0.00     0.021 C 
HETATM    6  C14 UNL     1       1.274   8.047  13.558  1.00  0.00    -0.000 C 
HETATM    7  C15 UNL     1       1.588   7.991  12.235  1.00  0.00    -0.058 C 
HETATM    8  C16 UNL     1       0.479   8.047  11.165  1.00  0.00     0.036 C 
HETATM    9  C17 UNL     1      -0.983   8.145  11.648  1.00  0.00     0.015 C 
HETATM   10  C18 UNL     1      -1.148   7.493  13.021  1.00  0.00    -0.028 C 
HETATM   11  C19 UNL     1      -0.833   5.971  12.883  1.00  0.00     0.016 C 
HETATM   12  C20 UNL     1       3.046   7.777  11.713  1.00  0.00     0.011 C 
HETATM   13  C21 UNL     1       3.162   6.252  11.488  1.00  0.00     0.023 C 
HETATM   14  C22 UNL     1       3.305   8.582  10.387  1.00  0.00     0.133 C 
HETATM   15  C23 UNL     1       4.762   8.942  10.069  1.00  0.00     0.065 C 
HETATM   16  C24 UNL     1       5.790   8.142  10.860  1.00  0.00     0.139 C 
HETATM   17  C25 UNL     1       5.586   8.237  12.397  1.00  0.00     0.072 C 
HETATM   18  C26 UNL     1       6.291   9.507  12.947  1.00  0.00     0.030 C 
HETATM   19  C28 UNL     1       4.054   8.316  12.781  1.00  0.00     0.029 C 
HETATM   20  C29 UNL     1       3.770   7.740  14.168  1.00  0.00     0.090 C 
HETATM   21  C30 UNL     1       2.338   7.926  14.603  1.00  0.00     0.157 C 
HETATM   22  O5  UNL     1       2.065   7.921  15.804  1.00  0.00    -0.293 OA
ENDROOT
BRANCH   1  23
HETATM   23  C7  UNL     1      -3.843   7.103  13.166  1.00  0.00    -0.014 C 
HETATM   24  C8  UNL     1      -4.955   8.167  13.170  1.00  0.00     0.010 C 
BRANCH  23  25
HETATM   25  C6  UNL     1      -4.380   5.751  13.695  1.00  0.00     0.008 C 
BRANCH  25  26
HETATM   26  C5  UNL     1      -5.662   5.128  13.127  1.00  0.00     0.028 C 
BRANCH  26  27
HETATM   27  C4  UNL     1      -5.450   3.883  12.313  1.00  0.00    -0.025 C 
HETATM   28  C2  UNL     1      -6.278   2.825  12.185  1.00  0.00    -0.091 C 
HETATM   29  C1  UNL     1      -5.905   1.658  11.307  1.00  0.00     0.042 C 
HETATM   30  C3  UNL     1      -7.611   2.671  12.868  1.00  0.00     0.042 C 
ENDBRANCH  26  27
ENDBRANCH  25  26
ENDBRANCH  23  25
ENDBRANCH   1  23
BRANCH  14  31
HETATM   31  O1  UNL     1       2.744   7.915   9.247  1.00  0.00    -0.394 OA
HETATM   32  H35 UNL     1       3.325   7.181   8.994  1.00  0.00     0.210 HD
ENDBRANCH  14  31
BRANCH  17  33
HETATM   33  C27 UNL     1       6.244   6.987  12.995  1.00  0.00     0.151 C 
HETATM   34  O3  UNL     1       6.805   6.928  14.076  1.00  0.00    -0.649 OA
BRANCH  33  35
HETATM   35  O4  UNL     1       6.240   5.911  12.186  1.00  0.00    -0.776 OA
HETATM   36  H43 UNL     1       6.718   5.209  12.680  1.00  0.00     0.167 HD
ENDBRANCH  33  35
ENDBRANCH  17  33
BRANCH  16  37
HETATM   37  O2  UNL     1       7.088   8.610  10.473  1.00  0.00    -0.394 OA
HETATM   38  H39 UNL     1       7.700   7.855  10.507  1.00  0.00     0.210 HD
ENDBRANCH  16  37
TORSDOF 8
ENDMDL
MODEL 4
REMARK minimizedAffinity -9.05499172
REMARK  8 active torsions:
REMARK  status: ('A' for Active; 'I' for Inactive)
REMARK    1  A    between atoms: C4_4  and  C5_5 
REMARK    2  A    between atoms: C5_5  and  C6_6 
REMARK    3  A    between atoms: C6_6  and  C7_7 
REMARK    4  A    between atoms: C7_7  and  C9_9 
REMARK    5  A    between atoms: C22_22  and  O1_23 
REMARK    6  A    between atoms: C24_25  and  O2_26 
REMARK    7  A    between atoms: C25_27  and  C27_29 
REMARK    8  A    between atoms: C27_29  and  O4_31 
ROOT
HETATM    1  C9  UNL     1      -4.025   7.190  14.630  1.00  0.00    -0.002 C 
HETATM    2  C10 UNL     1      -4.546   5.939  13.892  1.00  0.00     0.007 C 
HETATM    3  C11 UNL     1      -3.424   5.499  12.917  1.00  0.00     0.015 C 
HETATM    4  C12 UNL     1      -2.157   6.241  13.395  1.00  0.00    -0.005 C 
HETATM    5  C13 UNL     1      -1.572   5.416  14.585  1.00  0.00     0.021 C 
HETATM    6  C14 UNL     1      -0.961   6.463  12.472  1.00  0.00    -0.000 C 
HETATM    7  C15 UNL     1      -0.169   7.563  12.592  1.00  0.00    -0.058 C 
HETATM    8  C16 UNL     1      -0.495   8.653  13.633  1.00  0.00     0.036 C 
HETATM    9  C17 UNL     1      -1.753   8.461  14.506  1.00  0.00     0.015 C 
HETATM   10  C18 UNL     1      -2.808   7.635  13.768  1.00  0.00    -0.028 C 
HETATM   11  C19 UNL     1      -3.266   8.436  12.510  1.00  0.00     0.016 C 
HETATM   12  C20 UNL     1       1.045   7.845  11.649  1.00  0.00     0.011 C 
HETATM   13  C21 UNL     1       0.476   8.758  10.539  1.00  0.00     0.023 C 
HETATM   14  C22 UNL     1       2.225   8.539  12.424  1.00  0.00     0.133 C 
HETATM   15  C23 UNL     1       3.633   8.368  11.837  1.00  0.00     0.065 C 
HETATM   16  C24 UNL     1       3.654   7.894  10.390  1.00  0.00     0.139 C 
HETATM   17  C25 UNL     1       2.867   6.571  10.170  1.00  0.00     0.072 C 
HETATM   18  C26 UNL     1       3.781   5.355  10.483  1.00  0.00     0.030 C 
HETATM   19  C28 UNL     1       1.593   6.486  11.102  1.00  0.00     0.029 C 
HETATM   20  C29 UNL     1       0.481   5.633  10.491  1.00  0.00     0.090 C 
HETATM   21  C30 UNL     1      -0.689   5.434  11.421  1.00  0.00     0.157 C 
HETATM   22  O5  UNL     1      -1.427   4.460  11.265  1.00  0.00    -0.293 OA
ENDROOT
BRANCH   1  23
HETATM   23  C7  UNL     1      -5.078   8.196  15.170  1.00  0.00    -0.014 C 
HETATM   24  C8  UNL     1      -4.392   9.201  16.113  1.00  0.00     0.010 C 
BRANCH  23  25
HETATM   25  C6  UNL     1      -6.426   7.721  15.765  1.00  0.00     0.008 C 
BRANCH  25  26
HETATM   26  C5  UNL     1      -7.071   6.402  15.320  1.00  0.00     0.028 C 
BRANCH  26  27
HETATM   27  C4  UNL     1      -7.850   6.482  14.038  1.00  0.00    -0.025 C 
HETATM   28  C2  UNL     1      -8.118   5.487  13.167  1.00  0.00    -0.091 C 
HETATM   29  C1  UNL     1      -8.934   5.749  11.927  1.00  0.00     0.042 C 
HETATM   30  C3  UNL     1      -7.658   4.059  13.303  1.00  0.00     0.042 C 
ENDBRANCH  26  27
ENDBRANCH  25  26
ENDBRANCH  23  25
ENDBRANCH   1  23
BRANCH  14  31
HETATM   31  O1  UNL     1       1.980   9.940  12.613  1.00  0.00    -0.394 OA
HETATM   32  H35 UNL     1       2.162  10.406  11.783  1.00  0.00     0.210 HD
ENDBRANCH  14  31
BRANCH  17  33
HETATM   33  C27 UNL     1       2.475   6.548   8.688  1.00  0.00     0.151 C 
HETATM   34  O3  UNL     1       1.867   7.428   8.100  1.00  0.00    -0.649 OA
BRANCH  33  35
HETATM   35  O4  UNL     1       2.783   5.407   8.045  1.00  0.00    -0.776 OA
HETATM   36  H43 UNL     1       2.446   5.521   7.129  1.00  0.00     0.167 HD
ENDBRANCH  33  35
ENDBRANCH  17  33
BRANCH  16  37
HETATM   37  O2  UNL     1       5.027   7.759  10.002  1.00  0.00    -0.394 OA
HETATM   38  H39 UNL     1       5.095   7.985   9.059  1.00  0.00     0.210 HD
ENDBRANCH  16  37
TORSDOF 8
ENDMDL
MODEL 5
REMARK minimizedAffinity -9.04436588
REMARK  8 active torsions:
REMARK  status: ('A' for Active; 'I' for Inactive)
REMARK    1  A    between atoms: C4_4  and  C5_5 
REMARK    2  A    between atoms: C5_5  and  C6_6 
REMARK    3  A    between atoms: C6_6  and  C7_7 
REMARK    4  A    between atoms: C7_7  and  C9_9 
REMARK    5  A    between atoms: C22_22  and  O1_23 
REMARK    6  A    between atoms: C24_25  and  O2_26 
REMARK    7  A    between atoms: C25_27  and  C27_29 
REMARK    8  A    between atoms: C27_29  and  O4_31 
ROOT
HETATM    1  C9  UNL     1      -1.761   6.954  14.021  1.00  0.00    -0.002 C 
HETATM    2  C10 UNL     1      -2.080   6.659  12.540  1.00  0.00     0.007 C 
HETATM    3  C11 UNL     1      -0.733   6.719  11.775  1.00  0.00     0.015 C 
HETATM    4  C12 UNL     1       0.356   6.642  12.866  1.00  0.00    -0.005 C 
HETATM    5  C13 UNL     1       0.526   5.133  13.231  1.00  0.00     0.021 C 
HETATM    6  C14 UNL     1       1.782   7.126  12.611  1.00  0.00    -0.000 C 
HETATM    7  C15 UNL     1       2.541   7.652  13.610  1.00  0.00    -0.058 C 
HETATM    8  C16 UNL     1       1.956   7.832  15.026  1.00  0.00     0.036 C 
HETATM    9  C17 UNL     1       0.488   7.416  15.255  1.00  0.00     0.015 C 
HETATM   10  C18 UNL     1      -0.326   7.553  13.967  1.00  0.00    -0.028 C 
HETATM   11  C19 UNL     1      -0.354   9.059  13.562  1.00  0.00     0.016 C 
HETATM   12  C20 UNL     1       3.992   8.189  13.386  1.00  0.00     0.011 C 
HETATM   13  C21 UNL     1       3.817   9.705  13.140  1.00  0.00     0.023 C 
HETATM   14  C22 UNL     1       4.908   7.904  14.632  1.00  0.00     0.133 C 
HETATM   15  C23 UNL     1       6.420   7.835  14.379  1.00  0.00     0.065 C 
HETATM   16  C24 UNL     1       6.859   8.436  13.050  1.00  0.00     0.139 C 
HETATM   17  C25 UNL     1       6.128   7.814  11.828  1.00  0.00     0.072 C 
HETATM   18  C26 UNL     1       6.860   6.520  11.377  1.00  0.00     0.030 C 
HETATM   19  C28 UNL     1       4.629   7.442  12.169  1.00  0.00     0.029 C 
HETATM   20  C29 UNL     1       3.723   7.489  10.939  1.00  0.00     0.090 C 
HETATM   21  C30 UNL     1       2.321   7.011  11.220  1.00  0.00     0.157 C 
HETATM   22  O5  UNL     1       1.629   6.586  10.294  1.00  0.00    -0.293 OA
ENDROOT
BRANCH   1  23
HETATM   23  C7  UNL     1      -2.891   7.570  14.891  1.00  0.00    -0.014 C 
HETATM   24  C8  UNL     1      -2.368   7.809  16.319  1.00  0.00     0.010 C 
BRANCH  23  25
HETATM   25  C6  UNL     1      -4.314   6.962  14.926  1.00  0.00     0.008 C 
BRANCH  25  26
HETATM   26  C5  UNL     1      -5.007   6.488  13.641  1.00  0.00     0.028 C 
BRANCH  26  27
HETATM   27  C4  UNL     1      -6.074   5.451  13.848  1.00  0.00    -0.025 C 
HETATM   28  C2  UNL     1      -6.207   4.262  13.222  1.00  0.00    -0.091 C 
HETATM   29  C1  UNL     1      -7.343   3.334  13.569  1.00  0.00     0.042 C 
HETATM   30  C3  UNL     1      -5.294   3.733  12.148  1.00  0.00     0.042 C 
ENDBRANCH  26  27
ENDBRANCH  25  26
ENDBRANCH  23  25
ENDBRANCH   1  23
BRANCH  14  31
HETATM   31  O1  UNL     1       4.669   8.845  15.689  1.00  0.00    -0.394 OA
HETATM   32  H35 UNL     1       5.108   9.681  15.473  1.00  0.00     0.210 HD
ENDBRANCH  14  31
BRANCH  17  33
HETATM   33  C27 UNL     1       6.199   8.859  10.709  1.00  0.00     0.151 C 
HETATM   34  O3  UNL     1       7.162   9.562  10.453  1.00  0.00    -0.649 OA
BRANCH  33  35
HETATM   35  O4  UNL     1       5.050   9.030  10.028  1.00  0.00    -0.776 OA
HETATM   36  H43 UNL     1       5.234   9.744   9.377  1.00  0.00     0.167 HD
ENDBRANCH  33  35
ENDBRANCH  17  33
BRANCH  16  37
HETATM   37  O2  UNL     1       8.279   8.272  12.952  1.00  0.00    -0.394 OA
HETATM   38  H39 UNL     1       8.636   9.035  12.468  1.00  0.00     0.210 HD
ENDBRANCH  16  37
TORSDOF 8
ENDMDL
MODEL 6
REMARK minimizedAffinity -8.97288799
REMARK  8 active torsions:
REMARK  status: ('A' for Active; 'I' for Inactive)
REMARK    1  A    between atoms: C4_4  and  C5_5 
REMARK    2  A    between atoms: C5_5  and  C6_6 
REMARK    3  A    between atoms: C6_6  and  C7_7 
REMARK    4  A    between atoms: C7_7  and  C9_9 
REMARK    5  A    between atoms: C22_22  and  O1_23 
REMARK    6  A    between atoms: C24_25  and  O2_26 
REMARK    7  A    between atoms: C25_27  and  C27_29 
REMARK    8  A    between atoms: C27_29  and  O4_31 
ROOT
HETATM    1  C9  UNL     1      -4.725   5.546  13.297  1.00  0.00    -0.002 C 
HETATM    2  C10 UNL     1      -5.661   6.157  14.360  1.00  0.00     0.007 C 
HETATM    3  C11 UNL     1      -4.843   7.248  15.097  1.00  0.00     0.015 C 
HETATM    4  C12 UNL     1      -3.619   7.516  14.196  1.00  0.00    -0.005 C 
HETATM    5  C13 UNL     1      -4.089   8.498  13.075  1.00  0.00     0.021 C 
HETATM    6  C14 UNL     1      -2.346   8.157  14.742  1.00  0.00    -0.000 C 
HETATM    7  C15 UNL     1      -1.123   7.851  14.229  1.00  0.00    -0.058 C 
HETATM    8  C16 UNL     1      -0.983   6.795  13.114  1.00  0.00     0.036 C 
HETATM    9  C17 UNL     1      -2.267   6.092  12.625  1.00  0.00     0.015 C 
HETATM   10  C18 UNL     1      -3.314   6.031  13.738  1.00  0.00    -0.028 C 
HETATM   11  C19 UNL     1      -2.748   5.154  14.897  1.00  0.00     0.016 C 
HETATM   12  C20 UNL     1       0.208   8.459  14.779  1.00  0.00     0.011 C 
HETATM   13  C21 UNL     1       0.721   7.420  15.803  1.00  0.00     0.023 C 
HETATM   14  C22 UNL     1       1.249   8.701  13.625  1.00  0.00     0.133 C 
HETATM   15  C23 UNL     1       2.322   9.769  13.873  1.00  0.00     0.065 C 
HETATM   16  C24 UNL     1       2.480  10.170  15.334  1.00  0.00     0.139 C 
HETATM   17  C25 UNL     1       1.151  10.649  15.982  1.00  0.00     0.072 C 
HETATM   18  C26 UNL     1       0.935  12.159  15.690  1.00  0.00     0.030 C 
HETATM   19  C28 UNL     1      -0.095   9.853  15.421  1.00  0.00     0.029 C 
HETATM   20  C29 UNL     1      -1.238   9.773  16.433  1.00  0.00     0.090 C 
HETATM   21  C30 UNL     1      -2.481   9.131  15.869  1.00  0.00     0.157 C 
HETATM   22  O5  UNL     1      -3.574   9.379  16.379  1.00  0.00    -0.293 OA
ENDROOT
BRANCH   1  23
HETATM   23  C7  UNL     1      -5.003   4.084  12.850  1.00  0.00    -0.014 C 
HETATM   24  C8  UNL     1      -3.724   3.481  12.240  1.00  0.00     0.010 C 
BRANCH  23  25
HETATM   25  C6  UNL     1      -6.240   3.715  11.997  1.00  0.00     0.008 C 
BRANCH  25  26
HETATM   26  C5  UNL     1      -7.568   3.314  12.655  1.00  0.00     0.028 C 
BRANCH  26  27
HETATM   27  C4  UNL     1      -8.286   4.431  13.357  1.00  0.00    -0.025 C 
HETATM   28  C2  UNL     1      -8.862   5.521  12.806  1.00  0.00    -0.091 C 
HETATM   29  C1  UNL     1      -9.556   6.542  13.671  1.00  0.00     0.042 C 
HETATM   30  C3  UNL     1      -8.882   5.851  11.337  1.00  0.00     0.042 C 
ENDBRANCH  26  27
ENDBRANCH  25  26
ENDBRANCH  23  25
ENDBRANCH   1  23
BRANCH  14  31
HETATM   31  O1  UNL     1       1.904   7.482  13.242  1.00  0.00    -0.394 OA
HETATM   32  H35 UNL     1       2.582   7.269  13.900  1.00  0.00     0.210 HD
ENDBRANCH  14  31
BRANCH  17  33
HETATM   33  C27 UNL     1       1.311  10.437  17.492  1.00  0.00     0.151 C 
HETATM   34  O3  UNL     1       0.718  11.053  18.362  1.00  0.00    -0.649 OA
BRANCH  33  35
HETATM   35  O4  UNL     1       2.252   9.538  17.836  1.00  0.00    -0.776 OA
HETATM   36  H43 UNL     1       2.266   9.534  18.819  1.00  0.00     0.167 HD
ENDBRANCH  33  35
ENDBRANCH  17  33
BRANCH  16  37
HETATM   37  O2  UNL     1       3.489  11.185  15.395  1.00  0.00    -0.394 OA
HETATM   38  H39 UNL     1       3.969  11.079  16.233  1.00  0.00     0.210 HD
ENDBRANCH  16  37
TORSDOF 8
ENDMDL
MODEL 7
REMARK minimizedAffinity -8.90751266
REMARK  8 active torsions:
REMARK  status: ('A' for Active; 'I' for Inactive)
REMARK    1  A    between atoms: C4_4  and  C5_5 
REMARK    2  A    between atoms: C5_5  and  C6_6 
REMARK    3  A    between atoms: C6_6  and  C7_7 
REMARK    4  A    between atoms: C7_7  and  C9_9 
REMARK    5  A    between atoms: C22_22  and  O1_23 
REMARK    6  A    between atoms: C24_25  and  O2_26 
REMARK    7  A    between atoms: C25_27  and  C27_29 
REMARK    8  A    between atoms: C27_29  and  O4_31 
ROOT
HETATM    1  C9  UNL     1      -3.108   4.548  13.023  1.00  0.00    -0.002 C 
HETATM    2  C10 UNL     1      -2.130   4.739  11.845  1.00  0.00     0.007 C 
HETATM    3  C11 UNL     1      -1.357   6.055  12.117  1.00  0.00     0.015 C 
HETATM    4  C12 UNL     1      -1.608   6.371  13.607  1.00  0.00    -0.005 C 
HETATM    5  C13 UNL     1      -0.602   5.504  14.429  1.00  0.00     0.021 C 
HETATM    6  C14 UNL     1      -1.430   7.780  14.169  1.00  0.00    -0.000 C 
HETATM    7  C15 UNL     1      -2.188   8.230  15.206  1.00  0.00    -0.058 C 
HETATM    8  C16 UNL     1      -3.297   7.343  15.807  1.00  0.00     0.036 C 
HETATM    9  C17 UNL     1      -3.525   5.953  15.179  1.00  0.00     0.015 C 
HETATM   10  C18 UNL     1      -3.131   5.949  13.702  1.00  0.00    -0.028 C 
HETATM   11  C19 UNL     1      -4.072   6.933  12.940  1.00  0.00     0.016 C 
HETATM   12  C20 UNL     1      -2.061   9.674  15.790  1.00  0.00     0.011 C 
HETATM   13  C21 UNL     1      -3.142  10.494  15.048  1.00  0.00     0.023 C 
HETATM   14  C22 UNL     1      -2.288   9.686  17.346  1.00  0.00     0.133 C 
HETATM   15  C23 UNL     1      -1.661  10.847  18.129  1.00  0.00     0.065 C 
HETATM   16  C24 UNL     1      -1.244  12.030  17.265  1.00  0.00     0.139 C 
HETATM   17  C25 UNL     1      -0.278  11.635  16.114  1.00  0.00     0.072 C 
HETATM   18  C26 UNL     1       1.186  11.621  16.634  1.00  0.00     0.030 C 
HETATM   19  C28 UNL     1      -0.611  10.202  15.535  1.00  0.00     0.029 C 
HETATM   20  C29 UNL     1      -0.206  10.058  14.068  1.00  0.00     0.090 C 
HETATM   21  C30 UNL     1      -0.397   8.659  13.538  1.00  0.00     0.157 C 
HETATM   22  O5  UNL     1       0.260   8.285  12.565  1.00  0.00    -0.293 OA
ENDROOT
BRANCH   1  23
HETATM   23  C7  UNL     1      -4.400   3.727  12.759  1.00  0.00    -0.014 C 
HETATM   24  C8  UNL     1      -4.584   3.532  11.243  1.00  0.00     0.010 C 
BRANCH  23  25
HETATM   25  C6  UNL     1      -5.746   4.092  13.430  1.00  0.00     0.008 C 
BRANCH  25  26
HETATM   26  C5  UNL     1      -7.037   4.210  12.608  1.00  0.00     0.028 C 
BRANCH  26  27
HETATM   27  C4  UNL     1      -8.102   5.069  13.228  1.00  0.00    -0.025 C 
HETATM   28  C2  UNL     1      -8.999   5.860  12.600  1.00  0.00    -0.091 C 
HETATM   29  C1  UNL     1     -10.012   6.649  13.389  1.00  0.00     0.042 C 
HETATM   30  C3  UNL     1      -9.099   6.056  11.111  1.00  0.00     0.042 C 
ENDBRANCH  26  27
ENDBRANCH  25  26
ENDBRANCH  23  25
ENDBRANCH   1  23
BRANCH  14  31
HETATM   31  O1  UNL     1      -3.683   9.620  17.676  1.00  0.00    -0.394 OA
HETATM   32  H35 UNL     1      -4.080  10.494  17.544  1.00  0.00     0.210 HD
ENDBRANCH  14  31
BRANCH  17  33
HETATM   33  C27 UNL     1      -0.428  12.717  15.038  1.00  0.00     0.151 C 
HETATM   34  O3  UNL     1       0.113  13.810  15.049  1.00  0.00    -0.649 OA
BRANCH  33  35
HETATM   35  O4  UNL     1      -1.301  12.415  14.058  1.00  0.00    -0.776 OA
HETATM   36  H43 UNL     1      -1.319  13.203  13.470  1.00  0.00     0.167 HD
ENDBRANCH  33  35
ENDBRANCH  17  33
BRANCH  16  37
HETATM   37  O2  UNL     1      -0.656  13.009  18.131  1.00  0.00    -0.394 OA
HETATM   38  H39 UNL     1      -0.869  13.888  17.776  1.00  0.00     0.210 HD
ENDBRANCH  16  37
TORSDOF 8
ENDMDL
MODEL 8
REMARK minimizedAffinity -8.72140598
REMARK  8 active torsions:
REMARK  status: ('A' for Active; 'I' for Inactive)
REMARK    1  A    between atoms: C4_4  and  C5_5 
REMARK    2  A    between atoms: C5_5  and  C6_6 
REMARK    3  A    between atoms: C6_6  and  C7_7 
REMARK    4  A    between atoms: C7_7  and  C9_9 
REMARK    5  A    between atoms: C22_22  and  O1_23 
REMARK    6  A    between atoms: C24_25  and  O2_26 
REMARK    7  A    between atoms: C25_27  and  C27_29 
REMARK    8  A    between atoms: C27_29  and  O4_31 
ROOT
HETATM    1  C9  UNL     1      -5.992   7.200  15.062  1.00  0.00    -0.002 C 
HETATM    2  C10 UNL     1      -5.795   8.680  15.450  1.00  0.00     0.007 C 
HETATM    3  C11 UNL     1      -4.397   9.094  14.924  1.00  0.00     0.015 C 
HETATM    4  C12 UNL     1      -4.001   7.996  13.914  1.00  0.00    -0.005 C 
HETATM    5  C13 UNL     1      -4.712   8.341  12.567  1.00  0.00     0.021 C 
HETATM    6  C14 UNL     1      -2.546   7.757  13.517  1.00  0.00    -0.000 C 
HETATM    7  C15 UNL     1      -2.097   6.517  13.185  1.00  0.00    -0.058 C 
HETATM    8  C16 UNL     1      -3.038   5.297  13.259  1.00  0.00     0.036 C 
HETATM    9  C17 UNL     1      -4.485   5.534  13.740  1.00  0.00     0.015 C 
HETATM   10  C18 UNL     1      -4.555   6.731  14.690  1.00  0.00    -0.028 C 
HETATM   11  C19 UNL     1      -3.718   6.398  15.963  1.00  0.00     0.016 C 
HETATM   12  C20 UNL     1      -0.610   6.223  12.804  1.00  0.00     0.011 C 
HETATM   13  C21 UNL     1       0.053   5.770  14.126  1.00  0.00     0.023 C 
HETATM   14  C22 UNL     1      -0.510   5.113  11.694  1.00  0.00     0.133 C 
HETATM   15  C23 UNL     1       0.756   5.112  10.827  1.00  0.00     0.065 C 
HETATM   16  C24 UNL     1       1.910   5.922  11.405  1.00  0.00     0.139 C 
HETATM   17  C25 UNL     1       1.526   7.396  11.713  1.00  0.00     0.072 C 
HETATM   18  C26 UNL     1       1.685   8.262  10.432  1.00  0.00     0.030 C 
HETATM   19  C28 UNL     1       0.031   7.521  12.212  1.00  0.00     0.029 C 
HETATM   20  C29 UNL     1      -0.177   8.724  13.131  1.00  0.00     0.090 C 
HETATM   21  C30 UNL     1      -1.622   8.933  13.512  1.00  0.00     0.157 C 
HETATM   22  O5  UNL     1      -2.000  10.053  13.861  1.00  0.00    -0.293 OA
ENDROOT
BRANCH   1  23
HETATM   23  C7  UNL     1      -6.946   6.347  15.944  1.00  0.00    -0.014 C 
HETATM   24  C8  UNL     1      -7.275   5.029  15.218  1.00  0.00     0.010 C 
BRANCH  23  25
HETATM   25  C6  UNL     1      -8.219   6.951  16.583  1.00  0.00     0.008 C 
BRANCH  25  26
HETATM   26  C5  UNL     1      -9.006   8.067  15.884  1.00  0.00     0.028 C 
BRANCH  26  27
HETATM   27  C4  UNL     1     -10.396   7.687  15.460  1.00  0.00    -0.025 C 
HETATM   28  C2  UNL     1     -10.771   7.034  14.339  1.00  0.00    -0.091 C 
HETATM   29  C1  UNL     1     -12.223   6.723  14.081  1.00  0.00     0.042 C 
HETATM   30  C3  UNL     1      -9.843   6.559  13.253  1.00  0.00     0.042 C 
ENDBRANCH  26  27
ENDBRANCH  25  26
ENDBRANCH  23  25
ENDBRANCH   1  23
BRANCH  14  31
HETATM   31  O1  UNL     1      -0.682   3.799  12.245  1.00  0.00    -0.394 OA
HETATM   32  H35 UNL     1       0.140   3.531  12.682  1.00  0.00     0.210 HD
ENDBRANCH  14  31
BRANCH  17  33
HETATM   33  C27 UNL     1       2.511   7.881  12.783  1.00  0.00     0.151 C 
HETATM   34  O3  UNL     1       3.028   8.985  12.825  1.00  0.00    -0.649 OA
BRANCH  33  35
HETATM   35  O4  UNL     1       2.861   6.947  13.686  1.00  0.00    -0.776 OA
HETATM   36  H43 UNL     1       3.513   7.384  14.278  1.00  0.00     0.167 HD
ENDBRANCH  33  35
ENDBRANCH  17  33
BRANCH  16  37
HETATM   37  O2  UNL     1       2.997   5.845  10.475  1.00  0.00    -0.394 OA
HETATM   38  H39 UNL     1       3.826   5.857  10.983  1.00  0.00     0.210 HD
ENDBRANCH  16  37
TORSDOF 8
ENDMDL
MODEL 9
REMARK minimizedAffinity -8.69136715
REMARK  8 active torsions:
REMARK  status: ('A' for Active; 'I' for Inactive)
REMARK    1  A    between atoms: C4_4  and  C5_5 
REMARK    2  A    between atoms: C5_5  and  C6_6 
REMARK    3  A    between atoms: C6_6  and  C7_7 
REMARK    4  A    between atoms: C7_7  and  C9_9 
REMARK    5  A    between atoms: C22_22  and  O1_23 
REMARK    6  A    between atoms: C24_25  and  O2_26 
REMARK    7  A    between atoms: C25_27  and  C27_29 
REMARK    8  A    between atoms: C27_29  and  O4_31 
ROOT
HETATM    1  C9  UNL     1       0.853   7.052  13.389  1.00  0.00    -0.002 C 
HETATM    2  C10 UNL     1       0.963   5.745  12.576  1.00  0.00     0.007 C 
HETATM    3  C11 UNL     1      -0.476   5.188  12.435  1.00  0.00     0.015 C 
HETATM    4  C12 UNL     1      -1.405   6.365  12.805  1.00  0.00    -0.005 C 
HETATM    5  C13 UNL     1      -1.529   7.261  11.532  1.00  0.00     0.021 C 
HETATM    6  C14 UNL     1      -2.850   6.139  13.244  1.00  0.00    -0.000 C 
HETATM    7  C15 UNL     1      -3.460   6.974  14.128  1.00  0.00    -0.058 C 
HETATM    8  C16 UNL     1      -2.684   8.146  14.762  1.00  0.00     0.036 C 
HETATM    9  C17 UNL     1      -1.200   8.318  14.376  1.00  0.00     0.015 C 
HETATM   10  C18 UNL     1      -0.573   6.973  14.007  1.00  0.00    -0.028 C 
HETATM   11  C19 UNL     1      -0.593   6.059  15.271  1.00  0.00     0.016 C 
HETATM   12  C20 UNL     1      -4.926   6.761  14.628  1.00  0.00     0.011 C 
HETATM   13  C21 UNL     1      -4.780   5.972  15.950  1.00  0.00     0.023 C 
HETATM   14  C22 UNL     1      -5.662   8.134  14.849  1.00  0.00     0.133 C 
HETATM   15  C23 UNL     1      -7.195   8.117  14.777  1.00  0.00     0.065 C 
HETATM   16  C24 UNL     1      -7.811   6.729  14.895  1.00  0.00     0.139 C 
HETATM   17  C25 UNL     1      -7.259   5.725  13.844  1.00  0.00     0.072 C 
HETATM   18  C26 UNL     1      -8.053   5.861  12.516  1.00  0.00     0.030 C 
HETATM   19  C28 UNL     1      -5.729   5.982  13.536  1.00  0.00     0.029 C 
HETATM   20  C29 UNL     1      -5.002   4.710  13.099  1.00  0.00     0.090 C 
HETATM   21  C30 UNL     1      -3.576   4.961  12.677  1.00  0.00     0.157 C 
HETATM   22  O5  UNL     1      -3.022   4.166  11.916  1.00  0.00    -0.293 OA
ENDROOT
BRANCH   1  23
HETATM   23  C7  UNL     1       2.096   7.494  14.211  1.00  0.00    -0.014 C 
HETATM   24  C8  UNL     1       1.638   8.290  15.447  1.00  0.00     0.010 C 
BRANCH  23  25
HETATM   25  C6  UNL     1       3.312   8.178  13.541  1.00  0.00     0.008 C 
BRANCH  25  26
HETATM   26  C5  UNL     1       4.149   7.451  12.480  1.00  0.00     0.028 C 
BRANCH  26  27
HETATM   27  C4  UNL     1       3.617   7.552  11.079  1.00  0.00    -0.025 C 
HETATM   28  C2  UNL     1       4.112   8.280  10.056  1.00  0.00    -0.091 C 
HETATM   29  C1  UNL     1       3.449   8.251   8.702  1.00  0.00     0.042 C 
HETATM   30  C3  UNL     1       5.321   9.174  10.124  1.00  0.00     0.042 C 
ENDBRANCH  26  27
ENDBRANCH  25  26
ENDBRANCH  23  25
ENDBRANCH   1  23
BRANCH  14  31
HETATM   31  O1  UNL     1      -5.274   8.747  16.087  1.00  0.00    -0.394 OA
HETATM   32  H35 UNL     1      -5.736   8.305  16.816  1.00  0.00     0.210 HD
ENDBRANCH  14  31
BRANCH  17  33
HETATM   33  C27 UNL     1      -7.480   4.326  14.432  1.00  0.00     0.151 C 
HETATM   34  O3  UNL     1      -7.463   3.281  13.803  1.00  0.00    -0.649 OA
BRANCH  33  35
HETATM   35  O4  UNL     1      -7.790   4.311  15.742  1.00  0.00    -0.776 OA
HETATM   36  H43 UNL     1      -7.935   3.365  15.967  1.00  0.00     0.167 HD
ENDBRANCH  33  35
ENDBRANCH  17  33
BRANCH  16  37
HETATM   37  O2  UNL     1      -9.231   6.878  14.782  1.00  0.00    -0.394 OA
HETATM   38  H39 UNL     1      -9.648   6.204  15.345  1.00  0.00     0.210 HD
ENDBRANCH  16  37
TORSDOF 8
ENDMDL
