MODEL 1
REMARK minimizedAffinity -9.21701431
REMARK  9 active torsions:
REMARK  status: ('A' for Active; 'I' for Inactive)
REMARK    1  A    between atoms: C2_2  and  C3_3 
REMARK    2  A    between atoms: C2_2  and  C9_11 
REMARK    3  A    between atoms: C3_3  and  C4_4 
REMARK    4  A    between atoms: C4_4  and  C5_5 
REMARK    5  A    between atoms: C5_5  and  O1_6 
REMARK    6  A    between atoms: C5_5  and  C6_7 
REMARK    7  A    between atoms: C6_7  and  O2_10 
REMARK    8  A    between atoms: C17_19  and  C18_20 
REMARK    9  A    between atoms: C18_20  and  O3_23 
ROOT
HETATM    1  C9  UNL     1      -3.746  50.315 -25.544  1.00  0.00    -0.002 C 
HETATM    2  C10 UNL     1      -3.831  51.855 -25.332  1.00  0.00     0.006 C 
HETATM    3  C11 UNL     1      -3.756  52.098 -23.800  1.00  0.00     0.011 C 
HETATM    4  C12 UNL     1      -3.921  50.697 -23.174  1.00  0.00    -0.032 C 
HETATM    5  C13 UNL     1      -5.465  50.428 -23.172  1.00  0.00     0.016 C 
HETATM    6  C14 UNL     1      -3.304  50.500 -21.760  1.00  0.00     0.003 C 
HETATM    7  C15 UNL     1      -3.802  51.490 -20.700  1.00  0.00     0.009 C 
HETATM    8  C16 UNL     1      -3.485  51.103 -19.256  1.00  0.00     0.042 C 
HETATM    9  C17 UNL     1      -2.315  50.112 -19.005  1.00  0.00     0.095 C 
HETATM   10  O4  UNL     1      -2.538  49.568 -17.663  1.00  0.00    -0.377 OA
HETATM   11  C21 UNL     1      -3.441  48.478 -17.588  1.00  0.00     0.169 C 
HETATM   12  C22 UNL     1      -2.839  47.250 -18.234  1.00  0.00     0.027 C 
HETATM   13  C23 UNL     1      -1.976  47.574 -19.448  1.00  0.00     0.010 C 
HETATM   14  C24 UNL     1      -2.203  48.964 -20.083  1.00  0.00     0.032 C 
HETATM   15  C25 UNL     1      -3.273  49.006 -21.265  1.00  0.00    -0.033 C 
HETATM   16  C26 UNL     1      -4.656  48.491 -20.811  1.00  0.00     0.016 C 
HETATM   17  C27 UNL     1      -2.799  48.034 -22.417  1.00  0.00     0.011 C 
HETATM   18  C28 UNL     1      -3.295  48.342 -23.850  1.00  0.00     0.011 C 
HETATM   19  C29 UNL     1      -3.111  49.824 -24.210  1.00  0.00    -0.032 C 
HETATM   20  C30 UNL     1      -1.574  50.102 -24.237  1.00  0.00     0.016 C 
ENDROOT
BRANCH   1  21
HETATM   21  C2  UNL     1      -3.147  49.822 -26.894  1.00  0.00    -0.014 C 
HETATM   22  C1  UNL     1      -4.099  48.778 -27.507  1.00  0.00     0.010 C 
BRANCH  21  23
HETATM   23  C3  UNL     1      -2.849  50.922 -27.941  1.00  0.00     0.007 C 
BRANCH  23  24
HETATM   24  C4  UNL     1      -1.440  51.524 -27.790  1.00  0.00     0.035 C 
BRANCH  24  25
HETATM   25  C5  UNL     1      -1.477  52.955 -27.217  1.00  0.00     0.151 C 
BRANCH  25  26
HETATM   26  O1  UNL     1      -1.831  53.886 -28.243  1.00  0.00    -0.393 OA
HETATM   27  H10 UNL     1      -1.329  53.657 -29.045  1.00  0.00     0.210 HD
ENDBRANCH  25  26
BRANCH  25  28
HETATM   28  C6  UNL     1      -0.154  53.382 -26.512  1.00  0.00     0.076 C 
HETATM   29  C7  UNL     1      -0.269  53.377 -24.984  1.00  0.00     0.048 C 
HETATM   30  C8  UNL     1       0.994  52.455 -26.937  1.00  0.00     0.048 C 
BRANCH  28  31
HETATM   31  O2  UNL     1       0.183  54.714 -26.923  1.00  0.00    -0.388 OA
HETATM   32  H17 UNL     1       1.043  54.943 -26.529  1.00  0.00     0.210 HD
ENDBRANCH  28  31
ENDBRANCH  25  28
ENDBRANCH  24  25
ENDBRANCH  23  24
ENDBRANCH  21  23
ENDBRANCH   1  21
BRANCH   9  33
HETATM   33  C18 UNL     1      -0.937  50.902 -18.802  1.00  0.00     0.082 C 
HETATM   34  C19 UNL     1      -0.052  51.020 -20.044  1.00  0.00     0.049 C 
HETATM   35  C20 UNL     1      -0.083  50.348 -17.646  1.00  0.00     0.049 C 
BRANCH  33  36
HETATM   36  O3  UNL     1      -1.260  52.256 -18.412  1.00  0.00    -0.388 OA
HETATM   37  H37 UNL     1      -1.980  52.154 -17.757  1.00  0.00     0.210 HD
ENDBRANCH  33  36
ENDBRANCH   9  33
TORSDOF 9
ENDMDL
MODEL 2
REMARK minimizedAffinity -9.17762756
REMARK  9 active torsions:
REMARK  status: ('A' for Active; 'I' for Inactive)
REMARK    1  A    between atoms: C2_2  and  C3_3 
REMARK    2  A    between atoms: C2_2  and  C9_11 
REMARK    3  A    between atoms: C3_3  and  C4_4 
REMARK    4  A    between atoms: C4_4  and  C5_5 
REMARK    5  A    between atoms: C5_5  and  O1_6 
REMARK    6  A    between atoms: C5_5  and  C6_7 
REMARK    7  A    between atoms: C6_7  and  O2_10 
REMARK    8  A    between atoms: C17_19  and  C18_20 
REMARK    9  A    between atoms: C18_20  and  O3_23 
ROOT
HETATM    1  C9  UNL     1      -3.609  50.737 -25.628  1.00  0.00    -0.002 C 
HETATM    2  C10 UNL     1      -3.675  52.257 -25.301  1.00  0.00     0.006 C 
HETATM    3  C11 UNL     1      -3.621  52.384 -23.755  1.00  0.00     0.011 C 
HETATM    4  C12 UNL     1      -3.815  50.943 -23.238  1.00  0.00    -0.032 C 
HETATM    5  C13 UNL     1      -5.363  50.698 -23.279  1.00  0.00     0.016 C 
HETATM    6  C14 UNL     1      -3.224  50.630 -21.834  1.00  0.00     0.003 C 
HETATM    7  C15 UNL     1      -3.724  51.546 -20.709  1.00  0.00     0.009 C 
HETATM    8  C16 UNL     1      -3.435  51.046 -19.294  1.00  0.00     0.042 C 
HETATM    9  C17 UNL     1      -2.284  50.022 -19.102  1.00  0.00     0.095 C 
HETATM   10  O4  UNL     1      -2.536  49.382 -17.808  1.00  0.00    -0.377 OA
HETATM   11  C21 UNL     1      -3.455  48.303 -17.828  1.00  0.00     0.169 C 
HETATM   12  C22 UNL     1      -2.860  47.118 -18.556  1.00  0.00     0.027 C 
HETATM   13  C23 UNL     1      -1.974  47.519 -19.730  1.00  0.00     0.010 C 
HETATM   14  C24 UNL     1      -2.172  48.957 -20.261  1.00  0.00     0.032 C 
HETATM   15  C25 UNL     1      -3.222  49.104 -21.453  1.00  0.00    -0.033 C 
HETATM   16  C26 UNL     1      -4.618  48.577 -21.059  1.00  0.00     0.016 C 
HETATM   17  C27 UNL     1      -2.743  48.213 -22.668  1.00  0.00     0.011 C 
HETATM   18  C28 UNL     1      -3.212  48.635 -24.080  1.00  0.00     0.011 C 
HETATM   19  C29 UNL     1      -3.001  50.138 -24.324  1.00  0.00    -0.032 C 
HETATM   20  C30 UNL     1      -1.461  50.394 -24.308  1.00  0.00     0.016 C 
ENDROOT
BRANCH   1  21
HETATM   21  C2  UNL     1      -2.995  50.338 -27.002  1.00  0.00    -0.014 C 
HETATM   22  C1  UNL     1      -1.516  50.770 -27.028  1.00  0.00     0.010 C 
BRANCH  21  23
HETATM   23  C3  UNL     1      -3.098  48.841 -27.377  1.00  0.00     0.007 C 
BRANCH  23  24
HETATM   24  C4  UNL     1      -4.547  48.319 -27.354  1.00  0.00     0.035 C 
BRANCH  24  25
HETATM   25  C5  UNL     1      -5.083  48.030 -28.771  1.00  0.00     0.151 C 
BRANCH  25  26
HETATM   26  O1  UNL     1      -4.830  49.148 -29.628  1.00  0.00    -0.393 OA
HETATM   27  H10 UNL     1      -5.054  49.960 -29.140  1.00  0.00     0.210 HD
ENDBRANCH  25  26
BRANCH  25  28
HETATM   28  C6  UNL     1      -6.591  47.636 -28.803  1.00  0.00     0.076 C 
HETATM   29  C7  UNL     1      -6.876  46.462 -29.746  1.00  0.00     0.048 C 
HETATM   30  C8  UNL     1      -7.073  47.280 -27.389  1.00  0.00     0.048 C 
BRANCH  28  31
HETATM   31  O2  UNL     1      -7.356  48.760 -29.257  1.00  0.00    -0.388 OA
HETATM   32  H17 UNL     1      -8.299  48.523 -29.210  1.00  0.00     0.210 HD
ENDBRANCH  28  31
ENDBRANCH  25  28
ENDBRANCH  24  25
ENDBRANCH  23  24
ENDBRANCH  21  23
ENDBRANCH   1  21
BRANCH   9  33
HETATM   33  C18 UNL     1      -0.899  50.773 -18.819  1.00  0.00     0.082 C 
HETATM   34  C19 UNL     1       0.028  50.930 -20.027  1.00  0.00     0.049 C 
HETATM   35  C20 UNL     1      -0.093  50.149 -17.665  1.00  0.00     0.049 C 
BRANCH  33  36
HETATM   36  O3  UNL     1      -1.208  52.114 -18.377  1.00  0.00    -0.388 OA
HETATM   37  H37 UNL     1      -1.950  51.997 -17.751  1.00  0.00     0.210 HD
ENDBRANCH  33  36
ENDBRANCH   9  33
TORSDOF 9
ENDMDL
MODEL 3
REMARK minimizedAffinity -8.75947189
REMARK  9 active torsions:
REMARK  status: ('A' for Active; 'I' for Inactive)
REMARK    1  A    between atoms: C2_2  and  C3_3 
REMARK    2  A    between atoms: C2_2  and  C9_11 
REMARK    3  A    between atoms: C3_3  and  C4_4 
REMARK    4  A    between atoms: C4_4  and  C5_5 
REMARK    5  A    between atoms: C5_5  and  O1_6 
REMARK    6  A    between atoms: C5_5  and  C6_7 
REMARK    7  A    between atoms: C6_7  and  O2_10 
REMARK    8  A    between atoms: C17_19  and  C18_20 
REMARK    9  A    between atoms: C18_20  and  O3_23 
ROOT
HETATM    1  C9  UNL     1      -1.432  51.408 -22.635  1.00  0.00    -0.002 C 
HETATM    2  C10 UNL     1      -2.764  52.012 -23.170  1.00  0.00     0.006 C 
HETATM    3  C11 UNL     1      -3.897  51.042 -22.740  1.00  0.00     0.011 C 
HETATM    4  C12 UNL     1      -3.162  49.783 -22.233  1.00  0.00    -0.032 C 
HETATM    5  C13 UNL     1      -2.799  48.972 -23.523  1.00  0.00     0.016 C 
HETATM    6  C14 UNL     1      -3.930  48.907 -21.203  1.00  0.00     0.003 C 
HETATM    7  C15 UNL     1      -5.307  48.421 -21.675  1.00  0.00     0.009 C 
HETATM    8  C16 UNL     1      -5.914  47.295 -20.841  1.00  0.00     0.042 C 
HETATM    9  C17 UNL     1      -5.404  47.106 -19.386  1.00  0.00     0.095 C 
HETATM   10  O4  UNL     1      -5.773  45.738 -19.012  1.00  0.00    -0.377 OA
HETATM   11  C21 UNL     1      -4.873  44.725 -19.430  1.00  0.00     0.169 C 
HETATM   12  C22 UNL     1      -3.573  44.828 -18.664  1.00  0.00     0.027 C 
HETATM   13  C23 UNL     1      -3.172  46.265 -18.354  1.00  0.00     0.010 C 
HETATM   14  C24 UNL     1      -3.856  47.354 -19.211  1.00  0.00     0.032 C 
HETATM   15  C25 UNL     1      -3.061  47.782 -20.527  1.00  0.00    -0.033 C 
HETATM   16  C26 UNL     1      -2.797  46.580 -21.458  1.00  0.00     0.016 C 
HETATM   17  C27 UNL     1      -1.640  48.334 -20.108  1.00  0.00     0.011 C 
HETATM   18  C28 UNL     1      -0.959  49.334 -21.072  1.00  0.00     0.011 C 
HETATM   19  C29 UNL     1      -1.923  50.447 -21.513  1.00  0.00    -0.032 C 
HETATM   20  C30 UNL     1      -2.277  51.278 -20.240  1.00  0.00     0.016 C 
ENDROOT
BRANCH   1  21
HETATM   21  C2  UNL     1      -0.280  52.409 -22.324  1.00  0.00    -0.014 C 
HETATM   22  C1  UNL     1       0.751  51.710 -21.417  1.00  0.00     0.010 C 
BRANCH  21  23
HETATM   23  C3  UNL     1       0.441  53.009 -23.554  1.00  0.00     0.007 C 
BRANCH  23  24
HETATM   24  C4  UNL     1      -0.369  52.856 -24.855  1.00  0.00     0.035 C 
BRANCH  24  25
HETATM   25  C5  UNL     1       0.449  53.256 -26.099  1.00  0.00     0.151 C 
BRANCH  25  26
HETATM   26  O1  UNL     1       0.114  54.588 -26.499  1.00  0.00    -0.393 OA
HETATM   27  H10 UNL     1      -0.854  54.682 -26.458  1.00  0.00     0.210 HD
ENDBRANCH  25  26
BRANCH  25  28
HETATM   28  C6  UNL     1       0.299  52.264 -27.293  1.00  0.00     0.076 C 
HETATM   29  C7  UNL     1       1.649  51.769 -27.823  1.00  0.00     0.048 C 
HETATM   30  C8  UNL     1      -0.554  51.059 -26.873  1.00  0.00     0.048 C 
BRANCH  28  31
HETATM   31  O2  UNL     1      -0.378  52.928 -28.368  1.00  0.00    -0.388 OA
HETATM   32  H17 UNL     1      -0.524  52.281 -29.079  1.00  0.00     0.210 HD
ENDBRANCH  28  31
ENDBRANCH  25  28
ENDBRANCH  24  25
ENDBRANCH  23  24
ENDBRANCH  21  23
ENDBRANCH   1  21
BRANCH   9  33
HETATM   33  C18 UNL     1      -6.285  47.963 -18.360  1.00  0.00     0.082 C 
HETATM   34  C19 UNL     1      -6.959  47.167 -17.241  1.00  0.00     0.049 C 
HETATM   35  C20 UNL     1      -7.353  48.829 -19.053  1.00  0.00     0.049 C 
BRANCH  33  36
HETATM   36  O3  UNL     1      -5.406  48.905 -17.706  1.00  0.00    -0.388 OA
HETATM   37  H37 UNL     1      -4.843  49.252 -18.428  1.00  0.00     0.210 HD
ENDBRANCH  33  36
ENDBRANCH   9  33
TORSDOF 9
ENDMDL
MODEL 4
REMARK minimizedAffinity -8.39822769
REMARK  9 active torsions:
REMARK  status: ('A' for Active; 'I' for Inactive)
REMARK    1  A    between atoms: C2_2  and  C3_3 
REMARK    2  A    between atoms: C2_2  and  C9_11 
REMARK    3  A    between atoms: C3_3  and  C4_4 
REMARK    4  A    between atoms: C4_4  and  C5_5 
REMARK    5  A    between atoms: C5_5  and  O1_6 
REMARK    6  A    between atoms: C5_5  and  C6_7 
REMARK    7  A    between atoms: C6_7  and  O2_10 
REMARK    8  A    between atoms: C17_19  and  C18_20 
REMARK    9  A    between atoms: C18_20  and  O3_23 
ROOT
HETATM    1  C9  UNL     1      -1.687  51.880 -21.721  1.00  0.00    -0.002 C 
HETATM    2  C10 UNL     1      -1.353  51.619 -20.223  1.00  0.00     0.006 C 
HETATM    3  C11 UNL     1      -2.392  50.587 -19.708  1.00  0.00     0.011 C 
HETATM    4  C12 UNL     1      -3.453  50.509 -20.827  1.00  0.00    -0.032 C 
HETATM    5  C13 UNL     1      -4.389  51.743 -20.592  1.00  0.00     0.016 C 
HETATM    6  C14 UNL     1      -4.263  49.185 -20.915  1.00  0.00     0.003 C 
HETATM    7  C15 UNL     1      -4.993  48.793 -19.624  1.00  0.00     0.009 C 
HETATM    8  C16 UNL     1      -6.056  47.708 -19.787  1.00  0.00     0.042 C 
HETATM    9  C17 UNL     1      -5.959  46.770 -21.022  1.00  0.00     0.095 C 
HETATM   10  O4  UNL     1      -7.294  46.188 -21.182  1.00  0.00    -0.377 OA
HETATM   11  C21 UNL     1      -8.227  46.983 -21.894  1.00  0.00     0.169 C 
HETATM   12  C22 UNL     1      -7.839  47.068 -23.354  1.00  0.00     0.027 C 
HETATM   13  C23 UNL     1      -6.331  47.103 -23.572  1.00  0.00     0.010 C 
HETATM   14  C24 UNL     1      -5.482  47.493 -22.341  1.00  0.00     0.032 C 
HETATM   15  C25 UNL     1      -5.149  49.047 -22.208  1.00  0.00    -0.033 C 
HETATM   16  C26 UNL     1      -6.429  49.909 -22.159  1.00  0.00     0.016 C 
HETATM   17  C27 UNL     1      -4.356  49.511 -23.494  1.00  0.00     0.011 C 
HETATM   18  C28 UNL     1      -3.426  50.739 -23.346  1.00  0.00     0.011 C 
HETATM   19  C29 UNL     1      -2.530  50.627 -22.102  1.00  0.00    -0.032 C 
HETATM   20  C30 UNL     1      -1.575  49.414 -22.332  1.00  0.00     0.016 C 
ENDROOT
BRANCH   1  21
HETATM   21  C2  UNL     1      -0.506  52.307 -22.642  1.00  0.00    -0.014 C 
HETATM   22  C1  UNL     1       0.820  51.968 -21.935  1.00  0.00     0.010 C 
BRANCH  21  23
HETATM   23  C3  UNL     1      -0.503  51.692 -24.061  1.00  0.00     0.007 C 
BRANCH  23  24
HETATM   24  C4  UNL     1      -1.023  52.667 -25.135  1.00  0.00     0.035 C 
BRANCH  24  25
HETATM   25  C5  UNL     1       0.078  53.066 -26.138  1.00  0.00     0.151 C 
BRANCH  25  26
HETATM   26  O1  UNL     1       0.168  54.491 -26.227  1.00  0.00    -0.393 OA
HETATM   27  H10 UNL     1      -0.737  54.849 -26.274  1.00  0.00     0.210 HD
ENDBRANCH  25  26
BRANCH  25  28
HETATM   28  C6  UNL     1      -0.104  52.432 -27.551  1.00  0.00     0.076 C 
HETATM   29  C7  UNL     1       1.187  51.801 -28.086  1.00  0.00     0.048 C 
HETATM   30  C8  UNL     1      -1.211  51.369 -27.515  1.00  0.00     0.048 C 
BRANCH  28  31
HETATM   31  O2  UNL     1      -0.507  53.455 -28.472  1.00  0.00    -0.388 OA
HETATM   32  H17 UNL     1      -0.680  53.035 -29.333  1.00  0.00     0.210 HD
ENDBRANCH  28  31
ENDBRANCH  25  28
ENDBRANCH  24  25
ENDBRANCH  23  24
ENDBRANCH  21  23
ENDBRANCH   1  21
BRANCH   9  33
HETATM   33  C18 UNL     1      -5.086  45.472 -20.680  1.00  0.00     0.082 C 
HETATM   34  C19 UNL     1      -5.258  44.912 -19.267  1.00  0.00     0.049 C 
HETATM   35  C20 UNL     1      -3.582  45.663 -20.948  1.00  0.00     0.049 C 
BRANCH  33  36
HETATM   36  O3  UNL     1      -5.495  44.417 -21.579  1.00  0.00    -0.388 OA
HETATM   37  H37 UNL     1      -5.574  44.859 -22.450  1.00  0.00     0.210 HD
ENDBRANCH  33  36
ENDBRANCH   9  33
TORSDOF 9
ENDMDL
MODEL 5
REMARK minimizedAffinity -8.18945122
REMARK  9 active torsions:
REMARK  status: ('A' for Active; 'I' for Inactive)
REMARK    1  A    between atoms: C2_2  and  C3_3 
REMARK    2  A    between atoms: C2_2  and  C9_11 
REMARK    3  A    between atoms: C3_3  and  C4_4 
REMARK    4  A    between atoms: C4_4  and  C5_5 
REMARK    5  A    between atoms: C5_5  and  O1_6 
REMARK    6  A    between atoms: C5_5  and  C6_7 
REMARK    7  A    between atoms: C6_7  and  O2_10 
REMARK    8  A    between atoms: C17_19  and  C18_20 
REMARK    9  A    between atoms: C18_20  and  O3_23 
ROOT
HETATM    1  C9  UNL     1      -3.506  51.411 -23.901  1.00  0.00    -0.002 C 
HETATM    2  C10 UNL     1      -3.860  52.515 -22.863  1.00  0.00     0.006 C 
HETATM    3  C11 UNL     1      -4.411  51.786 -21.608  1.00  0.00     0.011 C 
HETATM    4  C12 UNL     1      -4.626  50.328 -22.066  1.00  0.00    -0.032 C 
HETATM    5  C13 UNL     1      -6.005  50.331 -22.812  1.00  0.00     0.016 C 
HETATM    6  C14 UNL     1      -4.582  49.244 -20.951  1.00  0.00     0.003 C 
HETATM    7  C15 UNL     1      -5.570  49.467 -19.800  1.00  0.00     0.009 C 
HETATM    8  C16 UNL     1      -5.786  48.257 -18.892  1.00  0.00     0.042 C 
HETATM    9  C17 UNL     1      -4.687  47.159 -18.863  1.00  0.00     0.095 C 
HETATM   10  O4  UNL     1      -5.339  45.962 -18.326  1.00  0.00    -0.377 OA
HETATM   11  C21 UNL     1      -6.056  45.181 -19.267  1.00  0.00     0.169 C 
HETATM   12  C22 UNL     1      -5.102  44.509 -20.229  1.00  0.00     0.027 C 
HETATM   13  C23 UNL     1      -3.887  45.366 -20.565  1.00  0.00     0.010 C 
HETATM   14  C24 UNL     1      -4.026  46.876 -20.267  1.00  0.00     0.032 C 
HETATM   15  C25 UNL     1      -4.555  47.763 -21.484  1.00  0.00    -0.033 C 
HETATM   16  C26 UNL     1      -5.928  47.279 -21.996  1.00  0.00     0.016 C 
HETATM   17  C27 UNL     1      -3.555  47.612 -22.698  1.00  0.00     0.011 C 
HETATM   18  C28 UNL     1      -3.496  48.777 -23.714  1.00  0.00     0.011 C 
HETATM   19  C29 UNL     1      -3.377  50.139 -23.011  1.00  0.00    -0.032 C 
HETATM   20  C30 UNL     1      -1.997  50.159 -22.281  1.00  0.00     0.016 C 
ENDROOT
BRANCH   1  21
HETATM   21  C2  UNL     1      -2.377  51.739 -24.921  1.00  0.00    -0.014 C 
HETATM   22  C1  UNL     1      -3.021  52.161 -26.255  1.00  0.00     0.010 C 
BRANCH  21  23
HETATM   23  C3  UNL     1      -1.361  52.819 -24.477  1.00  0.00     0.007 C 
BRANCH  23  24
HETATM   24  C4  UNL     1       0.088  52.299 -24.449  1.00  0.00     0.035 C 
BRANCH  24  25
HETATM   25  C5  UNL     1       0.941  52.893 -25.589  1.00  0.00     0.151 C 
BRANCH  25  26
HETATM   26  O1  UNL     1       0.388  54.141 -26.015  1.00  0.00    -0.393 OA
HETATM   27  H10 UNL     1      -0.577  54.037 -26.084  1.00  0.00     0.210 HD
ENDBRANCH  25  26
BRANCH  25  28
HETATM   28  C6  UNL     1       1.129  51.927 -26.798  1.00  0.00     0.076 C 
HETATM   29  C7  UNL     1       2.604  51.695 -27.145  1.00  0.00     0.048 C 
HETATM   30  C8  UNL     1       0.458  50.578 -26.506  1.00  0.00     0.048 C 
BRANCH  28  31
HETATM   31  O2  UNL     1       0.492  52.494 -27.951  1.00  0.00    -0.388 OA
HETATM   32  H17 UNL     1       0.560  51.854 -28.679  1.00  0.00     0.210 HD
ENDBRANCH  28  31
ENDBRANCH  25  28
ENDBRANCH  24  25
ENDBRANCH  23  24
ENDBRANCH  21  23
ENDBRANCH   1  21
BRANCH   9  33
HETATM   33  C18 UNL     1      -3.606  47.470 -17.724  1.00  0.00     0.082 C 
HETATM   34  C19 UNL     1      -2.350  48.209 -18.188  1.00  0.00     0.049 C 
HETATM   35  C20 UNL     1      -3.172  46.217 -16.940  1.00  0.00     0.049 C 
BRANCH  33  36
HETATM   36  O3  UNL     1      -4.233  48.326 -16.743  1.00  0.00    -0.388 OA
HETATM   37  H37 UNL     1      -5.124  47.938 -16.617  1.00  0.00     0.210 HD
ENDBRANCH  33  36
ENDBRANCH   9  33
TORSDOF 9
ENDMDL
MODEL 6
REMARK minimizedAffinity -8.11806297
REMARK  9 active torsions:
REMARK  status: ('A' for Active; 'I' for Inactive)
REMARK    1  A    between atoms: C2_2  and  C3_3 
REMARK    2  A    between atoms: C2_2  and  C9_11 
REMARK    3  A    between atoms: C3_3  and  C4_4 
REMARK    4  A    between atoms: C4_4  and  C5_5 
REMARK    5  A    between atoms: C5_5  and  O1_6 
REMARK    6  A    between atoms: C5_5  and  C6_7 
REMARK    7  A    between atoms: C6_7  and  O2_10 
REMARK    8  A    between atoms: C17_19  and  C18_20 
REMARK    9  A    between atoms: C18_20  and  O3_23 
ROOT
HETATM    1  C9  UNL     1      -4.811  48.520 -23.104  1.00  0.00    -0.002 C 
HETATM    2  C10 UNL     1      -5.268  48.277 -24.572  1.00  0.00     0.006 C 
HETATM    3  C11 UNL     1      -4.461  49.263 -25.460  1.00  0.00     0.011 C 
HETATM    4  C12 UNL     1      -3.788  50.227 -24.460  1.00  0.00    -0.032 C 
HETATM    5  C13 UNL     1      -4.893  51.278 -24.096  1.00  0.00     0.016 C 
HETATM    6  C14 UNL     1      -2.481  50.916 -24.944  1.00  0.00     0.003 C 
HETATM    7  C15 UNL     1      -2.618  51.704 -26.252  1.00  0.00     0.009 C 
HETATM    8  C16 UNL     1      -1.463  52.658 -26.555  1.00  0.00     0.042 C 
HETATM    9  C17 UNL     1      -0.096  52.392 -25.867  1.00  0.00     0.095 C 
HETATM   10  O4  UNL     1       0.637  53.658 -25.942  1.00  0.00    -0.377 OA
HETATM   11  C21 UNL     1       0.339  54.599 -24.924  1.00  0.00     0.169 C 
HETATM   12  C22 UNL     1       0.860  54.113 -23.589  1.00  0.00     0.027 C 
HETATM   13  C23 UNL     1       0.763  52.601 -23.423  1.00  0.00     0.010 C 
HETATM   14  C24 UNL     1      -0.215  51.880 -24.379  1.00  0.00     0.032 C 
HETATM   15  C25 UNL     1      -1.697  51.689 -23.819  1.00  0.00    -0.033 C 
HETATM   16  C26 UNL     1      -2.350  53.036 -23.444  1.00  0.00     0.016 C 
HETATM   17  C27 UNL     1      -1.633  50.844 -22.485  1.00  0.00     0.011 C 
HETATM   18  C28 UNL     1      -2.894  50.033 -22.102  1.00  0.00     0.011 C 
HETATM   19  C29 UNL     1      -3.435  49.226 -23.292  1.00  0.00    -0.032 C 
HETATM   20  C30 UNL     1      -2.353  48.159 -23.652  1.00  0.00     0.016 C 
ENDROOT
BRANCH   1  21
HETATM   21  C2  UNL     1      -4.915  47.314 -22.125  1.00  0.00    -0.014 C 
HETATM   22  C1  UNL     1      -4.504  47.783 -20.717  1.00  0.00     0.010 C 
BRANCH  21  23
HETATM   23  C3  UNL     1      -6.298  46.623 -22.052  1.00  0.00     0.007 C 
BRANCH  23  24
HETATM   24  C4  UNL     1      -6.856  46.554 -20.618  1.00  0.00     0.035 C 
BRANCH  24  25
HETATM   25  C5  UNL     1      -8.082  47.469 -20.427  1.00  0.00     0.151 C 
BRANCH  25  26
HETATM   26  O1  UNL     1      -8.448  48.067 -21.674  1.00  0.00    -0.393 OA
HETATM   27  H10 UNL     1      -7.634  48.368 -22.115  1.00  0.00     0.210 HD
ENDBRANCH  25  26
BRANCH  25  28
HETATM   28  C6  UNL     1      -7.886  48.557 -19.327  1.00  0.00     0.076 C 
HETATM   29  C7  UNL     1      -7.281  49.853 -19.878  1.00  0.00     0.048 C 
HETATM   30  C8  UNL     1      -9.229  48.872 -18.653  1.00  0.00     0.048 C 
BRANCH  28  31
HETATM   31  O2  UNL     1      -6.999  48.049 -18.322  1.00  0.00    -0.388 OA
HETATM   32  H17 UNL     1      -6.938  48.710 -17.611  1.00  0.00     0.210 HD
ENDBRANCH  28  31
ENDBRANCH  25  28
ENDBRANCH  24  25
ENDBRANCH  23  24
ENDBRANCH  21  23
ENDBRANCH   1  21
BRANCH   9  33
HETATM   33  C18 UNL     1       0.819  51.442 -26.774  1.00  0.00     0.082 C 
HETATM   34  C19 UNL     1       2.325  51.532 -26.517  1.00  0.00     0.049 C 
HETATM   35  C20 UNL     1       0.571  51.619 -28.283  1.00  0.00     0.049 C 
BRANCH  33  36
HETATM   36  O3  UNL     1       0.448  50.074 -26.492  1.00  0.00    -0.388 OA
HETATM   37  H37 UNL     1      -0.531  50.090 -26.461  1.00  0.00     0.210 HD
ENDBRANCH  33  36
ENDBRANCH   9  33
TORSDOF 9
ENDMDL
MODEL 7
REMARK minimizedAffinity -8.05193329
REMARK  9 active torsions:
REMARK  status: ('A' for Active; 'I' for Inactive)
REMARK    1  A    between atoms: C2_2  and  C3_3 
REMARK    2  A    between atoms: C2_2  and  C9_11 
REMARK    3  A    between atoms: C3_3  and  C4_4 
REMARK    4  A    between atoms: C4_4  and  C5_5 
REMARK    5  A    between atoms: C5_5  and  O1_6 
REMARK    6  A    between atoms: C5_5  and  C6_7 
REMARK    7  A    between atoms: C6_7  and  O2_10 
REMARK    8  A    between atoms: C17_19  and  C18_20 
REMARK    9  A    between atoms: C18_20  and  O3_23 
ROOT
HETATM    1  C9  UNL     1      -3.921  50.190 -25.023  1.00  0.00    -0.002 C 
HETATM    2  C10 UNL     1      -3.163  51.372 -24.351  1.00  0.00     0.006 C 
HETATM    3  C11 UNL     1      -3.405  51.244 -22.823  1.00  0.00     0.011 C 
HETATM    4  C12 UNL     1      -4.515  50.181 -22.690  1.00  0.00    -0.032 C 
HETATM    5  C13 UNL     1      -5.855  50.951 -22.955  1.00  0.00     0.016 C 
HETATM    6  C14 UNL     1      -4.561  49.398 -21.347  1.00  0.00     0.003 C 
HETATM    7  C15 UNL     1      -4.679  50.278 -20.096  1.00  0.00     0.009 C 
HETATM    8  C16 UNL     1      -5.072  49.536 -18.820  1.00  0.00     0.042 C 
HETATM    9  C17 UNL     1      -4.815  48.005 -18.756  1.00  0.00     0.095 C 
HETATM   10  O4  UNL     1      -5.683  47.503 -17.689  1.00  0.00    -0.377 OA
HETATM   11  C21 UNL     1      -7.024  47.235 -18.065  1.00  0.00     0.169 C 
HETATM   12  C22 UNL     1      -7.081  46.037 -18.987  1.00  0.00     0.027 C 
HETATM   13  C23 UNL     1      -5.886  45.948 -19.929  1.00  0.00     0.010 C 
HETATM   14  C24 UNL     1      -5.080  47.253 -20.118  1.00  0.00     0.032 C 
HETATM   15  C25 UNL     1      -5.537  48.163 -21.345  1.00  0.00    -0.033 C 
HETATM   16  C26 UNL     1      -7.023  48.567 -21.241  1.00  0.00     0.016 C 
HETATM   17  C27 UNL     1      -5.401  47.327 -22.680  1.00  0.00     0.011 C 
HETATM   18  C28 UNL     1      -5.194  48.120 -23.992  1.00  0.00     0.011 C 
HETATM   19  C29 UNL     1      -4.098  49.188 -23.844  1.00  0.00    -0.032 C 
HETATM   20  C30 UNL     1      -2.753  48.434 -23.602  1.00  0.00     0.016 C 
ENDROOT
BRANCH   1  21
HETATM   21  C2  UNL     1      -3.357  49.672 -26.379  1.00  0.00    -0.014 C 
HETATM   22  C1  UNL     1      -4.309  48.595 -26.932  1.00  0.00     0.010 C 
BRANCH  21  23
HETATM   23  C3  UNL     1      -3.115  50.749 -27.463  1.00  0.00     0.007 C 
BRANCH  23  24
HETATM   24  C4  UNL     1      -1.646  51.207 -27.532  1.00  0.00     0.035 C 
BRANCH  24  25
HETATM   25  C5  UNL     1      -1.471  52.668 -27.073  1.00  0.00     0.151 C 
BRANCH  25  26
HETATM   26  O1  UNL     1      -1.961  53.560 -28.078  1.00  0.00    -0.393 OA
HETATM   27  H10 UNL     1      -1.647  53.243 -28.943  1.00  0.00     0.210 HD
ENDBRANCH  25  26
BRANCH  25  28
HETATM   28  C6  UNL     1      -0.007  53.030 -26.676  1.00  0.00     0.076 C 
HETATM   29  C7  UNL     1       0.343  52.596 -25.249  1.00  0.00     0.048 C 
HETATM   30  C8  UNL     1       0.980  52.384 -27.659  1.00  0.00     0.048 C 
BRANCH  28  31
HETATM   31  O2  UNL     1       0.160  54.451 -26.757  1.00  0.00    -0.388 OA
HETATM   32  H17 UNL     1       1.092  54.657 -26.571  1.00  0.00     0.210 HD
ENDBRANCH  28  31
ENDBRANCH  25  28
ENDBRANCH  24  25
ENDBRANCH  23  24
ENDBRANCH  21  23
ENDBRANCH   1  21
BRANCH   9  33
HETATM   33  C18 UNL     1      -3.363  47.699 -18.155  1.00  0.00     0.082 C 
HETATM   34  C19 UNL     1      -2.235  47.572 -19.180  1.00  0.00     0.049 C 
HETATM   35  C20 UNL     1      -3.333  46.460 -17.241  1.00  0.00     0.049 C 
BRANCH  33  36
HETATM   36  O3  UNL     1      -3.000  48.804 -17.298  1.00  0.00    -0.388 OA
HETATM   37  H37 UNL     1      -3.816  48.997 -16.792  1.00  0.00     0.210 HD
ENDBRANCH  33  36
ENDBRANCH   9  33
TORSDOF 9
ENDMDL
MODEL 8
REMARK minimizedAffinity -8.02653027
REMARK  9 active torsions:
REMARK  status: ('A' for Active; 'I' for Inactive)
REMARK    1  A    between atoms: C2_2  and  C3_3 
REMARK    2  A    between atoms: C2_2  and  C9_11 
REMARK    3  A    between atoms: C3_3  and  C4_4 
REMARK    4  A    between atoms: C4_4  and  C5_5 
REMARK    5  A    between atoms: C5_5  and  O1_6 
REMARK    6  A    between atoms: C5_5  and  C6_7 
REMARK    7  A    between atoms: C6_7  and  O2_10 
REMARK    8  A    between atoms: C17_19  and  C18_20 
REMARK    9  A    between atoms: C18_20  and  O3_23 
ROOT
HETATM    1  C9  UNL     1      -1.418  50.622 -22.076  1.00  0.00    -0.002 C 
HETATM    2  C10 UNL     1      -1.701  50.048 -23.494  1.00  0.00     0.006 C 
HETATM    3  C11 UNL     1      -2.814  48.978 -23.329  1.00  0.00     0.011 C 
HETATM    4  C12 UNL     1      -2.928  48.767 -21.804  1.00  0.00    -0.032 C 
HETATM    5  C13 UNL     1      -1.766  47.782 -21.437  1.00  0.00     0.016 C 
HETATM    6  C14 UNL     1      -4.300  48.252 -21.283  1.00  0.00     0.003 C 
HETATM    7  C15 UNL     1      -4.777  46.941 -21.920  1.00  0.00     0.009 C 
HETATM    8  C16 UNL     1      -5.925  46.248 -21.187  1.00  0.00     0.042 C 
HETATM    9  C17 UNL     1      -6.817  47.106 -20.249  1.00  0.00     0.095 C 
HETATM   10  O4  UNL     1      -7.481  46.154 -19.355  1.00  0.00    -0.377 OA
HETATM   11  C21 UNL     1      -6.729  45.750 -18.224  1.00  0.00     0.169 C 
HETATM   12  C22 UNL     1      -6.575  46.902 -17.256  1.00  0.00     0.027 C 
HETATM   13  C23 UNL     1      -6.434  48.252 -17.948  1.00  0.00     0.010 C 
HETATM   14  C24 UNL     1      -6.026  48.204 -19.438  1.00  0.00     0.032 C 
HETATM   15  C25 UNL     1      -4.458  48.288 -19.717  1.00  0.00    -0.033 C 
HETATM   16  C26 UNL     1      -3.684  47.158 -19.005  1.00  0.00     0.016 C 
HETATM   17  C27 UNL     1      -3.905  49.643 -19.120  1.00  0.00     0.011 C 
HETATM   18  C28 UNL     1      -2.623  50.226 -19.761  1.00  0.00     0.011 C 
HETATM   19  C29 UNL     1      -2.712  50.245 -21.295  1.00  0.00    -0.032 C 
HETATM   20  C30 UNL     1      -3.853  51.241 -21.676  1.00  0.00     0.016 C 
ENDROOT
BRANCH   1  21
HETATM   21  C2  UNL     1      -0.887  52.084 -22.001  1.00  0.00    -0.014 C 
HETATM   22  C1  UNL     1      -0.202  52.292 -20.637  1.00  0.00     0.010 C 
BRANCH  21  23
HETATM   23  C3  UNL     1       0.080  52.508 -23.131  1.00  0.00     0.007 C 
BRANCH  23  24
HETATM   24  C4  UNL     1      -0.640  53.196 -24.306  1.00  0.00     0.035 C 
BRANCH  24  25
HETATM   25  C5  UNL     1       0.325  53.539 -25.458  1.00  0.00     0.151 C 
BRANCH  25  26
HETATM   26  O1  UNL     1       0.240  54.932 -25.772  1.00  0.00    -0.393 OA
HETATM   27  H10 UNL     1      -0.701  55.182 -25.786  1.00  0.00     0.210 HD
ENDBRANCH  25  26
BRANCH  25  28
HETATM   28  C6  UNL     1       0.111  52.669 -26.734  1.00  0.00     0.076 C 
HETATM   29  C7  UNL     1      -0.534  53.453 -27.883  1.00  0.00     0.048 C 
HETATM   30  C8  UNL     1       1.452  52.088 -27.207  1.00  0.00     0.048 C 
BRANCH  28  31
HETATM   31  O2  UNL     1      -0.753  51.572 -26.411  1.00  0.00    -0.388 OA
HETATM   32  H17 UNL     1      -0.825  51.002 -27.196  1.00  0.00     0.210 HD
ENDBRANCH  28  31
ENDBRANCH  25  28
ENDBRANCH  24  25
ENDBRANCH  23  24
ENDBRANCH  21  23
ENDBRANCH   1  21
BRANCH   9  33
HETATM   33  C18 UNL     1      -8.064  47.711 -21.051  1.00  0.00     0.082 C 
HETATM   34  C19 UNL     1      -9.349  47.890 -20.240  1.00  0.00     0.049 C 
HETATM   35  C20 UNL     1      -8.403  46.925 -22.331  1.00  0.00     0.049 C 
BRANCH  33  36
HETATM   36  O3  UNL     1      -7.695  49.030 -21.509  1.00  0.00    -0.388 OA
HETATM   37  H37 UNL     1      -6.780  48.924 -21.841  1.00  0.00     0.210 HD
ENDBRANCH  33  36
ENDBRANCH   9  33
TORSDOF 9
ENDMDL
MODEL 9
REMARK minimizedAffinity -8.01704216
REMARK  9 active torsions:
REMARK  status: ('A' for Active; 'I' for Inactive)
REMARK    1  A    between atoms: C2_2  and  C3_3 
REMARK    2  A    between atoms: C2_2  and  C9_11 
REMARK    3  A    between atoms: C3_3  and  C4_4 
REMARK    4  A    between atoms: C4_4  and  C5_5 
REMARK    5  A    between atoms: C5_5  and  O1_6 
REMARK    6  A    between atoms: C5_5  and  C6_7 
REMARK    7  A    between atoms: C6_7  and  O2_10 
REMARK    8  A    between atoms: C17_19  and  C18_20 
REMARK    9  A    between atoms: C18_20  and  O3_23 
ROOT
HETATM    1  C9  UNL     1      -2.041  50.605 -21.979  1.00  0.00    -0.002 C 
HETATM    2  C10 UNL     1      -1.664  49.543 -23.052  1.00  0.00     0.006 C 
HETATM    3  C11 UNL     1      -2.716  48.406 -22.943  1.00  0.00     0.011 C 
HETATM    4  C12 UNL     1      -3.481  48.707 -21.636  1.00  0.00    -0.032 C 
HETATM    5  C13 UNL     1      -2.577  48.138 -20.490  1.00  0.00     0.016 C 
HETATM    6  C14 UNL     1      -4.932  48.155 -21.547  1.00  0.00     0.003 C 
HETATM    7  C15 UNL     1      -5.057  46.641 -21.762  1.00  0.00     0.009 C 
HETATM    8  C16 UNL     1      -6.395  46.038 -21.339  1.00  0.00     0.042 C 
HETATM    9  C17 UNL     1      -7.625  46.982 -21.243  1.00  0.00     0.095 C 
HETATM   10  O4  UNL     1      -8.594  46.284 -20.394  1.00  0.00    -0.377 OA
HETATM   11  C21 UNL     1      -8.404  46.434 -18.997  1.00  0.00     0.169 C 
HETATM   12  C22 UNL     1      -8.711  47.853 -18.573  1.00  0.00     0.027 C 
HETATM   13  C23 UNL     1      -8.309  48.890 -19.615  1.00  0.00     0.010 C 
HETATM   14  C24 UNL     1      -7.290  48.416 -20.677  1.00  0.00     0.032 C 
HETATM   15  C25 UNL     1      -5.759  48.690 -20.320  1.00  0.00    -0.033 C 
HETATM   16  C26 UNL     1      -5.352  48.031 -18.984  1.00  0.00     0.016 C 
HETATM   17  C27 UNL     1      -5.550  50.244 -20.125  1.00  0.00     0.011 C 
HETATM   18  C28 UNL     1      -4.129  50.802 -20.376  1.00  0.00     0.011 C 
HETATM   19  C29 UNL     1      -3.538  50.283 -21.696  1.00  0.00    -0.032 C 
HETATM   20  C30 UNL     1      -4.417  50.861 -22.850  1.00  0.00     0.016 C 
ENDROOT
BRANCH   1  21
HETATM   21  C2  UNL     1      -1.626  52.078 -22.270  1.00  0.00    -0.014 C 
HETATM   22  C1  UNL     1      -0.396  52.424 -21.409  1.00  0.00     0.010 C 
BRANCH  21  23
HETATM   23  C3  UNL     1      -1.327  52.414 -23.750  1.00  0.00     0.007 C 
BRANCH  23  24
HETATM   24  C4  UNL     1       0.170  52.305 -24.096  1.00  0.00     0.035 C 
BRANCH  24  25
HETATM   25  C5  UNL     1       0.535  53.116 -25.356  1.00  0.00     0.151 C 
BRANCH  25  26
HETATM   26  O1  UNL     1      -0.517  54.031 -25.673  1.00  0.00    -0.393 OA
HETATM   27  H10 UNL     1      -1.364  53.561 -25.581  1.00  0.00     0.210 HD
ENDBRANCH  25  26
BRANCH  25  28
HETATM   28  C6  UNL     1       0.891  52.230 -26.589  1.00  0.00     0.076 C 
HETATM   29  C7  UNL     1       0.408  50.784 -26.438  1.00  0.00     0.048 C 
HETATM   30  C8  UNL     1       0.287  52.836 -27.865  1.00  0.00     0.048 C 
BRANCH  28  31
HETATM   31  O2  UNL     1       2.315  52.203 -26.748  1.00  0.00    -0.388 OA
HETATM   32  H17 UNL     1       2.520  51.704 -27.558  1.00  0.00     0.210 HD
ENDBRANCH  28  31
ENDBRANCH  25  28
ENDBRANCH  24  25
ENDBRANCH  23  24
ENDBRANCH  21  23
ENDBRANCH   1  21
BRANCH   9  33
HETATM   33  C18 UNL     1      -8.408  47.037 -22.638  1.00  0.00     0.082 C 
HETATM   34  C19 UNL     1      -8.113  45.892 -23.608  1.00  0.00     0.049 C 
HETATM   35  C20 UNL     1      -8.222  48.370 -23.387  1.00  0.00     0.049 C 
BRANCH  33  36
HETATM   36  O3  UNL     1      -9.822  46.963 -22.352  1.00  0.00    -0.388 OA
HETATM   37  H37 UNL     1      -9.946  47.560 -21.586  1.00  0.00     0.210 HD
ENDBRANCH  33  36
ENDBRANCH   9  33
TORSDOF 9
ENDMDL
