MODEL 1
REMARK minimizedAffinity -10.4266739
REMARK  6 active torsions:
REMARK  status: ('A' for Active; 'I' for Inactive)
REMARK    1  A    between atoms: N1_2  and  C2_3 
REMARK    2  A    between atoms: C4_5  and  N3_29 
REMARK    3  A    between atoms: C5_7  and  N2_12 
REMARK    4  A    between atoms: C7_9  and  O2_10 
REMARK    5  A    between atoms: C27_32  and  O3_33 
REMARK    6  A    between atoms: C28_36  and  O4_37 
ROOT
HETATM    1  C2  UNL     1       9.960  -8.112  26.325  1.00  0.00     0.257 C 
HETATM    2  C3  UNL     1       9.005  -8.047  27.524  1.00  0.00     0.092 C 
HETATM    3  C4  UNL     1       9.757  -7.985  28.861  1.00  0.00     0.234 C 
HETATM    4  O1  UNL     1      11.164  -8.193  28.758  1.00  0.00    -0.333 OA
HETATM    5  C5  UNL     1      11.891  -7.399  27.786  1.00  0.00     0.168 C 
HETATM    6  C6  UNL     1      12.990  -8.411  27.387  1.00  0.00     0.074 C 
HETATM    7  C7  UNL     1      11.044  -7.023  26.521  1.00  0.00     0.209 C 
ENDROOT
BRANCH   1   8
HETATM    8  N1  UNL     1       9.236  -7.939  25.047  1.00  0.00     0.086 N 
HETATM    9  C1  UNL     1       7.788  -8.031  25.187  1.00  0.00     0.307 C 
HETATM   10  H4  UNL     1       9.550  -8.632  24.370  1.00  0.00     0.316 HD
ENDBRANCH   1   8
BRANCH   7  11
HETATM   11  O2  UNL     1      10.352  -5.770  26.691  1.00  0.00    -0.384 OA
HETATM   12  C8  UNL     1      11.190  -4.717  27.140  1.00  0.00     0.202 C 
ENDBRANCH   7  11
BRANCH   3  13
HETATM   13  N3  UNL     1       9.461  -6.838  29.712  1.00  0.00    -0.316 N 
HETATM   14  C24 UNL     1      10.406  -6.147  30.458  1.00  0.00     0.048 A 
HETATM   15  C19 UNL     1       9.766  -5.024  31.009  1.00  0.00     0.004 A 
HETATM   16  C23 UNL     1      11.769  -6.416  30.683  1.00  0.00     0.030 A 
HETATM   17  C18 UNL     1       8.401  -5.053  30.583  1.00  0.00     0.021 A 
HETATM   18  C20 UNL     1      10.537  -4.155  31.812  1.00  0.00     0.014 A 
HETATM   19  C17 UNL     1       7.222  -4.304  30.711  1.00  0.00     0.040 A 
HETATM   20  C25 UNL     1       8.266  -6.195  29.809  1.00  0.00     0.077 A 
HETATM   21  C16 UNL     1       5.961  -4.643  30.160  1.00  0.00     0.019 A 
HETATM   22  C27 UNL     1       6.951  -3.057  31.387  1.00  0.00     0.150 A 
HETATM   23  C15 UNL     1       5.775  -5.807  29.394  1.00  0.00     0.017 A 
HETATM   24  C28 UNL     1       4.993  -3.558  30.551  1.00  0.00     0.256 A 
HETATM   25  C14 UNL     1       4.695  -6.473  28.753  1.00  0.00     0.004 A 
HETATM   26  C26 UNL     1       6.891  -6.589  29.184  1.00  0.00     0.077 A 
HETATM   27  C9  UNL     1       5.192  -7.670  28.200  1.00  0.00     0.049 A 
HETATM   28  C13 UNL     1       3.318  -6.180  28.640  1.00  0.00     0.014 A 
HETATM   29  N2  UNL     1       6.568  -7.688  28.429  1.00  0.00    -0.308 N 
HETATM   30  C10 UNL     1       4.312  -8.581  27.583  1.00  0.00     0.030 A 
HETATM   31  C11 UNL     1       2.953  -8.263  27.485  1.00  0.00     0.002 A 
HETATM   32  C12 UNL     1       2.460  -7.074  28.000  1.00  0.00     0.001 A 
HETATM   33  N4  UNL     1       5.753  -2.568  31.353  1.00  0.00    -0.340 N 
ATOM     34  H4  UNL     1       5.412  -1.705  31.778  1.00  0.00     0.164 HD
HETATM   35  C21 UNL     1      11.893  -4.417  32.041  1.00  0.00     0.001 A 
HETATM   36  C22 UNL     1      12.498  -5.534  31.483  1.00  0.00     0.002 A 
BRANCH  24  37
HETATM   37  O4  UNL     1       3.909  -4.103  31.270  1.00  0.00    -0.372 OA
HETATM   38  H26 UNL     1       3.782  -3.455  31.984  1.00  0.00     0.212 HD
ENDBRANCH  24  37
BRANCH  22  39
HETATM   39  O3  UNL     1       7.914  -2.407  32.029  1.00  0.00    -0.346 OA
HETATM   40  H24 UNL     1       7.524  -1.602  32.405  1.00  0.00     0.219 HD
ENDBRANCH  22  39
ENDBRANCH   3  13
TORSDOF 6
ENDMDL
MODEL 2
REMARK minimizedAffinity -10.138237
REMARK  6 active torsions:
REMARK  status: ('A' for Active; 'I' for Inactive)
REMARK    1  A    between atoms: N1_2  and  C2_3 
REMARK    2  A    between atoms: C4_5  and  N3_29 
REMARK    3  A    between atoms: C5_7  and  N2_12 
REMARK    4  A    between atoms: C7_9  and  O2_10 
REMARK    5  A    between atoms: C27_32  and  O3_33 
REMARK    6  A    between atoms: C28_36  and  O4_37 
ROOT
HETATM    1  C2  UNL     1      10.080  -9.888  27.479  1.00  0.00     0.257 C 
HETATM    2  C3  UNL     1       8.919  -9.783  28.476  1.00  0.00     0.092 C 
HETATM    3  C4  UNL     1       8.982  -8.494  29.306  1.00  0.00     0.234 C 
HETATM    4  O1  UNL     1      10.183  -7.743  29.142  1.00  0.00    -0.333 OA
HETATM    5  C5  UNL     1      10.604  -7.438  27.787  1.00  0.00     0.168 C 
HETATM    6  C6  UNL     1      12.138  -7.456  27.979  1.00  0.00     0.074 C 
HETATM    7  C7  UNL     1      10.195  -8.531  26.740  1.00  0.00     0.209 C 
ENDROOT
BRANCH   1   8
HETATM    8  N1  UNL     1       9.883 -11.009  26.534  1.00  0.00     0.086 N 
HETATM    9  C1  UNL     1       8.555 -11.602  26.613  1.00  0.00     0.307 C 
HETATM   10  H4  UNL     1      10.582 -11.732  26.699  1.00  0.00     0.316 HD
ENDBRANCH   1   8
BRANCH   7  11
HETATM   11  O2  UNL     1       8.905  -8.261  26.158  1.00  0.00    -0.384 OA
HETATM   12  C8  UNL     1       8.720  -6.902  25.795  1.00  0.00     0.202 C 
ENDBRANCH   7  11
BRANCH   3  13
HETATM   13  N3  UNL     1       7.811  -7.627  29.235  1.00  0.00    -0.316 N 
HETATM   14  C24 UNL     1       6.646  -7.931  28.546  1.00  0.00     0.048 A 
HETATM   15  C19 UNL     1       5.706  -6.931  28.847  1.00  0.00     0.004 A 
HETATM   16  C23 UNL     1       6.343  -9.009  27.692  1.00  0.00     0.030 A 
HETATM   17  C18 UNL     1       6.334  -6.002  29.736  1.00  0.00     0.021 A 
HETATM   18  C20 UNL     1       4.426  -7.032  28.260  1.00  0.00     0.014 A 
HETATM   19  C17 UNL     1       6.041  -4.824  30.437  1.00  0.00     0.040 A 
HETATM   20  C25 UNL     1       7.627  -6.466  29.922  1.00  0.00     0.077 A 
HETATM   21  C16 UNL     1       6.946  -4.097  31.250  1.00  0.00     0.019 A 
HETATM   22  C27 UNL     1       4.826  -4.051  30.540  1.00  0.00     0.150 A 
HETATM   23  C15 UNL     1       8.273  -4.517  31.441  1.00  0.00     0.017 A 
HETATM   24  C28 UNL     1       6.202  -2.907  31.798  1.00  0.00     0.256 A 
HETATM   25  C14 UNL     1       9.433  -4.040  32.112  1.00  0.00     0.004 A 
HETATM   26  C26 UNL     1       8.643  -5.690  30.817  1.00  0.00     0.077 A 
HETATM   27  C9  UNL     1      10.488  -4.933  31.839  1.00  0.00     0.049 A 
HETATM   28  C13 UNL     1       9.686  -2.890  32.891  1.00  0.00     0.014 A 
HETATM   29  N2  UNL     1       9.957  -5.979  31.084  1.00  0.00    -0.308 N 
HETATM   30  C10 UNL     1      11.789  -4.651  32.303  1.00  0.00     0.030 A 
HETATM   31  C11 UNL     1      12.008  -3.504  33.074  1.00  0.00     0.002 A 
HETATM   32  C12 UNL     1      10.970  -2.636  33.373  1.00  0.00     0.001 A 
HETATM   33  N4  UNL     1       4.818  -2.980  31.267  1.00  0.00    -0.340 N 
ATOM     34  H4  UNL     1       4.043  -2.337  31.436  1.00  0.00     0.164 HD
HETATM   35  C21 UNL     1       4.119  -8.100  27.409  1.00  0.00     0.001 A 
HETATM   36  C22 UNL     1       5.067  -9.073  27.130  1.00  0.00     0.002 A 
BRANCH  24  37
HETATM   37  O4  UNL     1       6.849  -1.710  31.427  1.00  0.00    -0.372 OA
HETATM   38  H26 UNL     1       6.105  -1.134  31.183  1.00  0.00     0.212 HD
ENDBRANCH  24  37
BRANCH  22  39
HETATM   39  O3  UNL     1       3.721  -4.431  29.910  1.00  0.00    -0.346 OA
HETATM   40  H24 UNL     1       3.029  -3.781  30.113  1.00  0.00     0.219 HD
ENDBRANCH  22  39
ENDBRANCH   3  13
TORSDOF 6
ENDMDL
MODEL 3
REMARK minimizedAffinity -9.9685812
REMARK  6 active torsions:
REMARK  status: ('A' for Active; 'I' for Inactive)
REMARK    1  A    between atoms: N1_2  and  C2_3 
REMARK    2  A    between atoms: C4_5  and  N3_29 
REMARK    3  A    between atoms: C5_7  and  N2_12 
REMARK    4  A    between atoms: C7_9  and  O2_10 
REMARK    5  A    between atoms: C27_32  and  O3_33 
REMARK    6  A    between atoms: C28_36  and  O4_37 
ROOT
HETATM    1  C2  UNL     1      10.756 -10.017  27.065  1.00  0.00     0.257 C 
HETATM    2  C3  UNL     1       9.541 -10.161  27.992  1.00  0.00     0.092 C 
HETATM    3  C4  UNL     1       9.247  -8.869  28.765  1.00  0.00     0.234 C 
HETATM    4  O1  UNL     1      10.246  -7.860  28.634  1.00  0.00    -0.333 OA
HETATM    5  C5  UNL     1      10.669  -7.505  27.292  1.00  0.00     0.168 C 
HETATM    6  C6  UNL     1      12.149  -7.153  27.567  1.00  0.00     0.074 C 
HETATM    7  C7  UNL     1      10.595  -8.695  26.274  1.00  0.00     0.209 C 
ENDROOT
BRANCH   1   8
HETATM    8  N1  UNL     1      10.888 -11.181  26.162  1.00  0.00     0.086 N 
HETATM    9  C1  UNL     1      10.231 -12.380  26.666  1.00  0.00     0.307 C 
HETATM   10  H4  UNL     1      11.872 -11.385  25.996  1.00  0.00     0.316 HD
ENDBRANCH   1   8
BRANCH   7  11
HETATM   11  O2  UNL     1       9.317  -8.756  25.611  1.00  0.00    -0.384 OA
HETATM   12  C8  UNL     1       9.392  -8.523  24.213  1.00  0.00     0.202 C 
ENDBRANCH   7  11
BRANCH   3  13
HETATM   13  N3  UNL     1       7.913  -8.306  28.592  1.00  0.00    -0.316 N 
HETATM   14  C24 UNL     1       6.896  -8.901  27.859  1.00  0.00     0.048 A 
HETATM   15  C19 UNL     1       5.731  -8.142  28.063  1.00  0.00     0.004 A 
HETATM   16  C23 UNL     1       6.906 -10.049  27.044  1.00  0.00     0.030 A 
HETATM   17  C18 UNL     1       6.068  -7.061  28.937  1.00  0.00     0.021 A 
HETATM   18  C20 UNL     1       4.549  -8.564  27.415  1.00  0.00     0.014 A 
HETATM   19  C17 UNL     1       5.464  -5.962  29.564  1.00  0.00     0.040 A 
HETATM   20  C25 UNL     1       7.420  -7.199  29.212  1.00  0.00     0.077 A 
HETATM   21  C16 UNL     1       6.122  -5.014  30.387  1.00  0.00     0.019 A 
HETATM   22  C27 UNL     1       4.097  -5.495  29.567  1.00  0.00     0.150 A 
HETATM   23  C15 UNL     1       7.496  -5.101  30.667  1.00  0.00     0.017 A 
HETATM   24  C28 UNL     1       5.087  -4.015  30.838  1.00  0.00     0.256 A 
HETATM   25  C14 UNL     1       8.468  -4.340  31.373  1.00  0.00     0.004 A 
HETATM   26  C26 UNL     1       8.168  -6.174  30.121  1.00  0.00     0.077 A 
HETATM   27  C9  UNL     1       9.717  -4.967  31.199  1.00  0.00     0.049 A 
HETATM   28  C13 UNL     1       8.396  -3.136  32.108  1.00  0.00     0.014 A 
HETATM   29  N2  UNL     1       9.494  -6.135  30.469  1.00  0.00    -0.308 N 
HETATM   30  C10 UNL     1      10.885  -4.370  31.716  1.00  0.00     0.030 A 
HETATM   31  C11 UNL     1      10.781  -3.177  32.441  1.00  0.00     0.002 A 
HETATM   32  C12 UNL     1       9.552  -2.570  32.643  1.00  0.00     0.001 A 
HETATM   33  N4  UNL     1       3.794  -4.432  30.241  1.00  0.00    -0.340 N 
ATOM     34  H4  UNL     1       2.882  -3.986  30.338  1.00  0.00     0.164 HD
HETATM   35  C21 UNL     1       4.553  -9.702  26.602  1.00  0.00     0.001 A 
HETATM   36  C22 UNL     1       5.718 -10.433  26.420  1.00  0.00     0.002 A 
BRANCH  24  37
HETATM   37  O4  UNL     1       5.458  -2.713  30.444  1.00  0.00    -0.372 OA
HETATM   38  H26 UNL     1       4.616  -2.338  30.135  1.00  0.00     0.212 HD
ENDBRANCH  24  37
BRANCH  22  39
HETATM   39  O3  UNL     1       3.154  -6.148  28.899  1.00  0.00    -0.346 OA
HETATM   40  H24 UNL     1       2.318  -5.674  29.034  1.00  0.00     0.219 HD
ENDBRANCH  22  39
ENDBRANCH   3  13
TORSDOF 6
ENDMDL
MODEL 4
REMARK minimizedAffinity -9.66747665
REMARK  6 active torsions:
REMARK  status: ('A' for Active; 'I' for Inactive)
REMARK    1  A    between atoms: N1_2  and  C2_3 
REMARK    2  A    between atoms: C4_5  and  N3_29 
REMARK    3  A    between atoms: C5_7  and  N2_12 
REMARK    4  A    between atoms: C7_9  and  O2_10 
REMARK    5  A    between atoms: C27_32  and  O3_33 
REMARK    6  A    between atoms: C28_36  and  O4_37 
ROOT
HETATM    1  C2  UNL     1       7.151  -8.499  26.878  1.00  0.00     0.257 C 
HETATM    2  C3  UNL     1       7.527  -8.507  28.365  1.00  0.00     0.092 C 
HETATM    3  C4  UNL     1       8.794  -9.327  28.639  1.00  0.00     0.234 C 
HETATM    4  O1  UNL     1       9.268 -10.074  27.520  1.00  0.00    -0.333 OA
HETATM    5  C5  UNL     1       9.441  -9.366  26.265  1.00  0.00     0.168 C 
HETATM    6  C6  UNL     1       9.102 -10.503  25.273  1.00  0.00     0.074 C 
HETATM    7  C7  UNL     1       8.433  -8.182  26.067  1.00  0.00     0.209 C 
ENDROOT
BRANCH   1   8
HETATM    8  N1  UNL     1       6.073  -7.526  26.597  1.00  0.00     0.086 N 
HETATM    9  C1  UNL     1       4.841  -7.805  27.323  1.00  0.00     0.307 C 
HETATM   10  H4  UNL     1       5.873  -7.503  25.598  1.00  0.00     0.316 HD
ENDBRANCH   1   8
BRANCH   7  11
HETATM   11  O2  UNL     1       8.955  -6.940  26.579  1.00  0.00    -0.384 OA
HETATM   12  C8  UNL     1      10.303  -6.697  26.207  1.00  0.00     0.202 C 
ENDBRANCH   7  11
BRANCH   3  13
HETATM   13  N3  UNL     1       9.889  -8.619  29.293  1.00  0.00    -0.316 N 
HETATM   14  C24 UNL     1      11.196  -9.080  29.359  1.00  0.00     0.048 A 
HETATM   15  C19 UNL     1      11.975  -8.054  29.922  1.00  0.00     0.004 A 
HETATM   16  C23 UNL     1      11.755 -10.309  28.961  1.00  0.00     0.030 A 
HETATM   17  C18 UNL     1      11.103  -6.956  30.204  1.00  0.00     0.021 A 
HETATM   18  C20 UNL     1      13.357  -8.292  30.084  1.00  0.00     0.014 A 
HETATM   19  C17 UNL     1      11.152  -5.656  30.728  1.00  0.00     0.040 A 
HETATM   20  C25 UNL     1       9.836  -7.365  29.818  1.00  0.00     0.077 A 
HETATM   21  C16 UNL     1      10.041  -4.795  30.911  1.00  0.00     0.019 A 
HETATM   22  C27 UNL     1      12.258  -4.857  31.201  1.00  0.00     0.150 A 
HETATM   23  C15 UNL     1       8.737  -5.182  30.561  1.00  0.00     0.017 A 
HETATM   24  C28 UNL     1      10.562  -3.509  31.499  1.00  0.00     0.256 A 
HETATM   25  C14 UNL     1       7.427  -4.634  30.645  1.00  0.00     0.004 A 
HETATM   26  C26 UNL     1       8.596  -6.435  30.003  1.00  0.00     0.077 A 
HETATM   27  C9  UNL     1       6.523  -5.600  30.161  1.00  0.00     0.049 A 
HETATM   28  C13 UNL     1       6.929  -3.409  31.141  1.00  0.00     0.014 A 
HETATM   29  N2  UNL     1       7.278  -6.684  29.713  1.00  0.00    -0.308 N 
HETATM   30  C10 UNL     1       5.135  -5.358  30.218  1.00  0.00     0.030 A 
HETATM   31  C11 UNL     1       4.672  -4.135  30.714  1.00  0.00     0.002 A 
HETATM   32  C12 UNL     1       5.556  -3.167  31.164  1.00  0.00     0.001 A 
HETATM   33  N4  UNL     1      12.030  -3.662  31.644  1.00  0.00    -0.340 N 
ATOM     34  H4  UNL     1      12.702  -2.985  32.006  1.00  0.00     0.164 HD
HETATM   35  C21 UNL     1      13.919  -9.512  29.693  1.00  0.00     0.001 A 
HETATM   36  C22 UNL     1      13.125 -10.506  29.139  1.00  0.00     0.002 A 
BRANCH  24  37
HETATM   37  O4  UNL     1       9.933  -3.243  32.733  1.00  0.00    -0.372 OA
HETATM   38  H26 UNL     1      10.671  -2.934  33.284  1.00  0.00     0.212 HD
ENDBRANCH  24  37
BRANCH  22  39
HETATM   39  O3  UNL     1      13.498  -5.329  31.176  1.00  0.00    -0.346 OA
HETATM   40  H24 UNL     1      14.082  -4.640  31.531  1.00  0.00     0.219 HD
ENDBRANCH  22  39
ENDBRANCH   3  13
TORSDOF 6
ENDMDL
MODEL 5
REMARK minimizedAffinity -9.66699219
REMARK  6 active torsions:
REMARK  status: ('A' for Active; 'I' for Inactive)
REMARK    1  A    between atoms: N1_2  and  C2_3 
REMARK    2  A    between atoms: C4_5  and  N3_29 
REMARK    3  A    between atoms: C5_7  and  N2_12 
REMARK    4  A    between atoms: C7_9  and  O2_10 
REMARK    5  A    between atoms: C27_32  and  O3_33 
REMARK    6  A    between atoms: C28_36  and  O4_37 
ROOT
HETATM    1  C2  UNL     1      11.197  -7.383  26.779  1.00  0.00     0.257 C 
HETATM    2  C3  UNL     1       9.781  -7.936  26.993  1.00  0.00     0.092 C 
HETATM    3  C4  UNL     1       9.463  -8.154  28.478  1.00  0.00     0.234 C 
HETATM    4  O1  UNL     1      10.579  -7.994  29.352  1.00  0.00    -0.333 OA
HETATM    5  C5  UNL     1      11.362  -6.780  29.224  1.00  0.00     0.168 C 
HETATM    6  C6  UNL     1      12.759  -7.328  29.599  1.00  0.00     0.074 C 
HETATM    7  C7  UNL     1      11.401  -6.206  27.766  1.00  0.00     0.209 C 
ENDROOT
BRANCH   1   8
HETATM    8  N1  UNL     1      11.407  -6.962  25.377  1.00  0.00     0.086 N 
HETATM    9  C1  UNL     1      12.665  -7.436  24.815  1.00  0.00     0.307 C 
HETATM   10  H4  UNL     1      11.373  -5.946  25.308  1.00  0.00     0.316 HD
ENDBRANCH   1   8
BRANCH   7  11
HETATM   11  O2  UNL     1      10.330  -5.271  27.529  1.00  0.00    -0.384 OA
HETATM   12  C8  UNL     1      10.775  -3.936  27.345  1.00  0.00     0.202 C 
ENDBRANCH   7  11
BRANCH   3  13
HETATM   13  N3  UNL     1       8.293  -7.453  28.994  1.00  0.00    -0.316 N 
HETATM   14  C24 UNL     1       8.338  -6.431  29.932  1.00  0.00     0.048 A 
HETATM   15  C19 UNL     1       7.038  -5.910  30.049  1.00  0.00     0.004 A 
HETATM   16  C23 UNL     1       9.417  -5.920  30.678  1.00  0.00     0.030 A 
HETATM   17  C18 UNL     1       6.196  -6.649  29.159  1.00  0.00     0.021 A 
HETATM   18  C20 UNL     1       6.835  -4.844  30.951  1.00  0.00     0.014 A 
HETATM   19  C17 UNL     1       4.858  -6.695  28.740  1.00  0.00     0.040 A 
HETATM   20  C25 UNL     1       7.012  -7.593  28.555  1.00  0.00     0.077 A 
HETATM   21  C16 UNL     1       4.311  -7.620  27.816  1.00  0.00     0.019 A 
HETATM   22  C27 UNL     1       3.718  -5.880  29.090  1.00  0.00     0.150 A 
HETATM   23  C15 UNL     1       5.098  -8.610  27.204  1.00  0.00     0.017 A 
HETATM   24  C28 UNL     1       2.847  -7.298  27.670  1.00  0.00     0.256 A 
HETATM   25  C14 UNL     1       4.899  -9.697  26.309  1.00  0.00     0.004 A 
HETATM   26  C26 UNL     1       6.438  -8.619  27.529  1.00  0.00     0.077 A 
HETATM   27  C9  UNL     1       6.133 -10.357  26.148  1.00  0.00     0.049 A 
HETATM   28  C13 UNL     1       3.753 -10.207  25.658  1.00  0.00     0.014 A 
HETATM   29  N2  UNL     1       7.084  -9.632  26.867  1.00  0.00    -0.308 N 
HETATM   30  C10 UNL     1       6.207 -11.538  25.382  1.00  0.00     0.030 A 
HETATM   31  C11 UNL     1       5.056 -12.018  24.749  1.00  0.00     0.002 A 
HETATM   32  C12 UNL     1       3.844 -11.358  24.877  1.00  0.00     0.001 A 
HETATM   33  N4  UNL     1       2.569  -6.136  28.551  1.00  0.00    -0.340 N 
ATOM     34  H4  UNL     1       1.683  -5.653  28.698  1.00  0.00     0.164 HD
HETATM   35  C21 UNL     1       7.903  -4.332  31.697  1.00  0.00     0.001 A 
HETATM   36  C22 UNL     1       9.176  -4.865  31.560  1.00  0.00     0.002 A 
BRANCH  24  37
HETATM   37  O4  UNL     1       2.061  -8.419  28.008  1.00  0.00    -0.372 OA
HETATM   38  H26 UNL     1       1.342  -8.024  28.528  1.00  0.00     0.212 HD
ENDBRANCH  24  37
BRANCH  22  39
HETATM   39  O3  UNL     1       3.839  -4.872  29.945  1.00  0.00    -0.346 OA
HETATM   40  H24 UNL     1       2.966  -4.459  30.037  1.00  0.00     0.219 HD
ENDBRANCH  22  39
ENDBRANCH   3  13
TORSDOF 6
ENDMDL
MODEL 6
REMARK minimizedAffinity -9.33665848
REMARK  6 active torsions:
REMARK  status: ('A' for Active; 'I' for Inactive)
REMARK    1  A    between atoms: N1_2  and  C2_3 
REMARK    2  A    between atoms: C4_5  and  N3_29 
REMARK    3  A    between atoms: C5_7  and  N2_12 
REMARK    4  A    between atoms: C7_9  and  O2_10 
REMARK    5  A    between atoms: C27_32  and  O3_33 
REMARK    6  A    between atoms: C28_36  and  O4_37 
ROOT
HETATM    1  C2  UNL     1       8.758 -10.121  25.043  1.00  0.00     0.257 C 
HETATM    2  C3  UNL     1       7.489 -10.299  25.886  1.00  0.00     0.092 C 
HETATM    3  C4  UNL     1       7.737 -10.019  27.374  1.00  0.00     0.234 C 
HETATM    4  O1  UNL     1       9.109  -9.841  27.722  1.00  0.00    -0.333 OA
HETATM    5  C5  UNL     1       9.881  -8.893  26.941  1.00  0.00     0.168 C 
HETATM    6  C6  UNL     1      11.268  -9.576  26.994  1.00  0.00     0.074 C 
HETATM    7  C7  UNL     1       9.413  -8.777  25.450  1.00  0.00     0.209 C 
ENDROOT
BRANCH   1   8
HETATM    8  N1  UNL     1       8.457 -10.166  23.596  1.00  0.00     0.086 N 
HETATM    9  C1  UNL     1       9.644 -10.065  22.756  1.00  0.00     0.307 C 
HETATM   10  H4  UNL     1       7.811  -9.418  23.349  1.00  0.00     0.316 HD
ENDBRANCH   1   8
BRANCH   7  11
HETATM   11  O2  UNL     1       8.411  -7.755  25.279  1.00  0.00    -0.384 OA
HETATM   12  C8  UNL     1       8.795  -6.492  25.802  1.00  0.00     0.202 C 
ENDBRANCH   7  11
BRANCH   3  13
HETATM   13  N3  UNL     1       6.909  -8.983  27.980  1.00  0.00    -0.316 N 
HETATM   14  C24 UNL     1       7.394  -7.939  28.754  1.00  0.00     0.048 A 
HETATM   15  C19 UNL     1       6.318  -7.073  29.016  1.00  0.00     0.004 A 
HETATM   16  C23 UNL     1       8.692  -7.683  29.235  1.00  0.00     0.030 A 
HETATM   17  C18 UNL     1       5.159  -7.624  28.384  1.00  0.00     0.021 A 
HETATM   18  C20 UNL     1       6.574  -5.920  29.790  1.00  0.00     0.014 A 
HETATM   19  C17 UNL     1       3.798  -7.335  28.203  1.00  0.00     0.040 A 
HETATM   20  C25 UNL     1       5.574  -8.802  27.783  1.00  0.00     0.077 A 
HETATM   21  C16 UNL     1       2.865  -8.149  27.513  1.00  0.00     0.019 A 
HETATM   22  C27 UNL     1       2.995  -6.213  28.627  1.00  0.00     0.150 A 
HETATM   23  C15 UNL     1       3.238  -9.364  26.915  1.00  0.00     0.017 A 
HETATM   24  C28 UNL     1       1.531  -7.450  27.572  1.00  0.00     0.256 A 
HETATM   25  C14 UNL     1       2.598 -10.424  26.218  1.00  0.00     0.004 A 
HETATM   26  C26 UNL     1       4.569  -9.713  27.011  1.00  0.00     0.077 A 
HETATM   27  C9  UNL     1       3.567 -11.409  25.943  1.00  0.00     0.049 A 
HETATM   28  C13 UNL     1       1.256 -10.652  25.840  1.00  0.00     0.014 A 
HETATM   29  N2  UNL     1       4.793 -10.916  26.391  1.00  0.00    -0.308 N 
HETATM   30  C10 UNL     1       3.188 -12.624  25.338  1.00  0.00     0.030 A 
HETATM   31  C11 UNL     1       1.851 -12.821  24.974  1.00  0.00     0.002 A 
HETATM   32  C12 UNL     1       0.896 -11.845  25.214  1.00  0.00     0.001 A 
HETATM   33  N4  UNL     1       1.736  -6.188  28.325  1.00  0.00    -0.340 N 
ATOM     34  H4  UNL     1       1.048  -5.469  28.551  1.00  0.00     0.164 HD
HETATM   35  C21 UNL     1       7.862  -5.661  30.273  1.00  0.00     0.001 A 
HETATM   36  C22 UNL     1       8.905  -6.533  29.998  1.00  0.00     0.002 A 
BRANCH  24  37
HETATM   37  O4  UNL     1       0.568  -8.280  28.181  1.00  0.00    -0.372 OA
HETATM   38  H26 UNL     1       0.089  -7.661  28.757  1.00  0.00     0.212 HD
ENDBRANCH  24  37
BRANCH  22  39
HETATM   39  O3  UNL     1       3.533  -5.210  29.309  1.00  0.00    -0.346 OA
HETATM   40  H24 UNL     1       2.829  -4.566  29.489  1.00  0.00     0.219 HD
ENDBRANCH  22  39
ENDBRANCH   3  13
TORSDOF 6
ENDMDL
MODEL 7
REMARK minimizedAffinity -9.30599213
REMARK  6 active torsions:
REMARK  status: ('A' for Active; 'I' for Inactive)
REMARK    1  A    between atoms: N1_2  and  C2_3 
REMARK    2  A    between atoms: C4_5  and  N3_29 
REMARK    3  A    between atoms: C5_7  and  N2_12 
REMARK    4  A    between atoms: C7_9  and  O2_10 
REMARK    5  A    between atoms: C27_32  and  O3_33 
REMARK    6  A    between atoms: C28_36  and  O4_37 
ROOT
HETATM    1  C2  UNL     1       6.374  -9.611  26.058  1.00  0.00     0.257 C 
HETATM    2  C3  UNL     1       6.148  -9.232  27.527  1.00  0.00     0.092 C 
HETATM    3  C4  UNL     1       7.467  -9.068  28.292  1.00  0.00     0.234 C 
HETATM    4  O1  UNL     1       8.626  -9.478  27.569  1.00  0.00    -0.333 OA
HETATM    5  C5  UNL     1       8.803  -8.949  26.230  1.00  0.00     0.168 C 
HETATM    6  C6  UNL     1       9.515 -10.151  25.565  1.00  0.00     0.074 C 
HETATM    7  C7  UNL     1       7.455  -8.662  25.484  1.00  0.00     0.209 C 
ENDROOT
BRANCH   1   8
HETATM    8  N1  UNL     1       5.117  -9.540  25.281  1.00  0.00     0.086 N 
HETATM    9  C1  UNL     1       3.967  -9.135  26.080  1.00  0.00     0.307 C 
HETATM   10  H4  UNL     1       4.921 -10.441  24.849  1.00  0.00     0.316 HD
ENDBRANCH   1   8
BRANCH   7  11
HETATM   11  O2  UNL     1       6.993  -7.316  25.710  1.00  0.00    -0.384 OA
HETATM   12  C8  UNL     1       8.042  -6.386  25.934  1.00  0.00     0.202 C 
ENDBRANCH   7  11
BRANCH   3  13
HETATM   13  N3  UNL     1       7.683  -7.774  28.930  1.00  0.00    -0.316 N 
HETATM   14  C24 UNL     1       6.689  -6.834  29.161  1.00  0.00     0.048 A 
HETATM   15  C19 UNL     1       7.255  -5.803  29.930  1.00  0.00     0.004 A 
HETATM   16  C23 UNL     1       5.340  -6.813  28.762  1.00  0.00     0.030 A 
HETATM   17  C18 UNL     1       8.627  -6.139  30.158  1.00  0.00     0.021 A 
HETATM   18  C20 UNL     1       6.423  -4.724  30.299  1.00  0.00     0.014 A 
HETATM   19  C17 UNL     1       9.760  -5.633  30.813  1.00  0.00     0.040 A 
HETATM   20  C25 UNL     1       8.839  -7.344  29.507  1.00  0.00     0.077 A 
HETATM   21  C16 UNL     1      11.047  -6.228  30.819  1.00  0.00     0.019 A 
HETATM   22  C27 UNL     1       9.949  -4.451  31.620  1.00  0.00     0.150 A 
HETATM   23  C15 UNL     1      11.311  -7.433  30.147  1.00  0.00     0.017 A 
HETATM   24  C28 UNL     1      11.946  -5.343  31.642  1.00  0.00     0.256 A 
HETATM   25  C14 UNL     1      12.437  -8.263  29.896  1.00  0.00     0.004 A 
HETATM   26  C26 UNL     1      10.244  -8.024  29.502  1.00  0.00     0.077 A 
HETATM   27  C9  UNL     1      12.017  -9.323  29.068  1.00  0.00     0.049 A 
HETATM   28  C13 UNL     1      13.797  -8.173  30.265  1.00  0.00     0.014 A 
HETATM   29  N2  UNL     1      10.641  -9.185  28.889  1.00  0.00    -0.308 N 
HETATM   30  C10 UNL     1      12.958 -10.253  28.581  1.00  0.00     0.030 A 
HETATM   31  C11 UNL     1      14.298 -10.139  28.965  1.00  0.00     0.002 A 
HETATM   32  C12 UNL     1      14.715  -9.116  29.803  1.00  0.00     0.001 A 
HETATM   33  N4  UNL     1      11.118  -4.207  32.119  1.00  0.00    -0.340 N 
ATOM     34  H4  UNL     1      11.403  -3.421  32.704  1.00  0.00     0.164 HD
HETATM   35  C21 UNL     1       5.081  -4.696  29.904  1.00  0.00     0.001 A 
HETATM   36  C22 UNL     1       4.549  -5.728  29.145  1.00  0.00     0.002 A 
BRANCH  24  37
HETATM   37  O4  UNL     1      13.046  -4.910  30.874  1.00  0.00    -0.372 OA
HETATM   38  H26 UNL     1      13.125  -3.975  31.125  1.00  0.00     0.212 HD
ENDBRANCH  24  37
BRANCH  22  39
HETATM   39  O3  UNL     1       8.940  -3.623  31.860  1.00  0.00    -0.346 OA
HETATM   40  H24 UNL     1       9.278  -2.903  32.418  1.00  0.00     0.219 HD
ENDBRANCH  22  39
ENDBRANCH   3  13
TORSDOF 6
ENDMDL
MODEL 8
REMARK minimizedAffinity -9.1894474
REMARK  6 active torsions:
REMARK  status: ('A' for Active; 'I' for Inactive)
REMARK    1  A    between atoms: N1_2  and  C2_3 
REMARK    2  A    between atoms: C4_5  and  N3_29 
REMARK    3  A    between atoms: C5_7  and  N2_12 
REMARK    4  A    between atoms: C7_9  and  O2_10 
REMARK    5  A    between atoms: C27_32  and  O3_33 
REMARK    6  A    between atoms: C28_36  and  O4_37 
ROOT
HETATM    1  C2  UNL     1      11.181  -6.939  28.065  1.00  0.00     0.257 C 
HETATM    2  C3  UNL     1      10.131  -7.685  28.897  1.00  0.00     0.092 C 
HETATM    3  C4  UNL     1       9.230  -6.728  29.688  1.00  0.00     0.234 C 
HETATM    4  O1  UNL     1       9.647  -5.364  29.659  1.00  0.00    -0.333 OA
HETATM    5  C5  UNL     1       9.919  -4.773  28.363  1.00  0.00     0.168 C 
HETATM    6  C6  UNL     1      11.049  -3.791  28.753  1.00  0.00     0.074 C 
HETATM    7  C7  UNL     1      10.460  -5.796  27.306  1.00  0.00     0.209 C 
ENDROOT
BRANCH   1   8
HETATM    8  N1  UNL     1      11.885  -7.851  27.137  1.00  0.00     0.086 N 
HETATM    9  C1  UNL     1      13.169  -7.333  26.682  1.00  0.00     0.307 C 
HETATM   10  H4  UNL     1      11.299  -8.047  26.327  1.00  0.00     0.316 HD
ENDBRANCH   1   8
BRANCH   7  11
HETATM   11  O2  UNL     1       9.392  -6.404  26.552  1.00  0.00    -0.384 OA
HETATM   12  C8  UNL     1       9.769  -6.778  25.236  1.00  0.00     0.202 C 
ENDBRANCH   7  11
BRANCH   3  13
HETATM   13  N3  UNL     1       7.797  -6.839  29.438  1.00  0.00    -0.316 N 
HETATM   14  C24 UNL     1       6.851  -5.913  29.853  1.00  0.00     0.048 A 
HETATM   15  C19 UNL     1       5.620  -6.287  29.287  1.00  0.00     0.004 A 
HETATM   16  C23 UNL     1       6.982  -4.775  30.671  1.00  0.00     0.030 A 
HETATM   17  C18 UNL     1       5.842  -7.473  28.519  1.00  0.00     0.021 A 
HETATM   18  C20 UNL     1       4.496  -5.480  29.567  1.00  0.00     0.014 A 
HETATM   19  C17 UNL     1       5.134  -8.370  27.705  1.00  0.00     0.040 A 
HETATM   20  C25 UNL     1       7.186  -7.777  28.663  1.00  0.00     0.077 A 
HETATM   21  C16 UNL     1       5.672  -9.525  27.085  1.00  0.00     0.019 A 
HETATM   22  C27 UNL     1       3.755  -8.391  27.280  1.00  0.00     0.150 A 
HETATM   23  C15 UNL     1       7.023  -9.885  27.230  1.00  0.00     0.017 A 
HETATM   24  C28 UNL     1       4.556 -10.182  26.315  1.00  0.00     0.256 A 
HETATM   25  C14 UNL     1       7.868 -10.952  26.821  1.00  0.00     0.004 A 
HETATM   26  C26 UNL     1       7.806  -9.039  27.986  1.00  0.00     0.077 A 
HETATM   27  C9  UNL     1       9.143 -10.732  27.380  1.00  0.00     0.049 A 
HETATM   28  C13 UNL     1       7.641 -12.120  26.059  1.00  0.00     0.014 A 
HETATM   29  N2  UNL     1       9.094  -9.508  28.048  1.00  0.00    -0.308 N 
HETATM   30  C10 UNL     1      10.161 -11.693  27.215  1.00  0.00     0.030 A 
HETATM   31  C11 UNL     1       9.906 -12.839  26.454  1.00  0.00     0.002 A 
HETATM   32  C12 UNL     1       8.664 -13.049  25.876  1.00  0.00     0.001 A 
HETATM   33  N4  UNL     1       3.344  -9.349  26.513  1.00  0.00    -0.340 N 
ATOM     34  H4  UNL     1       2.409  -9.497  26.134  1.00  0.00     0.164 HD
HETATM   35  C21 UNL     1       4.619  -4.349  30.381  1.00  0.00     0.001 A 
HETATM   36  C22 UNL     1       5.847  -4.004  30.925  1.00  0.00     0.002 A 
BRANCH  24  37
HETATM   37  O4  UNL     1       4.367 -11.507  26.759  1.00  0.00    -0.372 OA
HETATM   38  H26 UNL     1       3.399 -11.583  26.791  1.00  0.00     0.212 HD
ENDBRANCH  24  37
BRANCH  22  39
HETATM   39  O3  UNL     1       2.912  -7.437  27.657  1.00  0.00    -0.346 OA
HETATM   40  H24 UNL     1       2.047  -7.637  27.264  1.00  0.00     0.219 HD
ENDBRANCH  22  39
ENDBRANCH   3  13
TORSDOF 6
ENDMDL
MODEL 9
REMARK minimizedAffinity -9.13175678
REMARK  6 active torsions:
REMARK  status: ('A' for Active; 'I' for Inactive)
REMARK    1  A    between atoms: N1_2  and  C2_3 
REMARK    2  A    between atoms: C4_5  and  N3_29 
REMARK    3  A    between atoms: C5_7  and  N2_12 
REMARK    4  A    between atoms: C7_9  and  O2_10 
REMARK    5  A    between atoms: C27_32  and  O3_33 
REMARK    6  A    between atoms: C28_36  and  O4_37 
ROOT
HETATM    1  C2  UNL     1      11.919  -8.194  28.778  1.00  0.00     0.257 C 
HETATM    2  C3  UNL     1      11.121  -6.889  28.666  1.00  0.00     0.092 C 
HETATM    3  C4  UNL     1      10.282  -6.831  27.383  1.00  0.00     0.234 C 
HETATM    4  O1  UNL     1      10.540  -7.886  26.459  1.00  0.00    -0.333 OA
HETATM    5  C5  UNL     1      10.510  -9.244  26.966  1.00  0.00     0.168 C 
HETATM    6  C6  UNL     1      11.582  -9.889  26.055  1.00  0.00     0.074 C 
HETATM    7  C7  UNL     1      10.956  -9.367  28.463  1.00  0.00     0.209 C 
ENDROOT
BRANCH   1   8
HETATM    8  N1  UNL     1      12.536  -8.338  30.114  1.00  0.00     0.086 N 
HETATM    9  C1  UNL     1      13.986  -8.471  30.069  1.00  0.00     0.307 C 
HETATM   10  H4  UNL     1      12.143  -9.145  30.596  1.00  0.00     0.316 HD
ENDBRANCH   1   8
BRANCH   7  11
HETATM   11  O2  UNL     1       9.840  -9.246  29.368  1.00  0.00    -0.384 OA
HETATM   12  C8  UNL     1       8.705 -10.000  28.970  1.00  0.00     0.202 C 
ENDBRANCH   7  11
BRANCH   3  13
HETATM   13  N3  UNL     1       8.847  -6.636  27.561  1.00  0.00    -0.316 N 
HETATM   14  C24 UNL     1       7.866  -7.329  26.867  1.00  0.00     0.048 A 
HETATM   15  C19 UNL     1       6.626  -6.979  27.429  1.00  0.00     0.004 A 
HETATM   16  C23 UNL     1       7.971  -8.240  25.799  1.00  0.00     0.030 A 
HETATM   17  C18 UNL     1       6.879  -6.046  28.484  1.00  0.00     0.021 A 
HETATM   18  C20 UNL     1       5.466  -7.572  26.885  1.00  0.00     0.014 A 
HETATM   19  C17 UNL     1       6.182  -5.307  29.450  1.00  0.00     0.040 A 
HETATM   20  C25 UNL     1       8.252  -5.857  28.506  1.00  0.00     0.077 A 
HETATM   21  C16 UNL     1       6.760  -4.400  30.374  1.00  0.00     0.019 A 
HETATM   22  C27 UNL     1       4.777  -5.247  29.778  1.00  0.00     0.150 A 
HETATM   23  C15 UNL     1       8.143  -4.158  30.411  1.00  0.00     0.017 A 
HETATM   24  C28 UNL     1       5.640  -3.839  31.212  1.00  0.00     0.256 A 
HETATM   25  C14 UNL     1       9.037  -3.317  31.127  1.00  0.00     0.004 A 
HETATM   26  C26 UNL     1       8.915  -4.870  29.517  1.00  0.00     0.077 A 
HETATM   27  C9  UNL     1      10.333  -3.524  30.613  1.00  0.00     0.049 A 
HETATM   28  C13 UNL     1       8.844  -2.354  32.143  1.00  0.00     0.014 A 
HETATM   29  N2  UNL     1      10.239  -4.536  29.658  1.00  0.00    -0.308 N 
HETATM   30  C10 UNL     1      11.410  -2.745  31.079  1.00  0.00     0.030 A 
HETATM   31  C11 UNL     1      11.188  -1.799  32.086  1.00  0.00     0.002 A 
HETATM   32  C12 UNL     1       9.922  -1.609  32.619  1.00  0.00     0.001 A 
HETATM   33  N4  UNL     1       4.384  -4.468  30.734  1.00  0.00    -0.340 N 
ATOM     34  H4  UNL     1       3.435  -4.321  31.078  1.00  0.00     0.164 HD
HETATM   35  C21 UNL     1       5.564  -8.476  25.822  1.00  0.00     0.001 A 
HETATM   36  C22 UNL     1       6.801  -8.804  25.287  1.00  0.00     0.002 A 
BRANCH  24  37
HETATM   37  O4  UNL     1       5.604  -2.434  31.105  1.00  0.00    -0.372 OA
HETATM   38  H26 UNL     1       4.652  -2.252  31.031  1.00  0.00     0.212 HD
ENDBRANCH  24  37
BRANCH  22  39
HETATM   39  O3  UNL     1       3.893  -5.987  29.120  1.00  0.00    -0.346 OA
HETATM   40  H24 UNL     1       3.017  -5.800  29.496  1.00  0.00     0.219 HD
ENDBRANCH  22  39
ENDBRANCH   3  13
TORSDOF 6
ENDMDL
