MODEL 1
REMARK minimizedAffinity -6.61724949
REMARK CNNscore 0.457438439
REMARK CNNaffinity 6.4243145
REMARK  8 active torsions:
REMARK  status: ('A' for Active; 'I' for Inactive)
REMARK    1  A    between atoms: C4_4  and  C5_5 
REMARK    2  A    between atoms: C5_5  and  C6_6 
REMARK    3  A    between atoms: C6_6  and  C7_7 
REMARK    4  A    between atoms: C9_9  and  C10_10 
REMARK    5  A    between atoms: C11_11  and  C12_12 
REMARK    6  A    between atoms: C14_14  and  C15_15 
REMARK    7  A    between atoms: C24_25  and  C26_27 
REMARK    8  A    between atoms: C29_31  and  O3_33 
ROOT
HETATM    1  C15 UNL     1     -14.018   8.932  13.158  1.00  0.00     0.149 C 
HETATM    2  C16 UNL     1     -15.010   7.804  13.467  1.00  0.00     0.054 C 
HETATM    3  C17 UNL     1     -15.908   8.401  14.576  1.00  0.00     0.050 C 
HETATM    4  C18 UNL     1     -14.812   9.186  15.321  1.00  0.00     0.272 C 
HETATM    5  O1  UNL     1     -15.262  10.058  16.335  1.00  0.00    -0.360 OA
HETATM    6  C19 UNL     1     -15.486  11.404  15.974  1.00  0.00     0.171 C 
HETATM    7  C20 UNL     1     -16.588  11.633  14.950  1.00  0.00     0.027 C 
HETATM    8  C21 UNL     1     -17.566  10.475  14.756  1.00  0.00     0.012 C 
HETATM    9  C22 UNL     1     -16.964   9.355  13.883  1.00  0.00     0.032 C 
HETATM   10  C23 UNL     1     -18.080   8.557  13.178  1.00  0.00    -0.066 C 
HETATM   11  C24 UNL     1     -18.444   8.704  11.877  1.00  0.00    -0.021 C 
HETATM   12  C25 UNL     1     -19.438   7.853  11.129  1.00  0.00     0.052 C 
HETATM   13  C27 UNL     1     -18.737   7.557  14.105  1.00  0.00     0.038 C 
HETATM   14  C28 UNL     1     -17.708   6.583  14.670  1.00  0.00     0.042 C 
HETATM   15  C29 UNL     1     -16.611   7.313  15.467  1.00  0.00     0.067 C 
HETATM   16  C30 UNL     1     -15.675   6.257  16.081  1.00  0.00     0.047 C 
HETATM   17  O4  UNL     1     -13.979   9.785  14.319  1.00  0.00    -0.351 OA
ENDROOT
BRANCH   1  18
HETATM   18  C14 UNL     1     -12.629   8.432  12.886  1.00  0.00     0.011 C 
HETATM   19  C12 UNL     1     -11.990   7.411  13.495  1.00  0.00    -0.063 C 
HETATM   20  C13 UNL     1     -12.590   6.613  14.627  1.00  0.00     0.048 C 
BRANCH  19  21
HETATM   21  C11 UNL     1     -10.636   7.071  13.057  1.00  0.00     0.006 C 
HETATM   22  C10 UNL     1      -9.729   6.357  13.746  1.00  0.00     0.001 C 
BRANCH  22  23
HETATM   23  C9  UNL     1      -8.398   6.090  13.236  1.00  0.00     0.002 C 
HETATM   24  C7  UNL     1      -7.320   5.684  13.941  1.00  0.00    -0.084 C 
HETATM   25  C8  UNL     1      -7.329   5.377  15.421  1.00  0.00     0.043 C 
BRANCH  24  26
HETATM   26  C6  UNL     1      -5.940   5.477  13.321  1.00  0.00     0.037 C 
BRANCH  26  27
HETATM   27  C5  UNL     1      -5.622   4.101  12.715  1.00  0.00     0.031 C 
BRANCH  27  28
HETATM   28  C4  UNL     1      -4.392   4.153  11.848  1.00  0.00    -0.024 C 
HETATM   29  C2  UNL     1      -3.661   3.117  11.388  1.00  0.00    -0.091 C 
HETATM   30  C1  UNL     1      -2.477   3.354  10.488  1.00  0.00     0.042 C 
HETATM   31  C3  UNL     1      -3.916   1.670  11.707  1.00  0.00     0.042 C 
ENDBRANCH  27  28
ENDBRANCH  26  27
ENDBRANCH  24  26
ENDBRANCH  22  23
ENDBRANCH  19  21
ENDBRANCH   1  18
BRANCH  15  32
HETATM   32  O3  UNL     1     -17.255   7.955  16.574  1.00  0.00    -0.389 OA
HETATM   33  H44 UNL     1     -17.641   7.279  17.155  1.00  0.00     0.210 HD
ENDBRANCH  15  32
BRANCH  11  34
HETATM   34  C26 UNL     1     -17.883   9.797  11.012  1.00  0.00     0.265 C 
HETATM   35  O2  UNL     1     -16.927   9.626  10.264  1.00  0.00    -0.302 OA
ENDBRANCH  11  34
TORSDOF 8
ENDMDL
MODEL 2
REMARK minimizedAffinity -5.65830564
REMARK CNNscore 0.421073526
REMARK CNNaffinity 6.0960784
REMARK  8 active torsions:
REMARK  status: ('A' for Active; 'I' for Inactive)
REMARK    1  A    between atoms: C4_4  and  C5_5 
REMARK    2  A    between atoms: C5_5  and  C6_6 
REMARK    3  A    between atoms: C6_6  and  C7_7 
REMARK    4  A    between atoms: C9_9  and  C10_10 
REMARK    5  A    between atoms: C11_11  and  C12_12 
REMARK    6  A    between atoms: C14_14  and  C15_15 
REMARK    7  A    between atoms: C24_25  and  C26_27 
REMARK    8  A    between atoms: C29_31  and  O3_33 
ROOT
HETATM    1  C15 UNL     1     -10.805  14.499  14.259  1.00  0.00     0.149 C 
HETATM    2  C16 UNL     1     -10.924  14.896  12.782  1.00  0.00     0.054 C 
HETATM    3  C17 UNL     1     -11.966  16.039  12.795  1.00  0.00     0.050 C 
HETATM    4  C18 UNL     1     -12.880  15.466  13.894  1.00  0.00     0.272 C 
HETATM    5  O1  UNL     1     -13.896  16.327  14.360  1.00  0.00    -0.360 OA
HETATM    6  C19 UNL     1     -13.607  17.107  15.500  1.00  0.00     0.171 C 
HETATM    7  C20 UNL     1     -12.486  18.122  15.332  1.00  0.00     0.027 C 
HETATM    8  C21 UNL     1     -12.105  18.460  13.892  1.00  0.00     0.012 C 
HETATM    9  C22 UNL     1     -11.229  17.361  13.256  1.00  0.00     0.032 C 
HETATM   10  C23 UNL     1     -10.352  17.949  12.132  1.00  0.00    -0.066 C 
HETATM   11  C24 UNL     1      -9.032  18.252  12.247  1.00  0.00    -0.021 C 
HETATM   12  C25 UNL     1      -8.122  18.705  11.134  1.00  0.00     0.052 C 
HETATM   13  C27 UNL     1     -11.129  18.148  10.848  1.00  0.00     0.038 C 
HETATM   14  C28 UNL     1     -11.735  16.832  10.372  1.00  0.00     0.042 C 
HETATM   15  C29 UNL     1     -12.696  16.237  11.417  1.00  0.00     0.067 C 
HETATM   16  C30 UNL     1     -13.335  14.970  10.821  1.00  0.00     0.047 C 
HETATM   17  O4  UNL     1     -12.019  14.925  14.906  1.00  0.00    -0.351 OA
ENDROOT
BRANCH   1  18
HETATM   18  C14 UNL     1     -10.654  13.018  14.456  1.00  0.00     0.011 C 
HETATM   19  C12 UNL     1      -9.975  12.385  15.436  1.00  0.00    -0.063 C 
HETATM   20  C13 UNL     1      -9.191  13.108  16.503  1.00  0.00     0.048 C 
BRANCH  19  21
HETATM   21  C11 UNL     1      -9.975  10.922  15.456  1.00  0.00     0.006 C 
HETATM   22  C10 UNL     1      -8.907  10.121  15.300  1.00  0.00     0.001 C 
BRANCH  22  23
HETATM   23  C9  UNL     1      -9.011   8.674  15.312  1.00  0.00     0.002 C 
HETATM   24  C7  UNL     1      -7.995   7.784  15.319  1.00  0.00    -0.084 C 
HETATM   25  C8  UNL     1      -6.531   8.153  15.370  1.00  0.00     0.043 C 
BRANCH  24  26
HETATM   26  C6  UNL     1      -8.204   6.272  15.281  1.00  0.00     0.037 C 
BRANCH  26  27
HETATM   27  C5  UNL     1      -8.291   5.590  13.906  1.00  0.00     0.031 C 
BRANCH  27  28
HETATM   28  C4  UNL     1      -6.935   5.143  13.427  1.00  0.00    -0.024 C 
HETATM   29  C2  UNL     1      -6.578   3.923  12.978  1.00  0.00    -0.091 C 
HETATM   30  C1  UNL     1      -5.177   3.665  12.491  1.00  0.00     0.042 C 
HETATM   31  C3  UNL     1      -7.484   2.724  12.918  1.00  0.00     0.042 C 
ENDBRANCH  27  28
ENDBRANCH  26  27
ENDBRANCH  24  26
ENDBRANCH  22  23
ENDBRANCH  19  21
ENDBRANCH   1  18
BRANCH  15  32
HETATM   32  O3  UNL     1     -13.768  17.174  11.582  1.00  0.00    -0.389 OA
HETATM   33  H44 UNL     1     -14.255  17.253  10.745  1.00  0.00     0.210 HD
ENDBRANCH  15  32
BRANCH  11  34
HETATM   34  C26 UNL     1      -8.312  18.184  13.564  1.00  0.00     0.265 C 
HETATM   35  O2  UNL     1      -7.443  17.353  13.804  1.00  0.00    -0.302 OA
ENDBRANCH  11  34
TORSDOF 8
ENDMDL
MODEL 3
REMARK minimizedAffinity -6.18313885
REMARK CNNscore 0.42079255
REMARK CNNaffinity 5.95578957
REMARK  8 active torsions:
REMARK  status: ('A' for Active; 'I' for Inactive)
REMARK    1  A    between atoms: C4_4  and  C5_5 
REMARK    2  A    between atoms: C5_5  and  C6_6 
REMARK    3  A    between atoms: C6_6  and  C7_7 
REMARK    4  A    between atoms: C9_9  and  C10_10 
REMARK    5  A    between atoms: C11_11  and  C12_12 
REMARK    6  A    between atoms: C14_14  and  C15_15 
REMARK    7  A    between atoms: C24_25  and  C26_27 
REMARK    8  A    between atoms: C29_31  and  O3_33 
ROOT
HETATM    1  C15 UNL     1      -6.933  -9.976   1.766  1.00  0.00     0.149 C 
HETATM    2  C16 UNL     1      -6.929  -9.288   3.136  1.00  0.00     0.054 C 
HETATM    3  C17 UNL     1      -7.069 -10.461   4.134  1.00  0.00     0.050 C 
HETATM    4  C18 UNL     1      -8.036 -11.321   3.298  1.00  0.00     0.272 C 
HETATM    5  O1  UNL     1      -8.283 -12.622   3.788  1.00  0.00    -0.360 OA
HETATM    6  C19 UNL     1      -7.477 -13.664   3.281  1.00  0.00     0.171 C 
HETATM    7  C20 UNL     1      -5.993 -13.561   3.602  1.00  0.00     0.027 C 
HETATM    8  C21 UNL     1      -5.624 -12.612   4.741  1.00  0.00     0.012 C 
HETATM    9  C22 UNL     1      -5.647 -11.137   4.291  1.00  0.00     0.032 C 
HETATM   10  C23 UNL     1      -4.703 -10.287   5.166  1.00  0.00    -0.066 C 
HETATM   11  C24 UNL     1      -3.462  -9.871   4.801  1.00  0.00    -0.021 C 
HETATM   12  C25 UNL     1      -2.572  -8.936   5.579  1.00  0.00     0.052 C 
HETATM   13  C27 UNL     1      -5.322  -9.945   6.504  1.00  0.00     0.038 C 
HETATM   14  C28 UNL     1      -6.638  -9.197   6.318  1.00  0.00     0.042 C 
HETATM   15  C29 UNL     1      -7.660 -10.033   5.526  1.00  0.00     0.067 C 
HETATM   16  C30 UNL     1      -8.984  -9.250   5.468  1.00  0.00     0.047 C 
HETATM   17  O4  UNL     1      -7.581 -11.251   1.940  1.00  0.00    -0.351 OA
ENDROOT
BRANCH   1  18
HETATM   18  C14 UNL     1      -7.683  -9.198   0.723  1.00  0.00     0.011 C 
HETATM   19  C12 UNL     1      -7.501  -9.230  -0.614  1.00  0.00    -0.063 C 
HETATM   20  C13 UNL     1      -6.433 -10.056  -1.287  1.00  0.00     0.048 C 
BRANCH  19  21
HETATM   21  C11 UNL     1      -8.364  -8.403  -1.458  1.00  0.00     0.006 C 
HETATM   22  C10 UNL     1      -7.982  -7.678  -2.524  1.00  0.00     0.001 C 
BRANCH  22  23
HETATM   23  C9  UNL     1      -8.912  -6.868  -3.288  1.00  0.00     0.002 C 
HETATM   24  C7  UNL     1      -9.050  -6.834  -4.631  1.00  0.00    -0.084 C 
HETATM   25  C8  UNL     1      -8.275  -7.700  -5.596  1.00  0.00     0.043 C 
BRANCH  24  26
HETATM   26  C6  UNL     1     -10.028  -5.907  -5.351  1.00  0.00     0.037 C 
BRANCH  26  27
HETATM   27  C5  UNL     1     -10.004  -4.414  -4.989  1.00  0.00     0.031 C 
BRANCH  27  28
HETATM   28  C4  UNL     1     -11.276  -3.726  -5.408  1.00  0.00    -0.024 C 
HETATM   29  C2  UNL     1     -11.581  -2.417  -5.304  1.00  0.00    -0.091 C 
HETATM   30  C1  UNL     1     -12.894  -1.891  -5.820  1.00  0.00     0.042 C 
HETATM   31  C3  UNL     1     -10.697  -1.370  -4.682  1.00  0.00     0.042 C 
ENDBRANCH  27  28
ENDBRANCH  26  27
ENDBRANCH  24  26
ENDBRANCH  22  23
ENDBRANCH  19  21
ENDBRANCH   1  18
BRANCH  15  32
HETATM   32  O3  UNL     1      -7.934 -11.205   6.303  1.00  0.00    -0.389 OA
HETATM   33  H44 UNL     1      -8.351 -10.944   7.141  1.00  0.00     0.210 HD
ENDBRANCH  15  32
BRANCH  11  34
HETATM   34  C26 UNL     1      -2.807 -10.337   3.532  1.00  0.00     0.265 C 
HETATM   35  O2  UNL     1      -3.019  -9.814   2.444  1.00  0.00    -0.302 OA
ENDBRANCH  11  34
TORSDOF 8
ENDMDL
MODEL 4
REMARK minimizedAffinity -6.04381943
REMARK CNNscore 0.420526832
REMARK CNNaffinity 6.15539217
REMARK  8 active torsions:
REMARK  status: ('A' for Active; 'I' for Inactive)
REMARK    1  A    between atoms: C4_4  and  C5_5 
REMARK    2  A    between atoms: C5_5  and  C6_6 
REMARK    3  A    between atoms: C6_6  and  C7_7 
REMARK    4  A    between atoms: C9_9  and  C10_10 
REMARK    5  A    between atoms: C11_11  and  C12_12 
REMARK    6  A    between atoms: C14_14  and  C15_15 
REMARK    7  A    between atoms: C24_25  and  C26_27 
REMARK    8  A    between atoms: C29_31  and  O3_33 
ROOT
HETATM    1  C15 UNL     1     -15.706   8.499  12.993  1.00  0.00     0.149 C 
HETATM    2  C16 UNL     1     -15.726   9.913  13.587  1.00  0.00     0.054 C 
HETATM    3  C17 UNL     1     -16.861  10.620  12.809  1.00  0.00     0.050 C 
HETATM    4  C18 UNL     1     -16.600   9.968  11.438  1.00  0.00     0.272 C 
HETATM    5  O1  UNL     1     -17.574  10.212  10.446  1.00  0.00    -0.360 OA
HETATM    6  C19 UNL     1     -18.606   9.259  10.308  1.00  0.00     0.171 C 
HETATM    7  C20 UNL     1     -19.521   9.105  11.514  1.00  0.00     0.027 C 
HETATM    8  C21 UNL     1     -19.481  10.247  12.529  1.00  0.00     0.012 C 
HETATM    9  C22 UNL     1     -18.238  10.163  13.439  1.00  0.00     0.032 C 
HETATM   10  C23 UNL     1     -18.507  10.857  14.791  1.00  0.00    -0.066 C 
HETATM   11  C24 UNL     1     -18.798  10.216  15.953  1.00  0.00    -0.021 C 
HETATM   12  C25 UNL     1     -18.938  10.857  17.311  1.00  0.00     0.052 C 
HETATM   13  C27 UNL     1     -18.398  12.363  14.689  1.00  0.00     0.038 C 
HETATM   14  C28 UNL     1     -17.020  12.774  14.182  1.00  0.00     0.042 C 
HETATM   15  C29 UNL     1     -16.726  12.186  12.790  1.00  0.00     0.067 C 
HETATM   16  C30 UNL     1     -15.366  12.726  12.313  1.00  0.00     0.047 C 
HETATM   17  O4  UNL     1     -16.309   8.586  11.687  1.00  0.00    -0.351 OA
ENDROOT
BRANCH   1  18
HETATM   18  C14 UNL     1     -14.318   7.948  12.842  1.00  0.00     0.011 C 
HETATM   19  C12 UNL     1     -13.634   7.192  13.727  1.00  0.00    -0.063 C 
HETATM   20  C13 UNL     1     -14.172   6.811  15.084  1.00  0.00     0.048 C 
BRANCH  19  21
HETATM   21  C11 UNL     1     -12.291   6.736  13.368  1.00  0.00     0.006 C 
HETATM   22  C10 UNL     1     -11.144   7.058  13.992  1.00  0.00     0.001 C 
BRANCH  22  23
HETATM   23  C9  UNL     1      -9.852   6.572  13.546  1.00  0.00     0.002 C 
HETATM   24  C7  UNL     1      -8.744   6.396  14.297  1.00  0.00    -0.084 C 
HETATM   25  C8  UNL     1      -8.671   6.631  15.788  1.00  0.00     0.043 C 
BRANCH  24  26
HETATM   26  C6  UNL     1      -7.408   5.925  13.725  1.00  0.00     0.037 C 
BRANCH  26  27
HETATM   27  C5  UNL     1      -7.021   4.450  13.920  1.00  0.00     0.031 C 
BRANCH  27  28
HETATM   28  C4  UNL     1      -6.516   3.840  12.639  1.00  0.00    -0.024 C 
HETATM   29  C2  UNL     1      -5.245   3.787  12.194  1.00  0.00    -0.091 C 
HETATM   30  C1  UNL     1      -4.914   3.091  10.900  1.00  0.00     0.042 C 
HETATM   31  C3  UNL     1      -4.059   4.393  12.892  1.00  0.00     0.042 C 
ENDBRANCH  27  28
ENDBRANCH  26  27
ENDBRANCH  24  26
ENDBRANCH  22  23
ENDBRANCH  19  21
ENDBRANCH   1  18
BRANCH  15  32
HETATM   32  O3  UNL     1     -17.700  12.732  11.891  1.00  0.00    -0.389 OA
HETATM   33  H44 UNL     1     -17.580  13.694  11.836  1.00  0.00     0.210 HD
ENDBRANCH  15  32
BRANCH  11  34
HETATM   34  C26 UNL     1     -19.043   8.736  16.007  1.00  0.00     0.265 C 
HETATM   35  O2  UNL     1     -18.135   7.912  16.028  1.00  0.00    -0.302 OA
ENDBRANCH  11  34
TORSDOF 8
ENDMDL
MODEL 5
REMARK minimizedAffinity -8.97412586
REMARK CNNscore 0.389427871
REMARK CNNaffinity 6.92321014
REMARK  8 active torsions:
REMARK  status: ('A' for Active; 'I' for Inactive)
REMARK    1  A    between atoms: C4_4  and  C5_5 
REMARK    2  A    between atoms: C5_5  and  C6_6 
REMARK    3  A    between atoms: C6_6  and  C7_7 
REMARK    4  A    between atoms: C9_9  and  C10_10 
REMARK    5  A    between atoms: C11_11  and  C12_12 
REMARK    6  A    between atoms: C14_14  and  C15_15 
REMARK    7  A    between atoms: C24_25  and  C26_27 
REMARK    8  A    between atoms: C29_31  and  O3_33 
ROOT
HETATM    1  C15 UNL     1       0.861   5.861  11.746  1.00  0.00     0.149 C 
HETATM    2  C16 UNL     1       0.540   6.148  10.274  1.00  0.00     0.054 C 
HETATM    3  C17 UNL     1       1.509   7.295   9.906  1.00  0.00     0.050 C 
HETATM    4  C18 UNL     1       1.450   8.048  11.248  1.00  0.00     0.272 C 
HETATM    5  O1  UNL     1       2.375   9.102  11.404  1.00  0.00    -0.360 OA
HETATM    6  C19 UNL     1       3.600   8.796  12.033  1.00  0.00     0.171 C 
HETATM    7  C20 UNL     1       4.486   7.803  11.295  1.00  0.00     0.027 C 
HETATM    8  C21 UNL     1       4.153   7.585   9.820  1.00  0.00     0.012 C 
HETATM    9  C22 UNL     1       2.933   6.660   9.637  1.00  0.00     0.032 C 
HETATM   10  C23 UNL     1       2.992   5.947   8.269  1.00  0.00    -0.066 C 
HETATM   11  C24 UNL     1       3.382   4.660   8.075  1.00  0.00    -0.021 C 
HETATM   12  C25 UNL     1       3.328   3.900   6.775  1.00  0.00     0.052 C 
HETATM   13  C27 UNL     1       2.547   6.848   7.138  1.00  0.00     0.038 C 
HETATM   14  C28 UNL     1       1.129   7.357   7.375  1.00  0.00     0.042 C 
HETATM   15  C29 UNL     1       1.023   8.158   8.685  1.00  0.00     0.067 C 
HETATM   16  C30 UNL     1      -0.408   8.714   8.798  1.00  0.00     0.047 C 
HETATM   17  O4  UNL     1       1.472   7.053  12.281  1.00  0.00    -0.351 OA
ENDROOT
BRANCH   1  18
HETATM   18  C14 UNL     1      -0.359   5.544  12.561  1.00  0.00     0.011 C 
HETATM   19  C12 UNL     1      -1.411   6.351  12.812  1.00  0.00    -0.063 C 
HETATM   20  C13 UNL     1      -1.499   7.777  12.326  1.00  0.00     0.048 C 
BRANCH  19  21
HETATM   21  C11 UNL     1      -2.517   5.831  13.617  1.00  0.00     0.006 C 
HETATM   22  C10 UNL     1      -3.572   6.529  14.072  1.00  0.00     0.001 C 
BRANCH  22  23
HETATM   23  C9  UNL     1      -4.611   5.928  14.886  1.00  0.00     0.002 C 
HETATM   24  C7  UNL     1      -5.706   6.536  15.390  1.00  0.00    -0.084 C 
HETATM   25  C8  UNL     1      -6.078   7.979  15.140  1.00  0.00     0.043 C 
BRANCH  24  26
HETATM   26  C6  UNL     1      -6.724   5.828  16.282  1.00  0.00     0.037 C 
BRANCH  26  27
HETATM   27  C5  UNL     1      -7.940   5.172  15.610  1.00  0.00     0.031 C 
BRANCH  27  28
HETATM   28  C4  UNL     1      -7.524   4.062  14.682  1.00  0.00    -0.024 C 
HETATM   29  C2  UNL     1      -7.576   4.047  13.335  1.00  0.00    -0.091 C 
HETATM   30  C1  UNL     1      -7.071   2.858  12.560  1.00  0.00     0.042 C 
HETATM   31  C3  UNL     1      -8.126   5.154  12.479  1.00  0.00     0.042 C 
ENDBRANCH  27  28
ENDBRANCH  26  27
ENDBRANCH  24  26
ENDBRANCH  22  23
ENDBRANCH  19  21
ENDBRANCH   1  18
BRANCH  15  32
HETATM   32  O3  UNL     1       1.876   9.302   8.546  1.00  0.00    -0.389 OA
HETATM   33  H44 UNL     1       1.542   9.864   7.828  1.00  0.00     0.210 HD
ENDBRANCH  15  32
BRANCH  11  34
HETATM   34  C26 UNL     1       3.956   3.826   9.185  1.00  0.00     0.265 C 
HETATM   35  O2  UNL     1       4.870   3.027   9.011  1.00  0.00    -0.302 OA
ENDBRANCH  11  34
TORSDOF 8
ENDMDL
MODEL 6
REMARK minimizedAffinity -9.08746338
REMARK CNNscore 0.371699184
REMARK CNNaffinity 6.86755991
REMARK  8 active torsions:
REMARK  status: ('A' for Active; 'I' for Inactive)
REMARK    1  A    between atoms: C4_4  and  C5_5 
REMARK    2  A    between atoms: C5_5  and  C6_6 
REMARK    3  A    between atoms: C6_6  and  C7_7 
REMARK    4  A    between atoms: C9_9  and  C10_10 
REMARK    5  A    between atoms: C11_11  and  C12_12 
REMARK    6  A    between atoms: C14_14  and  C15_15 
REMARK    7  A    between atoms: C24_25  and  C26_27 
REMARK    8  A    between atoms: C29_31  and  O3_33 
ROOT
HETATM    1  C15 UNL     1       0.486   5.565  11.503  1.00  0.00     0.149 C 
HETATM    2  C16 UNL     1       0.343   5.965  10.029  1.00  0.00     0.054 C 
HETATM    3  C17 UNL     1       1.344   7.134   9.870  1.00  0.00     0.050 C 
HETATM    4  C18 UNL     1       1.117   7.781  11.250  1.00  0.00     0.272 C 
HETATM    5  O1  UNL     1       2.010   8.817  11.597  1.00  0.00    -0.360 OA
HETATM    6  C19 UNL     1       3.152   8.458  12.345  1.00  0.00     0.171 C 
HETATM    7  C20 UNL     1       4.127   7.523  11.645  1.00  0.00     0.027 C 
HETATM    8  C21 UNL     1       3.977   7.420  10.128  1.00  0.00     0.012 C 
HETATM    9  C22 UNL     1       2.793   6.516   9.728  1.00  0.00     0.032 C 
HETATM   10  C23 UNL     1       3.022   5.910   8.327  1.00  0.00    -0.066 C 
HETATM   11  C24 UNL     1       3.440   4.641   8.083  1.00  0.00    -0.021 C 
HETATM   12  C25 UNL     1       3.548   3.983   6.731  1.00  0.00     0.052 C 
HETATM   13  C27 UNL     1       2.712   6.898   7.223  1.00  0.00     0.038 C 
HETATM   14  C28 UNL     1       1.273   7.392   7.324  1.00  0.00     0.042 C 
HETATM   15  C29 UNL     1       1.004   8.090   8.670  1.00  0.00     0.067 C 
HETATM   16  C30 UNL     1      -0.433   8.641   8.651  1.00  0.00     0.047 C 
HETATM   17  O4  UNL     1       1.020   6.709  12.198  1.00  0.00    -0.351 OA
ENDROOT
BRANCH   1  18
HETATM   18  C14 UNL     1      -0.822   5.190  12.137  1.00  0.00     0.011 C 
HETATM   19  C12 UNL     1      -1.248   5.491  13.382  1.00  0.00    -0.063 C 
HETATM   20  C13 UNL     1      -0.411   6.245  14.385  1.00  0.00     0.048 C 
BRANCH  19  21
HETATM   21  C11 UNL     1      -2.579   5.044  13.794  1.00  0.00     0.006 C 
HETATM   22  C10 UNL     1      -3.663   4.930  13.007  1.00  0.00     0.001 C 
BRANCH  22  23
HETATM   23  C9  UNL     1      -4.952   4.499  13.514  1.00  0.00     0.002 C 
HETATM   24  C7  UNL     1      -5.896   3.798  12.850  1.00  0.00    -0.084 C 
HETATM   25  C8  UNL     1      -5.746   3.280  11.439  1.00  0.00     0.043 C 
BRANCH  24  26
HETATM   26  C6  UNL     1      -7.249   3.430  13.455  1.00  0.00     0.037 C 
BRANCH  26  27
HETATM   27  C5  UNL     1      -8.457   4.314  13.109  1.00  0.00     0.031 C 
BRANCH  27  28
HETATM   28  C4  UNL     1      -8.199   5.758  13.451  1.00  0.00    -0.024 C 
HETATM   29  C2  UNL     1      -7.895   6.281  14.656  1.00  0.00    -0.091 C 
HETATM   30  C1  UNL     1      -7.622   7.754  14.807  1.00  0.00     0.042 C 
HETATM   31  C3  UNL     1      -7.805   5.501  15.939  1.00  0.00     0.042 C 
ENDBRANCH  27  28
ENDBRANCH  26  27
ENDBRANCH  24  26
ENDBRANCH  22  23
ENDBRANCH  19  21
ENDBRANCH   1  18
BRANCH  15  32
HETATM   32  O3  UNL     1       1.861   9.238   8.724  1.00  0.00    -0.389 OA
HETATM   33  H44 UNL     1       1.613   9.855   8.016  1.00  0.00     0.210 HD
ENDBRANCH  15  32
BRANCH  11  34
HETATM   34  C26 UNL     1       3.880   3.721   9.187  1.00  0.00     0.265 C 
HETATM   35  O2  UNL     1       4.896   3.039   9.117  1.00  0.00    -0.302 OA
ENDBRANCH  11  34
TORSDOF 8
ENDMDL
MODEL 7
REMARK minimizedAffinity -7.18900585
REMARK CNNscore 0.346974254
REMARK CNNaffinity 5.54439497
REMARK  8 active torsions:
REMARK  status: ('A' for Active; 'I' for Inactive)
REMARK    1  A    between atoms: C4_4  and  C5_5 
REMARK    2  A    between atoms: C5_5  and  C6_6 
REMARK    3  A    between atoms: C6_6  and  C7_7 
REMARK    4  A    between atoms: C9_9  and  C10_10 
REMARK    5  A    between atoms: C11_11  and  C12_12 
REMARK    6  A    between atoms: C14_14  and  C15_15 
REMARK    7  A    between atoms: C24_25  and  C26_27 
REMARK    8  A    between atoms: C29_31  and  O3_33 
ROOT
HETATM    1  C15 UNL     1       5.590  11.426  19.176  1.00  0.00     0.149 C 
HETATM    2  C16 UNL     1       5.410  12.860  19.688  1.00  0.00     0.054 C 
HETATM    3  C17 UNL     1       4.507  12.693  20.933  1.00  0.00     0.050 C 
HETATM    4  C18 UNL     1       3.616  11.563  20.384  1.00  0.00     0.272 C 
HETATM    5  O1  UNL     1       2.739  10.964  21.314  1.00  0.00    -0.360 OA
HETATM    6  C19 UNL     1       3.197   9.804  21.975  1.00  0.00     0.171 C 
HETATM    7  C20 UNL     1       4.409   9.996  22.874  1.00  0.00     0.027 C 
HETATM    8  C21 UNL     1       4.721  11.438  23.270  1.00  0.00     0.012 C 
HETATM    9  C22 UNL     1       5.420  12.209  22.132  1.00  0.00     0.032 C 
HETATM   10  C23 UNL     1       6.275  13.361  22.701  1.00  0.00    -0.066 C 
HETATM   11  C24 UNL     1       7.625  13.331  22.851  1.00  0.00    -0.021 C 
HETATM   12  C25 UNL     1       8.498  14.482  23.282  1.00  0.00     0.052 C 
HETATM   13  C27 UNL     1       5.434  14.563  23.073  1.00  0.00     0.038 C 
HETATM   14  C28 UNL     1       4.651  15.072  21.868  1.00  0.00     0.042 C 
HETATM   15  C29 UNL     1       3.707  13.993  21.306  1.00  0.00     0.067 C 
HETATM   16  C30 UNL     1       2.888  14.615  20.161  1.00  0.00     0.047 C 
HETATM   17  O4  UNL     1       4.481  10.658  19.683  1.00  0.00    -0.351 OA
ENDROOT
BRANCH   1  18
HETATM   18  C14 UNL     1       5.587  11.336  17.678  1.00  0.00     0.011 C 
HETATM   19  C12 UNL     1       6.553  10.827  16.884  1.00  0.00    -0.063 C 
HETATM   20  C13 UNL     1       7.862  10.290  17.409  1.00  0.00     0.048 C 
BRANCH  19  21
HETATM   21  C11 UNL     1       6.336  10.814  15.437  1.00  0.00     0.006 C 
HETATM   22  C10 UNL     1       5.260  10.324  14.795  1.00  0.00     0.001 C 
BRANCH  22  23
HETATM   23  C9  UNL     1       5.146  10.335  13.348  1.00  0.00     0.002 C 
HETATM   24  C7  UNL     1       5.180   9.270  12.520  1.00  0.00    -0.084 C 
HETATM   25  C8  UNL     1       5.292   7.833  12.973  1.00  0.00     0.043 C 
BRANCH  24  26
HETATM   26  C6  UNL     1       5.100   9.386  10.999  1.00  0.00     0.037 C 
BRANCH  26  27
HETATM   27  C5  UNL     1       4.801   8.113  10.193  1.00  0.00     0.031 C 
BRANCH  27  28
HETATM   28  C4  UNL     1       3.714   8.346   9.178  1.00  0.00    -0.024 C 
HETATM   29  C2  UNL     1       2.928   7.426   8.583  1.00  0.00    -0.091 C 
HETATM   30  C1  UNL     1       1.851   7.846   7.618  1.00  0.00     0.042 C 
HETATM   31  C3  UNL     1       3.028   5.940   8.789  1.00  0.00     0.042 C 
ENDBRANCH  27  28
ENDBRANCH  26  27
ENDBRANCH  24  26
ENDBRANCH  22  23
ENDBRANCH  19  21
ENDBRANCH   1  18
BRANCH  15  32
HETATM   32  O3  UNL     1       2.762  13.685  22.339  1.00  0.00    -0.389 OA
HETATM   33  H44 UNL     1       2.228  14.474  22.530  1.00  0.00     0.210 HD
ENDBRANCH  15  32
BRANCH  11  34
HETATM   34  C26 UNL     1       8.426  12.083  22.612  1.00  0.00     0.265 C 
HETATM   35  O2  UNL     1       8.682  11.278  23.501  1.00  0.00    -0.302 OA
ENDBRANCH  11  34
TORSDOF 8
ENDMDL
MODEL 8
REMARK minimizedAffinity -7.00174189
REMARK CNNscore 0.326466143
REMARK CNNaffinity 5.75104523
REMARK  8 active torsions:
REMARK  status: ('A' for Active; 'I' for Inactive)
REMARK    1  A    between atoms: C4_4  and  C5_5 
REMARK    2  A    between atoms: C5_5  and  C6_6 
REMARK    3  A    between atoms: C6_6  and  C7_7 
REMARK    4  A    between atoms: C9_9  and  C10_10 
REMARK    5  A    between atoms: C11_11  and  C12_12 
REMARK    6  A    between atoms: C14_14  and  C15_15 
REMARK    7  A    between atoms: C24_25  and  C26_27 
REMARK    8  A    between atoms: C29_31  and  O3_33 
ROOT
HETATM    1  C15 UNL     1       0.653  11.882  19.201  1.00  0.00     0.149 C 
HETATM    2  C16 UNL     1       1.051  11.390  20.598  1.00  0.00     0.054 C 
HETATM    3  C17 UNL     1       2.591  11.279  20.521  1.00  0.00     0.050 C 
HETATM    4  C18 UNL     1       2.684  10.772  19.069  1.00  0.00     0.272 C 
HETATM    5  O1  UNL     1       3.982  10.715  18.519  1.00  0.00    -0.360 OA
HETATM    6  C19 UNL     1       4.418  11.837  17.782  1.00  0.00     0.171 C 
HETATM    7  C20 UNL     1       4.546  13.131  18.572  1.00  0.00     0.027 C 
HETATM    8  C21 UNL     1       4.592  12.980  20.092  1.00  0.00     0.012 C 
HETATM    9  C22 UNL     1       3.191  12.733  20.688  1.00  0.00     0.032 C 
HETATM   10  C23 UNL     1       3.133  13.211  22.154  1.00  0.00    -0.066 C 
HETATM   11  C24 UNL     1       2.572  14.375  22.575  1.00  0.00    -0.021 C 
HETATM   12  C25 UNL     1       2.386  14.807  24.007  1.00  0.00     0.052 C 
HETATM   13  C27 UNL     1       3.771  12.219  23.101  1.00  0.00     0.038 C 
HETATM   14  C28 UNL     1       3.098  10.855  22.994  1.00  0.00     0.042 C 
HETATM   15  C29 UNL     1       3.201  10.279  21.570  1.00  0.00     0.067 C 
HETATM   16  C30 UNL     1       2.586   8.868  21.572  1.00  0.00     0.047 C 
HETATM   17  O4  UNL     1       1.725  11.520  18.309  1.00  0.00    -0.351 OA
ENDROOT
BRANCH   1  18
HETATM   18  C14 UNL     1      -0.617  11.256  18.700  1.00  0.00     0.011 C 
HETATM   19  C12 UNL     1      -1.805  11.862  18.494  1.00  0.00    -0.063 C 
HETATM   20  C13 UNL     1      -2.058  13.319  18.796  1.00  0.00     0.048 C 
BRANCH  19  21
HETATM   21  C11 UNL     1      -2.916  11.065  17.974  1.00  0.00     0.006 C 
HETATM   22  C10 UNL     1      -3.332  11.012  16.696  1.00  0.00     0.001 C 
BRANCH  22  23
HETATM   23  C9  UNL     1      -4.464  10.206  16.279  1.00  0.00     0.002 C 
HETATM   24  C7  UNL     1      -4.434   8.942  15.807  1.00  0.00    -0.084 C 
HETATM   25  C8  UNL     1      -3.184   8.103  15.679  1.00  0.00     0.043 C 
BRANCH  24  26
HETATM   26  C6  UNL     1      -5.679   8.188  15.344  1.00  0.00     0.037 C 
BRANCH  26  27
HETATM   27  C5  UNL     1      -5.618   6.654  15.298  1.00  0.00     0.031 C 
BRANCH  27  28
HETATM   28  C4  UNL     1      -6.650   6.089  14.358  1.00  0.00    -0.024 C 
HETATM   29  C2  UNL     1      -6.462   5.200  13.362  1.00  0.00    -0.091 C 
HETATM   30  C1  UNL     1      -7.626   4.707  12.544  1.00  0.00     0.042 C 
HETATM   31  C3  UNL     1      -5.133   4.624  12.956  1.00  0.00     0.042 C 
ENDBRANCH  27  28
ENDBRANCH  26  27
ENDBRANCH  24  26
ENDBRANCH  22  23
ENDBRANCH  19  21
ENDBRANCH   1  18
BRANCH  15  32
HETATM   32  O3  UNL     1       4.595  10.097  21.293  1.00  0.00    -0.389 OA
HETATM   33  H44 UNL     1       4.959   9.437  21.905  1.00  0.00     0.210 HD
ENDBRANCH  15  32
BRANCH  11  34
HETATM   34  C26 UNL     1       2.072  15.412  21.610  1.00  0.00     0.265 C 
HETATM   35  O2  UNL     1       0.901  15.774  21.572  1.00  0.00    -0.302 OA
ENDBRANCH  11  34
TORSDOF 8
ENDMDL
MODEL 9
REMARK minimizedAffinity -6.40457201
REMARK CNNscore 0.3264319
REMARK CNNaffinity 5.68004656
REMARK  8 active torsions:
REMARK  status: ('A' for Active; 'I' for Inactive)
REMARK    1  A    between atoms: C4_4  and  C5_5 
REMARK    2  A    between atoms: C5_5  and  C6_6 
REMARK    3  A    between atoms: C6_6  and  C7_7 
REMARK    4  A    between atoms: C9_9  and  C10_10 
REMARK    5  A    between atoms: C11_11  and  C12_12 
REMARK    6  A    between atoms: C14_14  and  C15_15 
REMARK    7  A    between atoms: C24_25  and  C26_27 
REMARK    8  A    between atoms: C29_31  and  O3_33 
ROOT
HETATM    1  C15 UNL     1     -10.174  -9.805  17.274  1.00  0.00     0.149 C 
HETATM    2  C16 UNL     1     -10.846 -11.029  16.640  1.00  0.00     0.054 C 
HETATM    3  C17 UNL     1     -11.842 -10.416  15.627  1.00  0.00     0.050 C 
HETATM    4  C18 UNL     1     -12.264  -9.199  16.473  1.00  0.00     0.272 C 
HETATM    5  O1  UNL     1     -13.058  -8.238  15.812  1.00  0.00    -0.360 OA
HETATM    6  C19 UNL     1     -12.388  -7.148  15.217  1.00  0.00     0.171 C 
HETATM    7  C20 UNL     1     -11.441  -7.502  14.080  1.00  0.00     0.027 C 
HETATM    8  C21 UNL     1     -11.634  -8.885  13.461  1.00  0.00     0.012 C 
HETATM    9  C22 UNL     1     -11.026  -9.998  14.338  1.00  0.00     0.032 C 
HETATM   10  C23 UNL     1     -10.647 -11.222  13.478  1.00  0.00    -0.066 C 
HETATM   11  C24 UNL     1      -9.389 -11.530  13.068  1.00  0.00    -0.021 C 
HETATM   12  C25 UNL     1      -8.972 -12.782  12.340  1.00  0.00     0.052 C 
HETATM   13  C27 UNL     1     -11.852 -12.073  13.139  1.00  0.00     0.038 C 
HETATM   14  C28 UNL     1     -12.553 -12.551  14.406  1.00  0.00     0.042 C 
HETATM   15  C29 UNL     1     -13.038 -11.370  15.268  1.00  0.00     0.067 C 
HETATM   16  C30 UNL     1     -13.815 -11.936  16.471  1.00  0.00     0.047 C 
HETATM   17  O4  UNL     1     -11.072  -8.693  17.091  1.00  0.00    -0.351 OA
ENDROOT
BRANCH   1  18
HETATM   18  C14 UNL     1      -9.917  -9.974  18.743  1.00  0.00     0.011 C 
HETATM   19  C12 UNL     1      -9.218  -9.152  19.554  1.00  0.00    -0.063 C 
HETATM   20  C13 UNL     1      -8.518  -7.906  19.070  1.00  0.00     0.048 C 
BRANCH  19  21
HETATM   21  C11 UNL     1      -9.108  -9.495  20.972  1.00  0.00     0.006 C 
HETATM   22  C10 UNL     1      -8.549 -10.605  21.485  1.00  0.00     0.001 C 
BRANCH  22  23
HETATM   23  C9  UNL     1      -8.508 -10.868  22.911  1.00  0.00     0.002 C 
HETATM   24  C7  UNL     1      -8.429 -12.073  23.515  1.00  0.00    -0.084 C 
HETATM   25  C8  UNL     1      -8.312 -13.392  22.788  1.00  0.00     0.043 C 
BRANCH  24  26
HETATM   26  C6  UNL     1      -8.442 -12.254  25.032  1.00  0.00     0.037 C 
BRANCH  26  27
HETATM   27  C5  UNL     1      -9.801 -12.438  25.724  1.00  0.00     0.031 C 
BRANCH  27  28
HETATM   28  C4  UNL     1      -9.698 -13.371  26.902  1.00  0.00    -0.024 C 
HETATM   29  C2  UNL     1      -9.073 -14.565  26.958  1.00  0.00    -0.091 C 
HETATM   30  C1  UNL     1      -9.031 -15.349  28.243  1.00  0.00     0.042 C 
HETATM   31  C3  UNL     1      -8.381 -15.234  25.802  1.00  0.00     0.042 C 
ENDBRANCH  27  28
ENDBRANCH  26  27
ENDBRANCH  24  26
ENDBRANCH  22  23
ENDBRANCH  19  21
ENDBRANCH   1  18
BRANCH  15  32
HETATM   32  O3  UNL     1     -13.999 -10.649  14.487  1.00  0.00    -0.389 OA
HETATM   33  H44 UNL     1     -14.764 -11.221  14.313  1.00  0.00     0.210 HD
ENDBRANCH  15  32
BRANCH  11  34
HETATM   34  C26 UNL     1      -8.229 -10.602  13.291  1.00  0.00     0.265 C 
HETATM   35  O2  UNL     1      -7.076 -10.999  13.417  1.00  0.00    -0.302 OA
ENDBRANCH  11  34
TORSDOF 8
ENDMDL
