MODEL 1
REMARK minimizedAffinity -6.52575064
REMARK CNNscore 0.699311078
REMARK CNNaffinity 6.64391375
REMARK  8 active torsions:
REMARK  status: ('A' for Active; 'I' for Inactive)
REMARK    1  A    between atoms: C2_2  and  C30_33 
REMARK    2  A    between atoms: C3_3  and  C4_4 
REMARK    3  A    between atoms: C4_4  and  C5_5 
REMARK    4  A    between atoms: C5_5  and  C6_6 
REMARK    5  A    between atoms: C6_6  and  C8_8 
REMARK    6  A    between atoms: C15_15  and  O1_16 
REMARK    7  A    between atoms: C23_24  and  O2_25 
REMARK    8  A    between atoms: C30_33  and  O4_34 
ROOT
HETATM    1  C8  UNL     1     -12.324   9.136  14.576  1.00  0.00    -0.002 C 
HETATM    2  C9  UNL     1     -12.333   9.304  13.040  1.00  0.00     0.007 C 
HETATM    3  C10 UNL     1     -13.526   8.473  12.513  1.00  0.00     0.015 C 
HETATM    4  C11 UNL     1     -14.393   8.168  13.756  1.00  0.00    -0.005 C 
HETATM    5  C12 UNL     1     -15.282   9.425  14.009  1.00  0.00     0.021 C 
HETATM    6  C13 UNL     1     -15.377   7.005  13.779  1.00  0.00     0.002 C 
HETATM    7  C14 UNL     1     -15.670   6.356  14.941  1.00  0.00    -0.032 C 
HETATM    8  C15 UNL     1     -14.989   6.746  16.257  1.00  0.00     0.149 C 
HETATM    9  C16 UNL     1     -13.887   7.830  16.196  1.00  0.00     0.047 C 
HETATM   10  C17 UNL     1     -13.245   7.906  14.810  1.00  0.00    -0.026 C 
HETATM   11  C18 UNL     1     -12.484   6.574  14.545  1.00  0.00     0.016 C 
HETATM   12  C19 UNL     1     -16.607   5.111  14.946  1.00  0.00    -0.013 C 
HETATM   13  C20 UNL     1     -15.667   3.931  14.590  1.00  0.00     0.021 C 
HETATM   14  C21 UNL     1     -17.298   4.822  16.295  1.00  0.00     0.017 C 
HETATM   15  C22 UNL     1     -18.232   3.609  16.291  1.00  0.00     0.033 C 
HETATM   16  C23 UNL     1     -18.945   3.323  14.966  1.00  0.00     0.126 C 
HETATM   17  C24 UNL     1     -19.069   4.538  14.011  1.00  0.00    -0.017 C 
HETATM   18  C25 UNL     1     -19.583   4.058  12.633  1.00  0.00     0.018 C 
HETATM   19  C26 UNL     1     -20.194   5.450  14.583  1.00  0.00     0.018 C 
HETATM   20  C27 UNL     1     -17.743   5.405  13.909  1.00  0.00     0.015 C 
HETATM   21  C28 UNL     1     -17.136   5.553  12.512  1.00  0.00     0.090 C 
HETATM   22  C29 UNL     1     -16.035   6.593  12.492  1.00  0.00     0.157 C 
HETATM   23  O3  UNL     1     -15.687   7.083  11.417  1.00  0.00    -0.293 OA
ENDROOT
BRANCH   1  24
HETATM   24  C6  UNL     1     -10.969   9.299  15.321  1.00  0.00    -0.014 C 
HETATM   25  C7  UNL     1     -10.777  10.773  15.724  1.00  0.00     0.010 C 
BRANCH  24  26
HETATM   26  C5  UNL     1      -9.655   8.701  14.763  1.00  0.00     0.008 C 
BRANCH  26  27
HETATM   27  C4  UNL     1      -9.243   7.255  15.058  1.00  0.00     0.028 C 
BRANCH  27  28
HETATM   28  C3  UNL     1      -7.870   6.867  14.589  1.00  0.00    -0.022 C 
HETATM   29  C2  UNL     1      -7.555   5.969  13.633  1.00  0.00    -0.064 C 
HETATM   30  C1  UNL     1      -8.561   5.138  12.881  1.00  0.00     0.045 C 
BRANCH  29  31
HETATM   31  C30 UNL     1      -6.118   5.708  13.264  1.00  0.00     0.197 C 
BRANCH  31  32
HETATM   32  O4  UNL     1      -5.975   4.343  12.906  1.00  0.00    -0.397 OA
HETATM   33  H48 UNL     1      -5.066   4.234  12.581  1.00  0.00     0.209 HD
ENDBRANCH  31  32
ENDBRANCH  29  31
ENDBRANCH  27  28
ENDBRANCH  26  27
ENDBRANCH  24  26
ENDBRANCH   1  24
BRANCH   8  34
HETATM   34  O1  UNL     1     -15.986   7.216  17.158  1.00  0.00    -0.391 OA
HETATM   35  H22 UNL     1     -15.554   7.356  18.018  1.00  0.00     0.210 HD
ENDBRANCH   8  34
BRANCH  16  36
HETATM   36  O2  UNL     1     -18.281   2.233  14.326  1.00  0.00    -0.395 OA
HETATM   37  H36 UNL     1     -18.915   1.807  13.724  1.00  0.00     0.210 HD
ENDBRANCH  16  36
TORSDOF 8
ENDMDL
MODEL 2
REMARK minimizedAffinity -7.80993986
REMARK CNNscore 0.544146717
REMARK CNNaffinity 6.67552567
REMARK  8 active torsions:
REMARK  status: ('A' for Active; 'I' for Inactive)
REMARK    1  A    between atoms: C2_2  and  C30_33 
REMARK    2  A    between atoms: C3_3  and  C4_4 
REMARK    3  A    between atoms: C4_4  and  C5_5 
REMARK    4  A    between atoms: C5_5  and  C6_6 
REMARK    5  A    between atoms: C6_6  and  C8_8 
REMARK    6  A    between atoms: C15_15  and  O1_16 
REMARK    7  A    between atoms: C23_24  and  O2_25 
REMARK    8  A    between atoms: C30_33  and  O4_34 
ROOT
HETATM    1  C8  UNL     1      -1.372   6.588  13.523  1.00  0.00    -0.002 C 
HETATM    2  C9  UNL     1      -0.044   6.386  14.287  1.00  0.00     0.007 C 
HETATM    3  C10 UNL     1       0.059   7.545  15.306  1.00  0.00     0.015 C 
HETATM    4  C11 UNL     1      -1.359   8.155  15.377  1.00  0.00    -0.005 C 
HETATM    5  C12 UNL     1      -2.187   7.267  16.357  1.00  0.00     0.021 C 
HETATM    6  C13 UNL     1      -1.594   9.577  15.872  1.00  0.00     0.002 C 
HETATM    7  C14 UNL     1      -2.635  10.321  15.403  1.00  0.00    -0.032 C 
HETATM    8  C15 UNL     1      -3.578   9.771  14.329  1.00  0.00     0.149 C 
HETATM    9  C16 UNL     1      -3.245   8.384  13.729  1.00  0.00     0.047 C 
HETATM   10  C17 UNL     1      -1.756   8.059  13.850  1.00  0.00    -0.026 C 
HETATM   11  C18 UNL     1      -0.959   9.059  12.962  1.00  0.00     0.016 C 
HETATM   12  C19 UNL     1      -2.819  11.804  15.845  1.00  0.00    -0.013 C 
HETATM   13  C20 UNL     1      -1.892  12.599  14.891  1.00  0.00     0.021 C 
HETATM   14  C21 UNL     1      -4.259  12.345  15.724  1.00  0.00     0.017 C 
HETATM   15  C22 UNL     1      -4.440  13.796  16.176  1.00  0.00     0.033 C 
HETATM   16  C23 UNL     1      -3.520  14.259  17.310  1.00  0.00     0.126 C 
HETATM   17  C24 UNL     1      -2.942  13.123  18.192  1.00  0.00    -0.017 C 
HETATM   18  C25 UNL     1      -1.855  13.702  19.129  1.00  0.00     0.018 C 
HETATM   19  C26 UNL     1      -4.092  12.648  19.129  1.00  0.00     0.018 C 
HETATM   20  C27 UNL     1      -2.437  11.866  17.362  1.00  0.00     0.015 C 
HETATM   21  C28 UNL     1      -0.966  11.485  17.537  1.00  0.00     0.090 C 
HETATM   22  C29 UNL     1      -0.662  10.141  16.908  1.00  0.00     0.157 C 
HETATM   23  O3  UNL     1       0.353   9.532  17.247  1.00  0.00    -0.293 OA
ENDROOT
BRANCH   1  24
HETATM   24  C6  UNL     1      -1.482   6.014  12.083  1.00  0.00    -0.014 C 
HETATM   25  C7  UNL     1      -2.426   4.797  12.084  1.00  0.00     0.010 C 
BRANCH  24  26
HETATM   26  C5  UNL     1      -0.229   5.741  11.216  1.00  0.00     0.008 C 
BRANCH  26  27
HETATM   27  C4  UNL     1       0.923   6.749  11.132  1.00  0.00     0.028 C 
BRANCH  27  28
HETATM   28  C3  UNL     1       1.576   6.871   9.785  1.00  0.00    -0.022 C 
HETATM   29  C2  UNL     1       1.195   7.660   8.760  1.00  0.00    -0.064 C 
HETATM   30  C1  UNL     1      -0.020   8.548   8.775  1.00  0.00     0.045 C 
BRANCH  29  31
HETATM   31  C30 UNL     1       1.977   7.682   7.472  1.00  0.00     0.197 C 
BRANCH  31  32
HETATM   32  O4  UNL     1       2.904   8.755   7.515  1.00  0.00    -0.397 OA
HETATM   33  H48 UNL     1       3.454   8.679   6.718  1.00  0.00     0.209 HD
ENDBRANCH  31  32
ENDBRANCH  29  31
ENDBRANCH  27  28
ENDBRANCH  26  27
ENDBRANCH  24  26
ENDBRANCH   1  24
BRANCH   8  34
HETATM   34  O1  UNL     1      -4.887   9.681  14.884  1.00  0.00    -0.391 OA
HETATM   35  H22 UNL     1      -5.489   9.433  14.161  1.00  0.00     0.210 HD
ENDBRANCH   8  34
BRANCH  16  36
HETATM   36  O2  UNL     1      -2.476  15.051  16.744  1.00  0.00    -0.395 OA
HETATM   37  H36 UNL     1      -2.138  15.642  17.438  1.00  0.00     0.210 HD
ENDBRANCH  16  36
TORSDOF 8
ENDMDL
MODEL 3
REMARK minimizedAffinity -8.36051178
REMARK CNNscore 0.46664241
REMARK CNNaffinity 6.59168673
REMARK  8 active torsions:
REMARK  status: ('A' for Active; 'I' for Inactive)
REMARK    1  A    between atoms: C2_2  and  C30_33 
REMARK    2  A    between atoms: C3_3  and  C4_4 
REMARK    3  A    between atoms: C4_4  and  C5_5 
REMARK    4  A    between atoms: C5_5  and  C6_6 
REMARK    5  A    between atoms: C6_6  and  C8_8 
REMARK    6  A    between atoms: C15_15  and  O1_16 
REMARK    7  A    between atoms: C23_24  and  O2_25 
REMARK    8  A    between atoms: C30_33  and  O4_34 
ROOT
HETATM    1  C8  UNL     1       3.069   7.940  10.548  1.00  0.00    -0.002 C 
HETATM    2  C9  UNL     1       2.952   6.599   9.789  1.00  0.00     0.007 C 
HETATM    3  C10 UNL     1       1.614   5.960  10.228  1.00  0.00     0.015 C 
HETATM    4  C11 UNL     1       0.823   7.096  10.914  1.00  0.00    -0.005 C 
HETATM    5  C12 UNL     1       0.142   7.925   9.780  1.00  0.00     0.021 C 
HETATM    6  C13 UNL     1      -0.308   6.806  11.893  1.00  0.00     0.002 C 
HETATM    7  C14 UNL     1      -0.589   7.661  12.916  1.00  0.00    -0.032 C 
HETATM    8  C15 UNL     1       0.250   8.923  13.143  1.00  0.00     0.149 C 
HETATM    9  C16 UNL     1       1.483   9.133  12.233  1.00  0.00     0.047 C 
HETATM   10  C17 UNL     1       2.008   7.809  11.678  1.00  0.00    -0.026 C 
HETATM   11  C18 UNL     1       2.552   6.958  12.863  1.00  0.00     0.016 C 
HETATM   12  C19 UNL     1      -1.686   7.316  13.968  1.00  0.00    -0.013 C 
HETATM   13  C20 UNL     1      -0.953   6.416  14.995  1.00  0.00     0.021 C 
HETATM   14  C21 UNL     1      -2.293   8.532  14.698  1.00  0.00     0.017 C 
HETATM   15  C22 UNL     1      -3.383   8.191  15.716  1.00  0.00     0.033 C 
HETATM   16  C23 UNL     1      -4.240   6.965  15.388  1.00  0.00     0.126 C 
HETATM   17  C24 UNL     1      -4.275   6.570  13.889  1.00  0.00    -0.017 C 
HETATM   18  C25 UNL     1      -4.966   5.194  13.736  1.00  0.00     0.018 C 
HETATM   19  C26 UNL     1      -5.209   7.590  13.174  1.00  0.00     0.018 C 
HETATM   20  C27 UNL     1      -2.854   6.630  13.182  1.00  0.00     0.015 C 
HETATM   21  C28 UNL     1      -2.354   5.327  12.555  1.00  0.00     0.090 C 
HETATM   22  C29 UNL     1      -1.125   5.558  11.700  1.00  0.00     0.157 C 
HETATM   23  O3  UNL     1      -0.805   4.715  10.862  1.00  0.00    -0.293 OA
ENDROOT
BRANCH   1  24
HETATM   24  C6  UNL     1       4.491   8.504  10.822  1.00  0.00    -0.014 C 
HETATM   25  C7  UNL     1       5.529   7.374  10.683  1.00  0.00     0.010 C 
BRANCH  24  26
HETATM   26  C5  UNL     1       4.795   9.384  12.059  1.00  0.00     0.008 C 
BRANCH  26  27
HETATM   27  C4  UNL     1       5.905  10.441  12.037  1.00  0.00     0.028 C 
BRANCH  27  28
HETATM   28  C3  UNL     1       5.443  11.864  12.172  1.00  0.00    -0.022 C 
HETATM   29  C2  UNL     1       6.205  12.976  12.145  1.00  0.00    -0.064 C 
HETATM   30  C1  UNL     1       7.705  12.979  12.019  1.00  0.00     0.045 C 
BRANCH  29  31
HETATM   31  C30 UNL     1       5.580  14.341  12.274  1.00  0.00     0.197 C 
BRANCH  31  32
HETATM   32  O4  UNL     1       4.747  14.575  11.150  1.00  0.00    -0.397 OA
HETATM   33  H48 UNL     1       4.287  15.414  11.314  1.00  0.00     0.209 HD
ENDBRANCH  31  32
ENDBRANCH  29  31
ENDBRANCH  27  28
ENDBRANCH  26  27
ENDBRANCH  24  26
ENDBRANCH   1  24
BRANCH   8  34
HETATM   34  O1  UNL     1      -0.592  10.059  12.974  1.00  0.00    -0.391 OA
HETATM   35  H22 UNL     1      -0.072  10.841  13.225  1.00  0.00     0.210 HD
ENDBRANCH   8  34
BRANCH  16  36
HETATM   36  O2  UNL     1      -3.791   5.876  16.195  1.00  0.00    -0.395 OA
HETATM   37  H36 UNL     1      -4.527   5.248  16.287  1.00  0.00     0.210 HD
ENDBRANCH  16  36
TORSDOF 8
ENDMDL
MODEL 4
REMARK minimizedAffinity -7.61490154
REMARK CNNscore 0.355669916
REMARK CNNaffinity 6.16038561
REMARK  8 active torsions:
REMARK  status: ('A' for Active; 'I' for Inactive)
REMARK    1  A    between atoms: C2_2  and  C30_33 
REMARK    2  A    between atoms: C3_3  and  C4_4 
REMARK    3  A    between atoms: C4_4  and  C5_5 
REMARK    4  A    between atoms: C5_5  and  C6_6 
REMARK    5  A    between atoms: C6_6  and  C8_8 
REMARK    6  A    between atoms: C15_15  and  O1_16 
REMARK    7  A    between atoms: C23_24  and  O2_25 
REMARK    8  A    between atoms: C30_33  and  O4_34 
ROOT
HETATM    1  C8  UNL     1       2.225   7.176  11.708  1.00  0.00    -0.002 C 
HETATM    2  C9  UNL     1       2.410   7.669  10.256  1.00  0.00     0.007 C 
HETATM    3  C10 UNL     1       3.741   8.456  10.225  1.00  0.00     0.015 C 
HETATM    4  C11 UNL     1       4.471   8.079  11.533  1.00  0.00    -0.005 C 
HETATM    5  C12 UNL     1       5.185   6.715  11.279  1.00  0.00     0.021 C 
HETATM    6  C13 UNL     1       5.560   8.964  12.126  1.00  0.00     0.002 C 
HETATM    7  C14 UNL     1       5.771   9.014  13.472  1.00  0.00    -0.032 C 
HETATM    8  C15 UNL     1       4.892   8.214  14.439  1.00  0.00     0.149 C 
HETATM    9  C16 UNL     1       3.699   7.433  13.839  1.00  0.00     0.047 C 
HETATM   10  C17 UNL     1       3.233   8.042  12.516  1.00  0.00    -0.026 C 
HETATM   11  C18 UNL     1       2.655   9.459  12.801  1.00  0.00     0.016 C 
HETATM   12  C19 UNL     1       6.825   9.987  14.080  1.00  0.00    -0.013 C 
HETATM   13  C20 UNL     1       6.066  11.333  14.205  1.00  0.00     0.021 C 
HETATM   14  C21 UNL     1       7.367   9.577  15.465  1.00  0.00     0.017 C 
HETATM   15  C22 UNL     1       8.415  10.526  16.051  1.00  0.00     0.033 C 
HETATM   16  C23 UNL     1       9.316  11.232  15.033  1.00  0.00     0.126 C 
HETATM   17  C24 UNL     1       9.432  10.527  13.658  1.00  0.00    -0.017 C 
HETATM   18  C25 UNL     1      10.163  11.458  12.662  1.00  0.00     0.018 C 
HETATM   19  C26 UNL     1      10.374   9.302  13.855  1.00  0.00     0.018 C 
HETATM   20  C27 UNL     1       8.045   9.990  13.098  1.00  0.00     0.015 C 
HETATM   21  C28 UNL     1       7.607  10.534  11.738  1.00  0.00     0.090 C 
HETATM   22  C29 UNL     1       6.415   9.775  11.193  1.00  0.00     0.157 C 
HETATM   23  O3  UNL     1       6.157   9.839   9.991  1.00  0.00    -0.293 OA
ENDROOT
BRANCH   1  24
HETATM   24  C6  UNL     1       0.778   6.919  12.215  1.00  0.00    -0.014 C 
HETATM   25  C7  UNL     1       0.828   6.200  13.576  1.00  0.00     0.010 C 
BRANCH  24  26
HETATM   26  C5  UNL     1      -0.307   6.298  11.302  1.00  0.00     0.008 C 
BRANCH  26  27
HETATM   27  C4  UNL     1      -1.297   5.254  11.830  1.00  0.00     0.028 C 
BRANCH  27  28
HETATM   28  C3  UNL     1      -0.972   3.827  11.489  1.00  0.00    -0.022 C 
HETATM   29  C2  UNL     1      -1.839   2.848  11.161  1.00  0.00    -0.064 C 
HETATM   30  C1  UNL     1      -3.335   3.010  11.126  1.00  0.00     0.045 C 
BRANCH  29  31
HETATM   31  C30 UNL     1      -1.346   1.464  10.823  1.00  0.00     0.197 C 
BRANCH  31  32
HETATM   32  O4  UNL     1       0.072   1.470  10.816  1.00  0.00    -0.397 OA
HETATM   33  H48 UNL     1       0.354   0.548  10.695  1.00  0.00     0.209 HD
ENDBRANCH  31  32
ENDBRANCH  29  31
ENDBRANCH  27  28
ENDBRANCH  26  27
ENDBRANCH  24  26
ENDBRANCH   1  24
BRANCH   8  34
HETATM   34  O1  UNL     1       5.713   7.267  15.114  1.00  0.00    -0.391 OA
HETATM   35  H22 UNL     1       5.164   6.844  15.796  1.00  0.00     0.210 HD
ENDBRANCH   8  34
BRANCH  16  36
HETATM   36  O2  UNL     1       8.856  12.575  14.884  1.00  0.00    -0.395 OA
HETATM   37  H36 UNL     1       9.602  13.115  14.571  1.00  0.00     0.210 HD
ENDBRANCH  16  36
TORSDOF 8
ENDMDL
MODEL 5
REMARK minimizedAffinity -7.25608301
REMARK CNNscore 0.340363413
REMARK CNNaffinity 6.3678031
REMARK  8 active torsions:
REMARK  status: ('A' for Active; 'I' for Inactive)
REMARK    1  A    between atoms: C2_2  and  C30_33 
REMARK    2  A    between atoms: C3_3  and  C4_4 
REMARK    3  A    between atoms: C4_4  and  C5_5 
REMARK    4  A    between atoms: C5_5  and  C6_6 
REMARK    5  A    between atoms: C6_6  and  C8_8 
REMARK    6  A    between atoms: C15_15  and  O1_16 
REMARK    7  A    between atoms: C23_24  and  O2_25 
REMARK    8  A    between atoms: C30_33  and  O4_34 
ROOT
HETATM    1  C8  UNL     1      -5.145 -11.186   2.111  1.00  0.00    -0.002 C 
HETATM    2  C9  UNL     1      -3.630 -10.892   2.182  1.00  0.00     0.007 C 
HETATM    3  C10 UNL     1      -3.315 -10.556   3.659  1.00  0.00     0.015 C 
HETATM    4  C11 UNL     1      -4.548 -11.033   4.459  1.00  0.00    -0.005 C 
HETATM    5  C12 UNL     1      -4.373 -12.566   4.691  1.00  0.00     0.021 C 
HETATM    6  C13 UNL     1      -4.867 -10.481   5.843  1.00  0.00     0.002 C 
HETATM    7  C14 UNL     1      -6.152 -10.391   6.285  1.00  0.00    -0.032 C 
HETATM    8  C15 UNL     1      -7.326 -10.802   5.389  1.00  0.00     0.149 C 
HETATM    9  C16 UNL     1      -7.001 -11.224   3.937  1.00  0.00     0.047 C 
HETATM   10  C17 UNL     1      -5.688 -10.610   3.450  1.00  0.00    -0.026 C 
HETATM   11  C18 UNL     1      -5.867  -9.066   3.365  1.00  0.00     0.016 C 
HETATM   12  C19 UNL     1      -6.480  -9.742   7.663  1.00  0.00    -0.013 C 
HETATM   13  C20 UNL     1      -6.536  -8.223   7.361  1.00  0.00     0.021 C 
HETATM   14  C21 UNL     1      -7.818 -10.186   8.290  1.00  0.00     0.017 C 
HETATM   15  C22 UNL     1      -8.128  -9.561   9.652  1.00  0.00     0.033 C 
HETATM   16  C23 UNL     1      -6.913  -9.250  10.532  1.00  0.00     0.126 C 
HETATM   17  C24 UNL     1      -5.636 -10.065  10.203  1.00  0.00    -0.017 C 
HETATM   18  C25 UNL     1      -4.439  -9.485  10.992  1.00  0.00     0.018 C 
HETATM   19  C26 UNL     1      -5.856 -11.499  10.768  1.00  0.00     0.018 C 
HETATM   20  C27 UNL     1      -5.347 -10.192   8.646  1.00  0.00     0.015 C 
HETATM   21  C28 UNL     1      -4.002  -9.651   8.160  1.00  0.00     0.090 C 
HETATM   22  C29 UNL     1      -3.728 -10.049   6.725  1.00  0.00     0.157 C 
HETATM   23  O3  UNL     1      -2.575 -10.005   6.295  1.00  0.00    -0.293 OA
ENDROOT
BRANCH   1  24
HETATM   24  C6  UNL     1      -5.875 -10.945   0.760  1.00  0.00    -0.014 C 
HETATM   25  C7  UNL     1      -4.843 -10.909  -0.383  1.00  0.00     0.010 C 
BRANCH  24  26
HETATM   26  C5  UNL     1      -6.927  -9.823   0.591  1.00  0.00     0.008 C 
BRANCH  26  27
HETATM   27  C4  UNL     1      -8.058  -9.932  -0.438  1.00  0.00     0.028 C 
BRANCH  27  28
HETATM   28  C3  UNL     1      -7.796  -9.264  -1.757  1.00  0.00    -0.022 C 
HETATM   29  C2  UNL     1      -8.182  -8.029  -2.139  1.00  0.00    -0.064 C 
HETATM   30  C1  UNL     1      -9.011  -7.098  -1.297  1.00  0.00     0.045 C 
BRANCH  29  31
HETATM   31  C30 UNL     1      -7.818  -7.495  -3.501  1.00  0.00     0.197 C 
BRANCH  31  32
HETATM   32  O4  UNL     1      -7.934  -6.082  -3.486  1.00  0.00    -0.397 OA
HETATM   33  H48 UNL     1      -7.599  -5.766  -4.342  1.00  0.00     0.209 HD
ENDBRANCH  31  32
ENDBRANCH  29  31
ENDBRANCH  27  28
ENDBRANCH  26  27
ENDBRANCH  24  26
ENDBRANCH   1  24
BRANCH   8  34
HETATM   34  O1  UNL     1      -7.996 -11.898   6.002  1.00  0.00    -0.391 OA
HETATM   35  H22 UNL     1      -8.796 -12.075   5.478  1.00  0.00     0.210 HD
ENDBRANCH   8  34
BRANCH  16  36
HETATM   36  O2  UNL     1      -6.659  -7.847  10.464  1.00  0.00    -0.395 OA
HETATM   37  H36 UNL     1      -6.180  -7.589  11.270  1.00  0.00     0.210 HD
ENDBRANCH  16  36
TORSDOF 8
ENDMDL
MODEL 6
REMARK minimizedAffinity -8.1335516
REMARK CNNscore 0.32673493
REMARK CNNaffinity 6.73236465
REMARK  8 active torsions:
REMARK  status: ('A' for Active; 'I' for Inactive)
REMARK    1  A    between atoms: C2_2  and  C30_33 
REMARK    2  A    between atoms: C3_3  and  C4_4 
REMARK    3  A    between atoms: C4_4  and  C5_5 
REMARK    4  A    between atoms: C5_5  and  C6_6 
REMARK    5  A    between atoms: C6_6  and  C8_8 
REMARK    6  A    between atoms: C15_15  and  O1_16 
REMARK    7  A    between atoms: C23_24  and  O2_25 
REMARK    8  A    between atoms: C30_33  and  O4_34 
ROOT
HETATM    1  C8  UNL     1      -0.178   9.162  14.137  1.00  0.00    -0.002 C 
HETATM    2  C9  UNL     1       0.423   8.044  13.257  1.00  0.00     0.007 C 
HETATM    3  C10 UNL     1      -0.722   7.045  12.971  1.00  0.00     0.015 C 
HETATM    4  C11 UNL     1      -2.020   7.789  13.355  1.00  0.00    -0.005 C 
HETATM    5  C12 UNL     1      -2.404   8.691  12.142  1.00  0.00     0.021 C 
HETATM    6  C13 UNL     1      -3.306   7.039  13.682  1.00  0.00     0.002 C 
HETATM    7  C14 UNL     1      -4.213   7.549  14.562  1.00  0.00    -0.032 C 
HETATM    8  C15 UNL     1      -3.952   8.874  15.286  1.00  0.00     0.149 C 
HETATM    9  C16 UNL     1      -2.582   9.554  15.057  1.00  0.00     0.047 C 
HETATM   10  C17 UNL     1      -1.510   8.543  14.647  1.00  0.00    -0.026 C 
HETATM   11  C18 UNL     1      -1.260   7.578  15.843  1.00  0.00     0.016 C 
HETATM   12  C19 UNL     1      -5.482   6.737  14.961  1.00  0.00    -0.013 C 
HETATM   13  C20 UNL     1      -4.990   5.803  16.096  1.00  0.00     0.021 C 
HETATM   14  C21 UNL     1      -6.662   7.587  15.477  1.00  0.00     0.017 C 
HETATM   15  C22 UNL     1      -7.913   6.788  15.851  1.00  0.00     0.033 C 
HETATM   16  C23 UNL     1      -8.159   5.516  15.033  1.00  0.00     0.126 C 
HETATM   17  C24 UNL     1      -7.472   5.485  13.644  1.00  0.00    -0.017 C 
HETATM   18  C25 UNL     1      -7.601   4.068  13.039  1.00  0.00     0.018 C 
HETATM   19  C26 UNL     1      -8.299   6.416  12.709  1.00  0.00     0.018 C 
HETATM   20  C27 UNL     1      -5.976   6.017  13.662  1.00  0.00     0.015 C 
HETATM   21  C28 UNL     1      -4.903   5.038  13.179  1.00  0.00     0.090 C 
HETATM   22  C29 UNL     1      -3.565   5.724  13.000  1.00  0.00     0.157 C 
HETATM   23  O3  UNL     1      -2.702   5.191  12.303  1.00  0.00    -0.293 OA
ENDROOT
BRANCH   1  24
HETATM   24  C6  UNL     1       0.777   9.942  15.084  1.00  0.00    -0.014 C 
HETATM   25  C7  UNL     1      -0.035  10.569  16.233  1.00  0.00     0.010 C 
BRANCH  24  26
HETATM   26  C5  UNL     1       1.828  10.940  14.540  1.00  0.00     0.008 C 
BRANCH  26  27
HETATM   27  C4  UNL     1       3.029  10.468  13.713  1.00  0.00     0.028 C 
BRANCH  27  28
HETATM   28  C3  UNL     1       4.035   9.635  14.453  1.00  0.00    -0.022 C 
HETATM   29  C2  UNL     1       4.674   8.535  14.005  1.00  0.00    -0.064 C 
HETATM   30  C1  UNL     1       4.444   7.906  12.658  1.00  0.00     0.045 C 
BRANCH  29  31
HETATM   31  C30 UNL     1       5.678   7.820  14.873  1.00  0.00     0.197 C 
BRANCH  31  32
HETATM   32  O4  UNL     1       5.001   6.856  15.662  1.00  0.00    -0.397 OA
HETATM   33  H48 UNL     1       5.684   6.350  16.132  1.00  0.00     0.209 HD
ENDBRANCH  31  32
ENDBRANCH  29  31
ENDBRANCH  27  28
ENDBRANCH  26  27
ENDBRANCH  24  26
ENDBRANCH   1  24
BRANCH   8  34
HETATM   34  O1  UNL     1      -4.952   9.807  14.890  1.00  0.00    -0.391 OA
HETATM   35  H22 UNL     1      -4.836  10.602  15.436  1.00  0.00     0.210 HD
ENDBRANCH   8  34
BRANCH  16  36
HETATM   36  O2  UNL     1      -7.769   4.394  15.823  1.00  0.00    -0.395 OA
HETATM   37  H36 UNL     1      -8.257   3.616  15.502  1.00  0.00     0.210 HD
ENDBRANCH  16  36
TORSDOF 8
ENDMDL
MODEL 7
REMARK minimizedAffinity -6.81368399
REMARK CNNscore 0.308911622
REMARK CNNaffinity 5.87218332
REMARK  8 active torsions:
REMARK  status: ('A' for Active; 'I' for Inactive)
REMARK    1  A    between atoms: C2_2  and  C30_33 
REMARK    2  A    between atoms: C3_3  and  C4_4 
REMARK    3  A    between atoms: C4_4  and  C5_5 
REMARK    4  A    between atoms: C5_5  and  C6_6 
REMARK    5  A    between atoms: C6_6  and  C8_8 
REMARK    6  A    between atoms: C15_15  and  O1_16 
REMARK    7  A    between atoms: C23_24  and  O2_25 
REMARK    8  A    between atoms: C30_33  and  O4_34 
ROOT
HETATM    1  C8  UNL     1       3.982   8.053  11.168  1.00  0.00    -0.002 C 
HETATM    2  C9  UNL     1       4.806   8.630   9.994  1.00  0.00     0.007 C 
HETATM    3  C10 UNL     1       5.987   9.404  10.624  1.00  0.00     0.015 C 
HETATM    4  C11 UNL     1       6.040   8.944  12.098  1.00  0.00    -0.005 C 
HETATM    5  C12 UNL     1       6.816   7.590  12.124  1.00  0.00     0.021 C 
HETATM    6  C13 UNL     1       6.718   9.782  13.175  1.00  0.00     0.002 C 
HETATM    7  C14 UNL     1       6.285   9.750  14.466  1.00  0.00    -0.032 C 
HETATM    8  C15 UNL     1       5.074   8.904  14.873  1.00  0.00     0.149 C 
HETATM    9  C16 UNL     1       4.306   8.171  13.748  1.00  0.00     0.047 C 
HETATM   10  C17 UNL     1       4.490   8.861  12.396  1.00  0.00    -0.026 C 
HETATM   11  C18 UNL     1       3.819  10.264  12.463  1.00  0.00     0.016 C 
HETATM   12  C19 UNL     1       6.923  10.676  15.545  1.00  0.00    -0.013 C 
HETATM   13  C20 UNL     1       6.167  12.020  15.383  1.00  0.00     0.021 C 
HETATM   14  C21 UNL     1       6.774  10.181  16.999  1.00  0.00     0.017 C 
HETATM   15  C22 UNL     1       7.417  11.083  18.054  1.00  0.00     0.033 C 
HETATM   16  C23 UNL     1       8.672  11.839  17.607  1.00  0.00     0.126 C 
HETATM   17  C24 UNL     1       9.421  11.214  16.402  1.00  0.00    -0.017 C 
HETATM   18  C25 UNL     1      10.511  12.196  15.909  1.00  0.00     0.018 C 
HETATM   19  C26 UNL     1      10.189   9.972  16.941  1.00  0.00     0.018 C 
HETATM   20  C27 UNL     1       8.457  10.725  15.238  1.00  0.00     0.015 C 
HETATM   21  C28 UNL     1       8.685  11.353  13.861  1.00  0.00     0.090 C 
HETATM   22  C29 UNL     1       7.892  10.638  12.787  1.00  0.00     0.157 C 
HETATM   23  O3  UNL     1       8.214  10.776  11.607  1.00  0.00    -0.293 OA
ENDROOT
BRANCH   1  24
HETATM   24  C6  UNL     1       2.470   7.781  10.935  1.00  0.00    -0.014 C 
HETATM   25  C7  UNL     1       2.054   6.506  11.692  1.00  0.00     0.010 C 
BRANCH  24  26
HETATM   26  C5  UNL     1       1.843   7.814   9.520  1.00  0.00     0.008 C 
BRANCH  26  27
HETATM   27  C4  UNL     1       2.370   6.922   8.391  1.00  0.00     0.028 C 
BRANCH  27  28
HETATM   28  C3  UNL     1       3.085   5.677   8.832  1.00  0.00    -0.022 C 
HETATM   29  C2  UNL     1       3.502   4.655   8.056  1.00  0.00    -0.064 C 
HETATM   30  C1  UNL     1       3.269   4.562   6.572  1.00  0.00     0.045 C 
BRANCH  29  31
HETATM   31  C30 UNL     1       4.230   3.480   8.656  1.00  0.00     0.197 C 
BRANCH  31  32
HETATM   32  O4  UNL     1       3.563   3.083   9.843  1.00  0.00    -0.397 OA
HETATM   33  H48 UNL     1       3.996   2.268  10.147  1.00  0.00     0.209 HD
ENDBRANCH  31  32
ENDBRANCH  29  31
ENDBRANCH  27  28
ENDBRANCH  26  27
ENDBRANCH  24  26
ENDBRANCH   1  24
BRANCH   8  34
HETATM   34  O1  UNL     1       5.510   7.911  15.796  1.00  0.00    -0.391 OA
HETATM   35  H22 UNL     1       4.716   7.454  16.123  1.00  0.00     0.210 HD
ENDBRANCH   8  34
BRANCH  16  36
HETATM   36  O2  UNL     1       8.308  13.192  17.339  1.00  0.00    -0.395 OA
HETATM   37  H36 UNL     1       9.104  13.743  17.436  1.00  0.00     0.210 HD
ENDBRANCH  16  36
TORSDOF 8
ENDMDL
MODEL 8
REMARK minimizedAffinity -6.74038887
REMARK CNNscore 0.301071197
REMARK CNNaffinity 6.2274909
REMARK  8 active torsions:
REMARK  status: ('A' for Active; 'I' for Inactive)
REMARK    1  A    between atoms: C2_2  and  C30_33 
REMARK    2  A    between atoms: C3_3  and  C4_4 
REMARK    3  A    between atoms: C4_4  and  C5_5 
REMARK    4  A    between atoms: C5_5  and  C6_6 
REMARK    5  A    between atoms: C6_6  and  C8_8 
REMARK    6  A    between atoms: C15_15  and  O1_16 
REMARK    7  A    between atoms: C23_24  and  O2_25 
REMARK    8  A    between atoms: C30_33  and  O4_34 
ROOT
HETATM    1  C8  UNL     1       7.068  10.840  14.833  1.00  0.00    -0.002 C 
HETATM    2  C9  UNL     1       8.280  10.117  14.205  1.00  0.00     0.007 C 
HETATM    3  C10 UNL     1       7.725   9.240  13.059  1.00  0.00     0.015 C 
HETATM    4  C11 UNL     1       6.293   9.760  12.802  1.00  0.00    -0.005 C 
HETATM    5  C12 UNL     1       6.423  11.014  11.882  1.00  0.00     0.021 C 
HETATM    6  C13 UNL     1       5.241   8.900  12.114  1.00  0.00     0.002 C 
HETATM    7  C14 UNL     1       3.917   9.043  12.403  1.00  0.00    -0.032 C 
HETATM    8  C15 UNL     1       3.444  10.044  13.463  1.00  0.00     0.149 C 
HETATM    9  C16 UNL     1       4.529  10.808  14.258  1.00  0.00     0.047 C 
HETATM   10  C17 UNL     1       5.850  10.038  14.293  1.00  0.00    -0.026 C 
HETATM   11  C18 UNL     1       5.635   8.727  15.106  1.00  0.00     0.016 C 
HETATM   12  C19 UNL     1       2.853   8.101  11.764  1.00  0.00    -0.013 C 
HETATM   13  C20 UNL     1       2.861   6.849  12.678  1.00  0.00     0.021 C 
HETATM   14  C21 UNL     1       1.424   8.679  11.704  1.00  0.00     0.017 C 
HETATM   15  C22 UNL     1       0.385   7.758  11.059  1.00  0.00     0.033 C 
HETATM   16  C23 UNL     1       0.908   6.840   9.950  1.00  0.00     0.126 C 
HETATM   17  C24 UNL     1       2.215   7.316   9.266  1.00  0.00    -0.017 C 
HETATM   18  C25 UNL     1       2.754   6.192   8.350  1.00  0.00     0.018 C 
HETATM   19  C26 UNL     1       1.828   8.484   8.312  1.00  0.00     0.018 C 
HETATM   20  C27 UNL     1       3.306   7.858  10.285  1.00  0.00     0.015 C 
HETATM   21  C28 UNL     1       4.659   7.145  10.273  1.00  0.00     0.090 C 
HETATM   22  C29 UNL     1       5.690   7.896  11.089  1.00  0.00     0.157 C 
HETATM   23  O3  UNL     1       6.886   7.666  10.909  1.00  0.00    -0.293 OA
ENDROOT
BRANCH   1  24
HETATM   24  C6  UNL     1       7.166  11.276  16.322  1.00  0.00    -0.014 C 
HETATM   25  C7  UNL     1       7.715  10.109  17.165  1.00  0.00     0.010 C 
BRANCH  24  26
HETATM   26  C5  UNL     1       5.991  11.976  17.046  1.00  0.00     0.008 C 
BRANCH  26  27
HETATM   27  C4  UNL     1       5.356  11.378  18.307  1.00  0.00     0.028 C 
BRANCH  27  28
HETATM   28  C3  UNL     1       5.820  11.973  19.606  1.00  0.00    -0.022 C 
HETATM   29  C2  UNL     1       5.361  11.693  20.843  1.00  0.00    -0.064 C 
HETATM   30  C1  UNL     1       4.234  10.741  21.138  1.00  0.00     0.045 C 
BRANCH  29  31
HETATM   31  C30 UNL     1       5.952  12.366  22.055  1.00  0.00     0.197 C 
BRANCH  31  32
HETATM   32  O4  UNL     1       4.902  12.743  22.930  1.00  0.00    -0.397 OA
HETATM   33  H48 UNL     1       5.321  13.082  23.739  1.00  0.00     0.209 HD
ENDBRANCH  31  32
ENDBRANCH  29  31
ENDBRANCH  27  28
ENDBRANCH  26  27
ENDBRANCH  24  26
ENDBRANCH   1  24
BRANCH   8  34
HETATM   34  O1  UNL     1       2.628  11.021  12.826  1.00  0.00    -0.391 OA
HETATM   35  H22 UNL     1       2.252  11.582  13.525  1.00  0.00     0.210 HD
ENDBRANCH   8  34
BRANCH  16  36
HETATM   36  O2  UNL     1       1.059   5.528  10.489  1.00  0.00    -0.395 OA
HETATM   37  H36 UNL     1       1.009   4.893   9.754  1.00  0.00     0.210 HD
ENDBRANCH  16  36
TORSDOF 8
ENDMDL
MODEL 9
REMARK minimizedAffinity -6.65467501
REMARK CNNscore 0.263820112
REMARK CNNaffinity 5.71980858
REMARK  8 active torsions:
REMARK  status: ('A' for Active; 'I' for Inactive)
REMARK    1  A    between atoms: C2_2  and  C30_33 
REMARK    2  A    between atoms: C3_3  and  C4_4 
REMARK    3  A    between atoms: C4_4  and  C5_5 
REMARK    4  A    between atoms: C5_5  and  C6_6 
REMARK    5  A    between atoms: C6_6  and  C8_8 
REMARK    6  A    between atoms: C15_15  and  O1_16 
REMARK    7  A    between atoms: C23_24  and  O2_25 
REMARK    8  A    between atoms: C30_33  and  O4_34 
ROOT
HETATM    1  C8  UNL     1       2.783   7.688  12.737  1.00  0.00    -0.002 C 
HETATM    2  C9  UNL     1       2.870   8.071  11.243  1.00  0.00     0.007 C 
HETATM    3  C10 UNL     1       4.247   8.745  11.041  1.00  0.00     0.015 C 
HETATM    4  C11 UNL     1       5.064   8.394  12.304  1.00  0.00    -0.005 C 
HETATM    5  C12 UNL     1       5.648   6.964  12.086  1.00  0.00     0.021 C 
HETATM    6  C13 UNL     1       6.266   9.225  12.736  1.00  0.00     0.002 C 
HETATM    7  C14 UNL     1       6.604   9.343  14.051  1.00  0.00    -0.032 C 
HETATM    8  C15 UNL     1       5.760   8.680  15.145  1.00  0.00     0.149 C 
HETATM    9  C16 UNL     1       4.462   7.960  14.708  1.00  0.00     0.047 C 
HETATM   10  C17 UNL     1       3.923   8.519  13.391  1.00  0.00    -0.026 C 
HETATM   11  C18 UNL     1       3.480   9.994  13.624  1.00  0.00     0.016 C 
HETATM   12  C19 UNL     1       7.778  10.265  14.495  1.00  0.00    -0.013 C 
HETATM   13  C20 UNL     1       7.137  11.673  14.590  1.00  0.00     0.021 C 
HETATM   14  C21 UNL     1       8.414   9.902  15.854  1.00  0.00     0.017 C 
HETATM   15  C22 UNL     1       9.579  10.798  16.278  1.00  0.00     0.033 C 
HETATM   16  C23 UNL     1      10.432  11.363  15.138  1.00  0.00     0.126 C 
HETATM   17  C24 UNL     1      10.368  10.565  13.811  1.00  0.00    -0.017 C 
HETATM   18  C25 UNL     1      11.072  11.369  12.693  1.00  0.00     0.018 C 
HETATM   19  C26 UNL     1      11.230   9.284  14.011  1.00  0.00     0.018 C 
HETATM   20  C27 UNL     1       8.900  10.107  13.414  1.00  0.00     0.015 C 
HETATM   21  C28 UNL     1       8.380  10.597  12.061  1.00  0.00     0.090 C 
HETATM   22  C29 UNL     1       7.090   9.903  11.677  1.00  0.00     0.157 C 
HETATM   23  O3  UNL     1       6.727   9.911  10.501  1.00  0.00    -0.293 OA
ENDROOT
BRANCH   1  24
HETATM   24  C6  UNL     1       1.373   7.581  13.385  1.00  0.00    -0.014 C 
HETATM   25  C7  UNL     1       1.496   6.950  14.784  1.00  0.00     0.010 C 
BRANCH  24  26
HETATM   26  C5  UNL     1       0.166   6.992  12.616  1.00  0.00     0.008 C 
BRANCH  26  27
HETATM   27  C4  UNL     1      -1.218   7.650  12.671  1.00  0.00     0.028 C 
BRANCH  27  28
HETATM   28  C3  UNL     1      -2.014   7.373  13.915  1.00  0.00    -0.022 C 
HETATM   29  C2  UNL     1      -2.849   6.338  14.138  1.00  0.00    -0.064 C 
HETATM   30  C1  UNL     1      -3.175   5.273  13.125  1.00  0.00     0.045 C 
BRANCH  29  31
HETATM   31  C30 UNL     1      -3.561   6.193  15.458  1.00  0.00     0.197 C 
BRANCH  31  32
HETATM   32  O4  UNL     1      -2.937   7.035  16.413  1.00  0.00    -0.397 OA
HETATM   33  H48 UNL     1      -3.478   6.993  17.218  1.00  0.00     0.209 HD
ENDBRANCH  31  32
ENDBRANCH  29  31
ENDBRANCH  27  28
ENDBRANCH  26  27
ENDBRANCH  24  26
ENDBRANCH   1  24
BRANCH   8  34
HETATM   34  O1  UNL     1       6.567   7.714  15.812  1.00  0.00    -0.391 OA
HETATM   35  H22 UNL     1       6.053   7.382  16.567  1.00  0.00     0.210 HD
ENDBRANCH   8  34
BRANCH  16  36
HETATM   36  O2  UNL     1      10.062  12.726  14.935  1.00  0.00    -0.395 OA
HETATM   37  H36 UNL     1      10.814  13.184  14.521  1.00  0.00     0.210 HD
ENDBRANCH  16  36
TORSDOF 8
ENDMDL
