MODEL 1
REMARK minimizedAffinity -6.74525785
REMARK CNNscore 0.658757746
REMARK CNNaffinity 7.08221483
REMARK  7 active torsions:
REMARK  status: ('A' for Active; 'I' for Inactive)
REMARK    1  A    between atoms: C3_3  and  C5_5 
REMARK    2  A    between atoms: C24_26  and  O3_27 
REMARK    3  A    between atoms: C30_35  and  O6_36 
REMARK    4  A    between atoms: C31_38  and  O8_39 
REMARK    5  A    between atoms: C32_40  and  O9_41 
REMARK    6  A    between atoms: O9_41  and  C33_42 
REMARK    7  A    between atoms: C33_42  and  C34_44 
ROOT
HETATM    1  C5  UNL     1       2.344  51.283 -13.338  1.00  0.00     0.160 C 
HETATM    2  O1  UNL     1       1.283  51.215 -12.381  1.00  0.00    -0.342 OA
HETATM    3  C6  UNL     1       1.748  51.296 -11.021  1.00  0.00     0.196 C 
HETATM    4  C7  UNL     1       0.571  50.752 -10.166  1.00  0.00     0.104 C 
HETATM    5  C8  UNL     1       0.444  51.452  -8.815  1.00  0.00     0.139 C 
HETATM    6  C9  UNL     1       0.415  52.980  -8.958  1.00  0.00     0.065 C 
HETATM    7  C10 UNL     1       0.863  53.416 -10.357  1.00  0.00     0.131 C 
HETATM    8  C11 UNL     1       1.133  54.924 -10.514  1.00  0.00     0.059 C 
HETATM    9  C12 UNL     1       2.057  55.551  -9.499  1.00  0.00    -0.022 C 
HETATM   10  C13 UNL     1       3.345  55.919  -9.658  1.00  0.00    -0.087 C 
HETATM   11  C14 UNL     1       4.111  55.654 -10.934  1.00  0.00     0.043 C 
HETATM   12  C15 UNL     1       4.207  56.598  -8.592  1.00  0.00     0.041 C 
HETATM   13  C16 UNL     1       3.657  56.933  -7.175  1.00  0.00     0.008 C 
HETATM   14  C17 UNL     1       2.671  58.108  -7.214  1.00  0.00     0.014 C 
HETATM   15  C18 UNL     1       3.081  55.746  -6.427  1.00  0.00    -0.022 C 
HETATM   16  C19 UNL     1       3.717  54.573  -6.277  1.00  0.00    -0.003 C 
HETATM   17  C20 UNL     1       3.082  53.416  -5.696  1.00  0.00     0.008 C 
HETATM   18  C21 UNL     1       3.681  52.230  -5.510  1.00  0.00    -0.019 C 
HETATM   19  C22 UNL     1       5.138  51.903  -5.689  1.00  0.00     0.206 C 
HETATM   20  O2  UNL     1       5.330  50.599  -5.085  1.00  0.00    -0.375 OA
HETATM   21  C23 UNL     1       4.197  50.429  -4.194  1.00  0.00     0.194 C 
HETATM   22  C24 UNL     1       4.019  48.965  -3.753  1.00  0.00     0.179 C 
HETATM   23  C25 UNL     1       3.191  48.097  -4.675  1.00  0.00    -0.056 C 
HETATM   24  C26 UNL     1       3.069  46.648  -4.286  1.00  0.00     0.046 C 
HETATM   25  C27 UNL     1       2.565  48.592  -5.760  1.00  0.00    -0.004 C 
HETATM   26  C28 UNL     1       2.649  50.046  -6.164  1.00  0.00     0.150 C 
HETATM   27  C29 UNL     1       1.341  50.494  -6.798  1.00  0.00     0.270 C 
HETATM   28  O4  UNL     1       0.242  50.336  -6.285  1.00  0.00    -0.264 OA
HETATM   29  O5  UNL     1       1.580  51.062  -8.013  1.00  0.00    -0.315 OA
HETATM   30  C30 UNL     1       3.015  50.985  -4.985  1.00  0.00     0.128 C 
HETATM   31  O7  UNL     1       2.026  52.669 -10.703  1.00  0.00    -0.347 OA
HETATM   32  C31 UNL     1       3.053  50.440 -10.820  1.00  0.00     0.210 C 
HETATM   33  C32 UNL     1       3.149  49.334 -11.889  1.00  0.00     0.172 C 
HETATM   34  C37 UNL     1       3.096  49.929 -13.323  1.00  0.00     0.047 C 
HETATM   35  C38 UNL     1       4.507  50.054 -13.908  1.00  0.00     0.015 C 
ENDROOT
BRANCH  32  36
HETATM   36  O8  UNL     1       4.251  51.239 -10.912  1.00  0.00    -0.387 OA
HETATM   37  H42 UNL     1       4.987  50.705 -10.568  1.00  0.00     0.210 HD
ENDBRANCH  32  36
BRANCH   1  38
HETATM   38  C3  UNL     1       1.738  51.613 -14.707  1.00  0.00    -0.059 C 
HETATM   39  C2  UNL     1       2.465  52.157 -15.708  1.00  0.00    -0.026 C 
HETATM   40  C1  UNL     1       1.992  52.529 -17.076  1.00  0.00     0.036 C 
HETATM   41  C4  UNL     1       0.291  51.230 -14.882  1.00  0.00     0.046 C 
ENDBRANCH   1  38
BRANCH  33  42
HETATM   42  O9  UNL     1       2.059  48.404 -11.702  1.00  0.00    -0.312 OA
BRANCH  42  43
HETATM   43  C33 UNL     1       2.122  47.256 -12.432  1.00  0.00     0.262 C 
HETATM   44  O10 UNL     1       3.094  46.513 -12.484  1.00  0.00    -0.265 OA
BRANCH  43  45
HETATM   45  C34 UNL     1       0.853  47.032 -13.229  1.00  0.00     0.077 C 
HETATM   46  C35 UNL     1       1.041  47.371 -14.704  1.00  0.00     0.020 C 
HETATM   47  C36 UNL     1       0.370  45.599 -13.037  1.00  0.00     0.020 C 
ENDBRANCH  43  45
ENDBRANCH  42  43
ENDBRANCH  33  42
BRANCH  30  48
HETATM   48  O6  UNL     1       1.942  51.292  -4.101  1.00  0.00    -0.381 OA
HETATM   49  H40 UNL     1       1.160  50.759  -4.342  1.00  0.00     0.211 HD
ENDBRANCH  30  48
BRANCH  22  50
HETATM   50  O3  UNL     1       5.304  48.361  -3.589  1.00  0.00    -0.389 OA
HETATM   51  H34 UNL     1       5.880  48.807  -4.241  1.00  0.00     0.210 HD
ENDBRANCH  22  50
TORSDOF 7
ENDMDL
MODEL 2
REMARK minimizedAffinity -8.18980694
REMARK CNNscore 0.592525721
REMARK CNNaffinity 7.65924215
REMARK  7 active torsions:
REMARK  status: ('A' for Active; 'I' for Inactive)
REMARK    1  A    between atoms: C3_3  and  C5_5 
REMARK    2  A    between atoms: C24_26  and  O3_27 
REMARK    3  A    between atoms: C30_35  and  O6_36 
REMARK    4  A    between atoms: C31_38  and  O8_39 
REMARK    5  A    between atoms: C32_40  and  O9_41 
REMARK    6  A    between atoms: O9_41  and  C33_42 
REMARK    7  A    between atoms: C33_42  and  C34_44 
ROOT
HETATM    1  C5  UNL     1       1.621  51.878 -12.055  1.00  0.00     0.160 C 
HETATM    2  O1  UNL     1       1.228  53.199 -11.670  1.00  0.00    -0.342 OA
HETATM    3  C6  UNL     1       1.303  53.416 -10.249  1.00  0.00     0.196 C 
HETATM    4  C7  UNL     1       0.431  54.675  -9.993  1.00  0.00     0.104 C 
HETATM    5  C8  UNL     1       0.968  55.550  -8.864  1.00  0.00     0.139 C 
HETATM    6  C9  UNL     1       2.453  55.888  -9.053  1.00  0.00     0.065 C 
HETATM    7  C10 UNL     1       3.095  54.993 -10.119  1.00  0.00     0.131 C 
HETATM    8  C11 UNL     1       4.632  55.062 -10.187  1.00  0.00     0.059 C 
HETATM    9  C12 UNL     1       5.373  54.865  -8.887  1.00  0.00    -0.022 C 
HETATM   10  C13 UNL     1       6.044  53.773  -8.466  1.00  0.00    -0.087 C 
HETATM   11  C14 UNL     1       6.071  52.485  -9.257  1.00  0.00     0.043 C 
HETATM   12  C15 UNL     1       6.816  53.664  -7.150  1.00  0.00     0.041 C 
HETATM   13  C16 UNL     1       6.895  54.844  -6.139  1.00  0.00     0.008 C 
HETATM   14  C17 UNL     1       7.806  55.968  -6.652  1.00  0.00     0.014 C 
HETATM   15  C18 UNL     1       5.550  55.379  -5.689  1.00  0.00    -0.022 C 
HETATM   16  C19 UNL     1       4.550  54.607  -5.234  1.00  0.00    -0.003 C 
HETATM   17  C20 UNL     1       3.233  55.127  -4.960  1.00  0.00     0.008 C 
HETATM   18  C21 UNL     1       2.208  54.400  -4.488  1.00  0.00    -0.019 C 
HETATM   19  C22 UNL     1       2.248  52.981  -3.988  1.00  0.00     0.206 C 
HETATM   20  O2  UNL     1       0.980  52.760  -3.320  1.00  0.00    -0.375 OA
HETATM   21  C23 UNL     1       0.477  54.089  -3.024  1.00  0.00     0.194 C 
HETATM   22  C24 UNL     1      -1.019  54.077  -2.661  1.00  0.00     0.179 C 
HETATM   23  C25 UNL     1      -1.978  54.173  -3.827  1.00  0.00    -0.056 C 
HETATM   24  C26 UNL     1      -3.442  54.094  -3.487  1.00  0.00     0.046 C 
HETATM   25  C27 UNL     1      -1.557  54.359  -5.093  1.00  0.00    -0.004 C 
HETATM   26  C28 UNL     1      -0.095  54.466  -5.463  1.00  0.00     0.150 C 
HETATM   27  C29 UNL     1       0.085  55.427  -6.629  1.00  0.00     0.270 C 
HETATM   28  O4  UNL     1      -0.367  56.563  -6.655  1.00  0.00    -0.264 OA
HETATM   29  O5  UNL     1       0.791  54.826  -7.626  1.00  0.00    -0.315 OA
HETATM   30  C30 UNL     1       0.804  54.899  -4.276  1.00  0.00     0.128 C 
HETATM   31  O7  UNL     1       2.673  53.653  -9.885  1.00  0.00    -0.347 OA
HETATM   32  C31 UNL     1       0.763  52.166  -9.460  1.00  0.00     0.210 C 
HETATM   33  C32 UNL     1      -0.198  51.341 -10.338  1.00  0.00     0.172 C 
HETATM   34  C37 UNL     1       0.484  50.902 -11.663  1.00  0.00     0.047 C 
HETATM   35  C38 UNL     1       0.982  49.457 -11.561  1.00  0.00     0.015 C 
ENDROOT
BRANCH  32  36
HETATM   36  O8  UNL     1       1.825  51.287  -9.033  1.00  0.00    -0.387 OA
HETATM   37  H42 UNL     1       1.452  50.671  -8.380  1.00  0.00     0.210 HD
ENDBRANCH  32  36
BRANCH   1  38
HETATM   38  C3  UNL     1       1.910  51.881 -13.561  1.00  0.00    -0.059 C 
HETATM   39  C2  UNL     1       3.168  51.842 -14.055  1.00  0.00    -0.026 C 
HETATM   40  C1  UNL     1       3.579  51.848 -15.492  1.00  0.00     0.036 C 
HETATM   41  C4  UNL     1       0.696  51.867 -14.453  1.00  0.00     0.046 C 
ENDBRANCH   1  38
BRANCH  33  42
HETATM   42  O9  UNL     1      -1.369  52.136 -10.627  1.00  0.00    -0.312 OA
BRANCH  42  43
HETATM   43  C33 UNL     1      -2.518  51.755 -10.001  1.00  0.00     0.262 C 
HETATM   44  O10 UNL     1      -2.578  51.297  -8.867  1.00  0.00    -0.265 OA
BRANCH  43  45
HETATM   45  C34 UNL     1      -3.724  51.913 -10.905  1.00  0.00     0.077 C 
HETATM   46  C35 UNL     1      -4.849  50.958 -10.521  1.00  0.00     0.020 C 
HETATM   47  C36 UNL     1      -4.189  53.364 -10.896  1.00  0.00     0.020 C 
ENDBRANCH  43  45
ENDBRANCH  42  43
ENDBRANCH  33  42
BRANCH  30  48
HETATM   48  O6  UNL     1       0.778  56.290  -3.974  1.00  0.00    -0.381 OA
HETATM   49  H40 UNL     1       0.097  56.728  -4.521  1.00  0.00     0.211 HD
ENDBRANCH  30  48
BRANCH  22  50
HETATM   50  O3  UNL     1      -1.317  52.891  -1.922  1.00  0.00    -0.389 OA
HETATM   51  H34 UNL     1      -0.696  52.216  -2.262  1.00  0.00     0.210 HD
ENDBRANCH  22  50
TORSDOF 7
ENDMDL
MODEL 3
REMARK minimizedAffinity -7.27302265
REMARK CNNscore 0.587645531
REMARK CNNaffinity 6.89631224
REMARK  7 active torsions:
REMARK  status: ('A' for Active; 'I' for Inactive)
REMARK    1  A    between atoms: C3_3  and  C5_5 
REMARK    2  A    between atoms: C24_26  and  O3_27 
REMARK    3  A    between atoms: C30_35  and  O6_36 
REMARK    4  A    between atoms: C31_38  and  O8_39 
REMARK    5  A    between atoms: C32_40  and  O9_41 
REMARK    6  A    between atoms: O9_41  and  C33_42 
REMARK    7  A    between atoms: C33_42  and  C34_44 
ROOT
HETATM    1  C5  UNL     1      -0.533  51.780 -11.724  1.00  0.00     0.160 C 
HETATM    2  O1  UNL     1      -0.305  51.287 -10.401  1.00  0.00    -0.342 OA
HETATM    3  C6  UNL     1       1.078  50.979 -10.147  1.00  0.00     0.196 C 
HETATM    4  C7  UNL     1       1.056  50.058  -8.896  1.00  0.00     0.104 C 
HETATM    5  C8  UNL     1       2.261  50.267  -7.983  1.00  0.00     0.139 C 
HETATM    6  C9  UNL     1       2.466  51.746  -7.627  1.00  0.00     0.065 C 
HETATM    7  C10 UNL     1       1.636  52.657  -8.538  1.00  0.00     0.131 C 
HETATM    8  C11 UNL     1       1.979  54.156  -8.447  1.00  0.00     0.059 C 
HETATM    9  C12 UNL     1       3.434  54.524  -8.599  1.00  0.00    -0.022 C 
HETATM   10  C13 UNL     1       4.050  55.067  -9.669  1.00  0.00    -0.087 C 
HETATM   11  C14 UNL     1       3.332  55.316 -10.976  1.00  0.00     0.043 C 
HETATM   12  C15 UNL     1       5.528  55.461  -9.732  1.00  0.00     0.041 C 
HETATM   13  C16 UNL     1       6.488  55.257  -8.525  1.00  0.00     0.008 C 
HETATM   14  C17 UNL     1       6.205  56.262  -7.400  1.00  0.00     0.014 C 
HETATM   15  C18 UNL     1       6.547  53.836  -8.000  1.00  0.00    -0.022 C 
HETATM   16  C19 UNL     1       6.741  52.757  -8.776  1.00  0.00    -0.003 C 
HETATM   17  C20 UNL     1       6.638  51.410  -8.271  1.00  0.00     0.008 C 
HETATM   18  C21 UNL     1       6.841  50.303  -9.002  1.00  0.00    -0.019 C 
HETATM   19  C22 UNL     1       7.374  50.220 -10.406  1.00  0.00     0.206 C 
HETATM   20  O2  UNL     1       7.685  48.821 -10.630  1.00  0.00    -0.375 OA
HETATM   21  C23 UNL     1       7.799  48.247  -9.303  1.00  0.00     0.194 C 
HETATM   22  C24 UNL     1       7.749  46.708  -9.329  1.00  0.00     0.179 C 
HETATM   23  C25 UNL     1       6.367  46.094  -9.278  1.00  0.00    -0.056 C 
HETATM   24  C26 UNL     1       6.306  44.593  -9.373  1.00  0.00     0.046 C 
HETATM   25  C27 UNL     1       5.255  46.837  -9.118  1.00  0.00    -0.004 C 
HETATM   26  C28 UNL     1       5.285  48.343  -8.997  1.00  0.00     0.150 C 
HETATM   27  C29 UNL     1       4.182  48.820  -8.064  1.00  0.00     0.270 C 
HETATM   28  O4  UNL     1       4.004  48.381  -6.936  1.00  0.00    -0.264 OA
HETATM   29  O5  UNL     1       3.427  49.772  -8.679  1.00  0.00    -0.315 OA
HETATM   30  C30 UNL     1       6.655  48.889  -8.520  1.00  0.00     0.128 C 
HETATM   31  O7  UNL     1       1.787  52.199  -9.879  1.00  0.00    -0.347 OA
HETATM   32  C31 UNL     1       1.730  50.258 -11.384  1.00  0.00     0.210 C 
HETATM   33  C32 UNL     1       0.651  49.574 -12.247  1.00  0.00     0.172 C 
HETATM   34  C37 UNL     1      -0.430  50.588 -12.709  1.00  0.00     0.047 C 
HETATM   35  C38 UNL     1      -0.157  51.054 -14.142  1.00  0.00     0.015 C 
ENDROOT
BRANCH  32  36
HETATM   36  O8  UNL     1       2.450  51.175 -12.235  1.00  0.00    -0.387 OA
HETATM   37  H42 UNL     1       2.997  50.646 -12.840  1.00  0.00     0.210 HD
ENDBRANCH  32  36
BRANCH   1  38
HETATM   38  C3  UNL     1      -1.906  52.461 -11.755  1.00  0.00    -0.059 C 
HETATM   39  C2  UNL     1      -2.283  53.370 -10.828  1.00  0.00    -0.026 C 
HETATM   40  C1  UNL     1      -3.589  54.094 -10.744  1.00  0.00     0.036 C 
HETATM   41  C4  UNL     1      -2.783  52.096 -12.925  1.00  0.00     0.046 C 
ENDBRANCH   1  38
BRANCH  33  42
HETATM   42  O9  UNL     1       0.038  48.515 -11.478  1.00  0.00    -0.312 OA
BRANCH  42  43
HETATM   43  C33 UNL     1      -0.793  47.684 -12.166  1.00  0.00     0.262 C 
HETATM   44  O10 UNL     1      -1.966  47.475 -11.881  1.00  0.00    -0.265 OA
BRANCH  43  45
HETATM   45  C34 UNL     1      -0.073  46.994 -13.306  1.00  0.00     0.077 C 
HETATM   46  C35 UNL     1       0.358  45.579 -12.932  1.00  0.00     0.020 C 
HETATM   47  C36 UNL     1      -0.951  47.004 -14.552  1.00  0.00     0.020 C 
ENDBRANCH  43  45
ENDBRANCH  42  43
ENDBRANCH  33  42
BRANCH  30  48
HETATM   48  O6  UNL     1       6.899  48.771  -7.122  1.00  0.00    -0.381 OA
HETATM   49  H40 UNL     1       6.178  48.258  -6.709  1.00  0.00     0.211 HD
ENDBRANCH  30  48
BRANCH  22  50
HETATM   50  O3  UNL     1       8.416  46.234 -10.501  1.00  0.00    -0.389 OA
HETATM   51  H34 UNL     1       8.273  46.928 -11.174  1.00  0.00     0.210 HD
ENDBRANCH  22  50
TORSDOF 7
ENDMDL
MODEL 4
REMARK minimizedAffinity -7.55135298
REMARK CNNscore 0.434171498
REMARK CNNaffinity 6.91574144
REMARK  7 active torsions:
REMARK  status: ('A' for Active; 'I' for Inactive)
REMARK    1  A    between atoms: C3_3  and  C5_5 
REMARK    2  A    between atoms: C24_26  and  O3_27 
REMARK    3  A    between atoms: C30_35  and  O6_36 
REMARK    4  A    between atoms: C31_38  and  O8_39 
REMARK    5  A    between atoms: C32_40  and  O9_41 
REMARK    6  A    between atoms: O9_41  and  C33_42 
REMARK    7  A    between atoms: C33_42  and  C34_44 
ROOT
HETATM    1  C5  UNL     1       2.739  51.967  -9.949  1.00  0.00     0.160 C 
HETATM    2  O1  UNL     1       2.777  53.393 -10.051  1.00  0.00    -0.342 OA
HETATM    3  C6  UNL     1       2.827  54.047  -8.770  1.00  0.00     0.196 C 
HETATM    4  C7  UNL     1       2.401  55.513  -9.055  1.00  0.00     0.104 C 
HETATM    5  C8  UNL     1       3.121  56.524  -8.168  1.00  0.00     0.139 C 
HETATM    6  C9  UNL     1       4.644  56.334  -8.194  1.00  0.00     0.065 C 
HETATM    7  C10 UNL     1       5.025  54.986  -8.817  1.00  0.00     0.131 C 
HETATM    8  C11 UNL     1       6.500  54.581  -8.640  1.00  0.00     0.059 C 
HETATM    9  C12 UNL     1       7.048  54.631  -7.235  1.00  0.00    -0.022 C 
HETATM   10  C13 UNL     1       7.293  53.602  -6.397  1.00  0.00    -0.087 C 
HETATM   11  C14 UNL     1       6.948  52.173  -6.749  1.00  0.00     0.043 C 
HETATM   12  C15 UNL     1       7.900  53.728  -4.998  1.00  0.00     0.041 C 
HETATM   13  C16 UNL     1       8.296  55.105  -4.391  1.00  0.00     0.008 C 
HETATM   14  C17 UNL     1       9.557  55.674  -5.055  1.00  0.00     0.014 C 
HETATM   15  C18 UNL     1       7.174  56.124  -4.357  1.00  0.00    -0.022 C 
HETATM   16  C19 UNL     1       5.948  55.876  -3.868  1.00  0.00    -0.003 C 
HETATM   17  C20 UNL     1       4.860  56.814  -3.992  1.00  0.00     0.008 C 
HETATM   18  C21 UNL     1       3.625  56.619  -3.504  1.00  0.00    -0.019 C 
HETATM   19  C22 UNL     1       3.164  55.507  -2.602  1.00  0.00     0.206 C 
HETATM   20  O2  UNL     1       1.852  55.901  -2.124  1.00  0.00    -0.375 OA
HETATM   21  C23 UNL     1       1.796  57.337  -2.331  1.00  0.00     0.194 C 
HETATM   22  C24 UNL     1       0.359  57.881  -2.241  1.00  0.00     0.179 C 
HETATM   23  C25 UNL     1      -0.437  57.849  -3.528  1.00  0.00    -0.056 C 
HETATM   24  C26 UNL     1      -1.865  58.315  -3.433  1.00  0.00     0.046 C 
HETATM   25  C27 UNL     1       0.104  57.464  -4.700  1.00  0.00    -0.004 C 
HETATM   26  C28 UNL     1       1.540  57.013  -4.831  1.00  0.00     0.150 C 
HETATM   27  C29 UNL     1       2.103  57.426  -6.183  1.00  0.00     0.270 C 
HETATM   28  O4  UNL     1       2.051  58.565  -6.626  1.00  0.00    -0.264 OA
HETATM   29  O5  UNL     1       2.635  56.346  -6.819  1.00  0.00    -0.315 OA
HETATM   30  C30 UNL     1       2.452  57.543  -3.695  1.00  0.00     0.128 C 
HETATM   31  O7  UNL     1       4.171  53.987  -8.266  1.00  0.00    -0.347 OA
HETATM   32  C31 UNL     1       1.855  53.351  -7.746  1.00  0.00     0.210 C 
HETATM   33  C32 UNL     1       0.737  52.592  -8.485  1.00  0.00     0.172 C 
HETATM   34  C37 UNL     1       1.321  51.553  -9.481  1.00  0.00     0.047 C 
HETATM   35  C38 UNL     1       1.310  50.150  -8.866  1.00  0.00     0.015 C 
ENDROOT
BRANCH  32  36
HETATM   36  O8  UNL     1       2.539  52.402  -6.900  1.00  0.00    -0.387 OA
HETATM   37  H42 UNL     1       1.943  52.180  -6.166  1.00  0.00     0.210 HD
ENDBRANCH  32  36
BRANCH   1  38
HETATM   38  C3  UNL     1       3.111  51.375 -11.314  1.00  0.00    -0.059 C 
HETATM   39  C2  UNL     1       2.609  51.859 -12.472  1.00  0.00    -0.026 C 
HETATM   40  C1  UNL     1       2.885  51.368 -13.857  1.00  0.00     0.036 C 
HETATM   41  C4  UNL     1       4.124  50.260 -11.281  1.00  0.00     0.046 C 
ENDBRANCH   1  38
BRANCH  33  42
HETATM   42  O9  UNL     1      -0.087  53.545  -9.194  1.00  0.00    -0.312 OA
BRANCH  42  43
HETATM   43  C33 UNL     1      -1.390  53.190  -9.372  1.00  0.00     0.262 C 
HETATM   44  O10 UNL     1      -1.956  52.282  -8.775  1.00  0.00    -0.265 OA
BRANCH  43  45
HETATM   45  C34 UNL     1      -2.053  54.025 -10.449  1.00  0.00     0.077 C 
HETATM   46  C35 UNL     1      -3.575  53.931 -10.382  1.00  0.00     0.020 C 
HETATM   47  C36 UNL     1      -1.573  55.467 -10.353  1.00  0.00     0.020 C 
ENDBRANCH  43  45
ENDBRANCH  42  43
ENDBRANCH  33  42
BRANCH  30  48
HETATM   48  O6  UNL     1       2.865  58.899  -3.833  1.00  0.00    -0.381 OA
HETATM   49  H40 UNL     1       2.403  59.302  -4.594  1.00  0.00     0.211 HD
ENDBRANCH  30  48
BRANCH  22  50
HETATM   50  O3  UNL     1      -0.360  57.155  -1.242  1.00  0.00    -0.389 OA
HETATM   51  H34 UNL     1       0.025  56.256  -1.253  1.00  0.00     0.210 HD
ENDBRANCH  22  50
TORSDOF 7
ENDMDL
MODEL 5
REMARK minimizedAffinity -6.93112326
REMARK CNNscore 0.368571311
REMARK CNNaffinity 6.52807188
REMARK  7 active torsions:
REMARK  status: ('A' for Active; 'I' for Inactive)
REMARK    1  A    between atoms: C3_3  and  C5_5 
REMARK    2  A    between atoms: C24_26  and  O3_27 
REMARK    3  A    between atoms: C30_35  and  O6_36 
REMARK    4  A    between atoms: C31_38  and  O8_39 
REMARK    5  A    between atoms: C32_40  and  O9_41 
REMARK    6  A    between atoms: O9_41  and  C33_42 
REMARK    7  A    between atoms: C33_42  and  C34_44 
ROOT
HETATM    1  C5  UNL     1       0.270  55.428  -2.607  1.00  0.00     0.160 C 
HETATM    2  O1  UNL     1       0.590  54.094  -3.011  1.00  0.00    -0.342 OA
HETATM    3  C6  UNL     1       0.416  53.879  -4.423  1.00  0.00     0.196 C 
HETATM    4  C7  UNL     1       0.352  52.335  -4.585  1.00  0.00     0.104 C 
HETATM    5  C8  UNL     1       0.982  51.847  -5.887  1.00  0.00     0.139 C 
HETATM    6  C9  UNL     1       2.397  52.405  -6.088  1.00  0.00     0.065 C 
HETATM    7  C10 UNL     1       2.680  53.563  -5.124  1.00  0.00     0.131 C 
HETATM    8  C11 UNL     1       3.958  54.366  -5.429  1.00  0.00     0.059 C 
HETATM    9  C12 UNL     1       4.114  54.871  -6.843  1.00  0.00    -0.022 C 
HETATM   10  C13 UNL     1       3.940  56.126  -7.305  1.00  0.00    -0.087 C 
HETATM   11  C14 UNL     1       3.449  57.252  -6.424  1.00  0.00     0.043 C 
HETATM   12  C15 UNL     1       4.167  56.575  -8.751  1.00  0.00     0.041 C 
HETATM   13  C16 UNL     1       4.629  55.585  -9.858  1.00  0.00     0.008 C 
HETATM   14  C17 UNL     1       6.102  55.190  -9.686  1.00  0.00     0.014 C 
HETATM   15  C18 UNL     1       3.741  54.368 -10.026  1.00  0.00    -0.022 C 
HETATM   16  C19 UNL     1       2.406  54.424 -10.155  1.00  0.00    -0.003 C 
HETATM   17  C20 UNL     1       1.577  53.245 -10.157  1.00  0.00     0.008 C 
HETATM   18  C21 UNL     1       0.243  53.250 -10.302  1.00  0.00    -0.019 C 
HETATM   19  C22 UNL     1      -0.633  54.420 -10.660  1.00  0.00     0.206 C 
HETATM   20  O2  UNL     1      -1.931  53.860 -10.984  1.00  0.00    -0.375 OA
HETATM   21  C23 UNL     1      -1.672  52.462 -11.278  1.00  0.00     0.194 C 
HETATM   22  C24 UNL     1      -2.959  51.619 -11.273  1.00  0.00     0.179 C 
HETATM   23  C25 UNL     1      -3.379  51.068  -9.927  1.00  0.00    -0.056 C 
HETATM   24  C26 UNL     1      -4.673  50.300  -9.901  1.00  0.00     0.046 C 
HETATM   25  C27 UNL     1      -2.626  51.219  -8.821  1.00  0.00    -0.004 C 
HETATM   26  C28 UNL     1      -1.311  51.966  -8.820  1.00  0.00     0.150 C 
HETATM   27  C29 UNL     1      -0.346  51.334  -7.827  1.00  0.00     0.270 C 
HETATM   28  O4  UNL     1      -0.073  50.142  -7.802  1.00  0.00    -0.264 OA
HETATM   29  O5  UNL     1       0.132  52.280  -6.972  1.00  0.00    -0.315 OA
HETATM   30  C30 UNL     1      -0.653  52.042 -10.221  1.00  0.00     0.128 C 
HETATM   31  O7  UNL     1       1.546  54.425  -5.123  1.00  0.00    -0.347 OA
HETATM   32  C31 UNL     1      -0.900  54.569  -4.940  1.00  0.00     0.210 C 
HETATM   33  C32 UNL     1      -1.901  54.766  -3.784  1.00  0.00     0.172 C 
HETATM   34  C37 UNL     1      -1.271  55.582  -2.623  1.00  0.00     0.047 C 
HETATM   35  C38 UNL     1      -1.697  57.052  -2.703  1.00  0.00     0.015 C 
ENDROOT
BRANCH  32  36
HETATM   36  O8  UNL     1      -0.647  55.866  -5.521  1.00  0.00    -0.387 OA
HETATM   37  H42 UNL     1      -1.446  56.132  -6.005  1.00  0.00     0.210 HD
ENDBRANCH  32  36
BRANCH   1  38
HETATM   38  C3  UNL     1       0.878  55.670  -1.220  1.00  0.00    -0.059 C 
HETATM   39  C2  UNL     1       0.495  54.967  -0.130  1.00  0.00    -0.026 C 
HETATM   40  C1  UNL     1       1.001  55.112   1.269  1.00  0.00     0.036 C 
HETATM   41  C4  UNL     1       1.976  56.701  -1.165  1.00  0.00     0.046 C 
ENDBRANCH   1  38
BRANCH  33  42
HETATM   42  O9  UNL     1      -2.323  53.470  -3.303  1.00  0.00    -0.312 OA
BRANCH  42  43
HETATM   43  C33 UNL     1      -3.060  53.470  -2.158  1.00  0.00     0.262 C 
HETATM   44  O10 UNL     1      -2.593  53.449  -1.026  1.00  0.00    -0.265 OA
BRANCH  43  45
HETATM   45  C34 UNL     1      -4.546  53.441  -2.451  1.00  0.00     0.077 C 
HETATM   46  C35 UNL     1      -5.378  53.564  -1.178  1.00  0.00     0.020 C 
HETATM   47  C36 UNL     1      -4.894  54.530  -3.459  1.00  0.00     0.020 C 
ENDBRANCH  43  45
ENDBRANCH  42  43
ENDBRANCH  33  42
BRANCH  30  48
HETATM   48  O6  UNL     1       0.019  50.859 -10.639  1.00  0.00    -0.381 OA
HETATM   49  H40 UNL     1      -0.144  50.146  -9.991  1.00  0.00     0.211 HD
ENDBRANCH  30  48
BRANCH  22  50
HETATM   50  O3  UNL     1      -4.035  52.395 -11.804  1.00  0.00    -0.389 OA
HETATM   51  H34 UNL     1      -3.829  53.319 -11.558  1.00  0.00     0.210 HD
ENDBRANCH  22  50
TORSDOF 7
ENDMDL
MODEL 6
REMARK minimizedAffinity -7.18799257
REMARK CNNscore 0.345235795
REMARK CNNaffinity 7.29590034
REMARK  7 active torsions:
REMARK  status: ('A' for Active; 'I' for Inactive)
REMARK    1  A    between atoms: C3_3  and  C5_5 
REMARK    2  A    between atoms: C24_26  and  O3_27 
REMARK    3  A    between atoms: C30_35  and  O6_36 
REMARK    4  A    between atoms: C31_38  and  O8_39 
REMARK    5  A    between atoms: C32_40  and  O9_41 
REMARK    6  A    between atoms: O9_41  and  C33_42 
REMARK    7  A    between atoms: C33_42  and  C34_44 
ROOT
HETATM    1  C5  UNL     1       4.708  53.468  -8.651  1.00  0.00     0.160 C 
HETATM    2  O1  UNL     1       4.497  53.349 -10.060  1.00  0.00    -0.342 OA
HETATM    3  C6  UNL     1       3.577  52.296 -10.403  1.00  0.00     0.196 C 
HETATM    4  C7  UNL     1       3.831  52.023 -11.911  1.00  0.00     0.104 C 
HETATM    5  C8  UNL     1       2.563  51.634 -12.667  1.00  0.00     0.139 C 
HETATM    6  C9  UNL     1       1.422  52.633 -12.431  1.00  0.00     0.065 C 
HETATM    7  C10 UNL     1       1.728  53.557 -11.246  1.00  0.00     0.131 C 
HETATM    8  C11 UNL     1       0.539  54.403 -10.756  1.00  0.00     0.059 C 
HETATM    9  C12 UNL     1      -0.742  53.660 -10.465  1.00  0.00    -0.022 C 
HETATM   10  C13 UNL     1      -1.261  53.330  -9.264  1.00  0.00    -0.087 C 
HETATM   11  C14 UNL     1      -0.537  53.606  -7.966  1.00  0.00     0.043 C 
HETATM   12  C15 UNL     1      -2.597  52.616  -9.046  1.00  0.00     0.041 C 
HETATM   13  C16 UNL     1      -3.505  52.184 -10.233  1.00  0.00     0.008 C 
HETATM   14  C17 UNL     1      -4.189  53.391 -10.891  1.00  0.00     0.014 C 
HETATM   15  C18 UNL     1      -2.823  51.302 -11.259  1.00  0.00    -0.022 C 
HETATM   16  C19 UNL     1      -2.117  50.201 -10.953  1.00  0.00    -0.003 C 
HETATM   17  C20 UNL     1      -1.353  49.472 -11.935  1.00  0.00     0.008 C 
HETATM   18  C21 UNL     1      -0.648  48.359 -11.680  1.00  0.00    -0.019 C 
HETATM   19  C22 UNL     1      -0.640  47.553 -10.410  1.00  0.00     0.206 C 
HETATM   20  O2  UNL     1       0.030  46.308 -10.735  1.00  0.00    -0.375 OA
HETATM   21  C23 UNL     1      -0.047  46.209 -12.181  1.00  0.00     0.194 C 
HETATM   22  C24 UNL     1       0.930  45.160 -12.744  1.00  0.00     0.179 C 
HETATM   23  C25 UNL     1       2.330  45.655 -13.035  1.00  0.00    -0.056 C 
HETATM   24  C26 UNL     1       3.309  44.620 -13.521  1.00  0.00     0.046 C 
HETATM   25  C27 UNL     1       2.677  46.950 -12.906  1.00  0.00    -0.004 C 
HETATM   26  C28 UNL     1       1.710  48.016 -12.443  1.00  0.00     0.150 C 
HETATM   27  C29 UNL     1       2.013  49.338 -13.131  1.00  0.00     0.270 C 
HETATM   28  O4  UNL     1       2.125  49.469 -14.343  1.00  0.00    -0.264 OA
HETATM   29  O5  UNL     1       2.163  50.325 -12.205  1.00  0.00    -0.315 OA
HETATM   30  C30 UNL     1       0.225  47.630 -12.667  1.00  0.00     0.128 C 
HETATM   31  O7  UNL     1       2.235  52.758 -10.181  1.00  0.00    -0.347 OA
HETATM   32  C31 UNL     1       3.839  51.013  -9.531  1.00  0.00     0.210 C 
HETATM   33  C32 UNL     1       5.287  51.001  -9.002  1.00  0.00     0.172 C 
HETATM   34  C37 UNL     1       5.605  52.289  -8.195  1.00  0.00     0.047 C 
HETATM   35  C38 UNL     1       5.484  52.028  -6.690  1.00  0.00     0.015 C 
ENDROOT
BRANCH  32  36
HETATM   36  O8  UNL     1       2.959  50.939  -8.389  1.00  0.00    -0.387 OA
HETATM   37  H42 UNL     1       3.022  50.039  -8.028  1.00  0.00     0.210 HD
ENDBRANCH  32  36
BRANCH   1  38
HETATM   38  C3  UNL     1       5.338  54.837  -8.372  1.00  0.00    -0.059 C 
HETATM   39  C2  UNL     1       4.798  55.716  -7.498  1.00  0.00    -0.026 C 
HETATM   40  C1  UNL     1       5.308  57.077  -7.146  1.00  0.00     0.036 C 
HETATM   41  C4  UNL     1       6.634  55.112  -9.090  1.00  0.00     0.046 C 
ENDBRANCH   1  38
BRANCH  33  42
HETATM   42  O9  UNL     1       6.194  50.883 -10.121  1.00  0.00    -0.312 OA
BRANCH  42  43
HETATM   43  C33 UNL     1       6.969  49.764 -10.145  1.00  0.00     0.262 C 
HETATM   44  O10 UNL     1       7.451  49.268 -11.155  1.00  0.00    -0.265 OA
BRANCH  43  45
HETATM   45  C34 UNL     1       7.122  49.162  -8.762  1.00  0.00     0.077 C 
HETATM   46  C35 UNL     1       6.870  47.657  -8.768  1.00  0.00     0.020 C 
HETATM   47  C36 UNL     1       8.499  49.501  -8.202  1.00  0.00     0.020 C 
ENDBRANCH  43  45
ENDBRANCH  42  43
ENDBRANCH  33  42
BRANCH  30  48
HETATM   48  O6  UNL     1      -0.245  47.784 -14.002  1.00  0.00    -0.381 OA
HETATM   49  H40 UNL     1       0.504  48.017 -14.585  1.00  0.00     0.211 HD
ENDBRANCH  30  48
BRANCH  22  50
HETATM   50  O3  UNL     1       1.014  44.058 -11.837  1.00  0.00    -0.389 OA
HETATM   51  H34 UNL     1       0.873  44.446 -10.951  1.00  0.00     0.210 HD
ENDBRANCH  22  50
TORSDOF 7
ENDMDL
MODEL 7
REMARK minimizedAffinity -7.60183477
REMARK CNNscore 0.341670781
REMARK CNNaffinity 6.07904673
REMARK  7 active torsions:
REMARK  status: ('A' for Active; 'I' for Inactive)
REMARK    1  A    between atoms: C3_3  and  C5_5 
REMARK    2  A    between atoms: C24_26  and  O3_27 
REMARK    3  A    between atoms: C30_35  and  O6_36 
REMARK    4  A    between atoms: C31_38  and  O8_39 
REMARK    5  A    between atoms: C32_40  and  O9_41 
REMARK    6  A    between atoms: O9_41  and  C33_42 
REMARK    7  A    between atoms: C33_42  and  C34_44 
ROOT
HETATM    1  C5  UNL     1     -16.864  45.778 -20.507  1.00  0.00     0.160 C 
HETATM    2  O1  UNL     1     -16.549  44.415 -20.802  1.00  0.00    -0.342 OA
HETATM    3  C6  UNL     1     -17.010  44.000 -22.101  1.00  0.00     0.196 C 
HETATM    4  C7  UNL     1     -17.002  42.448 -22.048  1.00  0.00     0.104 C 
HETATM    5  C8  UNL     1     -16.638  41.810 -23.386  1.00  0.00     0.139 C 
HETATM    6  C9  UNL     1     -15.342  42.390 -23.968  1.00  0.00     0.065 C 
HETATM    7  C10 UNL     1     -14.936  43.679 -23.246  1.00  0.00     0.131 C 
HETATM    8  C11 UNL     1     -13.813  44.482 -23.928  1.00  0.00     0.059 C 
HETATM    9  C12 UNL     1     -14.002  44.793 -25.392  1.00  0.00    -0.022 C 
HETATM   10  C13 UNL     1     -14.357  45.965 -25.958  1.00  0.00    -0.087 C 
HETATM   11  C14 UNL     1     -14.722  47.182 -25.137  1.00  0.00     0.043 C 
HETATM   12  C15 UNL     1     -14.481  46.219 -27.462  1.00  0.00     0.041 C 
HETATM   13  C16 UNL     1     -14.203  45.105 -28.512  1.00  0.00     0.008 C 
HETATM   14  C17 UNL     1     -12.704  44.794 -28.625  1.00  0.00     0.014 C 
HETATM   15  C18 UNL     1     -15.021  43.842 -28.322  1.00  0.00    -0.022 C 
HETATM   16  C19 UNL     1     -16.353  43.828 -28.155  1.00  0.00    -0.003 C 
HETATM   17  C20 UNL     1     -17.080  42.629 -27.823  1.00  0.00     0.008 C 
HETATM   18  C21 UNL     1     -18.411  42.563 -27.664  1.00  0.00    -0.019 C 
HETATM   19  C22 UNL     1     -19.422  43.637 -27.961  1.00  0.00     0.206 C 
HETATM   20  O2  UNL     1     -20.718  42.987 -27.913  1.00  0.00    -0.375 OA
HETATM   21  C23 UNL     1     -20.433  41.574 -28.080  1.00  0.00     0.194 C 
HETATM   22  C24 UNL     1     -21.628  40.689 -27.680  1.00  0.00     0.179 C 
HETATM   23  C25 UNL     1     -21.708  40.314 -26.216  1.00  0.00    -0.056 C 
HETATM   24  C26 UNL     1     -22.909  39.506 -25.805  1.00  0.00     0.046 C 
HETATM   25  C27 UNL     1     -20.744  40.645 -25.335  1.00  0.00    -0.004 C 
HETATM   26  C28 UNL     1     -19.515  41.435 -25.722  1.00  0.00     0.150 C 
HETATM   27  C29 UNL     1     -18.317  40.984 -24.899  1.00  0.00     0.270 C 
HETATM   28  O4  UNL     1     -17.964  39.818 -24.787  1.00  0.00    -0.264 OA
HETATM   29  O5  UNL     1     -17.730  42.056 -24.299  1.00  0.00    -0.315 OA
HETATM   30  C30 UNL     1     -19.183  41.343 -27.234  1.00  0.00     0.128 C 
HETATM   31  O7  UNL     1     -16.099  44.489 -23.099  1.00  0.00    -0.347 OA
HETATM   32  C31 UNL     1     -18.452  44.561 -22.391  1.00  0.00     0.210 C 
HETATM   33  C32 UNL     1     -19.189  44.876 -21.075  1.00  0.00     0.172 C 
HETATM   34  C37 UNL     1     -18.379  45.868 -20.197  1.00  0.00     0.047 C 
HETATM   35  C38 UNL     1     -18.912  47.295 -20.363  1.00  0.00     0.015 C 
ENDROOT
BRANCH  32  36
HETATM   36  O8  UNL     1     -18.419  45.775 -23.173  1.00  0.00    -0.387 OA
HETATM   37  H42 UNL     1     -19.321  45.941 -23.495  1.00  0.00     0.210 HD
ENDBRANCH  32  36
BRANCH   1  38
HETATM   38  C3  UNL     1     -15.988  46.232 -19.333  1.00  0.00    -0.059 C 
HETATM   39  C2  UNL     1     -15.736  47.536 -19.082  1.00  0.00    -0.026 C 
HETATM   40  C1  UNL     1     -14.898  48.104 -17.981  1.00  0.00     0.036 C 
HETATM   41  C4  UNL     1     -15.480  45.129 -18.441  1.00  0.00     0.046 C 
ENDBRANCH   1  38
BRANCH  33  42
HETATM   42  O9  UNL     1     -19.407  43.643 -20.353  1.00  0.00    -0.312 OA
BRANCH  42  43
HETATM   43  C33 UNL     1     -20.700  43.225 -20.263  1.00  0.00     0.262 C 
HETATM   44  O10 UNL     1     -21.494  43.202 -21.195  1.00  0.00    -0.265 OA
BRANCH  43  45
HETATM   45  C34 UNL     1     -21.064  42.840 -18.844  1.00  0.00     0.077 C 
HETATM   46  C35 UNL     1     -20.709  43.941 -17.849  1.00  0.00     0.020 C 
HETATM   47  C36 UNL     1     -22.540  42.470 -18.772  1.00  0.00     0.020 C 
ENDBRANCH  43  45
ENDBRANCH  42  43
ENDBRANCH  33  42
BRANCH  30  48
HETATM   48  O6  UNL     1     -18.539  40.140 -27.640  1.00  0.00    -0.381 OA
HETATM   49  H40 UNL     1     -18.508  39.518 -26.887  1.00  0.00     0.211 HD
ENDBRANCH  30  48
BRANCH  22  50
HETATM   50  O3  UNL     1     -22.844  41.343 -28.050  1.00  0.00    -0.389 OA
HETATM   51  H34 UNL     1     -22.654  42.299 -27.974  1.00  0.00     0.210 HD
ENDBRANCH  22  50
TORSDOF 7
ENDMDL
MODEL 8
REMARK minimizedAffinity -7.41975212
REMARK CNNscore 0.334621459
REMARK CNNaffinity 6.92818451
REMARK  7 active torsions:
REMARK  status: ('A' for Active; 'I' for Inactive)
REMARK    1  A    between atoms: C3_3  and  C5_5 
REMARK    2  A    between atoms: C24_26  and  O3_27 
REMARK    3  A    between atoms: C30_35  and  O6_36 
REMARK    4  A    between atoms: C31_38  and  O8_39 
REMARK    5  A    between atoms: C32_40  and  O9_41 
REMARK    6  A    between atoms: O9_41  and  C33_42 
REMARK    7  A    between atoms: C33_42  and  C34_44 
ROOT
HETATM    1  C5  UNL     1       2.578  51.502 -13.878  1.00  0.00     0.160 C 
HETATM    2  O1  UNL     1       1.268  51.728 -13.352  1.00  0.00    -0.342 OA
HETATM    3  C6  UNL     1       1.206  51.589 -11.921  1.00  0.00     0.196 C 
HETATM    4  C7  UNL     1      -0.304  51.408 -11.604  1.00  0.00     0.104 C 
HETATM    5  C8  UNL     1      -0.714  52.044 -10.279  1.00  0.00     0.139 C 
HETATM    6  C9  UNL     1      -0.259  53.506 -10.175  1.00  0.00     0.065 C 
HETATM    7  C10 UNL     1       0.772  53.845 -11.257  1.00  0.00     0.131 C 
HETATM    8  C11 UNL     1       1.492  55.194 -11.071  1.00  0.00     0.059 C 
HETATM    9  C12 UNL     1       2.117  55.442  -9.720  1.00  0.00    -0.022 C 
HETATM   10  C13 UNL     1       3.421  55.387  -9.381  1.00  0.00    -0.087 C 
HETATM   11  C14 UNL     1       4.493  54.955 -10.356  1.00  0.00     0.043 C 
HETATM   12  C15 UNL     1       3.987  55.702  -7.994  1.00  0.00     0.041 C 
HETATM   13  C16 UNL     1       3.075  56.124  -6.807  1.00  0.00     0.008 C 
HETATM   14  C17 UNL     1       2.543  57.553  -6.982  1.00  0.00     0.014 C 
HETATM   15  C18 UNL     1       1.958  55.148  -6.493  1.00  0.00    -0.022 C 
HETATM   16  C19 UNL     1       2.138  53.827  -6.331  1.00  0.00    -0.003 C 
HETATM   17  C20 UNL     1       1.038  52.907  -6.188  1.00  0.00     0.008 C 
HETATM   18  C21 UNL     1       1.169  51.583  -6.006  1.00  0.00    -0.019 C 
HETATM   19  C22 UNL     1       2.436  50.818  -5.742  1.00  0.00     0.206 C 
HETATM   20  O2  UNL     1       2.021  49.492  -5.326  1.00  0.00    -0.375 OA
HETATM   21  C23 UNL     1       0.642  49.650  -4.901  1.00  0.00     0.194 C 
HETATM   22  C24 UNL     1      -0.088  48.299  -4.785  1.00  0.00     0.179 C 
HETATM   23  C25 UNL     1      -0.730  47.787  -6.057  1.00  0.00    -0.056 C 
HETATM   24  C26 UNL     1      -1.386  46.436  -5.968  1.00  0.00     0.046 C 
HETATM   25  C27 UNL     1      -0.750  48.509  -7.193  1.00  0.00    -0.004 C 
HETATM   26  C28 UNL     1      -0.120  49.878  -7.307  1.00  0.00     0.150 C 
HETATM   27  C29 UNL     1      -0.923  50.752  -8.260  1.00  0.00     0.270 C 
HETATM   28  O4  UNL     1      -2.131  50.928  -8.172  1.00  0.00    -0.264 OA
HETATM   29  O5  UNL     1      -0.108  51.273  -9.218  1.00  0.00    -0.315 OA
HETATM   30  C30 UNL     1       0.037  50.592  -5.940  1.00  0.00     0.128 C 
HETATM   31  O7  UNL     1       1.722  52.785 -11.312  1.00  0.00    -0.347 OA
HETATM   32  C31 UNL     1       2.051  50.353 -11.438  1.00  0.00     0.210 C 
HETATM   33  C32 UNL     1       2.217  49.329 -12.578  1.00  0.00     0.172 C 
HETATM   34  C37 UNL     1       2.861  49.979 -13.832  1.00  0.00     0.047 C 
HETATM   35  C38 UNL     1       4.362  49.676 -13.888  1.00  0.00     0.015 C 
ENDROOT
BRANCH  32  36
HETATM   36  O8  UNL     1       3.372  50.731 -10.997  1.00  0.00    -0.387 OA
HETATM   37  H42 UNL     1       3.750  49.973 -10.519  1.00  0.00     0.210 HD
ENDBRANCH  32  36
BRANCH   1  38
HETATM   38  C3  UNL     1       2.633  52.075 -15.299  1.00  0.00    -0.059 C 
HETATM   39  C2  UNL     1       1.546  52.120 -16.102  1.00  0.00    -0.026 C 
HETATM   40  C1  UNL     1       1.471  52.643 -17.501  1.00  0.00     0.036 C 
HETATM   41  C4  UNL     1       3.964  52.643 -15.717  1.00  0.00     0.046 C 
ENDBRANCH   1  38
BRANCH  33  42
HETATM   42  O9  UNL     1       0.920  48.787 -12.915  1.00  0.00    -0.312 OA
BRANCH  42  43
HETATM   43  C33 UNL     1       0.787  48.301 -14.180  1.00  0.00     0.262 C 
HETATM   44  O10 UNL     1       1.440  47.375 -14.646  1.00  0.00    -0.265 OA
BRANCH  43  45
HETATM   45  C34 UNL     1      -0.238  49.085 -14.974  1.00  0.00     0.077 C 
HETATM   46  C35 UNL     1      -0.062  48.888 -16.477  1.00  0.00     0.020 C 
HETATM   47  C36 UNL     1      -1.642  48.709 -14.517  1.00  0.00     0.020 C 
ENDBRANCH  43  45
ENDBRANCH  42  43
ENDBRANCH  33  42
BRANCH  30  48
HETATM   48  O6  UNL     1      -1.152  51.181  -5.425  1.00  0.00    -0.381 OA
HETATM   49  H40 UNL     1      -1.908  50.938  -5.994  1.00  0.00     0.211 HD
ENDBRANCH  30  48
BRANCH  22  50
HETATM   50  O3  UNL     1       0.823  47.309  -4.303  1.00  0.00    -0.389 OA
HETATM   51  H34 UNL     1       1.698  47.579  -4.646  1.00  0.00     0.210 HD
ENDBRANCH  22  50
TORSDOF 7
ENDMDL
MODEL 9
REMARK minimizedAffinity -6.99877644
REMARK CNNscore 0.32566148
REMARK CNNaffinity 6.39157629
REMARK  7 active torsions:
REMARK  status: ('A' for Active; 'I' for Inactive)
REMARK    1  A    between atoms: C3_3  and  C5_5 
REMARK    2  A    between atoms: C24_26  and  O3_27 
REMARK    3  A    between atoms: C30_35  and  O6_36 
REMARK    4  A    between atoms: C31_38  and  O8_39 
REMARK    5  A    between atoms: C32_40  and  O9_41 
REMARK    6  A    between atoms: O9_41  and  C33_42 
REMARK    7  A    between atoms: C33_42  and  C34_44 
ROOT
HETATM    1  C5  UNL     1     -10.921  46.480 -24.808  1.00  0.00     0.160 C 
HETATM    2  O1  UNL     1     -12.137  47.234 -24.782  1.00  0.00    -0.342 OA
HETATM    3  C6  UNL     1     -13.311  46.404 -24.721  1.00  0.00     0.196 C 
HETATM    4  C7  UNL     1     -14.476  47.332 -25.162  1.00  0.00     0.104 C 
HETATM    5  C8  UNL     1     -15.785  47.026 -24.438  1.00  0.00     0.139 C 
HETATM    6  C9  UNL     1     -15.606  46.983 -22.915  1.00  0.00     0.065 C 
HETATM    7  C10 UNL     1     -14.124  46.914 -22.531  1.00  0.00     0.131 C 
HETATM    8  C11 UNL     1     -13.848  46.590 -21.051  1.00  0.00     0.059 C 
HETATM    9  C12 UNL     1     -14.546  45.377 -20.486  1.00  0.00    -0.022 C 
HETATM   10  C13 UNL     1     -14.024  44.162 -20.222  1.00  0.00    -0.087 C 
HETATM   11  C14 UNL     1     -12.595  43.804 -20.561  1.00  0.00     0.043 C 
HETATM   12  C15 UNL     1     -14.786  42.990 -19.600  1.00  0.00     0.041 C 
HETATM   13  C16 UNL     1     -16.288  43.098 -19.207  1.00  0.00     0.008 C 
HETATM   14  C17 UNL     1     -16.485  43.968 -17.958  1.00  0.00     0.014 C 
HETATM   15  C18 UNL     1     -17.205  43.525 -20.335  1.00  0.00    -0.022 C 
HETATM   16  C19 UNL     1     -17.212  42.959 -21.553  1.00  0.00    -0.003 C 
HETATM   17  C20 UNL     1     -17.984  43.489 -22.650  1.00  0.00     0.008 C 
HETATM   18  C21 UNL     1     -18.036  42.948 -23.877  1.00  0.00    -0.019 C 
HETATM   19  C22 UNL     1     -17.470  41.626 -24.319  1.00  0.00     0.206 C 
HETATM   20  O2  UNL     1     -18.040  41.367 -25.627  1.00  0.00    -0.375 OA
HETATM   21  C23 UNL     1     -19.215  42.216 -25.697  1.00  0.00     0.194 C 
HETATM   22  C24 UNL     1     -19.737  42.369 -27.137  1.00  0.00     0.179 C 
HETATM   23  C25 UNL     1     -19.110  43.481 -27.949  1.00  0.00    -0.056 C 
HETATM   24  C26 UNL     1     -19.565  43.594 -29.379  1.00  0.00     0.046 C 
HETATM   25  C27 UNL     1     -18.225  44.348 -27.420  1.00  0.00    -0.004 C 
HETATM   26  C28 UNL     1     -17.766  44.275 -25.981  1.00  0.00     0.150 C 
HETATM   27  C29 UNL     1     -17.505  45.673 -25.439  1.00  0.00     0.270 C 
HETATM   28  O4  UNL     1     -18.308  46.593 -25.505  1.00  0.00    -0.264 OA
HETATM   29  O5  UNL     1     -16.254  45.742 -24.906  1.00  0.00    -0.315 OA
HETATM   30  C30 UNL     1     -18.765  43.529 -25.060  1.00  0.00     0.128 C 
HETATM   31  O7  UNL     1     -13.493  45.950 -23.370  1.00  0.00    -0.347 OA
HETATM   32  C31 UNL     1     -13.170  45.160 -25.675  1.00  0.00     0.210 C 
HETATM   33  C32 UNL     1     -12.153  45.446 -26.796  1.00  0.00     0.172 C 
HETATM   34  C37 UNL     1     -10.771  45.853 -26.216  1.00  0.00     0.047 C 
HETATM   35  C38 UNL     1      -9.814  44.657 -26.209  1.00  0.00     0.015 C 
ENDROOT
BRANCH  32  36
HETATM   36  O8  UNL     1     -12.723  43.980 -24.973  1.00  0.00    -0.387 OA
HETATM   37  H42 UNL     1     -12.866  43.218 -25.559  1.00  0.00     0.210 HD
ENDBRANCH  32  36
BRANCH   1  38
HETATM   38  C3  UNL     1      -9.764  47.419 -24.448  1.00  0.00    -0.059 C 
HETATM   39  C2  UNL     1      -9.104  47.335 -23.271  1.00  0.00    -0.026 C 
HETATM   40  C1  UNL     1      -7.971  48.191 -22.801  1.00  0.00     0.036 C 
HETATM   41  C4  UNL     1      -9.371  48.402 -25.521  1.00  0.00     0.046 C 
ENDBRANCH   1  38
BRANCH  33  42
HETATM   42  O9  UNL     1     -12.666  46.504 -27.636  1.00  0.00    -0.312 OA
BRANCH  42  43
HETATM   43  C33 UNL     1     -13.158  46.119 -28.847  1.00  0.00     0.262 C 
HETATM   44  O10 UNL     1     -14.209  45.513 -29.014  1.00  0.00    -0.265 OA
BRANCH  43  45
HETATM   45  C34 UNL     1     -12.214  46.484 -29.974  1.00  0.00     0.077 C 
HETATM   46  C35 UNL     1     -11.382  47.719 -29.640  1.00  0.00     0.020 C 
HETATM   47  C36 UNL     1     -11.335  45.288 -30.318  1.00  0.00     0.020 C 
ENDBRANCH  43  45
ENDBRANCH  42  43
ENDBRANCH  33  42
BRANCH  30  48
HETATM   48  O6  UNL     1     -19.901  44.287 -24.659  1.00  0.00    -0.381 OA
HETATM   49  H40 UNL     1     -19.905  45.142 -25.133  1.00  0.00     0.211 HD
ENDBRANCH  30  48
BRANCH  22  50
HETATM   50  O3  UNL     1     -19.558  41.136 -27.838  1.00  0.00    -0.389 OA
HETATM   51  H34 UNL     1     -18.757  40.734 -27.446  1.00  0.00     0.210 HD
ENDBRANCH  22  50
TORSDOF 7
ENDMDL
