MODEL 1
REMARK minimizedAffinity -8.42751217
REMARK  12 active torsions:
REMARK  status: ('A' for Active; 'I' for Inactive)
REMARK    1  A    between atoms: C5_5  and  C6_6 
REMARK    2  A    between atoms: C6_6  and  C8_8 
REMARK    3  A    between atoms: C8_8  and  O1_9 
REMARK    4  A    between atoms: C15_17  and  O3_18 
REMARK    5  A    between atoms: C18_21  and  O4_23 
REMARK    6  A    between atoms: O4_23  and  C20_24 
REMARK    7  A    between atoms: C20_24  and  C21_26 
REMARK    8  A    between atoms: C21_26  and  C22_27 
REMARK    9  A    between atoms: C21_26  and  O6_29 
REMARK   10  A    between atoms: O6_29  and  C24_30 
REMARK   11  A    between atoms: C24_30  and  C25_32 
REMARK   12  A    between atoms: C25_32  and  C26_33 
ROOT
HETATM    1  C1  UNL     1      -3.126  48.376 -26.455  1.00  0.00     0.015 C 
HETATM    2  C2  UNL     1      -3.872  49.024 -25.547  1.00  0.00    -0.082 C 
HETATM    3  C3  UNL     1      -5.213  48.463 -25.130  1.00  0.00     0.034 C 
HETATM    4  C4  UNL     1      -5.287  48.319 -23.603  1.00  0.00     0.010 C 
HETATM    5  C5  UNL     1      -3.892  48.384 -22.937  1.00  0.00    -0.001 C 
HETATM    6  C9  UNL     1      -3.278  49.812 -23.207  1.00  0.00     0.033 C 
HETATM    7  C10 UNL     1      -1.728  49.875 -22.985  1.00  0.00     0.162 C 
HETATM    8  O2  UNL     1      -1.205  50.092 -24.310  1.00  0.00    -0.376 OA
HETATM    9  C11 UNL     1      -2.159  50.950 -24.951  1.00  0.00     0.134 C 
HETATM   10  C12 UNL     1      -1.679  51.421 -26.315  1.00  0.00     0.068 C 
HETATM   11  C13 UNL     1      -0.221  51.880 -26.285  1.00  0.00    -0.059 C 
HETATM   12  C14 UNL     1       0.626  51.467 -27.248  1.00  0.00     0.017 C 
HETATM   13  C15 UNL     1       0.266  52.803 -25.175  1.00  0.00     0.146 C 
HETATM   14  C16 UNL     1       0.572  52.153 -23.796  1.00  0.00     0.039 C 
HETATM   15  C17 UNL     1      -0.508  52.265 -22.697  1.00  0.00     0.044 C 
HETATM   16  C18 UNL     1      -1.084  50.962 -22.019  1.00  0.00     0.093 C 
HETATM   17  C19 UNL     1       0.093  50.321 -21.249  1.00  0.00     0.049 C 
HETATM   18  C28 UNL     1      -3.473  50.230 -24.711  1.00  0.00     0.050 C 
ENDROOT
BRANCH  16  19
HETATM   19  O4  UNL     1      -2.065  51.560 -21.109  1.00  0.00    -0.306 OA
BRANCH  19  20
HETATM   20  C20 UNL     1      -2.009  51.522 -19.758  1.00  0.00     0.289 C 
HETATM   21  O5  UNL     1      -2.907  51.131 -19.026  1.00  0.00    -0.262 OA
BRANCH  20  22
HETATM   22  C21 UNL     1      -0.620  51.982 -19.280  1.00  0.00     0.231 C 
BRANCH  22  23
HETATM   23  C22 UNL     1      -0.317  53.458 -19.568  1.00  0.00     0.038 C 
HETATM   24  C23 UNL     1       1.109  53.723 -20.031  1.00  0.00     0.008 C 
ENDBRANCH  22  23
BRANCH  22  25
HETATM   25  O6  UNL     1      -0.536  51.827 -17.847  1.00  0.00    -0.306 OA
BRANCH  25  26
HETATM   26  C24 UNL     1       0.149  50.724 -17.426  1.00  0.00     0.259 C 
HETATM   27  O7  UNL     1      -0.043  49.586 -17.832  1.00  0.00    -0.265 OA
BRANCH  26  28
HETATM   28  C25 UNL     1       1.172  51.134 -16.392  1.00  0.00     0.111 C 
BRANCH  28  29
HETATM   29  C26 UNL     1       1.849  52.467 -16.709  1.00  0.00     0.005 C 
HETATM   30  C27 UNL     1       3.286  52.527 -16.209  1.00  0.00     0.005 C 
ENDBRANCH  28  29
ENDBRANCH  26  28
ENDBRANCH  25  26
ENDBRANCH  22  25
ENDBRANCH  20  22
ENDBRANCH  19  20
ENDBRANCH  16  19
BRANCH   5  31
HETATM   31  C6  UNL     1      -3.887  47.973 -21.438  1.00  0.00     0.010 C 
HETATM   32  C7  UNL     1      -2.526  48.143 -20.763  1.00  0.00     0.012 C 
BRANCH  31  33
HETATM   33  C8  UNL     1      -4.985  48.685 -20.625  1.00  0.00     0.168 C 
BRANCH  33  34
HETATM   34  O1  UNL     1      -4.823  50.094 -20.624  1.00  0.00    -0.400 OA
HETATM   35  H14 UNL     1      -5.612  50.467 -20.196  1.00  0.00     0.209 HD
ENDBRANCH  33  34
ENDBRANCH  31  33
ENDBRANCH   5  31
BRANCH  13  36
HETATM   36  O3  UNL     1      -0.628  53.904 -25.060  1.00  0.00    -0.391 OA
HETATM   37  H23 UNL     1      -0.709  54.281 -25.954  1.00  0.00     0.210 HD
ENDBRANCH  13  36
TORSDOF 12
ENDMDL
MODEL 2
REMARK minimizedAffinity -8.29976368
REMARK  12 active torsions:
REMARK  status: ('A' for Active; 'I' for Inactive)
REMARK    1  A    between atoms: C5_5  and  C6_6 
REMARK    2  A    between atoms: C6_6  and  C8_8 
REMARK    3  A    between atoms: C8_8  and  O1_9 
REMARK    4  A    between atoms: C15_17  and  O3_18 
REMARK    5  A    between atoms: C18_21  and  O4_23 
REMARK    6  A    between atoms: O4_23  and  C20_24 
REMARK    7  A    between atoms: C20_24  and  C21_26 
REMARK    8  A    between atoms: C21_26  and  C22_27 
REMARK    9  A    between atoms: C21_26  and  O6_29 
REMARK   10  A    between atoms: O6_29  and  C24_30 
REMARK   11  A    between atoms: C24_30  and  C25_32 
REMARK   12  A    between atoms: C25_32  and  C26_33 
ROOT
HETATM    1  C1  UNL     1      -3.305  48.394 -26.619  1.00  0.00     0.015 C 
HETATM    2  C2  UNL     1      -4.020  49.032 -25.680  1.00  0.00    -0.082 C 
HETATM    3  C3  UNL     1      -5.343  48.462 -25.220  1.00  0.00     0.034 C 
HETATM    4  C4  UNL     1      -5.362  48.307 -23.692  1.00  0.00     0.010 C 
HETATM    5  C5  UNL     1      -3.944  48.373 -23.075  1.00  0.00    -0.001 C 
HETATM    6  C9  UNL     1      -3.345  49.805 -23.357  1.00  0.00     0.033 C 
HETATM    7  C10 UNL     1      -1.789  49.873 -23.190  1.00  0.00     0.162 C 
HETATM    8  O2  UNL     1      -1.315  50.102 -24.531  1.00  0.00    -0.376 OA
HETATM    9  C11 UNL     1      -2.295  50.960 -25.132  1.00  0.00     0.134 C 
HETATM   10  C12 UNL     1      -1.866  51.444 -26.508  1.00  0.00     0.068 C 
HETATM   11  C13 UNL     1      -0.410  51.909 -26.527  1.00  0.00    -0.059 C 
HETATM   12  C14 UNL     1       0.404  51.507 -27.523  1.00  0.00     0.017 C 
HETATM   13  C15 UNL     1       0.114  52.825 -25.428  1.00  0.00     0.146 C 
HETATM   14  C16 UNL     1       0.472  52.167 -24.066  1.00  0.00     0.039 C 
HETATM   15  C17 UNL     1      -0.569  52.266 -22.929  1.00  0.00     0.044 C 
HETATM   16  C18 UNL     1      -1.115  50.956 -22.240  1.00  0.00     0.093 C 
HETATM   17  C19 UNL     1       0.091  50.314 -21.518  1.00  0.00     0.049 C 
HETATM   18  C28 UNL     1      -3.596  50.234 -24.850  1.00  0.00     0.050 C 
ENDROOT
BRANCH  16  19
HETATM   19  O4  UNL     1      -2.065  51.542 -21.290  1.00  0.00    -0.306 OA
BRANCH  19  20
HETATM   20  C20 UNL     1      -1.898  51.610 -19.951  1.00  0.00     0.289 C 
HETATM   21  O5  UNL     1      -2.791  51.507 -19.122  1.00  0.00    -0.262 OA
BRANCH  20  22
HETATM   22  C21 UNL     1      -0.402  51.767 -19.619  1.00  0.00     0.231 C 
BRANCH  22  23
HETATM   23  C22 UNL     1      -0.006  53.181 -19.178  1.00  0.00     0.038 C 
HETATM   24  C23 UNL     1       0.670  54.007 -20.264  1.00  0.00     0.008 C 
ENDBRANCH  22  23
BRANCH  22  25
HETATM   25  O6  UNL     1      -0.066  50.894 -18.519  1.00  0.00    -0.306 OA
BRANCH  25  26
HETATM   26  C24 UNL     1       0.540  51.508 -17.461  1.00  0.00     0.259 C 
HETATM   27  O7  UNL     1       1.210  52.529 -17.537  1.00  0.00    -0.265 OA
BRANCH  26  28
HETATM   28  C25 UNL     1       0.253  50.730 -16.198  1.00  0.00     0.111 C 
BRANCH  28  29
HETATM   29  C26 UNL     1      -0.235  49.306 -16.465  1.00  0.00     0.005 C 
HETATM   30  C27 UNL     1       0.160  48.335 -15.361  1.00  0.00     0.005 C 
ENDBRANCH  28  29
ENDBRANCH  26  28
ENDBRANCH  25  26
ENDBRANCH  22  25
ENDBRANCH  20  22
ENDBRANCH  19  20
ENDBRANCH  16  19
BRANCH   5  31
HETATM   31  C6  UNL     1      -3.883  47.950 -21.582  1.00  0.00     0.010 C 
HETATM   32  C7  UNL     1      -4.422  49.012 -20.624  1.00  0.00     0.012 C 
BRANCH  31  33
HETATM   33  C8  UNL     1      -4.567  46.594 -21.322  1.00  0.00     0.168 C 
BRANCH  33  34
HETATM   34  O1  UNL     1      -3.658  45.619 -20.836  1.00  0.00    -0.400 OA
HETATM   35  H14 UNL     1      -4.185  44.841 -20.589  1.00  0.00     0.209 HD
ENDBRANCH  33  34
ENDBRANCH  31  33
ENDBRANCH   5  31
BRANCH  13  36
HETATM   36  O3  UNL     1      -0.781  53.922 -25.273  1.00  0.00    -0.391 OA
HETATM   37  H23 UNL     1      -0.895  54.305 -26.161  1.00  0.00     0.210 HD
ENDBRANCH  13  36
TORSDOF 12
ENDMDL
MODEL 3
REMARK minimizedAffinity -8.23763657
REMARK  12 active torsions:
REMARK  status: ('A' for Active; 'I' for Inactive)
REMARK    1  A    between atoms: C5_5  and  C6_6 
REMARK    2  A    between atoms: C6_6  and  C8_8 
REMARK    3  A    between atoms: C8_8  and  O1_9 
REMARK    4  A    between atoms: C15_17  and  O3_18 
REMARK    5  A    between atoms: C18_21  and  O4_23 
REMARK    6  A    between atoms: O4_23  and  C20_24 
REMARK    7  A    between atoms: C20_24  and  C21_26 
REMARK    8  A    between atoms: C21_26  and  C22_27 
REMARK    9  A    between atoms: C21_26  and  O6_29 
REMARK   10  A    between atoms: O6_29  and  C24_30 
REMARK   11  A    between atoms: C24_30  and  C25_32 
REMARK   12  A    between atoms: C25_32  and  C26_33 
ROOT
HETATM    1  C1  UNL     1       2.324  53.185 -20.882  1.00  0.00     0.015 C 
HETATM    2  C2  UNL     1       1.217  53.534 -21.556  1.00  0.00    -0.082 C 
HETATM    3  C3  UNL     1       1.326  54.396 -22.793  1.00  0.00     0.034 C 
HETATM    4  C4  UNL     1       0.619  53.727 -23.981  1.00  0.00     0.010 C 
HETATM    5  C5  UNL     1       0.351  52.223 -23.736  1.00  0.00    -0.001 C 
HETATM    6  C9  UNL     1      -0.636  52.087 -22.514  1.00  0.00     0.033 C 
HETATM    7  C10 UNL     1      -0.649  50.654 -21.880  1.00  0.00     0.162 C 
HETATM    8  O2  UNL     1      -0.066  50.855 -20.577  1.00  0.00    -0.376 OA
HETATM    9  C11 UNL     1      -0.539  52.141 -20.152  1.00  0.00     0.134 C 
HETATM   10  C12 UNL     1      -0.153  52.445 -18.714  1.00  0.00     0.068 C 
HETATM   11  C13 UNL     1      -0.403  51.255 -17.786  1.00  0.00    -0.059 C 
HETATM   12  C14 UNL     1       0.546  50.889 -16.903  1.00  0.00     0.017 C 
HETATM   13  C15 UNL     1      -1.721  50.495 -17.859  1.00  0.00     0.146 C 
HETATM   14  C16 UNL     1      -1.886  49.469 -19.015  1.00  0.00     0.039 C 
HETATM   15  C17 UNL     1      -2.679  49.918 -20.262  1.00  0.00     0.044 C 
HETATM   16  C18 UNL     1      -2.011  49.855 -21.690  1.00  0.00     0.093 C 
HETATM   17  C19 UNL     1      -1.766  48.359 -21.986  1.00  0.00     0.049 C 
HETATM   18  C28 UNL     1      -0.200  53.031 -21.333  1.00  0.00     0.050 C 
ENDROOT
BRANCH  16  19
HETATM   19  O4  UNL     1      -3.101  50.398 -22.506  1.00  0.00    -0.306 OA
BRANCH  19  20
HETATM   20  C20 UNL     1      -4.365  50.622 -22.082  1.00  0.00     0.289 C 
HETATM   21  O5  UNL     1      -4.706  51.516 -21.321  1.00  0.00    -0.262 OA
BRANCH  20  22
HETATM   22  C21 UNL     1      -5.326  49.624 -22.755  1.00  0.00     0.231 C 
BRANCH  22  23
HETATM   23  C22 UNL     1      -6.788  49.771 -22.314  1.00  0.00     0.038 C 
HETATM   24  C23 UNL     1      -7.760  48.870 -23.064  1.00  0.00     0.008 C 
ENDBRANCH  22  23
BRANCH  22  25
HETATM   25  O6  UNL     1      -5.313  49.842 -24.182  1.00  0.00    -0.306 OA
BRANCH  25  26
HETATM   26  C24 UNL     1      -4.944  48.758 -24.926  1.00  0.00     0.259 C 
HETATM   27  O7  UNL     1      -5.722  47.953 -25.420  1.00  0.00    -0.265 OA
BRANCH  26  28
HETATM   28  C25 UNL     1      -3.438  48.718 -25.040  1.00  0.00     0.111 C 
BRANCH  28  29
HETATM   29  C26 UNL     1      -2.947  48.542 -26.477  1.00  0.00     0.005 C 
HETATM   30  C27 UNL     1      -3.705  49.416 -27.466  1.00  0.00     0.005 C 
ENDBRANCH  28  29
ENDBRANCH  26  28
ENDBRANCH  25  26
ENDBRANCH  22  25
ENDBRANCH  20  22
ENDBRANCH  19  20
ENDBRANCH  16  19
BRANCH   5  31
HETATM   31  C6  UNL     1      -0.107  51.447 -25.002  1.00  0.00     0.010 C 
HETATM   32  C7  UNL     1      -1.345  52.046 -25.671  1.00  0.00     0.012 C 
BRANCH  31  33
HETATM   33  C8  UNL     1       1.027  51.268 -26.030  1.00  0.00     0.168 C 
BRANCH  33  34
HETATM   34  O1  UNL     1       1.467  52.506 -26.564  1.00  0.00    -0.400 OA
HETATM   35  H14 UNL     1       2.252  52.316 -27.105  1.00  0.00     0.209 HD
ENDBRANCH  33  34
ENDBRANCH  31  33
ENDBRANCH   5  31
BRANCH  13  36
HETATM   36  O3  UNL     1      -2.797  51.426 -17.813  1.00  0.00    -0.391 OA
HETATM   37  H23 UNL     1      -2.642  51.981 -17.029  1.00  0.00     0.210 HD
ENDBRANCH  13  36
TORSDOF 12
ENDMDL
MODEL 4
REMARK minimizedAffinity -7.88415861
REMARK  12 active torsions:
REMARK  status: ('A' for Active; 'I' for Inactive)
REMARK    1  A    between atoms: C5_5  and  C6_6 
REMARK    2  A    between atoms: C6_6  and  C8_8 
REMARK    3  A    between atoms: C8_8  and  O1_9 
REMARK    4  A    between atoms: C15_17  and  O3_18 
REMARK    5  A    between atoms: C18_21  and  O4_23 
REMARK    6  A    between atoms: O4_23  and  C20_24 
REMARK    7  A    between atoms: C20_24  and  C21_26 
REMARK    8  A    between atoms: C21_26  and  C22_27 
REMARK    9  A    between atoms: C21_26  and  O6_29 
REMARK   10  A    between atoms: O6_29  and  C24_30 
REMARK   11  A    between atoms: C24_30  and  C25_32 
REMARK   12  A    between atoms: C25_32  and  C26_33 
ROOT
HETATM    1  C1  UNL     1       1.016  54.651 -22.484  1.00  0.00     0.015 C 
HETATM    2  C2  UNL     1       1.061  53.327 -22.268  1.00  0.00    -0.082 C 
HETATM    3  C3  UNL     1       1.529  52.795 -20.933  1.00  0.00     0.034 C 
HETATM    4  C4  UNL     1       0.487  51.837 -20.339  1.00  0.00     0.010 C 
HETATM    5  C5  UNL     1      -0.897  51.975 -21.019  1.00  0.00    -0.001 C 
HETATM    6  C9  UNL     1      -0.749  51.566 -22.535  1.00  0.00     0.033 C 
HETATM    7  C10 UNL     1      -1.929  52.069 -23.434  1.00  0.00     0.162 C 
HETATM    8  O2  UNL     1      -1.309  53.048 -24.290  1.00  0.00    -0.376 OA
HETATM    9  C11 UNL     1       0.002  52.532 -24.558  1.00  0.00     0.134 C 
HETATM   10  C12 UNL     1       0.744  53.364 -25.591  1.00  0.00     0.068 C 
HETATM   11  C13 UNL     1      -0.138  53.715 -26.790  1.00  0.00    -0.059 C 
HETATM   12  C14 UNL     1      -0.152  54.978 -27.258  1.00  0.00     0.017 C 
HETATM   13  C15 UNL     1      -0.990  52.640 -27.451  1.00  0.00     0.146 C 
HETATM   14  C16 UNL     1      -2.320  52.254 -26.744  1.00  0.00     0.039 C 
HETATM   15  C17 UNL     1      -2.322  50.979 -25.871  1.00  0.00     0.044 C 
HETATM   16  C18 UNL     1      -2.745  51.060 -24.353  1.00  0.00     0.093 C 
HETATM   17  C19 UNL     1      -4.238  51.459 -24.342  1.00  0.00     0.049 C 
HETATM   18  C28 UNL     1       0.532  52.223 -23.170  1.00  0.00     0.050 C 
ENDROOT
BRANCH  16  19
HETATM   19  O4  UNL     1      -2.556  49.660 -23.960  1.00  0.00    -0.306 OA
BRANCH  19  20
HETATM   20  C20 UNL     1      -3.517  48.710 -23.949  1.00  0.00     0.289 C 
HETATM   21  O5  UNL     1      -3.712  47.914 -23.042  1.00  0.00    -0.262 OA
BRANCH  20  22
HETATM   22  C21 UNL     1      -4.376  48.821 -25.223  1.00  0.00     0.231 C 
BRANCH  22  23
HETATM   23  C22 UNL     1      -3.636  48.437 -26.510  1.00  0.00     0.038 C 
HETATM   24  C23 UNL     1      -4.524  48.380 -27.746  1.00  0.00     0.008 C 
ENDBRANCH  22  23
BRANCH  22  25
HETATM   25  O6  UNL     1      -5.498  47.919 -25.119  1.00  0.00    -0.306 OA
BRANCH  25  26
HETATM   26  C24 UNL     1      -6.259  48.074 -23.997  1.00  0.00     0.259 C 
HETATM   27  O7  UNL     1      -6.525  47.180 -23.205  1.00  0.00    -0.265 OA
BRANCH  26  28
HETATM   28  C25 UNL     1      -6.713  49.511 -23.893  1.00  0.00     0.111 C 
BRANCH  28  29
HETATM   29  C26 UNL     1      -7.639  49.766 -22.704  1.00  0.00     0.005 C 
HETATM   30  C27 UNL     1      -6.876  50.043 -21.416  1.00  0.00     0.005 C 
ENDBRANCH  28  29
ENDBRANCH  26  28
ENDBRANCH  25  26
ENDBRANCH  22  25
ENDBRANCH  20  22
ENDBRANCH  19  20
ENDBRANCH  16  19
BRANCH   5  31
HETATM   31  C6  UNL     1      -2.043  51.233 -20.278  1.00  0.00     0.010 C 
HETATM   32  C7  UNL     1      -3.398  51.350 -20.977  1.00  0.00     0.012 C 
BRANCH  31  33
HETATM   33  C8  UNL     1      -1.708  49.756 -19.996  1.00  0.00     0.168 C 
BRANCH  33  34
HETATM   34  O1  UNL     1      -2.312  48.880 -20.934  1.00  0.00    -0.400 OA
HETATM   35  H14 UNL     1      -1.958  47.993 -20.759  1.00  0.00     0.209 HD
ENDBRANCH  33  34
ENDBRANCH  31  33
ENDBRANCH   5  31
BRANCH  13  36
HETATM   36  O3  UNL     1      -0.178  51.502 -27.718  1.00  0.00    -0.391 OA
HETATM   37  H23 UNL     1       0.593  51.831 -28.214  1.00  0.00     0.210 HD
ENDBRANCH  13  36
TORSDOF 12
ENDMDL
MODEL 5
REMARK minimizedAffinity -7.86649561
REMARK  12 active torsions:
REMARK  status: ('A' for Active; 'I' for Inactive)
REMARK    1  A    between atoms: C5_5  and  C6_6 
REMARK    2  A    between atoms: C6_6  and  C8_8 
REMARK    3  A    between atoms: C8_8  and  O1_9 
REMARK    4  A    between atoms: C15_17  and  O3_18 
REMARK    5  A    between atoms: C18_21  and  O4_23 
REMARK    6  A    between atoms: O4_23  and  C20_24 
REMARK    7  A    between atoms: C20_24  and  C21_26 
REMARK    8  A    between atoms: C21_26  and  C22_27 
REMARK    9  A    between atoms: C21_26  and  O6_29 
REMARK   10  A    between atoms: O6_29  and  C24_30 
REMARK   11  A    between atoms: C24_30  and  C25_32 
REMARK   12  A    between atoms: C25_32  and  C26_33 
ROOT
HETATM    1  C1  UNL     1      -5.195  48.187 -26.390  1.00  0.00     0.015 C 
HETATM    2  C2  UNL     1      -3.943  48.358 -25.936  1.00  0.00    -0.082 C 
HETATM    3  C3  UNL     1      -2.787  48.409 -26.908  1.00  0.00     0.034 C 
HETATM    4  C4  UNL     1      -1.960  49.686 -26.697  1.00  0.00     0.010 C 
HETATM    5  C5  UNL     1      -2.720  50.750 -25.870  1.00  0.00    -0.001 C 
HETATM    6  C9  UNL     1      -2.986  50.164 -24.429  1.00  0.00     0.033 C 
HETATM    7  C10 UNL     1      -4.106  50.928 -23.644  1.00  0.00     0.162 C 
HETATM    8  O2  UNL     1      -5.170  49.961 -23.546  1.00  0.00    -0.376 OA
HETATM    9  C11 UNL     1      -4.512  48.698 -23.375  1.00  0.00     0.134 C 
HETATM   10  C12 UNL     1      -5.495  47.575 -23.085  1.00  0.00     0.068 C 
HETATM   11  C13 UNL     1      -6.538  47.978 -22.043  1.00  0.00    -0.059 C 
HETATM   12  C14 UNL     1      -7.839  47.702 -22.262  1.00  0.00     0.017 C 
HETATM   13  C15 UNL     1      -6.106  48.682 -20.763  1.00  0.00     0.146 C 
HETATM   14  C16 UNL     1      -5.798  50.202 -20.859  1.00  0.00     0.039 C 
HETATM   15  C17 UNL     1      -4.316  50.626 -20.970  1.00  0.00     0.044 C 
HETATM   16  C18 UNL     1      -3.834  51.506 -22.187  1.00  0.00     0.093 C 
HETATM   17  C19 UNL     1      -4.548  52.869 -22.043  1.00  0.00     0.049 C 
HETATM   18  C28 UNL     1      -3.511  48.684 -24.515  1.00  0.00     0.050 C 
ENDROOT
BRANCH  16  19
HETATM   19  O4  UNL     1      -2.404  51.608 -21.879  1.00  0.00    -0.306 OA
BRANCH  19  20
HETATM   20  C20 UNL     1      -1.674  50.682 -21.218  1.00  0.00     0.289 C 
HETATM   21  O5  UNL     1      -1.777  49.472 -21.358  1.00  0.00    -0.262 OA
BRANCH  20  22
HETATM   22  C21 UNL     1      -0.644  51.380 -20.310  1.00  0.00     0.231 C 
BRANCH  22  23
HETATM   23  C22 UNL     1       0.210  52.431 -21.029  1.00  0.00     0.038 C 
HETATM   24  C23 UNL     1       0.518  53.665 -20.191  1.00  0.00     0.008 C 
ENDBRANCH  22  23
BRANCH  22  25
HETATM   25  O6  UNL     1      -1.338  52.079 -19.255  1.00  0.00    -0.306 OA
BRANCH  25  26
HETATM   26  C24 UNL     1      -1.608  51.329 -18.147  1.00  0.00     0.259 C 
HETATM   27  O7  UNL     1      -2.669  51.340 -17.538  1.00  0.00    -0.265 OA
BRANCH  26  28
HETATM   28  C25 UNL     1      -0.399  50.491 -17.802  1.00  0.00     0.111 C 
BRANCH  28  29
HETATM   29  C26 UNL     1       0.363  51.007 -16.582  1.00  0.00     0.005 C 
HETATM   30  C27 UNL     1       1.280  52.176 -16.915  1.00  0.00     0.005 C 
ENDBRANCH  28  29
ENDBRANCH  26  28
ENDBRANCH  25  26
ENDBRANCH  22  25
ENDBRANCH  20  22
ENDBRANCH  19  20
ENDBRANCH  16  19
BRANCH   5  31
HETATM   31  C6  UNL     1      -2.043  52.149 -25.863  1.00  0.00     0.010 C 
HETATM   32  C7  UNL     1      -1.018  52.326 -24.743  1.00  0.00     0.012 C 
BRANCH  31  33
HETATM   33  C8  UNL     1      -1.421  52.512 -27.225  1.00  0.00     0.168 C 
BRANCH  33  34
HETATM   34  O1  UNL     1      -2.255  53.372 -27.984  1.00  0.00    -0.400 OA
HETATM   35  H14 UNL     1      -1.743  53.644 -28.764  1.00  0.00     0.209 HD
ENDBRANCH  33  34
ENDBRANCH  31  33
ENDBRANCH   5  31
BRANCH  13  36
HETATM   36  O3  UNL     1      -5.034  47.955 -20.172  1.00  0.00    -0.391 OA
HETATM   37  H23 UNL     1      -5.341  47.034 -20.096  1.00  0.00     0.210 HD
ENDBRANCH  13  36
TORSDOF 12
ENDMDL
MODEL 6
REMARK minimizedAffinity -7.81892776
REMARK  12 active torsions:
REMARK  status: ('A' for Active; 'I' for Inactive)
REMARK    1  A    between atoms: C5_5  and  C6_6 
REMARK    2  A    between atoms: C6_6  and  C8_8 
REMARK    3  A    between atoms: C8_8  and  O1_9 
REMARK    4  A    between atoms: C15_17  and  O3_18 
REMARK    5  A    between atoms: C18_21  and  O4_23 
REMARK    6  A    between atoms: O4_23  and  C20_24 
REMARK    7  A    between atoms: C20_24  and  C21_26 
REMARK    8  A    between atoms: C21_26  and  C22_27 
REMARK    9  A    between atoms: C21_26  and  O6_29 
REMARK   10  A    between atoms: O6_29  and  C24_30 
REMARK   11  A    between atoms: C24_30  and  C25_32 
REMARK   12  A    between atoms: C25_32  and  C26_33 
ROOT
HETATM    1  C1  UNL     1      -6.128  48.037 -25.905  1.00  0.00     0.015 C 
HETATM    2  C2  UNL     1      -4.801  48.234 -25.849  1.00  0.00    -0.082 C 
HETATM    3  C3  UNL     1      -4.004  48.376 -27.126  1.00  0.00     0.034 C 
HETATM    4  C4  UNL     1      -3.181  49.672 -27.108  1.00  0.00     0.010 C 
HETATM    5  C5  UNL     1      -3.671  50.666 -26.028  1.00  0.00    -0.001 C 
HETATM    6  C9  UNL     1      -3.464  50.003 -24.611  1.00  0.00     0.033 C 
HETATM    7  C10 UNL     1      -4.302  50.685 -23.477  1.00  0.00     0.162 C 
HETATM    8  O2  UNL     1      -5.262  49.674 -23.111  1.00  0.00    -0.376 OA
HETATM    9  C11 UNL     1      -4.555  48.431 -23.223  1.00  0.00     0.134 C 
HETATM   10  C12 UNL     1      -5.375  47.259 -22.709  1.00  0.00     0.068 C 
HETATM   11  C13 UNL     1      -6.052  47.571 -21.374  1.00  0.00    -0.059 C 
HETATM   12  C14 UNL     1      -7.350  47.255 -21.197  1.00  0.00     0.017 C 
HETATM   13  C15 UNL     1      -5.261  48.230 -20.252  1.00  0.00     0.146 C 
HETATM   14  C16 UNL     1      -5.031  49.764 -20.352  1.00  0.00     0.039 C 
HETATM   15  C17 UNL     1      -3.667  50.249 -20.890  1.00  0.00     0.044 C 
HETATM   16  C18 UNL     1      -3.605  51.204 -22.144  1.00  0.00     0.093 C 
HETATM   17  C19 UNL     1      -4.269  52.530 -21.710  1.00  0.00     0.049 C 
HETATM   18  C28 UNL     1      -3.957  48.509 -24.615  1.00  0.00     0.050 C 
ENDROOT
BRANCH  16  19
HETATM   19  O4  UNL     1      -2.153  51.347 -22.287  1.00  0.00    -0.306 OA
BRANCH  19  20
HETATM   20  C20 UNL     1      -1.226  50.839 -21.443  1.00  0.00     0.289 C 
HETATM   21  O5  UNL     1      -1.004  49.649 -21.273  1.00  0.00    -0.262 OA
BRANCH  20  22
HETATM   22  C21 UNL     1      -0.443  51.986 -20.777  1.00  0.00     0.231 C 
BRANCH  22  23
HETATM   23  C22 UNL     1      -0.097  51.733 -19.305  1.00  0.00     0.038 C 
HETATM   24  C23 UNL     1      -1.309  51.525 -18.406  1.00  0.00     0.008 C 
ENDBRANCH  22  23
BRANCH  22  25
HETATM   25  O6  UNL     1       0.816  52.160 -21.461  1.00  0.00    -0.306 OA
BRANCH  25  26
HETATM   26  C24 UNL     1       1.080  53.436 -21.866  1.00  0.00     0.259 C 
HETATM   27  O7  UNL     1       1.461  54.337 -21.131  1.00  0.00    -0.265 OA
BRANCH  26  28
HETATM   28  C25 UNL     1       0.830  53.553 -23.352  1.00  0.00     0.111 C 
BRANCH  28  29
HETATM   29  C26 UNL     1       0.811  52.203 -24.068  1.00  0.00     0.005 C 
HETATM   30  C27 UNL     1       1.259  52.303 -25.519  1.00  0.00     0.005 C 
ENDBRANCH  28  29
ENDBRANCH  26  28
ENDBRANCH  25  26
ENDBRANCH  22  25
ENDBRANCH  20  22
ENDBRANCH  19  20
ENDBRANCH  16  19
BRANCH   5  31
HETATM   31  C6  UNL     1      -3.056  52.088 -26.151  1.00  0.00     0.010 C 
HETATM   32  C7  UNL     1      -2.400  52.583 -24.862  1.00  0.00     0.012 C 
BRANCH  31  33
HETATM   33  C8  UNL     1      -2.077  52.209 -27.335  1.00  0.00     0.168 C 
BRANCH  33  34
HETATM   34  O1  UNL     1      -2.121  53.492 -27.937  1.00  0.00    -0.400 OA
HETATM   35  H14 UNL     1      -1.400  53.523 -28.588  1.00  0.00     0.209 HD
ENDBRANCH  33  34
ENDBRANCH  31  33
ENDBRANCH   5  31
BRANCH  13  36
HETATM   36  O3  UNL     1      -4.043  47.518 -20.063  1.00  0.00    -0.391 OA
HETATM   37  H23 UNL     1      -4.290  46.584 -19.948  1.00  0.00     0.210 HD
ENDBRANCH  13  36
TORSDOF 12
ENDMDL
MODEL 7
REMARK minimizedAffinity -7.81475449
REMARK  12 active torsions:
REMARK  status: ('A' for Active; 'I' for Inactive)
REMARK    1  A    between atoms: C5_5  and  C6_6 
REMARK    2  A    between atoms: C6_6  and  C8_8 
REMARK    3  A    between atoms: C8_8  and  O1_9 
REMARK    4  A    between atoms: C15_17  and  O3_18 
REMARK    5  A    between atoms: C18_21  and  O4_23 
REMARK    6  A    between atoms: O4_23  and  C20_24 
REMARK    7  A    between atoms: C20_24  and  C21_26 
REMARK    8  A    between atoms: C21_26  and  C22_27 
REMARK    9  A    between atoms: C21_26  and  O6_29 
REMARK   10  A    between atoms: O6_29  and  C24_30 
REMARK   11  A    between atoms: C24_30  and  C25_32 
REMARK   12  A    between atoms: C25_32  and  C26_33 
ROOT
HETATM    1  C1  UNL     1      -5.153  48.409 -26.568  1.00  0.00     0.015 C 
HETATM    2  C2  UNL     1      -3.969  48.419 -25.936  1.00  0.00    -0.082 C 
HETATM    3  C3  UNL     1      -2.687  48.443 -26.735  1.00  0.00     0.034 C 
HETATM    4  C4  UNL     1      -1.795  49.611 -26.289  1.00  0.00     0.010 C 
HETATM    5  C5  UNL     1      -2.574  50.668 -25.470  1.00  0.00    -0.001 C 
HETATM    6  C9  UNL     1      -3.089  49.987 -24.143  1.00  0.00     0.033 C 
HETATM    7  C10 UNL     1      -4.242  50.784 -23.442  1.00  0.00     0.162 C 
HETATM    8  O2  UNL     1      -5.386  49.919 -23.584  1.00  0.00    -0.376 OA
HETATM    9  C11 UNL     1      -4.866  48.588 -23.453  1.00  0.00     0.134 C 
HETATM   10  C12 UNL     1      -5.969  47.544 -23.410  1.00  0.00     0.068 C 
HETATM   11  C13 UNL     1      -7.113  47.952 -22.482  1.00  0.00    -0.059 C 
HETATM   12  C14 UNL     1      -8.388  47.822 -22.899  1.00  0.00     0.017 C 
HETATM   13  C15 UNL     1      -6.811  48.498 -21.092  1.00  0.00     0.146 C 
HETATM   14  C16 UNL     1      -6.366  49.984 -20.995  1.00  0.00     0.039 C 
HETATM   15  C17 UNL     1      -4.854  50.272 -20.864  1.00  0.00     0.044 C 
HETATM   16  C18 UNL     1      -4.133  51.204 -21.912  1.00  0.00     0.093 C 
HETATM   17  C19 UNL     1      -4.744  52.612 -21.730  1.00  0.00     0.049 C 
HETATM   18  C28 UNL     1      -3.718  48.577 -24.445  1.00  0.00     0.050 C 
ENDROOT
BRANCH  16  19
HETATM   19  O4  UNL     1      -2.758  51.142 -21.407  1.00  0.00    -0.306 OA
BRANCH  19  20
HETATM   20  C20 UNL     1      -2.402  50.941 -20.118  1.00  0.00     0.289 C 
HETATM   21  O5  UNL     1      -2.860  51.544 -19.158  1.00  0.00    -0.262 OA
BRANCH  20  22
HETATM   22  C21 UNL     1      -1.382  49.790 -20.032  1.00  0.00     0.231 C 
BRANCH  22  23
HETATM   23  C22 UNL     1      -1.227  48.994 -21.333  1.00  0.00     0.038 C 
HETATM   24  C23 UNL     1      -1.858  47.608 -21.296  1.00  0.00     0.008 C 
ENDBRANCH  22  23
BRANCH  22  25
HETATM   25  O6  UNL     1      -0.078  50.333 -19.735  1.00  0.00    -0.306 OA
BRANCH  25  26
HETATM   26  C24 UNL     1      -0.062  51.666 -19.441  1.00  0.00     0.259 C 
HETATM   27  O7  UNL     1      -0.269  52.138 -18.331  1.00  0.00    -0.265 OA
BRANCH  26  28
HETATM   28  C25 UNL     1       0.249  52.452 -20.693  1.00  0.00     0.111 C 
BRANCH  28  29
HETATM   29  C26 UNL     1       1.012  53.748 -20.417  1.00  0.00     0.005 C 
HETATM   30  C27 UNL     1       1.535  54.402 -21.688  1.00  0.00     0.005 C 
ENDBRANCH  28  29
ENDBRANCH  26  28
ENDBRANCH  25  26
ENDBRANCH  22  25
ENDBRANCH  20  22
ENDBRANCH  19  20
ENDBRANCH  16  19
BRANCH   5  31
HETATM   31  C6  UNL     1      -1.791  51.989 -25.233  1.00  0.00     0.010 C 
HETATM   32  C7  UNL     1      -0.683  51.864 -24.188  1.00  0.00     0.012 C 
BRANCH  31  33
HETATM   33  C8  UNL     1      -1.234  52.589 -26.539  1.00  0.00     0.168 C 
BRANCH  33  34
HETATM   34  O1  UNL     1      -2.244  53.208 -27.319  1.00  0.00    -0.400 OA
HETATM   35  H14 UNL     1      -1.796  53.658 -28.054  1.00  0.00     0.209 HD
ENDBRANCH  33  34
ENDBRANCH  31  33
ENDBRANCH   5  31
BRANCH  13  36
HETATM   36  O3  UNL     1      -5.897  47.623 -20.439  1.00  0.00    -0.391 OA
HETATM   37  H23 UNL     1      -6.287  46.733 -20.496  1.00  0.00     0.210 HD
ENDBRANCH  13  36
TORSDOF 12
ENDMDL
MODEL 8
REMARK minimizedAffinity -7.7804203
REMARK  12 active torsions:
REMARK  status: ('A' for Active; 'I' for Inactive)
REMARK    1  A    between atoms: C5_5  and  C6_6 
REMARK    2  A    between atoms: C6_6  and  C8_8 
REMARK    3  A    between atoms: C8_8  and  O1_9 
REMARK    4  A    between atoms: C15_17  and  O3_18 
REMARK    5  A    between atoms: C18_21  and  O4_23 
REMARK    6  A    between atoms: O4_23  and  C20_24 
REMARK    7  A    between atoms: C20_24  and  C21_26 
REMARK    8  A    between atoms: C21_26  and  C22_27 
REMARK    9  A    between atoms: C21_26  and  O6_29 
REMARK   10  A    between atoms: O6_29  and  C24_30 
REMARK   11  A    between atoms: C24_30  and  C25_32 
REMARK   12  A    between atoms: C25_32  and  C26_33 
ROOT
HETATM    1  C1  UNL     1      -2.948  47.683 -18.984  1.00  0.00     0.015 C 
HETATM    2  C2  UNL     1      -2.963  47.364 -20.287  1.00  0.00    -0.082 C 
HETATM    3  C3  UNL     1      -3.704  46.133 -20.755  1.00  0.00     0.034 C 
HETATM    4  C4  UNL     1      -4.701  46.492 -21.867  1.00  0.00     0.010 C 
HETATM    5  C5  UNL     1      -4.986  48.012 -21.934  1.00  0.00    -0.001 C 
HETATM    6  C9  UNL     1      -3.643  48.754 -22.301  1.00  0.00     0.033 C 
HETATM    7  C10 UNL     1      -3.669  50.286 -21.975  1.00  0.00     0.162 C 
HETATM    8  O2  UNL     1      -2.714  50.421 -20.905  1.00  0.00    -0.376 OA
HETATM    9  C11 UNL     1      -1.674  49.481 -21.212  1.00  0.00     0.134 C 
HETATM   10  C12 UNL     1      -0.491  49.607 -20.267  1.00  0.00     0.068 C 
HETATM   11  C13 UNL     1      -0.086  51.065 -20.043  1.00  0.00    -0.059 C 
HETATM   12  C14 UNL     1       0.157  51.503 -18.792  1.00  0.00     0.017 C 
HETATM   13  C15 UNL     1       0.048  52.011 -21.229  1.00  0.00     0.146 C 
HETATM   14  C16 UNL     1      -1.265  52.597 -21.820  1.00  0.00     0.039 C 
HETATM   15  C17 UNL     1      -1.840  51.928 -23.089  1.00  0.00     0.044 C 
HETATM   16  C18 UNL     1      -3.313  51.365 -23.088  1.00  0.00     0.093 C 
HETATM   17  C19 UNL     1      -4.242  52.589 -22.921  1.00  0.00     0.049 C 
HETATM   18  C28 UNL     1      -2.443  48.195 -21.450  1.00  0.00     0.050 C 
ENDROOT
BRANCH  16  19
HETATM   19  O4  UNL     1      -3.379  50.817 -24.446  1.00  0.00    -0.306 OA
BRANCH  19  20
HETATM   20  C20 UNL     1      -3.155  51.510 -25.585  1.00  0.00     0.289 C 
HETATM   21  O5  UNL     1      -3.583  52.630 -25.825  1.00  0.00    -0.262 OA
BRANCH  20  22
HETATM   22  C21 UNL     1      -2.223  50.706 -26.510  1.00  0.00     0.231 C 
BRANCH  22  23
HETATM   23  C22 UNL     1      -2.960  49.826 -27.527  1.00  0.00     0.038 C 
HETATM   24  C23 UNL     1      -3.368  48.460 -26.991  1.00  0.00     0.008 C 
ENDBRANCH  22  23
BRANCH  22  25
HETATM   25  O6  UNL     1      -1.415  51.621 -27.282  1.00  0.00    -0.306 OA
BRANCH  25  26
HETATM   26  C24 UNL     1      -0.353  52.156 -26.612  1.00  0.00     0.259 C 
HETATM   27  O7  UNL     1      -0.156  53.354 -26.458  1.00  0.00    -0.265 OA
BRANCH  26  28
HETATM   28  C25 UNL     1       0.529  51.041 -26.099  1.00  0.00     0.111 C 
BRANCH  28  29
HETATM   29  C26 UNL     1       2.021  51.362 -26.191  1.00  0.00     0.005 C 
HETATM   30  C27 UNL     1       2.454  51.736 -27.601  1.00  0.00     0.005 C 
ENDBRANCH  28  29
ENDBRANCH  26  28
ENDBRANCH  25  26
ENDBRANCH  22  25
ENDBRANCH  20  22
ENDBRANCH  19  20
ENDBRANCH  16  19
BRANCH   5  31
HETATM   31  C6  UNL     1      -6.182  48.392 -22.849  1.00  0.00     0.010 C 
HETATM   32  C7  UNL     1      -7.009  47.189 -23.305  1.00  0.00     0.012 C 
BRANCH  31  33
HETATM   33  C8  UNL     1      -7.093  49.463 -22.219  1.00  0.00     0.168 C 
BRANCH  33  34
HETATM   34  O1  UNL     1      -7.811  50.199 -23.195  1.00  0.00    -0.400 OA
HETATM   35  H14 UNL     1      -8.441  50.762 -22.716  1.00  0.00     0.209 HD
ENDBRANCH  33  34
ENDBRANCH  31  33
ENDBRANCH   5  31
BRANCH  13  36
HETATM   36  O3  UNL     1       0.854  51.394 -22.227  1.00  0.00    -0.391 OA
HETATM   37  H23 UNL     1       1.673  51.117 -21.780  1.00  0.00     0.210 HD
ENDBRANCH  13  36
TORSDOF 12
ENDMDL
MODEL 9
REMARK minimizedAffinity -7.76686096
REMARK  12 active torsions:
REMARK  status: ('A' for Active; 'I' for Inactive)
REMARK    1  A    between atoms: C5_5  and  C6_6 
REMARK    2  A    between atoms: C6_6  and  C8_8 
REMARK    3  A    between atoms: C8_8  and  O1_9 
REMARK    4  A    between atoms: C15_17  and  O3_18 
REMARK    5  A    between atoms: C18_21  and  O4_23 
REMARK    6  A    between atoms: O4_23  and  C20_24 
REMARK    7  A    between atoms: C20_24  and  C21_26 
REMARK    8  A    between atoms: C21_26  and  C22_27 
REMARK    9  A    between atoms: C21_26  and  O6_29 
REMARK   10  A    between atoms: O6_29  and  C24_30 
REMARK   11  A    between atoms: C24_30  and  C25_32 
REMARK   12  A    between atoms: C25_32  and  C26_33 
ROOT
HETATM    1  C1  UNL     1       1.161  54.207 -22.789  1.00  0.00     0.015 C 
HETATM    2  C2  UNL     1       0.980  52.920 -22.454  1.00  0.00    -0.082 C 
HETATM    3  C3  UNL     1       1.452  52.417 -21.109  1.00  0.00     0.034 C 
HETATM    4  C4  UNL     1       0.305  51.725 -20.358  1.00  0.00     0.010 C 
HETATM    5  C5  UNL     1      -1.081  52.070 -20.954  1.00  0.00    -0.001 C 
HETATM    6  C9  UNL     1      -1.138  51.520 -22.432  1.00  0.00     0.033 C 
HETATM    7  C10 UNL     1      -2.277  52.165 -23.292  1.00  0.00     0.162 C 
HETATM    8  O2  UNL     1      -1.561  52.936 -24.277  1.00  0.00    -0.376 OA
HETATM    9  C11 UNL     1      -0.394  52.160 -24.582  1.00  0.00     0.134 C 
HETATM   10  C12 UNL     1       0.400  52.750 -25.737  1.00  0.00     0.068 C 
HETATM   11  C13 UNL     1      -0.500  53.166 -26.901  1.00  0.00    -0.059 C 
HETATM   12  C14 UNL     1      -0.321  54.367 -27.485  1.00  0.00     0.017 C 
HETATM   13  C15 UNL     1      -1.588  52.223 -27.400  1.00  0.00     0.146 C 
HETATM   14  C16 UNL     1      -2.901  52.155 -26.572  1.00  0.00     0.039 C 
HETATM   15  C17 UNL     1      -3.065  50.978 -25.585  1.00  0.00     0.044 C 
HETATM   16  C18 UNL     1      -3.338  51.259 -24.057  1.00  0.00     0.093 C 
HETATM   17  C19 UNL     1      -4.726  51.934 -23.983  1.00  0.00     0.049 C 
HETATM   18  C28 UNL     1       0.184  51.868 -23.210  1.00  0.00     0.050 C 
ENDROOT
BRANCH  16  19
HETATM   19  O4  UNL     1      -3.377  49.885 -23.546  1.00  0.00    -0.306 OA
BRANCH  19  20
HETATM   20  C20 UNL     1      -4.156  48.890 -24.026  1.00  0.00     0.289 C 
HETATM   21  O5  UNL     1      -4.027  48.357 -25.119  1.00  0.00    -0.262 OA
BRANCH  20  22
HETATM   22  C21 UNL     1      -5.191  48.479 -22.962  1.00  0.00     0.231 C 
BRANCH  22  23
HETATM   23  C22 UNL     1      -4.770  47.272 -22.114  1.00  0.00     0.038 C 
HETATM   24  C23 UNL     1      -3.270  47.175 -21.869  1.00  0.00     0.008 C 
ENDBRANCH  22  23
BRANCH  22  25
HETATM   25  O6  UNL     1      -5.383  49.572 -22.039  1.00  0.00    -0.306 OA
BRANCH  25  26
HETATM   26  C24 UNL     1      -6.685  49.858 -21.748  1.00  0.00     0.259 C 
HETATM   27  O7  UNL     1      -7.560  50.054 -22.580  1.00  0.00    -0.265 OA
BRANCH  26  28
HETATM   28  C25 UNL     1      -6.868  49.891 -20.248  1.00  0.00     0.111 C 
BRANCH  28  29
HETATM   29  C26 UNL     1      -7.834  48.824 -19.735  1.00  0.00     0.005 C 
HETATM   30  C27 UNL     1      -8.423  49.172 -18.375  1.00  0.00     0.005 C 
ENDBRANCH  28  29
ENDBRANCH  26  28
ENDBRANCH  25  26
ENDBRANCH  22  25
ENDBRANCH  20  22
ENDBRANCH  19  20
ENDBRANCH  16  19
BRANCH   5  31
HETATM   31  C6  UNL     1      -2.279  51.621 -20.072  1.00  0.00     0.010 C 
HETATM   32  C7  UNL     1      -2.679  50.161 -20.280  1.00  0.00     0.012 C 
BRANCH  31  33
HETATM   33  C8  UNL     1      -2.052  51.908 -18.575  1.00  0.00     0.168 C 
BRANCH  33  34
HETATM   34  O1  UNL     1      -3.082  51.370 -17.763  1.00  0.00    -0.400 OA
HETATM   35  H14 UNL     1      -2.805  51.490 -16.839  1.00  0.00     0.209 HD
ENDBRANCH  33  34
ENDBRANCH  31  33
ENDBRANCH   5  31
BRANCH  13  36
HETATM   36  O3  UNL     1      -1.023  50.934 -27.612  1.00  0.00    -0.391 OA
HETATM   37  H23 UNL     1      -0.249  51.069 -28.187  1.00  0.00     0.210 HD
ENDBRANCH  13  36
TORSDOF 12
ENDMDL
