MODEL 1
REMARK minimizedAffinity -7.45102882
REMARK CNNscore 0.318998307
REMARK CNNaffinity 6.68799734
REMARK  9 active torsions:
REMARK  status: ('A' for Active; 'I' for Inactive)
REMARK    1  A    between atoms: C5_5  and  O1_6 
REMARK    2  A    between atoms: C8_9  and  C9_10 
REMARK    3  A    between atoms: C19_20  and  C20_21 
REMARK    4  A    between atoms: C20_21  and  C22_23 
REMARK    5  A    between atoms: C23_24  and  C24_25 
REMARK    6  A    between atoms: C24_25  and  O2_27 
REMARK    7  A    between atoms: C24_25  and  C26_28 
REMARK    8  A    between atoms: C26_28  and  C28_30 
REMARK    9  A    between atoms: C28_30  and  O3_31 
ROOT
HETATM    1  C9  UNL     1      -2.336  49.931 -24.489  1.00  0.00     0.004 C 
HETATM    2  C10 UNL     1      -2.649  50.165 -23.197  1.00  0.00    -0.075 C 
HETATM    3  C11 UNL     1      -3.096  51.486 -22.627  1.00  0.00     0.034 C 
HETATM    4  C12 UNL     1      -4.412  51.326 -21.873  1.00  0.00     0.005 C 
HETATM    5  C13 UNL     1      -4.254  50.338 -20.722  1.00  0.00     0.010 C 
HETATM    6  C14 UNL     1      -3.765  48.932 -21.165  1.00  0.00    -0.032 C 
HETATM    7  C15 UNL     1      -4.920  48.174 -21.848  1.00  0.00     0.016 C 
HETATM    8  C16 UNL     1      -2.592  49.018 -22.202  1.00  0.00     0.023 C 
HETATM    9  C17 UNL     1      -1.330  48.971 -21.350  1.00  0.00     0.010 C 
HETATM   10  C18 UNL     1      -1.680  47.864 -20.365  1.00  0.00     0.007 C 
HETATM   11  C19 UNL     1      -3.114  48.207 -19.910  1.00  0.00     0.002 C 
ENDROOT
BRANCH  11  12
HETATM   12  C20 UNL     1      -3.892  47.035 -19.245  1.00  0.00     0.009 C 
HETATM   13  C21 UNL     1      -3.872  45.786 -20.142  1.00  0.00     0.014 C 
BRANCH  12  14
HETATM   14  C22 UNL     1      -5.308  47.444 -18.855  1.00  0.00    -0.023 C 
HETATM   15  C23 UNL     1      -6.300  46.659 -18.397  1.00  0.00     0.007 C 
BRANCH  15  16
HETATM   16  C24 UNL     1      -7.707  47.084 -17.999  1.00  0.00     0.077 C 
HETATM   17  C25 UNL     1      -8.719  45.932 -17.941  1.00  0.00     0.051 C 
BRANCH  16  18
HETATM   18  O2  UNL     1      -7.588  47.542 -16.639  1.00  0.00    -0.386 OA
HETATM   19  H37 UNL     1      -6.932  48.256 -16.617  1.00  0.00     0.211 HD
ENDBRANCH  16  18
BRANCH  16  20
HETATM   20  C26 UNL     1      -8.172  48.294 -18.875  1.00  0.00     0.043 C 
HETATM   21  C27 UNL     1      -8.795  49.427 -18.043  1.00  0.00     0.015 C 
BRANCH  20  22
HETATM   22  C28 UNL     1      -9.103  47.915 -20.039  1.00  0.00     0.171 C 
BRANCH  22  23
HETATM   23  O3  UNL     1      -8.383  47.691 -21.242  1.00  0.00    -0.400 OA
HETATM   24  H44 UNL     1      -9.033  47.474 -21.931  1.00  0.00     0.209 HD
ENDBRANCH  22  23
ENDBRANCH  20  22
ENDBRANCH  16  20
ENDBRANCH  15  16
ENDBRANCH  12  14
ENDBRANCH  11  12
BRANCH   1  25
HETATM   25  C8  UNL     1      -2.355  50.876 -25.590  1.00  0.00     0.008 C 
HETATM   26  C7  UNL     1      -1.340  51.673 -25.986  1.00  0.00    -0.050 C 
HETATM   27  C2  UNL     1      -0.028  51.762 -25.357  1.00  0.00    -0.061 C 
HETATM   28  C6  UNL     1      -1.473  52.533 -27.234  1.00  0.00     0.070 C 
HETATM   29  C1  UNL     1       0.134  52.145 -24.080  1.00  0.00     0.019 C 
HETATM   30  C3  UNL     1       1.158  51.517 -26.261  1.00  0.00     0.041 C 
HETATM   31  C4  UNL     1       0.787  51.459 -27.748  1.00  0.00     0.036 C 
HETATM   32  C5  UNL     1      -0.209  52.558 -28.119  1.00  0.00     0.122 C 
BRANCH  32  33
HETATM   33  O1  UNL     1       0.425  53.835 -28.002  1.00  0.00    -0.395 OA
HETATM   34  H8  UNL     1       1.202  53.833 -28.587  1.00  0.00     0.210 HD
ENDBRANCH  32  33
ENDBRANCH   1  25
TORSDOF 9
ENDMDL
MODEL 2
REMARK minimizedAffinity -9.29997253
REMARK CNNscore 0.316745609
REMARK CNNaffinity 7.0338273
REMARK  9 active torsions:
REMARK  status: ('A' for Active; 'I' for Inactive)
REMARK    1  A    between atoms: C5_5  and  O1_6 
REMARK    2  A    between atoms: C8_9  and  C9_10 
REMARK    3  A    between atoms: C19_20  and  C20_21 
REMARK    4  A    between atoms: C20_21  and  C22_23 
REMARK    5  A    between atoms: C23_24  and  C24_25 
REMARK    6  A    between atoms: C24_25  and  O2_27 
REMARK    7  A    between atoms: C24_25  and  C26_28 
REMARK    8  A    between atoms: C26_28  and  C28_30 
REMARK    9  A    between atoms: C28_30  and  O3_31 
ROOT
HETATM    1  C9  UNL     1      -0.838  51.037 -22.970  1.00  0.00     0.004 C 
HETATM    2  C10 UNL     1      -1.493  51.109 -21.792  1.00  0.00    -0.075 C 
HETATM    3  C11 UNL     1      -2.959  51.411 -21.618  1.00  0.00     0.034 C 
HETATM    4  C12 UNL     1      -3.633  50.329 -20.781  1.00  0.00     0.005 C 
HETATM    5  C13 UNL     1      -2.996  50.245 -19.398  1.00  0.00     0.010 C 
HETATM    6  C14 UNL     1      -1.467  49.966 -19.427  1.00  0.00    -0.032 C 
HETATM    7  C15 UNL     1      -1.218  48.489 -19.790  1.00  0.00     0.016 C 
HETATM    8  C16 UNL     1      -0.733  50.837 -20.504  1.00  0.00     0.023 C 
HETATM    9  C17 UNL     1      -0.290  52.082 -19.746  1.00  0.00     0.010 C 
HETATM   10  C18 UNL     1       0.243  51.470 -18.459  1.00  0.00     0.007 C 
HETATM   11  C19 UNL     1      -0.841  50.451 -18.050  1.00  0.00     0.002 C 
ENDROOT
BRANCH  11  12
HETATM   12  C20 UNL     1      -0.381  49.374 -17.026  1.00  0.00     0.009 C 
HETATM   13  C21 UNL     1      -1.588  48.765 -16.291  1.00  0.00     0.014 C 
BRANCH  12  14
HETATM   14  C22 UNL     1       0.667  49.919 -16.063  1.00  0.00    -0.023 C 
HETATM   15  C23 UNL     1       1.269  51.123 -16.088  1.00  0.00     0.007 C 
BRANCH  15  16
HETATM   16  C24 UNL     1       2.307  51.658 -15.111  1.00  0.00     0.077 C 
HETATM   17  C25 UNL     1       3.417  52.490 -15.766  1.00  0.00     0.051 C 
BRANCH  16  18
HETATM   18  O2  UNL     1       1.590  52.590 -14.278  1.00  0.00    -0.386 OA
HETATM   19  H37 UNL     1       0.853  52.116 -13.861  1.00  0.00     0.211 HD
ENDBRANCH  16  18
BRANCH  16  20
HETATM   20  C26 UNL     1       2.833  50.503 -14.198  1.00  0.00     0.043 C 
HETATM   21  C27 UNL     1       2.328  50.612 -12.750  1.00  0.00     0.015 C 
BRANCH  20  22
HETATM   22  C28 UNL     1       4.361  50.325 -14.217  1.00  0.00     0.171 C 
BRANCH  22  23
HETATM   23  O3  UNL     1       4.828  49.634 -13.068  1.00  0.00    -0.400 OA
HETATM   24  H44 UNL     1       5.796  49.574 -13.142  1.00  0.00     0.209 HD
ENDBRANCH  22  23
ENDBRANCH  20  22
ENDBRANCH  16  20
ENDBRANCH  15  16
ENDBRANCH  12  14
ENDBRANCH  11  12
BRANCH   1  25
HETATM   25  C8  UNL     1      -1.385  51.233 -24.299  1.00  0.00     0.008 C 
HETATM   26  C7  UNL     1      -0.809  51.905 -25.317  1.00  0.00    -0.050 C 
HETATM   27  C2  UNL     1       0.473  52.598 -25.267  1.00  0.00    -0.061 C 
HETATM   28  C6  UNL     1      -1.455  51.928 -26.694  1.00  0.00     0.070 C 
HETATM   29  C1  UNL     1       0.707  53.618 -24.425  1.00  0.00     0.019 C 
HETATM   30  C3  UNL     1       1.492  52.185 -26.304  1.00  0.00     0.041 C 
HETATM   31  C4  UNL     1       0.914  51.276 -27.395  1.00  0.00     0.036 C 
HETATM   32  C5  UNL     1      -0.459  51.765 -27.861  1.00  0.00     0.122 C 
BRANCH  32  33
HETATM   33  O1  UNL     1      -0.313  53.017 -28.538  1.00  0.00    -0.395 OA
HETATM   34  H8  UNL     1       0.299  52.880 -29.282  1.00  0.00     0.210 HD
ENDBRANCH  32  33
ENDBRANCH   1  25
TORSDOF 9
ENDMDL
MODEL 3
REMARK minimizedAffinity -8.91556263
REMARK CNNscore 0.310263515
REMARK CNNaffinity 6.50812769
REMARK  9 active torsions:
REMARK  status: ('A' for Active; 'I' for Inactive)
REMARK    1  A    between atoms: C5_5  and  O1_6 
REMARK    2  A    between atoms: C8_9  and  C9_10 
REMARK    3  A    between atoms: C19_20  and  C20_21 
REMARK    4  A    between atoms: C20_21  and  C22_23 
REMARK    5  A    between atoms: C23_24  and  C24_25 
REMARK    6  A    between atoms: C24_25  and  O2_27 
REMARK    7  A    between atoms: C24_25  and  C26_28 
REMARK    8  A    between atoms: C26_28  and  C28_30 
REMARK    9  A    between atoms: C28_30  and  O3_31 
ROOT
HETATM    1  C9  UNL     1      -6.257  48.105 -25.172  1.00  0.00     0.004 C 
HETATM    2  C10 UNL     1      -4.938  48.341 -25.336  1.00  0.00    -0.075 C 
HETATM    3  C11 UNL     1      -4.148  48.083 -26.593  1.00  0.00     0.034 C 
HETATM    4  C12 UNL     1      -3.405  49.342 -27.027  1.00  0.00     0.005 C 
HETATM    5  C13 UNL     1      -2.437  49.796 -25.939  1.00  0.00     0.010 C 
HETATM    6  C14 UNL     1      -3.116  50.071 -24.569  1.00  0.00    -0.032 C 
HETATM    7  C15 UNL     1      -3.892  51.401 -24.635  1.00  0.00     0.016 C 
HETATM    8  C16 UNL     1      -4.147  48.952 -24.191  1.00  0.00     0.023 C 
HETATM    9  C17 UNL     1      -3.341  47.957 -23.367  1.00  0.00     0.010 C 
HETATM   10  C18 UNL     1      -2.546  48.894 -22.468  1.00  0.00     0.007 C 
HETATM   11  C19 UNL     1      -2.012  49.974 -23.431  1.00  0.00     0.002 C 
ENDROOT
BRANCH  11  12
HETATM   12  C20 UNL     1      -1.535  51.288 -22.749  1.00  0.00     0.009 C 
HETATM   13  C21 UNL     1      -2.664  51.910 -21.908  1.00  0.00     0.014 C 
BRANCH  12  14
HETATM   14  C22 UNL     1      -0.956  52.274 -23.757  1.00  0.00    -0.023 C 
HETATM   15  C23 UNL     1      -0.168  52.008 -24.815  1.00  0.00     0.007 C 
BRANCH  15  16
HETATM   16  C24 UNL     1       0.393  53.003 -25.823  1.00  0.00     0.077 C 
HETATM   17  C25 UNL     1       0.292  54.469 -25.382  1.00  0.00     0.051 C 
BRANCH  16  18
HETATM   18  O2  UNL     1       1.806  52.728 -25.872  1.00  0.00    -0.386 OA
HETATM   19  H37 UNL     1       1.924  51.798 -26.120  1.00  0.00     0.211 HD
ENDBRANCH  16  18
BRANCH  16  20
HETATM   20  C26 UNL     1      -0.201  52.724 -27.243  1.00  0.00     0.043 C 
HETATM   21  C27 UNL     1       0.668  51.766 -28.074  1.00  0.00     0.015 C 
BRANCH  20  22
HETATM   22  C28 UNL     1      -0.524  53.990 -28.055  1.00  0.00     0.171 C 
BRANCH  22  23
HETATM   23  O3  UNL     1      -1.906  54.079 -28.369  1.00  0.00    -0.400 OA
HETATM   24  H44 UNL     1      -2.030  54.889 -28.894  1.00  0.00     0.209 HD
ENDBRANCH  22  23
ENDBRANCH  20  22
ENDBRANCH  16  20
ENDBRANCH  15  16
ENDBRANCH  12  14
ENDBRANCH  11  12
BRANCH   1  25
HETATM   25  C8  UNL     1      -7.185  47.558 -26.144  1.00  0.00     0.008 C 
HETATM   26  C7  UNL     1      -8.252  46.774 -25.888  1.00  0.00    -0.050 C 
HETATM   27  C2  UNL     1      -8.664  46.293 -24.574  1.00  0.00    -0.061 C 
HETATM   28  C6  UNL     1      -9.203  46.370 -27.005  1.00  0.00     0.070 C 
HETATM   29  C1  UNL     1      -7.876  45.516 -23.813  1.00  0.00     0.019 C 
HETATM   30  C3  UNL     1     -10.082  46.616 -24.165  1.00  0.00     0.041 C 
HETATM   31  C4  UNL     1     -10.930  47.185 -25.308  1.00  0.00     0.036 C 
HETATM   32  C5  UNL     1     -10.694  46.421 -26.612  1.00  0.00     0.122 C 
BRANCH  32  33
HETATM   33  O1  UNL     1     -11.195  45.088 -26.481  1.00  0.00    -0.395 OA
HETATM   34  H8  UNL     1     -12.140  45.149 -26.259  1.00  0.00     0.210 HD
ENDBRANCH  32  33
ENDBRANCH   1  25
TORSDOF 9
ENDMDL
MODEL 4
REMARK minimizedAffinity -8.84887791
REMARK CNNscore 0.304297537
REMARK CNNaffinity 6.9057622
REMARK  9 active torsions:
REMARK  status: ('A' for Active; 'I' for Inactive)
REMARK    1  A    between atoms: C5_5  and  O1_6 
REMARK    2  A    between atoms: C8_9  and  C9_10 
REMARK    3  A    between atoms: C19_20  and  C20_21 
REMARK    4  A    between atoms: C20_21  and  C22_23 
REMARK    5  A    between atoms: C23_24  and  C24_25 
REMARK    6  A    between atoms: C24_25  and  O2_27 
REMARK    7  A    between atoms: C24_25  and  C26_28 
REMARK    8  A    between atoms: C26_28  and  C28_30 
REMARK    9  A    between atoms: C28_30  and  O3_31 
ROOT
HETATM    1  C9  UNL     1      -0.843  51.044 -23.204  1.00  0.00     0.004 C 
HETATM    2  C10 UNL     1      -1.542  51.046 -22.050  1.00  0.00    -0.075 C 
HETATM    3  C11 UNL     1      -3.027  51.271 -21.922  1.00  0.00     0.034 C 
HETATM    4  C12 UNL     1      -3.677  50.131 -21.146  1.00  0.00     0.005 C 
HETATM    5  C13 UNL     1      -3.086  50.031 -19.743  1.00  0.00     0.010 C 
HETATM    6  C14 UNL     1      -1.546  49.826 -19.724  1.00  0.00    -0.032 C 
HETATM    7  C15 UNL     1      -1.212  48.376 -20.124  1.00  0.00     0.016 C 
HETATM    8  C16 UNL     1      -0.816  50.767 -20.744  1.00  0.00     0.023 C 
HETATM    9  C17 UNL     1      -0.462  52.006 -19.931  1.00  0.00     0.010 C 
HETATM   10  C18 UNL     1       0.054  51.376 -18.645  1.00  0.00     0.007 C 
HETATM   11  C19 UNL     1      -0.994  50.294 -18.309  1.00  0.00     0.002 C 
ENDROOT
BRANCH  11  12
HETATM   12  C20 UNL     1      -0.519  49.206 -17.303  1.00  0.00     0.009 C 
HETATM   13  C21 UNL     1      -1.713  48.400 -16.763  1.00  0.00     0.014 C 
BRANCH  12  14
HETATM   14  C22 UNL     1       0.331  49.800 -16.186  1.00  0.00    -0.023 C 
HETATM   15  C23 UNL     1       0.876  51.029 -16.124  1.00  0.00     0.007 C 
BRANCH  15  16
HETATM   16  C24 UNL     1       1.714  51.613 -14.994  1.00  0.00     0.077 C 
HETATM   17  C25 UNL     1       3.138  52.009 -15.407  1.00  0.00     0.051 C 
BRANCH  16  18
HETATM   18  O2  UNL     1       1.068  52.855 -14.655  1.00  0.00    -0.386 OA
HETATM   19  H37 UNL     1       0.149  52.661 -14.413  1.00  0.00     0.211 HD
ENDBRANCH  16  18
BRANCH  16  20
HETATM   20  C26 UNL     1       1.652  50.680 -13.741  1.00  0.00     0.043 C 
HETATM   21  C27 UNL     1       2.356  49.332 -13.967  1.00  0.00     0.015 C 
BRANCH  20  22
HETATM   22  C28 UNL     1       0.235  50.454 -13.187  1.00  0.00     0.171 C 
BRANCH  22  23
HETATM   23  O3  UNL     1      -0.193  51.532 -12.369  1.00  0.00    -0.400 OA
HETATM   24  H44 UNL     1      -1.083  51.312 -12.045  1.00  0.00     0.209 HD
ENDBRANCH  22  23
ENDBRANCH  20  22
ENDBRANCH  16  20
ENDBRANCH  15  16
ENDBRANCH  12  14
ENDBRANCH  11  12
BRANCH   1  25
HETATM   25  C8  UNL     1      -1.350  51.258 -24.546  1.00  0.00     0.008 C 
HETATM   26  C7  UNL     1      -0.749  51.953 -25.535  1.00  0.00    -0.050 C 
HETATM   27  C2  UNL     1       0.524  52.657 -25.432  1.00  0.00    -0.061 C 
HETATM   28  C6  UNL     1      -1.353  51.995 -26.930  1.00  0.00     0.070 C 
HETATM   29  C1  UNL     1       0.722  53.664 -24.567  1.00  0.00     0.019 C 
HETATM   30  C3  UNL     1       1.577  52.271 -26.445  1.00  0.00     0.041 C 
HETATM   31  C4  UNL     1       1.042  51.376 -27.569  1.00  0.00     0.036 C 
HETATM   32  C5  UNL     1      -0.320  51.861 -28.068  1.00  0.00     0.122 C 
BRANCH  32  33
HETATM   33  O1  UNL     1      -0.166  53.126 -28.719  1.00  0.00    -0.395 OA
HETATM   34  H8  UNL     1       0.470  53.007 -29.446  1.00  0.00     0.210 HD
ENDBRANCH  32  33
ENDBRANCH   1  25
TORSDOF 9
ENDMDL
MODEL 5
REMARK minimizedAffinity -7.58360291
REMARK CNNscore 0.303589106
REMARK CNNaffinity 5.33029509
REMARK  9 active torsions:
REMARK  status: ('A' for Active; 'I' for Inactive)
REMARK    1  A    between atoms: C5_5  and  O1_6 
REMARK    2  A    between atoms: C8_9  and  C9_10 
REMARK    3  A    between atoms: C19_20  and  C20_21 
REMARK    4  A    between atoms: C20_21  and  C22_23 
REMARK    5  A    between atoms: C23_24  and  C24_25 
REMARK    6  A    between atoms: C24_25  and  O2_27 
REMARK    7  A    between atoms: C24_25  and  C26_28 
REMARK    8  A    between atoms: C26_28  and  C28_30 
REMARK    9  A    between atoms: C28_30  and  O3_31 
ROOT
HETATM    1  C9  UNL     1       6.596  64.828 -36.818  1.00  0.00     0.004 C 
HETATM    2  C10 UNL     1       6.021  66.045 -36.718  1.00  0.00    -0.075 C 
HETATM    3  C11 UNL     1       6.429  67.134 -35.759  1.00  0.00     0.034 C 
HETATM    4  C12 UNL     1       6.703  68.433 -36.510  1.00  0.00     0.005 C 
HETATM    5  C13 UNL     1       5.455  68.896 -37.255  1.00  0.00     0.010 C 
HETATM    6  C14 UNL     1       4.903  67.850 -38.263  1.00  0.00    -0.032 C 
HETATM    7  C15 UNL     1       5.808  67.807 -39.510  1.00  0.00     0.016 C 
HETATM    8  C16 UNL     1       4.881  66.405 -37.657  1.00  0.00     0.023 C 
HETATM    9  C17 UNL     1       3.488  66.267 -37.056  1.00  0.00     0.010 C 
HETATM   10  C18 UNL     1       2.631  66.874 -38.157  1.00  0.00     0.007 C 
HETATM   11  C19 UNL     1       3.371  68.174 -38.535  1.00  0.00     0.002 C 
ENDROOT
BRANCH  11  12
HETATM   12  C20 UNL     1       2.976  68.780 -39.913  1.00  0.00     0.009 C 
HETATM   13  C21 UNL     1       3.126  70.311 -39.902  1.00  0.00     0.014 C 
BRANCH  12  14
HETATM   14  C22 UNL     1       1.584  68.338 -40.348  1.00  0.00    -0.023 C 
HETATM   15  C23 UNL     1       0.599  69.095 -40.867  1.00  0.00     0.007 C 
BRANCH  15  16
HETATM   16  C24 UNL     1      -0.785  68.637 -41.309  1.00  0.00     0.077 C 
HETATM   17  C25 UNL     1      -0.791  67.310 -42.080  1.00  0.00     0.051 C 
BRANCH  16  18
HETATM   18  O2  UNL     1      -1.493  68.357 -40.086  1.00  0.00    -0.386 OA
HETATM   19  H37 UNL     1      -1.492  69.163 -39.546  1.00  0.00     0.211 HD
ENDBRANCH  16  18
BRANCH  16  20
HETATM   20  C26 UNL     1      -1.529  69.801 -42.041  1.00  0.00     0.043 C 
HETATM   21  C27 UNL     1      -1.512  71.114 -41.241  1.00  0.00     0.015 C 
BRANCH  20  22
HETATM   22  C28 UNL     1      -2.964  69.461 -42.478  1.00  0.00     0.171 C 
BRANCH  22  23
HETATM   23  O3  UNL     1      -3.792  69.138 -41.371  1.00  0.00    -0.400 OA
HETATM   24  H44 UNL     1      -4.672  68.919 -41.723  1.00  0.00     0.209 HD
ENDBRANCH  22  23
ENDBRANCH  20  22
ENDBRANCH  16  20
ENDBRANCH  15  16
ENDBRANCH  12  14
ENDBRANCH  11  12
BRANCH   1  25
HETATM   25  C8  UNL     1       7.705  64.307 -36.041  1.00  0.00     0.008 C 
HETATM   26  C7  UNL     1       7.629  63.459 -34.994  1.00  0.00    -0.050 C 
HETATM   27  C2  UNL     1       6.401  62.922 -34.417  1.00  0.00    -0.061 C 
HETATM   28  C6  UNL     1       8.892  62.909 -34.349  1.00  0.00     0.070 C 
HETATM   29  C1  UNL     1       5.454  63.709 -33.883  1.00  0.00     0.019 C 
HETATM   30  C3  UNL     1       6.309  61.416 -34.340  1.00  0.00     0.041 C 
HETATM   31  C4  UNL     1       7.631  60.708 -34.658  1.00  0.00     0.036 C 
HETATM   32  C5  UNL     1       8.815  61.410 -33.990  1.00  0.00     0.122 C 
BRANCH  32  33
HETATM   33  O1  UNL     1       8.714  61.267 -32.570  1.00  0.00    -0.395 OA
HETATM   34  H8  UNL     1       8.693  60.315 -32.371  1.00  0.00     0.210 HD
ENDBRANCH  32  33
ENDBRANCH   1  25
TORSDOF 9
ENDMDL
MODEL 6
REMARK minimizedAffinity -7.81566811
REMARK CNNscore 0.257507175
REMARK CNNaffinity 5.99818182
REMARK  9 active torsions:
REMARK  status: ('A' for Active; 'I' for Inactive)
REMARK    1  A    between atoms: C5_5  and  O1_6 
REMARK    2  A    between atoms: C8_9  and  C9_10 
REMARK    3  A    between atoms: C19_20  and  C20_21 
REMARK    4  A    between atoms: C20_21  and  C22_23 
REMARK    5  A    between atoms: C23_24  and  C24_25 
REMARK    6  A    between atoms: C24_25  and  O2_27 
REMARK    7  A    between atoms: C24_25  and  C26_28 
REMARK    8  A    between atoms: C26_28  and  C28_30 
REMARK    9  A    between atoms: C28_30  and  O3_31 
ROOT
HETATM    1  C9  UNL     1      -6.842  48.739 -23.893  1.00  0.00     0.004 C 
HETATM    2  C10 UNL     1      -6.249  49.623 -23.064  1.00  0.00    -0.075 C 
HETATM    3  C11 UNL     1      -6.824  50.135 -21.768  1.00  0.00     0.034 C 
HETATM    4  C12 UNL     1      -5.836  49.926 -20.625  1.00  0.00     0.005 C 
HETATM    5  C13 UNL     1      -4.533  50.672 -20.897  1.00  0.00     0.010 C 
HETATM    6  C14 UNL     1      -3.843  50.262 -22.227  1.00  0.00    -0.032 C 
HETATM    7  C15 UNL     1      -3.185  48.878 -22.063  1.00  0.00     0.016 C 
HETATM    8  C16 UNL     1      -4.866  50.150 -23.410  1.00  0.00     0.023 C 
HETATM    9  C17 UNL     1      -4.849  51.529 -24.057  1.00  0.00     0.010 C 
HETATM   10  C18 UNL     1      -3.356  51.823 -24.085  1.00  0.00     0.007 C 
HETATM   11  C19 UNL     1      -2.871  51.437 -22.672  1.00  0.00     0.002 C 
ENDROOT
BRANCH  11  12
HETATM   12  C20 UNL     1      -1.336  51.219 -22.539  1.00  0.00     0.009 C 
HETATM   13  C21 UNL     1      -0.805  51.834 -21.233  1.00  0.00     0.014 C 
BRANCH  12  14
HETATM   14  C22 UNL     1      -0.584  51.725 -23.764  1.00  0.00    -0.023 C 
HETATM   15  C23 UNL     1      -0.673  52.934 -24.349  1.00  0.00     0.007 C 
BRANCH  15  16
HETATM   16  C24 UNL     1       0.096  53.430 -25.568  1.00  0.00     0.077 C 
HETATM   17  C25 UNL     1       0.330  54.947 -25.588  1.00  0.00     0.051 C 
BRANCH  16  18
HETATM   18  O2  UNL     1       1.410  52.855 -25.440  1.00  0.00    -0.386 OA
HETATM   19  H37 UNL     1       1.314  51.891 -25.393  1.00  0.00     0.211 HD
ENDBRANCH  16  18
BRANCH  16  20
HETATM   20  C26 UNL     1      -0.550  52.870 -26.876  1.00  0.00     0.043 C 
HETATM   21  C27 UNL     1       0.042  51.515 -27.299  1.00  0.00     0.015 C 
BRANCH  20  22
HETATM   22  C28 UNL     1      -0.535  53.850 -28.062  1.00  0.00     0.171 C 
BRANCH  22  23
HETATM   23  O3  UNL     1      -1.844  54.259 -28.427  1.00  0.00    -0.400 OA
HETATM   24  H44 UNL     1      -1.757  54.860 -29.188  1.00  0.00     0.209 HD
ENDBRANCH  22  23
ENDBRANCH  20  22
ENDBRANCH  16  20
ENDBRANCH  15  16
ENDBRANCH  12  14
ENDBRANCH  11  12
BRANCH   1  25
HETATM   25  C8  UNL     1      -8.136  48.102 -23.729  1.00  0.00     0.008 C 
HETATM   26  C7  UNL     1      -8.472  47.188 -22.796  1.00  0.00    -0.050 C 
HETATM   27  C2  UNL     1      -7.582  46.632 -21.783  1.00  0.00    -0.061 C 
HETATM   28  C6  UNL     1      -9.906  46.694 -22.677  1.00  0.00     0.070 C 
HETATM   29  C1  UNL     1      -6.474  45.943 -22.099  1.00  0.00     0.019 C 
HETATM   30  C3  UNL     1      -8.041  46.770 -20.350  1.00  0.00     0.041 C 
HETATM   31  C4  UNL     1      -9.490  47.254 -20.219  1.00  0.00     0.036 C 
HETATM   32  C5  UNL     1     -10.406  46.553 -21.224  1.00  0.00     0.122 C 
BRANCH  32  33
HETATM   33  O1  UNL     1     -10.505  45.165 -20.890  1.00  0.00    -0.395 OA
HETATM   34  H8  UNL     1     -10.845  45.105 -19.980  1.00  0.00     0.210 HD
ENDBRANCH  32  33
ENDBRANCH   1  25
TORSDOF 9
ENDMDL
MODEL 7
REMARK minimizedAffinity -7.41704702
REMARK CNNscore 0.248734832
REMARK CNNaffinity 5.8360486
REMARK  9 active torsions:
REMARK  status: ('A' for Active; 'I' for Inactive)
REMARK    1  A    between atoms: C5_5  and  O1_6 
REMARK    2  A    between atoms: C8_9  and  C9_10 
REMARK    3  A    between atoms: C19_20  and  C20_21 
REMARK    4  A    between atoms: C20_21  and  C22_23 
REMARK    5  A    between atoms: C23_24  and  C24_25 
REMARK    6  A    between atoms: C24_25  and  O2_27 
REMARK    7  A    between atoms: C24_25  and  C26_28 
REMARK    8  A    between atoms: C26_28  and  C28_30 
REMARK    9  A    between atoms: C28_30  and  O3_31 
ROOT
HETATM    1  C9  UNL     1      -7.247  47.404 -25.330  1.00  0.00     0.004 C 
HETATM    2  C10 UNL     1      -6.631  48.275 -24.502  1.00  0.00    -0.075 C 
HETATM    3  C11 UNL     1      -7.296  49.417 -23.777  1.00  0.00     0.034 C 
HETATM    4  C12 UNL     1      -7.007  49.341 -22.281  1.00  0.00     0.005 C 
HETATM    5  C13 UNL     1      -5.506  49.417 -22.019  1.00  0.00     0.010 C 
HETATM    6  C14 UNL     1      -4.687  48.308 -22.737  1.00  0.00    -0.032 C 
HETATM    7  C15 UNL     1      -4.892  46.963 -22.013  1.00  0.00     0.016 C 
HETATM    8  C16 UNL     1      -5.147  48.108 -24.223  1.00  0.00     0.023 C 
HETATM    9  C17 UNL     1      -4.236  49.026 -25.028  1.00  0.00     0.010 C 
HETATM   10  C18 UNL     1      -2.888  48.746 -24.379  1.00  0.00     0.007 C 
HETATM   11  C19 UNL     1      -3.182  48.799 -22.865  1.00  0.00     0.002 C 
ENDROOT
BRANCH  11  12
HETATM   12  C20 UNL     1      -2.106  48.130 -21.961  1.00  0.00     0.009 C 
HETATM   13  C21 UNL     1      -2.701  46.941 -21.189  1.00  0.00     0.014 C 
BRANCH  12  14
HETATM   14  C22 UNL     1      -1.434  49.141 -21.039  1.00  0.00    -0.023 C 
HETATM   15  C23 UNL     1      -1.545  50.482 -21.058  1.00  0.00     0.007 C 
BRANCH  15  16
HETATM   16  C24 UNL     1      -0.876  51.479 -20.121  1.00  0.00     0.077 C 
HETATM   17  C25 UNL     1      -1.799  52.031 -19.027  1.00  0.00     0.051 C 
BRANCH  16  18
HETATM   18  O2  UNL     1       0.120  50.715 -19.414  1.00  0.00    -0.386 OA
HETATM   19  H37 UNL     1       0.717  50.318 -20.068  1.00  0.00     0.211 HD
ENDBRANCH  16  18
BRANCH  16  20
HETATM   20  C26 UNL     1      -0.139  52.583 -20.947  1.00  0.00     0.043 C 
HETATM   21  C27 UNL     1      -0.058  52.250 -22.446  1.00  0.00     0.015 C 
BRANCH  20  22
HETATM   22  C28 UNL     1       1.253  52.955 -20.409  1.00  0.00     0.171 C 
BRANCH  22  23
HETATM   23  O3  UNL     1       1.308  54.303 -19.967  1.00  0.00    -0.400 OA
HETATM   24  H44 UNL     1       2.215  54.470 -19.659  1.00  0.00     0.209 HD
ENDBRANCH  22  23
ENDBRANCH  20  22
ENDBRANCH  16  20
ENDBRANCH  15  16
ENDBRANCH  12  14
ENDBRANCH  11  12
BRANCH   1  25
HETATM   25  C8  UNL     1      -8.649  47.376 -25.700  1.00  0.00     0.008 C 
HETATM   26  C7  UNL     1      -9.598  46.556 -25.204  1.00  0.00    -0.050 C 
HETATM   27  C2  UNL     1      -9.388  45.507 -24.212  1.00  0.00    -0.061 C 
HETATM   28  C6  UNL     1     -11.055  46.722 -25.609  1.00  0.00     0.070 C 
HETATM   29  C1  UNL     1      -8.565  44.469 -24.427  1.00  0.00     0.019 C 
HETATM   30  C3  UNL     1     -10.246  45.587 -22.971  1.00  0.00     0.041 C 
HETATM   31  C4  UNL     1     -11.372  46.623 -23.076  1.00  0.00     0.036 C 
HETATM   32  C5  UNL     1     -12.055  46.570 -24.443  1.00  0.00     0.122 C 
BRANCH  32  33
HETATM   33  O1  UNL     1     -12.755  45.329 -24.578  1.00  0.00    -0.395 OA
HETATM   34  H8  UNL     1     -13.394  45.271 -23.847  1.00  0.00     0.210 HD
ENDBRANCH  32  33
ENDBRANCH   1  25
TORSDOF 9
ENDMDL
MODEL 8
REMARK minimizedAffinity -9.18952179
REMARK CNNscore 0.244527444
REMARK CNNaffinity 6.22277641
REMARK  9 active torsions:
REMARK  status: ('A' for Active; 'I' for Inactive)
REMARK    1  A    between atoms: C5_5  and  O1_6 
REMARK    2  A    between atoms: C8_9  and  C9_10 
REMARK    3  A    between atoms: C19_20  and  C20_21 
REMARK    4  A    between atoms: C20_21  and  C22_23 
REMARK    5  A    between atoms: C23_24  and  C24_25 
REMARK    6  A    between atoms: C24_25  and  O2_27 
REMARK    7  A    between atoms: C24_25  and  C26_28 
REMARK    8  A    between atoms: C26_28  and  C28_30 
REMARK    9  A    between atoms: C28_30  and  O3_31 
ROOT
HETATM    1  C9  UNL     1      -0.266  50.514 -18.057  1.00  0.00     0.004 C 
HETATM    2  C10 UNL     1      -0.653  50.055 -19.266  1.00  0.00    -0.075 C 
HETATM    3  C11 UNL     1      -0.848  48.607 -19.636  1.00  0.00     0.034 C 
HETATM    4  C12 UNL     1      -2.238  48.387 -20.223  1.00  0.00     0.005 C 
HETATM    5  C13 UNL     1      -2.430  49.231 -21.479  1.00  0.00     0.010 C 
HETATM    6  C14 UNL     1      -2.226  50.754 -21.250  1.00  0.00    -0.032 C 
HETATM    7  C15 UNL     1      -3.444  51.331 -20.502  1.00  0.00     0.016 C 
HETATM    8  C16 UNL     1      -0.961  51.051 -20.372  1.00  0.00     0.023 C 
HETATM    9  C17 UNL     1       0.161  51.255 -21.382  1.00  0.00     0.010 C 
HETATM   10  C18 UNL     1      -0.532  52.127 -22.420  1.00  0.00     0.007 C 
HETATM   11  C19 UNL     1      -1.891  51.432 -22.647  1.00  0.00     0.002 C 
ENDROOT
BRANCH  11  12
HETATM   12  C20 UNL     1      -2.980  52.318 -23.319  1.00  0.00     0.009 C 
HETATM   13  C21 UNL     1      -4.388  51.771 -23.029  1.00  0.00     0.014 C 
BRANCH  12  14
HETATM   14  C22 UNL     1      -2.724  52.495 -24.811  1.00  0.00    -0.023 C 
HETATM   15  C23 UNL     1      -2.277  51.578 -25.689  1.00  0.00     0.007 C 
BRANCH  15  16
HETATM   16  C24 UNL     1      -2.038  51.766 -27.182  1.00  0.00     0.077 C 
HETATM   17  C25 UNL     1      -2.971  50.939 -28.077  1.00  0.00     0.051 C 
BRANCH  16  18
HETATM   18  O2  UNL     1      -2.391  53.137 -27.446  1.00  0.00    -0.386 OA
HETATM   19  H37 UNL     1      -1.845  53.704 -26.878  1.00  0.00     0.211 HD
ENDBRANCH  16  18
BRANCH  16  20
HETATM   20  C26 UNL     1      -0.520  51.588 -27.510  1.00  0.00     0.043 C 
HETATM   21  C27 UNL     1       0.239  50.817 -26.418  1.00  0.00     0.015 C 
BRANCH  20  22
HETATM   22  C28 UNL     1       0.215  52.897 -27.845  1.00  0.00     0.171 C 
BRANCH  22  23
HETATM   23  O3  UNL     1       0.504  53.655 -26.681  1.00  0.00    -0.400 OA
HETATM   24  H44 UNL     1       0.950  54.470 -26.971  1.00  0.00     0.209 HD
ENDBRANCH  22  23
ENDBRANCH  20  22
ENDBRANCH  16  20
ENDBRANCH  15  16
ENDBRANCH  12  14
ENDBRANCH  11  12
BRANCH   1  25
HETATM   25  C8  UNL     1       0.046  49.735 -16.874  1.00  0.00     0.008 C 
HETATM   26  C7  UNL     1       0.684  50.169 -15.767  1.00  0.00    -0.050 C 
HETATM   27  C2  UNL     1       1.219  51.510 -15.560  1.00  0.00    -0.061 C 
HETATM   28  C6  UNL     1       0.837  49.263 -14.555  1.00  0.00     0.070 C 
HETATM   29  C1  UNL     1       2.171  52.035 -16.348  1.00  0.00     0.019 C 
HETATM   30  C3  UNL     1       0.730  52.235 -14.328  1.00  0.00     0.041 C 
HETATM   31  C4  UNL     1      -0.061  51.339 -13.368  1.00  0.00     0.036 C 
HETATM   32  C5  UNL     1       0.604  49.971 -13.205  1.00  0.00     0.122 C 
BRANCH  32  33
HETATM   33  O1  UNL     1       1.855  50.128 -12.529  1.00  0.00    -0.395 OA
HETATM   34  H8  UNL     1       1.677  50.553 -11.673  1.00  0.00     0.210 HD
ENDBRANCH  32  33
ENDBRANCH   1  25
TORSDOF 9
ENDMDL
MODEL 9
REMARK minimizedAffinity -7.37333155
REMARK CNNscore 0.228440329
REMARK CNNaffinity 5.95790434
REMARK  9 active torsions:
REMARK  status: ('A' for Active; 'I' for Inactive)
REMARK    1  A    between atoms: C5_5  and  O1_6 
REMARK    2  A    between atoms: C8_9  and  C9_10 
REMARK    3  A    between atoms: C19_20  and  C20_21 
REMARK    4  A    between atoms: C20_21  and  C22_23 
REMARK    5  A    between atoms: C23_24  and  C24_25 
REMARK    6  A    between atoms: C24_25  and  O2_27 
REMARK    7  A    between atoms: C24_25  and  C26_28 
REMARK    8  A    between atoms: C26_28  and  C28_30 
REMARK    9  A    between atoms: C28_30  and  O3_31 
ROOT
HETATM    1  C9  UNL     1      -8.154  48.628 -24.431  1.00  0.00     0.004 C 
HETATM    2  C10 UNL     1      -6.885  48.253 -24.696  1.00  0.00    -0.075 C 
HETATM    3  C11 UNL     1      -6.422  47.534 -25.937  1.00  0.00     0.034 C 
HETATM    4  C12 UNL     1      -5.274  48.290 -26.597  1.00  0.00     0.005 C 
HETATM    5  C13 UNL     1      -4.089  48.408 -25.643  1.00  0.00     0.010 C 
HETATM    6  C14 UNL     1      -4.434  49.108 -24.299  1.00  0.00    -0.032 C 
HETATM    7  C15 UNL     1      -4.584  50.625 -24.530  1.00  0.00     0.016 C 
HETATM    8  C16 UNL     1      -5.789  48.595 -23.700  1.00  0.00     0.023 C 
HETATM    9  C17 UNL     1      -5.386  47.454 -22.774  1.00  0.00     0.010 C 
HETATM   10  C18 UNL     1      -4.177  48.057 -22.073  1.00  0.00     0.007 C 
HETATM   11  C19 UNL     1      -3.351  48.680 -23.218  1.00  0.00     0.002 C 
ENDROOT
BRANCH  11  12
HETATM   12  C20 UNL     1      -2.295  49.732 -22.771  1.00  0.00     0.009 C 
HETATM   13  C21 UNL     1      -2.720  50.412 -21.458  1.00  0.00     0.014 C 
BRANCH  12  14
HETATM   14  C22 UNL     1      -1.999  50.741 -23.875  1.00  0.00    -0.023 C 
HETATM   15  C23 UNL     1      -1.211  50.581 -24.954  1.00  0.00     0.007 C 
BRANCH  15  16
HETATM   16  C24 UNL     1      -0.934  51.596 -26.056  1.00  0.00     0.077 C 
HETATM   17  C25 UNL     1      -1.465  51.185 -27.436  1.00  0.00     0.051 C 
BRANCH  16  18
HETATM   18  O2  UNL     1      -1.704  52.758 -25.695  1.00  0.00    -0.386 OA
HETATM   19  H37 UNL     1      -1.424  53.042 -24.810  1.00  0.00     0.211 HD
ENDBRANCH  16  18
BRANCH  16  20
HETATM   20  C26 UNL     1       0.577  51.997 -26.050  1.00  0.00     0.043 C 
HETATM   21  C27 UNL     1       0.937  52.941 -24.891  1.00  0.00     0.015 C 
BRANCH  20  22
HETATM   22  C28 UNL     1       1.085  52.573 -27.383  1.00  0.00     0.171 C 
BRANCH  22  23
HETATM   23  O3  UNL     1       2.062  51.736 -27.984  1.00  0.00    -0.400 OA
HETATM   24  H44 UNL     1       2.346  52.170 -28.806  1.00  0.00     0.209 HD
ENDBRANCH  22  23
ENDBRANCH  20  22
ENDBRANCH  16  20
ENDBRANCH  15  16
ENDBRANCH  12  14
ENDBRANCH  11  12
BRANCH   1  25
HETATM   25  C8  UNL     1      -9.328  48.424 -25.258  1.00  0.00     0.008 C 
HETATM   26  C7  UNL     1     -10.167  47.367 -25.221  1.00  0.00    -0.050 C 
HETATM   27  C2  UNL     1     -10.035  46.201 -24.356  1.00  0.00    -0.061 C 
HETATM   28  C6  UNL     1     -11.426  47.347 -26.075  1.00  0.00     0.070 C 
HETATM   29  C1  UNL     1      -8.968  45.387 -24.404  1.00  0.00     0.019 C 
HETATM   30  C3  UNL     1     -11.227  45.885 -23.482  1.00  0.00     0.041 C 
HETATM   31  C4  UNL     1     -12.473  46.705 -23.835  1.00  0.00     0.036 C 
HETATM   32  C5  UNL     1     -12.671  46.797 -25.349  1.00  0.00     0.122 C 
BRANCH  32  33
HETATM   33  O1  UNL     1     -12.988  45.502 -25.868  1.00  0.00    -0.395 OA
HETATM   34  H8  UNL     1     -13.789  45.190 -25.412  1.00  0.00     0.210 HD
ENDBRANCH  32  33
ENDBRANCH   1  25
TORSDOF 9
ENDMDL
