MODEL 1
REMARK minimizedAffinity -7.1568718
REMARK CNNscore 0.209087074
REMARK CNNaffinity 6.12260437
REMARK  30 active torsions:
REMARK  status: ('A' for Active; 'I' for Inactive)
REMARK    1  A    between atoms: C2_2  and  C3_3 
REMARK    2  A    between atoms: C3_3  and  C4_4 
REMARK    3  A    between atoms: C4_4  and  C5_5 
REMARK    4  A    between atoms: C5_5  and  C6_6 
REMARK    5  A    between atoms: C6_6  and  C7_7 
REMARK    6  A    between atoms: C7_7  and  C8_8 
REMARK    7  A    between atoms: C8_8  and  C9_9 
REMARK    8  A    between atoms: C9_9  and  C10_10 
REMARK    9  A    between atoms: C10_10  and  C11_11 
REMARK   10  A    between atoms: C11_11  and  C12_12 
REMARK   11  A    between atoms: C12_12  and  C13_13 
REMARK   12  A    between atoms: C13_13  and  C14_14 
REMARK   13  A    between atoms: C14_14  and  C15_15 
REMARK   14  A    between atoms: C15_15  and  C16_16 
REMARK   15  A    between atoms: C16_16  and  N1_17 
REMARK       I    between atoms: N1_17  and  C17_18 
REMARK   16  A    between atoms: C17_18  and  C18_20 
REMARK   17  A    between atoms: C18_20  and  N2_21 
REMARK   18  A    between atoms: C18_20  and  C19_22 
REMARK   19  A    between atoms: C19_22  and  C20_23 
REMARK   20  A    between atoms: C23_26  and  O2_27 
REMARK   21  A    between atoms: O2_27  and  P1_28 
REMARK   22  A    between atoms: P1_28  and  O4_30 
REMARK   23  A    between atoms: P1_28  and  C24_31 
REMARK   24  A    between atoms: C24_31  and  O5_32 
REMARK   25  A    between atoms: O5_32  and  C25_33 
REMARK   26  A    between atoms: C25_33  and  C26_34 
REMARK   27  A    between atoms: C25_33  and  C27_36 
REMARK   28  A    between atoms: C26_34  and  O6_35 
REMARK   29  A    between atoms: C27_36  and  N3_37 
REMARK   30  A    between atoms: C30_40  and  N4_41 
ROOT
HETATM    1  C20 UNL     1      -6.467   4.190  12.894  1.00  0.00    -0.056 A 
HETATM    2  C21 UNL     1      -6.507   2.999  12.159  1.00  0.00     0.010 A 
HETATM    3  C22 UNL     1      -5.325   2.341  11.815  1.00  0.00     0.038 A 
HETATM    4  C23 UNL     1      -4.091   2.856  12.210  1.00  0.00     0.078 A 
HETATM    5  C32 UNL     1      -4.037   4.040  12.941  1.00  0.00     0.038 A 
HETATM    6  C33 UNL     1      -5.221   4.701  13.281  1.00  0.00     0.010 A 
ENDROOT
BRANCH   1   7
HETATM    7  C19 UNL     1      -7.740   4.921  13.253  1.00  0.00     0.083 C 
BRANCH   7   8
HETATM    8  C18 UNL     1      -7.757   5.607  14.632  1.00  0.00     0.313 C 
BRANCH   8   9
HETATM    9  C17 UNL     1      -8.870   6.672  14.771  1.00  0.00     0.251 C 
HETATM   10  N1  UNL     1     -10.126   6.259  14.379  1.00  0.00    -0.359 N 
HETATM   11  H34 UNL     1     -10.279   5.295  14.102  1.00  0.00     0.162 HD
HETATM   12  O1  UNL     1      -8.643   7.820  15.157  1.00  0.00    -0.271 OA
BRANCH  10  13
HETATM   13  C16 UNL     1     -11.257   7.160  14.446  1.00  0.00     0.122 C 
BRANCH  13  14
HETATM   14  C15 UNL     1     -12.529   6.507  13.910  1.00  0.00     0.020 C 
BRANCH  14  15
HETATM   15  C14 UNL     1     -13.726   6.650  14.855  1.00  0.00     0.002 C 
BRANCH  15  16
HETATM   16  C13 UNL     1     -14.754   5.513  14.790  1.00  0.00     0.000 C 
BRANCH  16  17
HETATM   17  C12 UNL     1     -16.218   5.968  14.833  1.00  0.00     0.000 C 
BRANCH  17  18
HETATM   18  C11 UNL     1     -17.241   5.041  14.177  1.00  0.00     0.000 C 
BRANCH  18  19
HETATM   19  C10 UNL     1     -17.282   3.641  14.796  1.00  0.00     0.000 C 
BRANCH  19  20
HETATM   20  C9  UNL     1     -16.876   2.581  13.769  1.00  0.00     0.000 C 
BRANCH  20  21
HETATM   21  C8  UNL     1     -15.607   1.817  14.154  1.00  0.00     0.000 C 
BRANCH  21  22
HETATM   22  C7  UNL     1     -15.664   0.300  13.953  1.00  0.00     0.000 C 
BRANCH  22  23
HETATM   23  C6  UNL     1     -15.762  -0.176  12.499  1.00  0.00     0.000 C 
BRANCH  23  24
HETATM   24  C5  UNL     1     -15.384  -1.649  12.317  1.00  0.00     0.000 C 
BRANCH  24  25
HETATM   25  C4  UNL     1     -15.510  -2.479  13.597  1.00  0.00     0.000 C 
BRANCH  25  26
HETATM   26  C3  UNL     1     -14.223  -3.140  14.100  1.00  0.00    -0.000 C 
BRANCH  26  27
HETATM   27  C2  UNL     1     -13.279  -3.568  12.976  1.00  0.00    -0.005 C 
HETATM   28  C1  UNL     1     -13.642  -4.946  12.443  1.00  0.00     0.005 C 
ENDBRANCH  26  27
ENDBRANCH  25  26
ENDBRANCH  24  25
ENDBRANCH  23  24
ENDBRANCH  22  23
ENDBRANCH  21  22
ENDBRANCH  20  21
ENDBRANCH  19  20
ENDBRANCH  18  19
ENDBRANCH  17  18
ENDBRANCH  16  17
ENDBRANCH  15  16
ENDBRANCH  14  15
ENDBRANCH  13  14
ENDBRANCH  10  13
ENDBRANCH   8   9
BRANCH   8  29
HETATM   29  N2  UNL     1      -7.855   4.632  15.747  1.00  0.00     0.092 N 
HETATM   30  H36 UNL     1      -7.929   5.174  16.611  1.00  0.00     0.313 HD
HETATM   31  H37 UNL     1      -8.782   4.200  15.679  1.00  0.00     0.313 HD
ENDBRANCH   8  29
ENDBRANCH   7   8
ENDBRANCH   1   7
BRANCH   4  32
HETATM   32  O2  UNL     1      -2.992   2.154  11.809  1.00  0.00    -0.275 OA
BRANCH  32  33
HETATM   33  P1  UNL     1      -1.863   2.710  10.803  1.00  0.00     0.267 P 
HETATM   34  O3  UNL     1      -2.351   3.712   9.798  1.00  0.00    -0.652 OA
BRANCH  33  35
HETATM   35  O4  UNL     1      -1.420   1.346  10.068  1.00  0.00    -0.327 OA
HETATM   36  H42 UNL     1      -2.029   1.099   9.346  1.00  0.00     0.220 HD
ENDBRANCH  33  35
BRANCH  33  37
HETATM   37  C24 UNL     1      -0.466   3.158  11.844  1.00  0.00     0.293 C 
BRANCH  37  38
HETATM   38  O5  UNL     1      -0.297   4.585  11.872  1.00  0.00    -0.371 OA
BRANCH  38  39
HETATM   39  C25 UNL     1       0.223   5.095  13.116  1.00  0.00     0.164 C 
BRANCH  39  40
HETATM   40  C26 UNL     1      -0.933   5.632  13.977  1.00  0.00     0.197 C 
BRANCH  40  41
HETATM   41  O6  UNL     1      -0.594   5.619  15.364  1.00  0.00    -0.398 OA
HETATM   42  H48 UNL     1       0.108   6.279  15.496  1.00  0.00     0.209 HD
ENDBRANCH  40  41
ENDBRANCH  39  40
BRANCH  39  43
HETATM   43  C27 UNL     1       1.195   6.243  12.780  1.00  0.00     0.167 C 
BRANCH  43  44
HETATM   44  N3  UNL     1       1.447   6.338  11.339  1.00  0.00    -0.307 N 
HETATM   45  C28 UNL     1       2.478   5.619  10.783  1.00  0.00     0.099 A 
HETATM   46  C29 UNL     1       2.794   5.757   9.497  1.00  0.00     0.059 A 
HETATM   47  C30 UNL     1       1.989   6.734   8.742  1.00  0.00     0.082 A 
HETATM   48  N5  UNL     1       1.026   7.431   9.263  1.00  0.00    -0.299 N 
HETATM   49  C31 UNL     1       0.712   7.263  10.591  1.00  0.00     0.327 A 
ATOM     50  H5  UNL     1       0.506   8.097   8.691  1.00  0.00     0.171 HD
HETATM   51  O7  UNL     1      -0.182   7.927  11.116  1.00  0.00    -0.246 OA
BRANCH  47  52
HETATM   52  N4  UNL     1       2.262   6.948   7.418  1.00  0.00    -0.288 NA
HETATM   53  H53 UNL     1       3.240   6.901   7.158  1.00  0.00     0.125 HD
HETATM   54  H54 UNL     1       1.804   7.784   7.072  1.00  0.00     0.125 HD
ENDBRANCH  47  52
ENDBRANCH  43  44
ENDBRANCH  39  43
ENDBRANCH  38  39
ENDBRANCH  37  38
ENDBRANCH  33  37
ENDBRANCH  32  33
ENDBRANCH   4  32
TORSDOF 30
ENDMDL
MODEL 2
REMARK minimizedAffinity -6.7896862
REMARK CNNscore 0.20119974
REMARK CNNaffinity 5.19352913
REMARK  30 active torsions:
REMARK  status: ('A' for Active; 'I' for Inactive)
REMARK    1  A    between atoms: C2_2  and  C3_3 
REMARK    2  A    between atoms: C3_3  and  C4_4 
REMARK    3  A    between atoms: C4_4  and  C5_5 
REMARK    4  A    between atoms: C5_5  and  C6_6 
REMARK    5  A    between atoms: C6_6  and  C7_7 
REMARK    6  A    between atoms: C7_7  and  C8_8 
REMARK    7  A    between atoms: C8_8  and  C9_9 
REMARK    8  A    between atoms: C9_9  and  C10_10 
REMARK    9  A    between atoms: C10_10  and  C11_11 
REMARK   10  A    between atoms: C11_11  and  C12_12 
REMARK   11  A    between atoms: C12_12  and  C13_13 
REMARK   12  A    between atoms: C13_13  and  C14_14 
REMARK   13  A    between atoms: C14_14  and  C15_15 
REMARK   14  A    between atoms: C15_15  and  C16_16 
REMARK   15  A    between atoms: C16_16  and  N1_17 
REMARK       I    between atoms: N1_17  and  C17_18 
REMARK   16  A    between atoms: C17_18  and  C18_20 
REMARK   17  A    between atoms: C18_20  and  N2_21 
REMARK   18  A    between atoms: C18_20  and  C19_22 
REMARK   19  A    between atoms: C19_22  and  C20_23 
REMARK   20  A    between atoms: C23_26  and  O2_27 
REMARK   21  A    between atoms: O2_27  and  P1_28 
REMARK   22  A    between atoms: P1_28  and  O4_30 
REMARK   23  A    between atoms: P1_28  and  C24_31 
REMARK   24  A    between atoms: C24_31  and  O5_32 
REMARK   25  A    between atoms: O5_32  and  C25_33 
REMARK   26  A    between atoms: C25_33  and  C26_34 
REMARK   27  A    between atoms: C25_33  and  C27_36 
REMARK   28  A    between atoms: C26_34  and  O6_35 
REMARK   29  A    between atoms: C27_36  and  N3_37 
REMARK   30  A    between atoms: C30_40  and  N4_41 
ROOT
HETATM    1  C20 UNL     1      -5.501   6.381  13.528  1.00  0.00    -0.056 A 
HETATM    2  C21 UNL     1      -4.329   5.654  13.288  1.00  0.00     0.010 A 
HETATM    3  C22 UNL     1      -3.137   6.315  12.987  1.00  0.00     0.038 A 
HETATM    4  C23 UNL     1      -3.097   7.708  12.932  1.00  0.00     0.078 A 
HETATM    5  C32 UNL     1      -4.255   8.442  13.169  1.00  0.00     0.038 A 
HETATM    6  C33 UNL     1      -5.450   7.780  13.466  1.00  0.00     0.010 A 
ENDROOT
BRANCH   1   7
HETATM    7  C19 UNL     1      -6.801   5.674  13.834  1.00  0.00     0.083 C 
BRANCH   7   8
HETATM    8  C18 UNL     1      -7.478   6.055  15.165  1.00  0.00     0.313 C 
BRANCH   8   9
HETATM    9  C17 UNL     1      -8.660   7.037  14.989  1.00  0.00     0.251 C 
HETATM   10  N1  UNL     1      -9.868   6.447  14.680  1.00  0.00    -0.359 N 
HETATM   11  H34 UNL     1      -9.948   5.436  14.659  1.00  0.00     0.162 HD
HETATM   12  O1  UNL     1      -8.524   8.258  15.071  1.00  0.00    -0.271 OA
BRANCH  10  13
HETATM   13  C16 UNL     1     -11.055   7.251  14.478  1.00  0.00     0.122 C 
BRANCH  13  14
HETATM   14  C15 UNL     1     -12.234   6.405  14.002  1.00  0.00     0.020 C 
BRANCH  14  15
HETATM   15  C14 UNL     1     -13.288   7.213  13.238  1.00  0.00     0.002 C 
BRANCH  15  16
HETATM   16  C13 UNL     1     -14.658   7.315  13.921  1.00  0.00     0.000 C 
BRANCH  16  17
HETATM   17  C12 UNL     1     -14.901   6.285  15.031  1.00  0.00     0.000 C 
BRANCH  17  18
HETATM   18  C11 UNL     1     -15.420   4.916  14.590  1.00  0.00     0.000 C 
BRANCH  18  19
HETATM   19  C10 UNL     1     -16.947   4.830  14.537  1.00  0.00     0.000 C 
BRANCH  19  20
HETATM   20  C9  UNL     1     -17.421   4.460  13.129  1.00  0.00     0.000 C 
BRANCH  20  21
HETATM   21  C8  UNL     1     -17.595   2.953  12.924  1.00  0.00     0.000 C 
BRANCH  21  22
HETATM   22  C7  UNL     1     -17.447   2.095  14.183  1.00  0.00     0.000 C 
BRANCH  22  23
HETATM   23  C6  UNL     1     -16.102   1.377  14.345  1.00  0.00     0.000 C 
BRANCH  23  24
HETATM   24  C5  UNL     1     -15.771   0.439  13.181  1.00  0.00     0.000 C 
BRANCH  24  25
HETATM   25  C4  UNL     1     -16.136  -1.024  13.448  1.00  0.00     0.000 C 
BRANCH  25  26
HETATM   26  C3  UNL     1     -15.409  -1.696  14.617  1.00  0.00    -0.000 C 
BRANCH  26  27
HETATM   27  C2  UNL     1     -14.628  -2.947  14.211  1.00  0.00    -0.005 C 
HETATM   28  C1  UNL     1     -15.071  -4.161  15.013  1.00  0.00     0.005 C 
ENDBRANCH  26  27
ENDBRANCH  25  26
ENDBRANCH  24  25
ENDBRANCH  23  24
ENDBRANCH  22  23
ENDBRANCH  21  22
ENDBRANCH  20  21
ENDBRANCH  19  20
ENDBRANCH  18  19
ENDBRANCH  17  18
ENDBRANCH  16  17
ENDBRANCH  15  16
ENDBRANCH  14  15
ENDBRANCH  13  14
ENDBRANCH  10  13
ENDBRANCH   8   9
BRANCH   8  29
HETATM   29  N2  UNL     1      -7.924   4.865  15.931  1.00  0.00     0.092 N 
HETATM   30  H36 UNL     1      -8.418   5.212  16.757  1.00  0.00     0.313 HD
HETATM   31  H37 UNL     1      -8.679   4.432  15.390  1.00  0.00     0.313 HD
ENDBRANCH   8  29
ENDBRANCH   7   8
ENDBRANCH   1   7
BRANCH   4  32
HETATM   32  O2  UNL     1      -1.892   8.261  12.610  1.00  0.00    -0.275 OA
BRANCH  32  33
HETATM   33  P1  UNL     1      -0.677   8.481  13.645  1.00  0.00     0.267 P 
HETATM   34  O3  UNL     1      -0.994   8.144  15.073  1.00  0.00    -0.652 OA
BRANCH  33  35
HETATM   35  O4  UNL     1      -0.431  10.066  13.482  1.00  0.00    -0.327 OA
HETATM   36  H42 UNL     1      -1.059  10.595  14.011  1.00  0.00     0.220 HD
ENDBRANCH  33  35
BRANCH  33  37
HETATM   37  C24 UNL     1       0.754   7.703  12.883  1.00  0.00     0.293 C 
BRANCH  37  38
HETATM   38  O5  UNL     1       0.691   7.824  11.453  1.00  0.00    -0.371 OA
BRANCH  38  39
HETATM   39  C25 UNL     1       0.549   6.569  10.757  1.00  0.00     0.164 C 
BRANCH  39  40
HETATM   40  C26 UNL     1       0.896   5.411  11.707  1.00  0.00     0.197 C 
BRANCH  40  41
HETATM   41  O6  UNL     1       0.184   4.224  11.358  1.00  0.00    -0.398 OA
HETATM   42  H48 UNL     1       0.530   3.921  10.500  1.00  0.00     0.209 HD
ENDBRANCH  40  41
ENDBRANCH  39  40
BRANCH  39  43
HETATM   43  C27 UNL     1       1.533   6.579   9.570  1.00  0.00     0.167 C 
BRANCH  43  44
HETATM   44  N3  UNL     1       2.927   6.509  10.018  1.00  0.00    -0.307 N 
HETATM   45  C28 UNL     1       3.555   7.650  10.456  1.00  0.00     0.099 A 
HETATM   46  C29 UNL     1       4.847   7.641  10.777  1.00  0.00     0.059 A 
HETATM   47  C30 UNL     1       5.539   6.350  10.609  1.00  0.00     0.082 A 
HETATM   48  N5  UNL     1       4.958   5.272  10.180  1.00  0.00    -0.299 N 
HETATM   49  C31 UNL     1       3.620   5.304   9.863  1.00  0.00     0.327 A 
ATOM     50  H5  UNL     1       5.490   4.407  10.079  1.00  0.00     0.171 HD
HETATM   51  O7  UNL     1       3.050   4.302   9.433  1.00  0.00    -0.246 OA
BRANCH  47  52
HETATM   52  N4  UNL     1       6.873   6.261  10.901  1.00  0.00    -0.288 NA
HETATM   53  H53 UNL     1       7.427   7.080  10.680  1.00  0.00     0.125 HD
HETATM   54  H54 UNL     1       7.278   5.404  10.540  1.00  0.00     0.125 HD
ENDBRANCH  47  52
ENDBRANCH  43  44
ENDBRANCH  39  43
ENDBRANCH  38  39
ENDBRANCH  37  38
ENDBRANCH  33  37
ENDBRANCH  32  33
ENDBRANCH   4  32
TORSDOF 30
ENDMDL
MODEL 3
REMARK minimizedAffinity -6.91702127
REMARK CNNscore 0.17735444
REMARK CNNaffinity 5.77970266
REMARK  30 active torsions:
REMARK  status: ('A' for Active; 'I' for Inactive)
REMARK    1  A    between atoms: C2_2  and  C3_3 
REMARK    2  A    between atoms: C3_3  and  C4_4 
REMARK    3  A    between atoms: C4_4  and  C5_5 
REMARK    4  A    between atoms: C5_5  and  C6_6 
REMARK    5  A    between atoms: C6_6  and  C7_7 
REMARK    6  A    between atoms: C7_7  and  C8_8 
REMARK    7  A    between atoms: C8_8  and  C9_9 
REMARK    8  A    between atoms: C9_9  and  C10_10 
REMARK    9  A    between atoms: C10_10  and  C11_11 
REMARK   10  A    between atoms: C11_11  and  C12_12 
REMARK   11  A    between atoms: C12_12  and  C13_13 
REMARK   12  A    between atoms: C13_13  and  C14_14 
REMARK   13  A    between atoms: C14_14  and  C15_15 
REMARK   14  A    between atoms: C15_15  and  C16_16 
REMARK   15  A    between atoms: C16_16  and  N1_17 
REMARK       I    between atoms: N1_17  and  C17_18 
REMARK   16  A    between atoms: C17_18  and  C18_20 
REMARK   17  A    between atoms: C18_20  and  N2_21 
REMARK   18  A    between atoms: C18_20  and  C19_22 
REMARK   19  A    between atoms: C19_22  and  C20_23 
REMARK   20  A    between atoms: C23_26  and  O2_27 
REMARK   21  A    between atoms: O2_27  and  P1_28 
REMARK   22  A    between atoms: P1_28  and  O4_30 
REMARK   23  A    between atoms: P1_28  and  C24_31 
REMARK   24  A    between atoms: C24_31  and  O5_32 
REMARK   25  A    between atoms: O5_32  and  C25_33 
REMARK   26  A    between atoms: C25_33  and  C26_34 
REMARK   27  A    between atoms: C25_33  and  C27_36 
REMARK   28  A    between atoms: C26_34  and  O6_35 
REMARK   29  A    between atoms: C27_36  and  N3_37 
REMARK   30  A    between atoms: C30_40  and  N4_41 
ROOT
HETATM    1  C20 UNL     1       0.866   6.651  13.112  1.00  0.00    -0.056 A 
HETATM    2  C21 UNL     1      -0.248   6.060  13.720  1.00  0.00     0.010 A 
HETATM    3  C22 UNL     1      -1.067   5.189  12.998  1.00  0.00     0.038 A 
HETATM    4  C23 UNL     1      -0.778   4.889  11.667  1.00  0.00     0.078 A 
HETATM    5  C32 UNL     1       0.328   5.470  11.052  1.00  0.00     0.038 A 
HETATM    6  C33 UNL     1       1.144   6.346  11.773  1.00  0.00     0.010 A 
ENDROOT
BRANCH   1   7
HETATM    7  C19 UNL     1       1.746   7.611  13.878  1.00  0.00     0.083 C 
BRANCH   7   8
HETATM    8  C18 UNL     1       1.035   8.831  14.495  1.00  0.00     0.313 C 
BRANCH   8   9
HETATM    9  C17 UNL     1       1.182   8.911  16.033  1.00  0.00     0.251 C 
HETATM   10  N1  UNL     1       1.202  10.189  16.551  1.00  0.00    -0.359 N 
HETATM   11  H34 UNL     1       1.048  10.986  15.943  1.00  0.00     0.162 HD
HETATM   12  O1  UNL     1       1.320   7.911  16.737  1.00  0.00    -0.271 OA
BRANCH  10  13
HETATM   13  C16 UNL     1       1.347  10.409  17.976  1.00  0.00     0.122 C 
BRANCH  13  14
HETATM   14  C15 UNL     1       2.561  11.279  18.291  1.00  0.00     0.020 C 
BRANCH  14  15
HETATM   15  C14 UNL     1       2.525  11.879  19.699  1.00  0.00     0.002 C 
BRANCH  15  16
HETATM   16  C13 UNL     1       1.850  11.009  20.768  1.00  0.00     0.000 C 
BRANCH  16  17
HETATM   17  C12 UNL     1       2.725   9.878  21.322  1.00  0.00     0.000 C 
BRANCH  17  18
HETATM   18  C11 UNL     1       4.235  10.115  21.309  1.00  0.00     0.000 C 
BRANCH  18  19
HETATM   19  C10 UNL     1       4.737  10.922  22.509  1.00  0.00     0.000 C 
BRANCH  19  20
HETATM   20  C9  UNL     1       5.339  12.254  22.055  1.00  0.00     0.000 C 
BRANCH  20  21
HETATM   21  C8  UNL     1       6.403  12.797  23.012  1.00  0.00     0.000 C 
BRANCH  21  22
HETATM   22  C7  UNL     1       7.563  11.846  23.317  1.00  0.00     0.000 C 
BRANCH  22  23
HETATM   23  C6  UNL     1       8.876  12.140  22.583  1.00  0.00     0.000 C 
BRANCH  23  24
HETATM   24  C5  UNL     1       8.702  12.307  21.071  1.00  0.00     0.000 C 
BRANCH  24  25
HETATM   25  C4  UNL     1       9.917  12.930  20.378  1.00  0.00     0.000 C 
BRANCH  25  26
HETATM   26  C3  UNL     1      11.226  12.139  20.477  1.00  0.00    -0.000 C 
BRANCH  26  27
HETATM   27  C2  UNL     1      11.384  11.084  19.382  1.00  0.00    -0.005 C 
HETATM   28  C1  UNL     1      10.467  11.368  18.202  1.00  0.00     0.005 C 
ENDBRANCH  26  27
ENDBRANCH  25  26
ENDBRANCH  24  25
ENDBRANCH  23  24
ENDBRANCH  22  23
ENDBRANCH  21  22
ENDBRANCH  20  21
ENDBRANCH  19  20
ENDBRANCH  18  19
ENDBRANCH  17  18
ENDBRANCH  16  17
ENDBRANCH  15  16
ENDBRANCH  14  15
ENDBRANCH  13  14
ENDBRANCH  10  13
ENDBRANCH   8   9
BRANCH   8  29
HETATM   29  N2  UNL     1       1.474  10.110  13.882  1.00  0.00     0.092 N 
HETATM   30  H36 UNL     1       1.007  10.861  14.395  1.00  0.00     0.313 HD
HETATM   31  H37 UNL     1       2.456  10.241  14.147  1.00  0.00     0.313 HD
ENDBRANCH   8  29
ENDBRANCH   7   8
ENDBRANCH   1   7
BRANCH   4  32
HETATM   32  O2  UNL     1      -1.647   4.045  11.041  1.00  0.00    -0.275 OA
BRANCH  32  33
HETATM   33  P1  UNL     1      -1.541   2.437  11.061  1.00  0.00     0.267 P 
HETATM   34  O3  UNL     1      -0.245   1.896  11.591  1.00  0.00    -0.652 OA
BRANCH  33  35
HETATM   35  O4  UNL     1      -1.688   2.109   9.490  1.00  0.00    -0.327 OA
HETATM   36  H42 UNL     1      -0.845   2.220   9.008  1.00  0.00     0.220 HD
ENDBRANCH  33  35
BRANCH  33  37
HETATM   37  C24 UNL     1      -3.074   1.861  11.806  1.00  0.00     0.293 C 
BRANCH  37  38
HETATM   38  O5  UNL     1      -3.927   2.972  12.126  1.00  0.00    -0.371 OA
BRANCH  38  39
HETATM   39  C25 UNL     1      -5.335   2.661  12.111  1.00  0.00     0.164 C 
BRANCH  39  40
HETATM   40  C26 UNL     1      -5.639   1.701  10.949  1.00  0.00     0.197 C 
BRANCH  40  41
HETATM   41  O6  UNL     1      -5.711   2.400   9.706  1.00  0.00    -0.398 OA
HETATM   42  H48 UNL     1      -4.815   2.720   9.503  1.00  0.00     0.209 HD
ENDBRANCH  40  41
ENDBRANCH  39  40
BRANCH  39  43
HETATM   43  C27 UNL     1      -6.102   3.982  11.907  1.00  0.00     0.167 C 
BRANCH  43  44
HETATM   44  N3  UNL     1      -6.413   4.634  13.183  1.00  0.00    -0.307 N 
HETATM   45  C28 UNL     1      -5.567   5.599  13.675  1.00  0.00     0.099 A 
HETATM   46  C29 UNL     1      -5.767   6.140  14.874  1.00  0.00     0.059 A 
HETATM   47  C30 UNL     1      -6.923   5.619  15.626  1.00  0.00     0.082 A 
HETATM   48  N5  UNL     1      -7.717   4.696  15.178  1.00  0.00    -0.299 N 
HETATM   49  C31 UNL     1      -7.495   4.159  13.931  1.00  0.00     0.327 A 
ATOM     50  H5  UNL     1      -8.500   4.371  15.746  1.00  0.00     0.171 HD
HETATM   51  O7  UNL     1      -8.220   3.266  13.491  1.00  0.00    -0.246 OA
BRANCH  47  52
HETATM   52  N4  UNL     1      -7.188   6.110  16.875  1.00  0.00    -0.288 NA
HETATM   53  H53 UNL     1      -6.377   6.343  17.437  1.00  0.00     0.125 HD
HETATM   54  H54 UNL     1      -7.856   5.530  17.372  1.00  0.00     0.125 HD
ENDBRANCH  47  52
ENDBRANCH  43  44
ENDBRANCH  39  43
ENDBRANCH  38  39
ENDBRANCH  37  38
ENDBRANCH  33  37
ENDBRANCH  32  33
ENDBRANCH   4  32
TORSDOF 30
ENDMDL
MODEL 4
REMARK minimizedAffinity -7.19998169
REMARK CNNscore 0.172536284
REMARK CNNaffinity 5.6453824
REMARK  30 active torsions:
REMARK  status: ('A' for Active; 'I' for Inactive)
REMARK    1  A    between atoms: C2_2  and  C3_3 
REMARK    2  A    between atoms: C3_3  and  C4_4 
REMARK    3  A    between atoms: C4_4  and  C5_5 
REMARK    4  A    between atoms: C5_5  and  C6_6 
REMARK    5  A    between atoms: C6_6  and  C7_7 
REMARK    6  A    between atoms: C7_7  and  C8_8 
REMARK    7  A    between atoms: C8_8  and  C9_9 
REMARK    8  A    between atoms: C9_9  and  C10_10 
REMARK    9  A    between atoms: C10_10  and  C11_11 
REMARK   10  A    between atoms: C11_11  and  C12_12 
REMARK   11  A    between atoms: C12_12  and  C13_13 
REMARK   12  A    between atoms: C13_13  and  C14_14 
REMARK   13  A    between atoms: C14_14  and  C15_15 
REMARK   14  A    between atoms: C15_15  and  C16_16 
REMARK   15  A    between atoms: C16_16  and  N1_17 
REMARK       I    between atoms: N1_17  and  C17_18 
REMARK   16  A    between atoms: C17_18  and  C18_20 
REMARK   17  A    between atoms: C18_20  and  N2_21 
REMARK   18  A    between atoms: C18_20  and  C19_22 
REMARK   19  A    between atoms: C19_22  and  C20_23 
REMARK   20  A    between atoms: C23_26  and  O2_27 
REMARK   21  A    between atoms: O2_27  and  P1_28 
REMARK   22  A    between atoms: P1_28  and  O4_30 
REMARK   23  A    between atoms: P1_28  and  C24_31 
REMARK   24  A    between atoms: C24_31  and  O5_32 
REMARK   25  A    between atoms: O5_32  and  C25_33 
REMARK   26  A    between atoms: C25_33  and  C26_34 
REMARK   27  A    between atoms: C25_33  and  C27_36 
REMARK   28  A    between atoms: C26_34  and  O6_35 
REMARK   29  A    between atoms: C27_36  and  N3_37 
REMARK   30  A    between atoms: C30_40  and  N4_41 
ROOT
HETATM    1  C20 UNL     1      -6.498   4.829  12.869  1.00  0.00    -0.056 A 
HETATM    2  C21 UNL     1      -6.635   3.605  12.203  1.00  0.00     0.010 A 
HETATM    3  C22 UNL     1      -5.518   2.805  11.958  1.00  0.00     0.038 A 
HETATM    4  C23 UNL     1      -4.253   3.210  12.384  1.00  0.00     0.078 A 
HETATM    5  C32 UNL     1      -4.103   4.424  13.048  1.00  0.00     0.038 A 
HETATM    6  C33 UNL     1      -5.222   5.227  13.289  1.00  0.00     0.010 A 
ENDROOT
BRANCH   1   7
HETATM    7  C19 UNL     1      -7.698   5.712  13.121  1.00  0.00     0.083 C 
BRANCH   7   8
HETATM    8  C18 UNL     1      -7.922   6.145  14.583  1.00  0.00     0.313 C 
BRANCH   8   9
HETATM    9  C17 UNL     1      -9.156   7.058  14.767  1.00  0.00     0.251 C 
HETATM   10  N1  UNL     1     -10.374   6.440  14.573  1.00  0.00    -0.359 N 
HETATM   11  H34 UNL     1     -10.415   5.441  14.403  1.00  0.00     0.162 HD
HETATM   12  O1  UNL     1      -9.058   8.260  15.020  1.00  0.00    -0.271 OA
BRANCH  10  13
HETATM   13  C16 UNL     1     -11.611   7.183  14.703  1.00  0.00     0.122 C 
BRANCH  13  14
HETATM   14  C15 UNL     1     -12.155   7.614  13.343  1.00  0.00     0.020 C 
BRANCH  14  15
HETATM   15  C14 UNL     1     -13.370   6.798  12.893  1.00  0.00     0.002 C 
BRANCH  15  16
HETATM   16  C13 UNL     1     -14.657   7.604  12.671  1.00  0.00     0.000 C 
BRANCH  16  17
HETATM   17  C12 UNL     1     -15.885   6.763  12.299  1.00  0.00     0.000 C 
BRANCH  17  18
HETATM   18  C11 UNL     1     -16.731   6.242  13.460  1.00  0.00     0.000 C 
BRANCH  18  19
HETATM   19  C10 UNL     1     -16.049   6.380  14.823  1.00  0.00     0.000 C 
BRANCH  19  20
HETATM   20  C9  UNL     1     -16.014   5.034  15.552  1.00  0.00     0.000 C 
BRANCH  20  21
HETATM   21  C8  UNL     1     -15.704   3.853  14.628  1.00  0.00     0.000 C 
BRANCH  21  22
HETATM   22  C7  UNL     1     -16.039   2.469  15.192  1.00  0.00     0.000 C 
BRANCH  22  23
HETATM   23  C6  UNL     1     -17.216   1.746  14.527  1.00  0.00     0.000 C 
BRANCH  23  24
HETATM   24  C5  UNL     1     -17.403   2.117  13.054  1.00  0.00     0.000 C 
BRANCH  24  25
HETATM   25  C4  UNL     1     -16.654   1.194  12.088  1.00  0.00     0.000 C 
BRANCH  25  26
HETATM   26  C3  UNL     1     -16.488  -0.260  12.541  1.00  0.00    -0.000 C 
BRANCH  26  27
HETATM   27  C2  UNL     1     -17.719  -1.127  12.272  1.00  0.00    -0.005 C 
HETATM   28  C1  UNL     1     -17.991  -2.076  13.428  1.00  0.00     0.005 C 
ENDBRANCH  26  27
ENDBRANCH  25  26
ENDBRANCH  24  25
ENDBRANCH  23  24
ENDBRANCH  22  23
ENDBRANCH  21  22
ENDBRANCH  20  21
ENDBRANCH  19  20
ENDBRANCH  18  19
ENDBRANCH  17  18
ENDBRANCH  16  17
ENDBRANCH  15  16
ENDBRANCH  14  15
ENDBRANCH  13  14
ENDBRANCH  10  13
ENDBRANCH   8   9
BRANCH   8  29
HETATM   29  N2  UNL     1      -8.014   4.987  15.506  1.00  0.00     0.092 N 
HETATM   30  H36 UNL     1      -8.229   5.361  16.433  1.00  0.00     0.313 HD
HETATM   31  H37 UNL     1      -8.875   4.486  15.266  1.00  0.00     0.313 HD
ENDBRANCH   8  29
ENDBRANCH   7   8
ENDBRANCH   1   7
BRANCH   4  32
HETATM   32  O2  UNL     1      -3.222   2.371  12.080  1.00  0.00    -0.275 OA
BRANCH  32  33
HETATM   33  P1  UNL     1      -2.117   2.649  10.941  1.00  0.00     0.267 P 
HETATM   34  O3  UNL     1      -2.603   3.457   9.774  1.00  0.00    -0.652 OA
BRANCH  33  35
HETATM   35  O4  UNL     1      -1.779   1.142  10.480  1.00  0.00    -0.327 OA
HETATM   36  H42 UNL     1      -2.434   0.793   9.845  1.00  0.00     0.220 HD
ENDBRANCH  33  35
BRANCH  33  37
HETATM   37  C24 UNL     1      -0.650   3.212  11.817  1.00  0.00     0.293 C 
BRANCH  37  38
HETATM   38  O5  UNL     1      -0.144   4.420  11.225  1.00  0.00    -0.371 OA
BRANCH  38  39
HETATM   39  C25 UNL     1       0.825   5.116  12.035  1.00  0.00     0.164 C 
BRANCH  39  40
HETATM   40  C26 UNL     1       0.154   5.614  13.326  1.00  0.00     0.197 C 
BRANCH  40  41
HETATM   41  O6  UNL     1       1.111   5.796  14.370  1.00  0.00    -0.398 OA
HETATM   42  H48 UNL     1       1.682   6.541  14.112  1.00  0.00     0.209 HD
ENDBRANCH  40  41
ENDBRANCH  39  40
BRANCH  39  43
HETATM   43  C27 UNL     1       1.338   6.319  11.219  1.00  0.00     0.167 C 
BRANCH  43  44
HETATM   44  N3  UNL     1       2.803   6.364  11.181  1.00  0.00    -0.307 N 
HETATM   45  C28 UNL     1       3.482   7.115  12.112  1.00  0.00     0.099 A 
HETATM   46  C29 UNL     1       4.804   7.256  12.047  1.00  0.00     0.059 A 
HETATM   47  C30 UNL     1       5.464   6.581  10.914  1.00  0.00     0.082 A 
HETATM   48  N5  UNL     1       4.830   5.885  10.021  1.00  0.00    -0.299 N 
HETATM   49  C31 UNL     1       3.465   5.746  10.116  1.00  0.00     0.327 A 
ATOM     50  H5  UNL     1       5.340   5.444   9.256  1.00  0.00     0.171 HD
HETATM   51  O7  UNL     1       2.836   5.110   9.270  1.00  0.00    -0.246 OA
BRANCH  47  52
HETATM   52  N4  UNL     1       6.820   6.691  10.765  1.00  0.00    -0.288 NA
HETATM   53  H53 UNL     1       7.220   7.584  11.028  1.00  0.00     0.125 HD
HETATM   54  H54 UNL     1       7.122   6.381   9.848  1.00  0.00     0.125 HD
ENDBRANCH  47  52
ENDBRANCH  43  44
ENDBRANCH  39  43
ENDBRANCH  38  39
ENDBRANCH  37  38
ENDBRANCH  33  37
ENDBRANCH  32  33
ENDBRANCH   4  32
TORSDOF 30
ENDMDL
MODEL 5
REMARK minimizedAffinity -7.17042637
REMARK CNNscore 0.156726435
REMARK CNNaffinity 5.4679718
REMARK  30 active torsions:
REMARK  status: ('A' for Active; 'I' for Inactive)
REMARK    1  A    between atoms: C2_2  and  C3_3 
REMARK    2  A    between atoms: C3_3  and  C4_4 
REMARK    3  A    between atoms: C4_4  and  C5_5 
REMARK    4  A    between atoms: C5_5  and  C6_6 
REMARK    5  A    between atoms: C6_6  and  C7_7 
REMARK    6  A    between atoms: C7_7  and  C8_8 
REMARK    7  A    between atoms: C8_8  and  C9_9 
REMARK    8  A    between atoms: C9_9  and  C10_10 
REMARK    9  A    between atoms: C10_10  and  C11_11 
REMARK   10  A    between atoms: C11_11  and  C12_12 
REMARK   11  A    between atoms: C12_12  and  C13_13 
REMARK   12  A    between atoms: C13_13  and  C14_14 
REMARK   13  A    between atoms: C14_14  and  C15_15 
REMARK   14  A    between atoms: C15_15  and  C16_16 
REMARK   15  A    between atoms: C16_16  and  N1_17 
REMARK       I    between atoms: N1_17  and  C17_18 
REMARK   16  A    between atoms: C17_18  and  C18_20 
REMARK   17  A    between atoms: C18_20  and  N2_21 
REMARK   18  A    between atoms: C18_20  and  C19_22 
REMARK   19  A    between atoms: C19_22  and  C20_23 
REMARK   20  A    between atoms: C23_26  and  O2_27 
REMARK   21  A    between atoms: O2_27  and  P1_28 
REMARK   22  A    between atoms: P1_28  and  O4_30 
REMARK   23  A    between atoms: P1_28  and  C24_31 
REMARK   24  A    between atoms: C24_31  and  O5_32 
REMARK   25  A    between atoms: O5_32  and  C25_33 
REMARK   26  A    between atoms: C25_33  and  C26_34 
REMARK   27  A    between atoms: C25_33  and  C27_36 
REMARK   28  A    between atoms: C26_34  and  O6_35 
REMARK   29  A    between atoms: C27_36  and  N3_37 
REMARK   30  A    between atoms: C30_40  and  N4_41 
ROOT
HETATM    1  C20 UNL     1      -6.629   4.749  13.094  1.00  0.00    -0.056 A 
HETATM    2  C21 UNL     1      -6.668   3.560  12.356  1.00  0.00     0.010 A 
HETATM    3  C22 UNL     1      -5.486   2.899  12.018  1.00  0.00     0.038 A 
HETATM    4  C23 UNL     1      -4.252   3.410  12.421  1.00  0.00     0.078 A 
HETATM    5  C32 UNL     1      -4.200   4.592  13.155  1.00  0.00     0.038 A 
HETATM    6  C33 UNL     1      -5.384   5.255  13.489  1.00  0.00     0.010 A 
ENDROOT
BRANCH   1   7
HETATM    7  C19 UNL     1      -7.902   5.483  13.447  1.00  0.00     0.083 C 
BRANCH   7   8
HETATM    8  C18 UNL     1      -7.971   6.065  14.872  1.00  0.00     0.313 C 
BRANCH   8   9
HETATM    9  C17 UNL     1      -9.013   7.198  15.019  1.00  0.00     0.251 C 
HETATM   10  N1  UNL     1      -9.990   7.223  14.045  1.00  0.00    -0.359 N 
HETATM   11  H34 UNL     1     -10.031   6.486  13.349  1.00  0.00     0.162 HD
HETATM   12  O1  UNL     1      -8.949   8.045  15.911  1.00  0.00    -0.271 OA
BRANCH  10  13
HETATM   13  C16 UNL     1     -11.022   8.239  14.057  1.00  0.00     0.122 C 
BRANCH  13  14
HETATM   14  C15 UNL     1     -12.257   7.777  14.826  1.00  0.00     0.020 C 
BRANCH  14  15
HETATM   15  C14 UNL     1     -12.790   6.421  14.356  1.00  0.00     0.002 C 
BRANCH  15  16
HETATM   16  C13 UNL     1     -14.127   6.464  13.604  1.00  0.00     0.000 C 
BRANCH  16  17
HETATM   17  C12 UNL     1     -15.285   5.748  14.312  1.00  0.00     0.000 C 
BRANCH  17  18
HETATM   18  C11 UNL     1     -15.038   4.299  14.729  1.00  0.00     0.000 C 
BRANCH  18  19
HETATM   19  C10 UNL     1     -16.290   3.422  14.661  1.00  0.00     0.000 C 
BRANCH  19  20
HETATM   20  C9  UNL     1     -15.948   1.961  14.962  1.00  0.00     0.000 C 
BRANCH  20  21
HETATM   21  C8  UNL     1     -15.603   1.148  13.711  1.00  0.00     0.000 C 
BRANCH  21  22
HETATM   22  C7  UNL     1     -16.800   0.672  12.883  1.00  0.00     0.000 C 
BRANCH  22  23
HETATM   23  C6  UNL     1     -16.560  -0.572  12.020  1.00  0.00     0.000 C 
BRANCH  23  24
HETATM   24  C5  UNL     1     -16.585  -1.878  12.817  1.00  0.00     0.000 C 
BRANCH  24  25
HETATM   25  C4  UNL     1     -15.221  -2.569  12.907  1.00  0.00     0.000 C 
BRANCH  25  26
HETATM   26  C3  UNL     1     -14.283  -2.363  11.714  1.00  0.00    -0.000 C 
BRANCH  26  27
HETATM   27  C2  UNL     1     -14.626  -3.242  10.510  1.00  0.00    -0.005 C 
HETATM   28  C1  UNL     1     -13.686  -2.975   9.345  1.00  0.00     0.005 C 
ENDBRANCH  26  27
ENDBRANCH  25  26
ENDBRANCH  24  25
ENDBRANCH  23  24
ENDBRANCH  22  23
ENDBRANCH  21  22
ENDBRANCH  20  21
ENDBRANCH  19  20
ENDBRANCH  18  19
ENDBRANCH  17  18
ENDBRANCH  16  17
ENDBRANCH  15  16
ENDBRANCH  14  15
ENDBRANCH  13  14
ENDBRANCH  10  13
ENDBRANCH   8   9
BRANCH   8  29
HETATM   29  N2  UNL     1      -8.219   5.021  15.897  1.00  0.00     0.092 N 
HETATM   30  H36 UNL     1      -8.317   5.502  16.794  1.00  0.00     0.313 HD
HETATM   31  H37 UNL     1      -9.167   4.666  15.733  1.00  0.00     0.313 HD
ENDBRANCH   8  29
ENDBRANCH   7   8
ENDBRANCH   1   7
BRANCH   4  32
HETATM   32  O2  UNL     1      -3.154   2.705  12.024  1.00  0.00    -0.275 OA
BRANCH  32  33
HETATM   33  P1  UNL     1      -2.179   3.128  10.813  1.00  0.00     0.267 P 
HETATM   34  O3  UNL     1      -2.868   3.763   9.641  1.00  0.00    -0.652 OA
BRANCH  33  35
HETATM   35  O4  UNL     1      -1.577   1.691  10.400  1.00  0.00    -0.327 OA
HETATM   36  H42 UNL     1      -2.182   1.188   9.820  1.00  0.00     0.220 HD
ENDBRANCH  33  35
BRANCH  33  37
HETATM   37  C24 UNL     1      -0.810   4.009  11.577  1.00  0.00     0.293 C 
BRANCH  37  38
HETATM   38  O5  UNL     1      -1.003   5.428  11.470  1.00  0.00    -0.371 OA
BRANCH  38  39
HETATM   39  C25 UNL     1       0.220   6.189  11.399  1.00  0.00     0.164 C 
BRANCH  39  40
HETATM   40  C26 UNL     1       0.119   7.224  10.267  1.00  0.00     0.197 C 
BRANCH  40  41
HETATM   41  O6  UNL     1       0.215   8.556  10.774  1.00  0.00    -0.398 OA
HETATM   42  H48 UNL     1       1.122   8.674  11.105  1.00  0.00     0.209 HD
ENDBRANCH  40  41
ENDBRANCH  39  40
BRANCH  39  43
HETATM   43  C27 UNL     1       1.366   5.202  11.100  1.00  0.00     0.167 C 
BRANCH  43  44
HETATM   44  N3  UNL     1       2.672   5.868  11.106  1.00  0.00    -0.307 N 
HETATM   45  C28 UNL     1       2.949   6.808  12.070  1.00  0.00     0.099 A 
HETATM   46  C29 UNL     1       4.086   7.500  12.046  1.00  0.00     0.059 A 
HETATM   47  C30 UNL     1       4.991   7.205  10.921  1.00  0.00     0.082 A 
HETATM   48  N5  UNL     1       4.731   6.332   9.996  1.00  0.00    -0.299 N 
HETATM   49  C31 UNL     1       3.554   5.623  10.048  1.00  0.00     0.327 A 
ATOM     50  H5  UNL     1       5.395   6.174   9.238  1.00  0.00     0.171 HD
HETATM   51  O7  UNL     1       3.272   4.805   9.172  1.00  0.00    -0.246 OA
BRANCH  47  52
HETATM   52  N4  UNL     1       6.173   7.887  10.814  1.00  0.00    -0.288 NA
HETATM   53  H53 UNL     1       6.149   8.856  11.106  1.00  0.00     0.125 HD
HETATM   54  H54 UNL     1       6.595   7.762   9.900  1.00  0.00     0.125 HD
ENDBRANCH  47  52
ENDBRANCH  43  44
ENDBRANCH  39  43
ENDBRANCH  38  39
ENDBRANCH  37  38
ENDBRANCH  33  37
ENDBRANCH  32  33
ENDBRANCH   4  32
TORSDOF 30
ENDMDL
MODEL 6
REMARK minimizedAffinity -7.22153521
REMARK CNNscore 0.145417556
REMARK CNNaffinity 5.58300066
REMARK  30 active torsions:
REMARK  status: ('A' for Active; 'I' for Inactive)
REMARK    1  A    between atoms: C2_2  and  C3_3 
REMARK    2  A    between atoms: C3_3  and  C4_4 
REMARK    3  A    between atoms: C4_4  and  C5_5 
REMARK    4  A    between atoms: C5_5  and  C6_6 
REMARK    5  A    between atoms: C6_6  and  C7_7 
REMARK    6  A    between atoms: C7_7  and  C8_8 
REMARK    7  A    between atoms: C8_8  and  C9_9 
REMARK    8  A    between atoms: C9_9  and  C10_10 
REMARK    9  A    between atoms: C10_10  and  C11_11 
REMARK   10  A    between atoms: C11_11  and  C12_12 
REMARK   11  A    between atoms: C12_12  and  C13_13 
REMARK   12  A    between atoms: C13_13  and  C14_14 
REMARK   13  A    between atoms: C14_14  and  C15_15 
REMARK   14  A    between atoms: C15_15  and  C16_16 
REMARK   15  A    between atoms: C16_16  and  N1_17 
REMARK       I    between atoms: N1_17  and  C17_18 
REMARK   16  A    between atoms: C17_18  and  C18_20 
REMARK   17  A    between atoms: C18_20  and  N2_21 
REMARK   18  A    between atoms: C18_20  and  C19_22 
REMARK   19  A    between atoms: C19_22  and  C20_23 
REMARK   20  A    between atoms: C23_26  and  O2_27 
REMARK   21  A    between atoms: O2_27  and  P1_28 
REMARK   22  A    between atoms: P1_28  and  O4_30 
REMARK   23  A    between atoms: P1_28  and  C24_31 
REMARK   24  A    between atoms: C24_31  and  O5_32 
REMARK   25  A    between atoms: O5_32  and  C25_33 
REMARK   26  A    between atoms: C25_33  and  C26_34 
REMARK   27  A    between atoms: C25_33  and  C27_36 
REMARK   28  A    between atoms: C26_34  and  O6_35 
REMARK   29  A    between atoms: C27_36  and  N3_37 
REMARK   30  A    between atoms: C30_40  and  N4_41 
ROOT
HETATM    1  C20 UNL     1      -5.361   4.390  13.031  1.00  0.00    -0.056 A 
HETATM    2  C21 UNL     1      -4.748   5.608  13.350  1.00  0.00     0.010 A 
HETATM    3  C22 UNL     1      -3.447   5.877  12.922  1.00  0.00     0.038 A 
HETATM    4  C23 UNL     1      -2.746   4.941  12.163  1.00  0.00     0.078 A 
HETATM    5  C32 UNL     1      -3.344   3.726  11.839  1.00  0.00     0.038 A 
HETATM    6  C33 UNL     1      -4.645   3.454  12.272  1.00  0.00     0.010 A 
ENDROOT
BRANCH   1   7
HETATM    7  C19 UNL     1      -6.761   4.080  13.507  1.00  0.00     0.083 C 
BRANCH   7   8
HETATM    8  C18 UNL     1      -7.371   5.084  14.505  1.00  0.00     0.313 C 
BRANCH   8   9
HETATM    9  C17 UNL     1      -8.477   5.968  13.881  1.00  0.00     0.251 C 
HETATM   10  N1  UNL     1      -9.313   6.583  14.789  1.00  0.00    -0.359 N 
HETATM   11  H34 UNL     1      -9.132   6.500  15.783  1.00  0.00     0.162 HD
HETATM   12  O1  UNL     1      -8.630   6.076  12.664  1.00  0.00    -0.271 OA
BRANCH  10  13
HETATM   13  C16 UNL     1     -10.399   7.431  14.340  1.00  0.00     0.122 C 
BRANCH  13  14
HETATM   14  C15 UNL     1     -11.716   6.663  14.259  1.00  0.00     0.020 C 
BRANCH  14  15
HETATM   15  C14 UNL     1     -12.646   7.174  13.155  1.00  0.00     0.002 C 
BRANCH  15  16
HETATM   16  C13 UNL     1     -14.126   7.287  13.542  1.00  0.00     0.000 C 
BRANCH  16  17
HETATM   17  C12 UNL     1     -15.111   7.052  12.390  1.00  0.00     0.000 C 
BRANCH  17  18
HETATM   18  C11 UNL     1     -16.448   6.407  12.755  1.00  0.00     0.000 C 
BRANCH  18  19
HETATM   19  C10 UNL     1     -16.593   6.106  14.249  1.00  0.00     0.000 C 
BRANCH  19  20
HETATM   20  C9  UNL     1     -16.883   4.621  14.478  1.00  0.00     0.000 C 
BRANCH  20  21
HETATM   21  C8  UNL     1     -16.840   4.216  15.954  1.00  0.00     0.000 C 
BRANCH  21  22
HETATM   22  C7  UNL     1     -17.819   3.112  16.364  1.00  0.00     0.000 C 
BRANCH  22  23
HETATM   23  C6  UNL     1     -17.386   1.680  16.030  1.00  0.00     0.000 C 
BRANCH  23  24
HETATM   24  C5  UNL     1     -15.940   1.374  16.429  1.00  0.00     0.000 C 
BRANCH  24  25
HETATM   25  C4  UNL     1     -15.025   1.070  15.239  1.00  0.00     0.000 C 
BRANCH  25  26
HETATM   26  C3  UNL     1     -15.635   1.286  13.850  1.00  0.00    -0.000 C 
BRANCH  26  27
HETATM   27  C2  UNL     1     -15.724   0.006  13.018  1.00  0.00    -0.005 C 
HETATM   28  C1  UNL     1     -15.786  -1.228  13.905  1.00  0.00     0.005 C 
ENDBRANCH  26  27
ENDBRANCH  25  26
ENDBRANCH  24  25
ENDBRANCH  23  24
ENDBRANCH  22  23
ENDBRANCH  21  22
ENDBRANCH  20  21
ENDBRANCH  19  20
ENDBRANCH  18  19
ENDBRANCH  17  18
ENDBRANCH  16  17
ENDBRANCH  15  16
ENDBRANCH  14  15
ENDBRANCH  13  14
ENDBRANCH  10  13
ENDBRANCH   8   9
BRANCH   8  29
HETATM   29  N2  UNL     1      -7.890   4.421  15.727  1.00  0.00     0.092 N 
HETATM   30  H36 UNL     1      -8.334   5.147  16.294  1.00  0.00     0.313 HD
HETATM   31  H37 UNL     1      -8.690   3.850  15.436  1.00  0.00     0.313 HD
ENDBRANCH   8  29
ENDBRANCH   7   8
ENDBRANCH   1   7
BRANCH   4  32
HETATM   32  O2  UNL     1      -1.475   5.287  11.811  1.00  0.00    -0.275 OA
BRANCH  32  33
HETATM   33  P1  UNL     1      -0.146   4.507  12.283  1.00  0.00     0.267 P 
HETATM   34  O3  UNL     1      -0.165   3.025  12.044  1.00  0.00    -0.652 OA
BRANCH  33  35
HETATM   35  O4  UNL     1      -0.162   4.822  13.864  1.00  0.00    -0.327 OA
HETATM   36  H42 UNL     1      -0.760   4.226  14.354  1.00  0.00     0.220 HD
ENDBRANCH  33  35
BRANCH  33  37
HETATM   37  C24 UNL     1       1.232   5.459  11.628  1.00  0.00     0.293 C 
BRANCH  37  38
HETATM   38  O5  UNL     1       0.939   5.920  10.299  1.00  0.00    -0.371 OA
BRANCH  38  39
HETATM   39  C25 UNL     1       1.469   7.225   9.995  1.00  0.00     0.164 C 
BRANCH  39  40
HETATM   40  C26 UNL     1       0.402   8.059   9.266  1.00  0.00     0.197 C 
BRANCH  40  41
HETATM   41  O6  UNL     1      -0.531   8.624  10.188  1.00  0.00    -0.398 OA
HETATM   42  H48 UNL     1      -0.050   9.287  10.714  1.00  0.00     0.209 HD
ENDBRANCH  40  41
ENDBRANCH  39  40
BRANCH  39  43
HETATM   43  C27 UNL     1       2.692   7.030   9.076  1.00  0.00     0.167 C 
BRANCH  43  44
HETATM   44  N3  UNL     1       3.948   7.045   9.832  1.00  0.00    -0.307 N 
HETATM   45  C28 UNL     1       4.515   8.249  10.180  1.00  0.00     0.099 A 
HETATM   46  C29 UNL     1       5.702   8.299  10.781  1.00  0.00     0.059 A 
HETATM   47  C30 UNL     1       6.355   6.998  11.016  1.00  0.00     0.082 A 
HETATM   48  N5  UNL     1       5.836   5.859  10.676  1.00  0.00    -0.299 N 
HETATM   49  C31 UNL     1       4.604   5.832  10.065  1.00  0.00     0.327 A 
ATOM     50  H5  UNL     1       6.338   4.990  10.861  1.00  0.00     0.171 HD
HETATM   51  O7  UNL     1       4.098   4.767   9.712  1.00  0.00    -0.246 OA
BRANCH  47  52
HETATM   52  N4  UNL     1       7.586   6.964  11.613  1.00  0.00    -0.288 NA
HETATM   53  H53 UNL     1       8.211   7.725  11.374  1.00  0.00     0.125 HD
HETATM   54  H54 UNL     1       8.022   6.054  11.519  1.00  0.00     0.125 HD
ENDBRANCH  47  52
ENDBRANCH  43  44
ENDBRANCH  39  43
ENDBRANCH  38  39
ENDBRANCH  37  38
ENDBRANCH  33  37
ENDBRANCH  32  33
ENDBRANCH   4  32
TORSDOF 30
ENDMDL
MODEL 7
REMARK minimizedAffinity -6.90430927
REMARK CNNscore 0.139997557
REMARK CNNaffinity 5.83264732
REMARK  30 active torsions:
REMARK  status: ('A' for Active; 'I' for Inactive)
REMARK    1  A    between atoms: C2_2  and  C3_3 
REMARK    2  A    between atoms: C3_3  and  C4_4 
REMARK    3  A    between atoms: C4_4  and  C5_5 
REMARK    4  A    between atoms: C5_5  and  C6_6 
REMARK    5  A    between atoms: C6_6  and  C7_7 
REMARK    6  A    between atoms: C7_7  and  C8_8 
REMARK    7  A    between atoms: C8_8  and  C9_9 
REMARK    8  A    between atoms: C9_9  and  C10_10 
REMARK    9  A    between atoms: C10_10  and  C11_11 
REMARK   10  A    between atoms: C11_11  and  C12_12 
REMARK   11  A    between atoms: C12_12  and  C13_13 
REMARK   12  A    between atoms: C13_13  and  C14_14 
REMARK   13  A    between atoms: C14_14  and  C15_15 
REMARK   14  A    between atoms: C15_15  and  C16_16 
REMARK   15  A    between atoms: C16_16  and  N1_17 
REMARK       I    between atoms: N1_17  and  C17_18 
REMARK   16  A    between atoms: C17_18  and  C18_20 
REMARK   17  A    between atoms: C18_20  and  N2_21 
REMARK   18  A    between atoms: C18_20  and  C19_22 
REMARK   19  A    between atoms: C19_22  and  C20_23 
REMARK   20  A    between atoms: C23_26  and  O2_27 
REMARK   21  A    between atoms: O2_27  and  P1_28 
REMARK   22  A    between atoms: P1_28  and  O4_30 
REMARK   23  A    between atoms: P1_28  and  C24_31 
REMARK   24  A    between atoms: C24_31  and  O5_32 
REMARK   25  A    between atoms: O5_32  and  C25_33 
REMARK   26  A    between atoms: C25_33  and  C26_34 
REMARK   27  A    between atoms: C25_33  and  C27_36 
REMARK   28  A    between atoms: C26_34  and  O6_35 
REMARK   29  A    between atoms: C27_36  and  N3_37 
REMARK   30  A    between atoms: C30_40  and  N4_41 
ROOT
HETATM    1  C20 UNL     1      -6.633   4.831  13.121  1.00  0.00    -0.056 A 
HETATM    2  C21 UNL     1      -6.788   3.597  12.477  1.00  0.00     0.010 A 
HETATM    3  C22 UNL     1      -5.672   2.825  12.153  1.00  0.00     0.038 A 
HETATM    4  C23 UNL     1      -4.390   3.267  12.475  1.00  0.00     0.078 A 
HETATM    5  C32 UNL     1      -4.221   4.492  13.114  1.00  0.00     0.038 A 
HETATM    6  C33 UNL     1      -5.339   5.268  13.435  1.00  0.00     0.010 A 
ENDROOT
BRANCH   1   7
HETATM    7  C19 UNL     1      -7.833   5.685  13.458  1.00  0.00     0.083 C 
BRANCH   7   8
HETATM    8  C18 UNL     1      -8.004   6.050  14.945  1.00  0.00     0.313 C 
BRANCH   8   9
HETATM    9  C17 UNL     1      -9.200   6.995  15.208  1.00  0.00     0.251 C 
HETATM   10  N1  UNL     1      -8.939   8.043  16.066  1.00  0.00    -0.359 N 
HETATM   11  H34 UNL     1      -7.997   8.192  16.413  1.00  0.00     0.162 HD
HETATM   12  O1  UNL     1     -10.316   6.799  14.726  1.00  0.00    -0.271 OA
BRANCH  10  13
HETATM   13  C16 UNL     1      -9.974   8.997  16.408  1.00  0.00     0.122 C 
BRANCH  13  14
HETATM   14  C15 UNL     1      -9.795  10.314  15.656  1.00  0.00     0.020 C 
BRANCH  14  15
HETATM   15  C14 UNL     1     -11.122  10.988  15.295  1.00  0.00     0.002 C 
BRANCH  15  16
HETATM   16  C13 UNL     1     -11.220  12.478  15.645  1.00  0.00     0.000 C 
BRANCH  16  17
HETATM   17  C12 UNL     1     -11.469  13.404  14.447  1.00  0.00     0.000 C 
BRANCH  17  18
HETATM   18  C11 UNL     1     -12.165  14.732  14.744  1.00  0.00     0.000 C 
BRANCH  18  19
HETATM   19  C10 UNL     1     -11.502  15.933  14.066  1.00  0.00     0.000 C 
BRANCH  19  20
HETATM   20  C9  UNL     1     -10.874  15.526  12.731  1.00  0.00     0.000 C 
BRANCH  20  21
HETATM   21  C8  UNL     1     -11.799  15.745  11.532  1.00  0.00     0.000 C 
BRANCH  21  22
HETATM   22  C7  UNL     1     -11.557  17.032  10.738  1.00  0.00     0.000 C 
BRANCH  22  23
HETATM   23  C6  UNL     1     -10.219  17.734  11.000  1.00  0.00     0.000 C 
BRANCH  23  24
HETATM   24  C5  UNL     1      -9.432  18.036   9.722  1.00  0.00     0.000 C 
BRANCH  24  25
HETATM   25  C4  UNL     1      -8.323  19.075   9.914  1.00  0.00     0.000 C 
BRANCH  25  26
HETATM   26  C3  UNL     1      -6.890  18.533   9.931  1.00  0.00    -0.000 C 
BRANCH  26  27
HETATM   27  C2  UNL     1      -6.282  18.376   8.536  1.00  0.00    -0.005 C 
HETATM   28  C1  UNL     1      -4.763  18.416   8.587  1.00  0.00     0.005 C 
ENDBRANCH  26  27
ENDBRANCH  25  26
ENDBRANCH  24  25
ENDBRANCH  23  24
ENDBRANCH  22  23
ENDBRANCH  21  22
ENDBRANCH  20  21
ENDBRANCH  19  20
ENDBRANCH  18  19
ENDBRANCH  17  18
ENDBRANCH  16  17
ENDBRANCH  15  16
ENDBRANCH  14  15
ENDBRANCH  13  14
ENDBRANCH  10  13
ENDBRANCH   8   9
BRANCH   8  29
HETATM   29  N2  UNL     1      -8.113   4.851  15.812  1.00  0.00     0.092 N 
HETATM   30  H36 UNL     1      -8.291   5.186  16.762  1.00  0.00     0.313 HD
HETATM   31  H37 UNL     1      -8.997   4.392  15.571  1.00  0.00     0.313 HD
ENDBRANCH   8  29
ENDBRANCH   7   8
ENDBRANCH   1   7
BRANCH   4  32
HETATM   32  O2  UNL     1      -3.362   2.453  12.098  1.00  0.00    -0.275 OA
BRANCH  32  33
HETATM   33  P1  UNL     1      -2.271   2.814  10.969  1.00  0.00     0.267 P 
HETATM   34  O3  UNL     1      -2.794   3.628   9.822  1.00  0.00    -0.652 OA
BRANCH  33  35
HETATM   35  O4  UNL     1      -1.860   1.337  10.470  1.00  0.00    -0.327 OA
HETATM   36  H42 UNL     1      -2.497   0.973   9.825  1.00  0.00     0.220 HD
ENDBRANCH  33  35
BRANCH  33  37
HETATM   37  C24 UNL     1      -0.834   3.425  11.862  1.00  0.00     0.293 C 
BRANCH  37  38
HETATM   38  O5  UNL     1      -0.045   4.280  11.021  1.00  0.00    -0.371 OA
BRANCH  38  39
HETATM   39  C25 UNL     1       0.982   5.014  11.718  1.00  0.00     0.164 C 
BRANCH  39  40
HETATM   40  C26 UNL     1       0.357   5.780  12.896  1.00  0.00     0.197 C 
BRANCH  40  41
HETATM   41  O6  UNL     1       1.170   5.682  14.066  1.00  0.00    -0.398 OA
HETATM   42  H48 UNL     1       1.991   6.173  13.890  1.00  0.00     0.209 HD
ENDBRANCH  40  41
ENDBRANCH  39  40
BRANCH  39  43
HETATM   43  C27 UNL     1       1.602   6.012  10.721  1.00  0.00     0.167 C 
BRANCH  43  44
HETATM   44  N3  UNL     1       3.052   6.134  10.904  1.00  0.00    -0.307 N 
HETATM   45  C28 UNL     1       3.551   7.119  11.723  1.00  0.00     0.099 A 
HETATM   46  C29 UNL     1       4.862   7.318  11.834  1.00  0.00     0.059 A 
HETATM   47  C30 UNL     1       5.715   6.439  11.014  1.00  0.00     0.082 A 
HETATM   48  N5  UNL     1       5.253   5.518  10.226  1.00  0.00    -0.299 N 
HETATM   49  C31 UNL     1       3.894   5.325  10.134  1.00  0.00     0.327 A 
ATOM     50  H5  UNL     1       5.892   4.942   9.678  1.00  0.00     0.171 HD
HETATM   51  O7  UNL     1       3.428   4.474   9.377  1.00  0.00    -0.246 OA
BRANCH  47  52
HETATM   52  N4  UNL     1       7.074   6.591  11.058  1.00  0.00    -0.288 NA
HETATM   53  H53 UNL     1       7.407   7.542  11.160  1.00  0.00     0.125 HD
HETATM   54  H54 UNL     1       7.531   6.094  10.301  1.00  0.00     0.125 HD
ENDBRANCH  47  52
ENDBRANCH  43  44
ENDBRANCH  39  43
ENDBRANCH  38  39
ENDBRANCH  37  38
ENDBRANCH  33  37
ENDBRANCH  32  33
ENDBRANCH   4  32
TORSDOF 30
ENDMDL
MODEL 8
REMARK minimizedAffinity -7.18707228
REMARK CNNscore 0.129455283
REMARK CNNaffinity 6.83294916
REMARK  30 active torsions:
REMARK  status: ('A' for Active; 'I' for Inactive)
REMARK    1  A    between atoms: C2_2  and  C3_3 
REMARK    2  A    between atoms: C3_3  and  C4_4 
REMARK    3  A    between atoms: C4_4  and  C5_5 
REMARK    4  A    between atoms: C5_5  and  C6_6 
REMARK    5  A    between atoms: C6_6  and  C7_7 
REMARK    6  A    between atoms: C7_7  and  C8_8 
REMARK    7  A    between atoms: C8_8  and  C9_9 
REMARK    8  A    between atoms: C9_9  and  C10_10 
REMARK    9  A    between atoms: C10_10  and  C11_11 
REMARK   10  A    between atoms: C11_11  and  C12_12 
REMARK   11  A    between atoms: C12_12  and  C13_13 
REMARK   12  A    between atoms: C13_13  and  C14_14 
REMARK   13  A    between atoms: C14_14  and  C15_15 
REMARK   14  A    between atoms: C15_15  and  C16_16 
REMARK   15  A    between atoms: C16_16  and  N1_17 
REMARK       I    between atoms: N1_17  and  C17_18 
REMARK   16  A    between atoms: C17_18  and  C18_20 
REMARK   17  A    between atoms: C18_20  and  N2_21 
REMARK   18  A    between atoms: C18_20  and  C19_22 
REMARK   19  A    between atoms: C19_22  and  C20_23 
REMARK   20  A    between atoms: C23_26  and  O2_27 
REMARK   21  A    between atoms: O2_27  and  P1_28 
REMARK   22  A    between atoms: P1_28  and  O4_30 
REMARK   23  A    between atoms: P1_28  and  C24_31 
REMARK   24  A    between atoms: C24_31  and  O5_32 
REMARK   25  A    between atoms: O5_32  and  C25_33 
REMARK   26  A    between atoms: C25_33  and  C26_34 
REMARK   27  A    between atoms: C25_33  and  C27_36 
REMARK   28  A    between atoms: C26_34  and  O6_35 
REMARK   29  A    between atoms: C27_36  and  N3_37 
REMARK   30  A    between atoms: C30_40  and  N4_41 
ROOT
HETATM    1  C20 UNL     1      -3.830   3.589  11.302  1.00  0.00    -0.056 A 
HETATM    2  C21 UNL     1      -3.750   4.075  12.613  1.00  0.00     0.010 A 
HETATM    3  C22 UNL     1      -2.531   4.515  13.130  1.00  0.00     0.038 A 
HETATM    4  C23 UNL     1      -1.379   4.486  12.344  1.00  0.00     0.078 A 
HETATM    5  C32 UNL     1      -1.445   4.005  11.039  1.00  0.00     0.038 A 
HETATM    6  C33 UNL     1      -2.666   3.560  10.523  1.00  0.00     0.010 A 
ENDROOT
BRANCH   1   7
HETATM    7  C19 UNL     1      -5.141   3.091  10.740  1.00  0.00     0.083 C 
BRANCH   7   8
HETATM    8  C18 UNL     1      -5.947   2.143  11.649  1.00  0.00     0.313 C 
BRANCH   8   9
HETATM    9  C17 UNL     1      -7.168   2.824  12.312  1.00  0.00     0.251 C 
HETATM   10  N1  UNL     1      -7.206   4.198  12.193  1.00  0.00    -0.359 N 
HETATM   11  H34 UNL     1      -6.508   4.678  11.635  1.00  0.00     0.162 HD
HETATM   12  O1  UNL     1      -8.018   2.192  12.941  1.00  0.00    -0.271 OA
BRANCH  10  13
HETATM   13  C16 UNL     1      -8.289   4.962  12.777  1.00  0.00     0.122 C 
BRANCH  13  14
HETATM   14  C15 UNL     1      -7.797   5.858  13.912  1.00  0.00     0.020 C 
BRANCH  14  15
HETATM   15  C14 UNL     1      -7.592   5.105  15.230  1.00  0.00     0.002 C 
BRANCH  15  16
HETATM   16  C13 UNL     1      -6.986   5.931  16.372  1.00  0.00     0.000 C 
BRANCH  16  17
HETATM   17  C12 UNL     1      -7.651   7.294  16.601  1.00  0.00     0.000 C 
BRANCH  17  18
HETATM   18  C11 UNL     1      -8.932   7.569  15.815  1.00  0.00     0.000 C 
BRANCH  18  19
HETATM   19  C10 UNL     1      -9.898   8.516  16.533  1.00  0.00     0.000 C 
BRANCH  19  20
HETATM   20  C9  UNL     1     -11.110   8.827  15.652  1.00  0.00     0.000 C 
BRANCH  20  21
HETATM   21  C8  UNL     1     -11.057   8.141  14.284  1.00  0.00     0.000 C 
BRANCH  21  22
HETATM   22  C7  UNL     1     -12.393   7.600  13.765  1.00  0.00     0.000 C 
BRANCH  22  23
HETATM   23  C6  UNL     1     -12.847   6.263  14.362  1.00  0.00     0.000 C 
BRANCH  23  24
HETATM   24  C5  UNL     1     -14.231   6.327  15.012  1.00  0.00     0.000 C 
BRANCH  24  25
HETATM   25  C4  UNL     1     -15.209   5.275  14.481  1.00  0.00     0.000 C 
BRANCH  25  26
HETATM   26  C3  UNL     1     -16.666   5.425  14.928  1.00  0.00    -0.000 C 
BRANCH  26  27
HETATM   27  C2  UNL     1     -16.875   5.171  16.421  1.00  0.00    -0.005 C 
HETATM   28  C1  UNL     1     -17.786   3.976  16.657  1.00  0.00     0.005 C 
ENDBRANCH  26  27
ENDBRANCH  25  26
ENDBRANCH  24  25
ENDBRANCH  23  24
ENDBRANCH  22  23
ENDBRANCH  21  22
ENDBRANCH  20  21
ENDBRANCH  19  20
ENDBRANCH  18  19
ENDBRANCH  17  18
ENDBRANCH  16  17
ENDBRANCH  15  16
ENDBRANCH  14  15
ENDBRANCH  13  14
ENDBRANCH  10  13
ENDBRANCH   8   9
BRANCH   8  29
HETATM   29  N2  UNL     1      -6.383   0.916  10.939  1.00  0.00     0.092 N 
HETATM   30  H36 UNL     1      -6.964   0.384  11.592  1.00  0.00     0.313 HD
HETATM   31  H37 UNL     1      -7.064   1.210  10.231  1.00  0.00     0.313 HD
ENDBRANCH   8  29
ENDBRANCH   7   8
ENDBRANCH   1   7
BRANCH   4  32
HETATM   32  O2  UNL     1      -0.233   4.916  12.944  1.00  0.00    -0.275 OA
BRANCH  32  33
HETATM   33  P1  UNL     1       0.373   6.403  12.808  1.00  0.00     0.267 P 
HETATM   34  O3  UNL     1       1.255   6.832  13.944  1.00  0.00    -0.652 OA
BRANCH  33  35
HETATM   35  O4  UNL     1      -0.982   7.276  12.786  1.00  0.00    -0.327 OA
HETATM   36  H42 UNL     1      -1.334   7.436  13.683  1.00  0.00     0.220 HD
ENDBRANCH  33  35
BRANCH  33  37
HETATM   37  C24 UNL     1       1.027   6.507  11.135  1.00  0.00     0.293 C 
BRANCH  37  38
HETATM   38  O5  UNL     1       2.398   6.081  11.104  1.00  0.00    -0.371 OA
BRANCH  38  39
HETATM   39  C25 UNL     1       3.033   6.221   9.816  1.00  0.00     0.164 C 
BRANCH  39  40
HETATM   40  C26 UNL     1       3.571   4.857   9.355  1.00  0.00     0.197 C 
BRANCH  40  41
HETATM   41  O6  UNL     1       3.488   4.721   7.936  1.00  0.00    -0.398 OA
HETATM   42  H48 UNL     1       4.118   5.353   7.548  1.00  0.00     0.209 HD
ENDBRANCH  40  41
ENDBRANCH  39  40
BRANCH  39  43
HETATM   43  C27 UNL     1       4.202   7.213   9.977  1.00  0.00     0.167 C 
BRANCH  43  44
HETATM   44  N3  UNL     1       4.687   7.262  11.360  1.00  0.00    -0.307 N 
HETATM   45  C28 UNL     1       4.117   8.143  12.247  1.00  0.00     0.099 A 
HETATM   46  C29 UNL     1       4.597   8.281  13.481  1.00  0.00     0.059 A 
HETATM   47  C30 UNL     1       5.774   7.454  13.805  1.00  0.00     0.082 A 
HETATM   48  N5  UNL     1       6.329   6.632  12.969  1.00  0.00    -0.299 N 
HETATM   49  C31 UNL     1       5.809   6.500  11.703  1.00  0.00     0.327 A 
ATOM     50  H5  UNL     1       7.146   6.088  13.249  1.00  0.00     0.171 HD
HETATM   51  O7  UNL     1       6.330   5.744  10.883  1.00  0.00    -0.246 OA
BRANCH  47  52
HETATM   52  N4  UNL     1       6.339   7.550  15.048  1.00  0.00    -0.288 NA
HETATM   53  H53 UNL     1       6.333   8.474  15.463  1.00  0.00     0.125 HD
HETATM   54  H54 UNL     1       7.254   7.112  15.077  1.00  0.00     0.125 HD
ENDBRANCH  47  52
ENDBRANCH  43  44
ENDBRANCH  39  43
ENDBRANCH  38  39
ENDBRANCH  37  38
ENDBRANCH  33  37
ENDBRANCH  32  33
ENDBRANCH   4  32
TORSDOF 30
ENDMDL
MODEL 9
REMARK minimizedAffinity -6.9976306
REMARK CNNscore 0.125754729
REMARK CNNaffinity 5.98207235
REMARK  30 active torsions:
REMARK  status: ('A' for Active; 'I' for Inactive)
REMARK    1  A    between atoms: C2_2  and  C3_3 
REMARK    2  A    between atoms: C3_3  and  C4_4 
REMARK    3  A    between atoms: C4_4  and  C5_5 
REMARK    4  A    between atoms: C5_5  and  C6_6 
REMARK    5  A    between atoms: C6_6  and  C7_7 
REMARK    6  A    between atoms: C7_7  and  C8_8 
REMARK    7  A    between atoms: C8_8  and  C9_9 
REMARK    8  A    between atoms: C9_9  and  C10_10 
REMARK    9  A    between atoms: C10_10  and  C11_11 
REMARK   10  A    between atoms: C11_11  and  C12_12 
REMARK   11  A    between atoms: C12_12  and  C13_13 
REMARK   12  A    between atoms: C13_13  and  C14_14 
REMARK   13  A    between atoms: C14_14  and  C15_15 
REMARK   14  A    between atoms: C15_15  and  C16_16 
REMARK   15  A    between atoms: C16_16  and  N1_17 
REMARK       I    between atoms: N1_17  and  C17_18 
REMARK   16  A    between atoms: C17_18  and  C18_20 
REMARK   17  A    between atoms: C18_20  and  N2_21 
REMARK   18  A    between atoms: C18_20  and  C19_22 
REMARK   19  A    between atoms: C19_22  and  C20_23 
REMARK   20  A    between atoms: C23_26  and  O2_27 
REMARK   21  A    between atoms: O2_27  and  P1_28 
REMARK   22  A    between atoms: P1_28  and  O4_30 
REMARK   23  A    between atoms: P1_28  and  C24_31 
REMARK   24  A    between atoms: C24_31  and  O5_32 
REMARK   25  A    between atoms: O5_32  and  C25_33 
REMARK   26  A    between atoms: C25_33  and  C26_34 
REMARK   27  A    between atoms: C25_33  and  C27_36 
REMARK   28  A    between atoms: C26_34  and  O6_35 
REMARK   29  A    between atoms: C27_36  and  N3_37 
REMARK   30  A    between atoms: C30_40  and  N4_41 
ROOT
HETATM    1  C20 UNL     1      -6.718   4.707  12.878  1.00  0.00    -0.056 A 
HETATM    2  C21 UNL     1      -5.494   5.268  13.263  1.00  0.00     0.010 A 
HETATM    3  C22 UNL     1      -4.300   4.582  13.035  1.00  0.00     0.038 A 
HETATM    4  C23 UNL     1      -4.311   3.335  12.411  1.00  0.00     0.078 A 
HETATM    5  C32 UNL     1      -5.522   2.766  12.023  1.00  0.00     0.038 A 
HETATM    6  C33 UNL     1      -6.717   3.452  12.256  1.00  0.00     0.010 A 
ENDROOT
BRANCH   1   7
HETATM    7  C19 UNL     1      -8.018   5.433  13.140  1.00  0.00     0.083 C 
BRANCH   7   8
HETATM    8  C18 UNL     1      -8.130   6.144  14.502  1.00  0.00     0.313 C 
BRANCH   8   9
HETATM    9  C17 UNL     1      -9.345   7.097  14.595  1.00  0.00     0.251 C 
HETATM   10  N1  UNL     1     -10.563   6.519  14.305  1.00  0.00    -0.359 N 
HETATM   11  H34 UNL     1     -10.622   5.522  14.127  1.00  0.00     0.162 HD
HETATM   12  O1  UNL     1      -9.229   8.294  14.862  1.00  0.00    -0.271 OA
BRANCH  10  13
HETATM   13  C16 UNL     1     -11.782   7.300  14.343  1.00  0.00     0.122 C 
BRANCH  13  14
HETATM   14  C15 UNL     1     -12.201   7.758  12.948  1.00  0.00     0.020 C 
BRANCH  14  15
HETATM   15  C14 UNL     1     -12.652   9.221  12.902  1.00  0.00     0.002 C 
BRANCH  15  16
HETATM   16  C13 UNL     1     -12.001  10.143  13.943  1.00  0.00     0.000 C 
BRANCH  16  17
HETATM   17  C12 UNL     1     -12.988  10.842  14.886  1.00  0.00     0.000 C 
BRANCH  17  18
HETATM   18  C11 UNL     1     -13.000  10.365  16.338  1.00  0.00     0.000 C 
BRANCH  18  19
HETATM   19  C10 UNL     1     -11.781  10.824  17.142  1.00  0.00     0.000 C 
BRANCH  19  20
HETATM   20  C9  UNL     1     -11.036   9.624  17.733  1.00  0.00     0.000 C 
BRANCH  20  21
HETATM   21  C8  UNL     1     -11.254   9.457  19.239  1.00  0.00     0.000 C 
BRANCH  21  22
HETATM   22  C7  UNL     1     -11.412  10.758  20.031  1.00  0.00     0.000 C 
BRANCH  22  23
HETATM   23  C6  UNL     1     -11.398  10.614  21.557  1.00  0.00     0.000 C 
BRANCH  23  24
HETATM   24  C5  UNL     1     -10.297  11.435  22.234  1.00  0.00     0.000 C 
BRANCH  24  25
HETATM   25  C4  UNL     1      -9.546  12.363  21.276  1.00  0.00     0.000 C 
BRANCH  25  26
HETATM   26  C3  UNL     1      -8.731  13.485  21.927  1.00  0.00    -0.000 C 
BRANCH  26  27
HETATM   27  C2  UNL     1      -7.697  12.981  22.935  1.00  0.00    -0.005 C 
HETATM   28  C1  UNL     1      -6.279  13.208  22.434  1.00  0.00     0.005 C 
ENDBRANCH  26  27
ENDBRANCH  25  26
ENDBRANCH  24  25
ENDBRANCH  23  24
ENDBRANCH  22  23
ENDBRANCH  21  22
ENDBRANCH  20  21
ENDBRANCH  19  20
ENDBRANCH  18  19
ENDBRANCH  17  18
ENDBRANCH  16  17
ENDBRANCH  15  16
ENDBRANCH  14  15
ENDBRANCH  13  14
ENDBRANCH  10  13
ENDBRANCH   8   9
BRANCH   8  29
HETATM   29  N2  UNL     1      -8.154   5.189  15.637  1.00  0.00     0.092 N 
HETATM   30  H36 UNL     1      -8.298   5.740  16.487  1.00  0.00     0.313 HD
HETATM   31  H37 UNL     1      -9.032   4.666  15.564  1.00  0.00     0.313 HD
ENDBRANCH   8  29
ENDBRANCH   7   8
ENDBRANCH   1   7
BRANCH   4  32
HETATM   32  O2  UNL     1      -3.097   2.734  12.251  1.00  0.00    -0.275 OA
BRANCH  32  33
HETATM   33  P1  UNL     1      -2.122   2.956  10.988  1.00  0.00     0.267 P 
HETATM   34  O3  UNL     1      -2.725   3.732   9.853  1.00  0.00    -0.652 OA
BRANCH  33  35
HETATM   35  O4  UNL     1      -1.853   1.430  10.546  1.00  0.00    -0.327 OA
HETATM   36  H42 UNL     1      -2.578   1.069  10.000  1.00  0.00     0.220 HD
ENDBRANCH  33  35
BRANCH  33  37
HETATM   37  C24 UNL     1      -0.562   3.528  11.677  1.00  0.00     0.293 C 
BRANCH  37  38
HETATM   38  O5  UNL     1      -0.621   4.937  11.955  1.00  0.00    -0.371 OA
BRANCH  38  39
HETATM   39  C25 UNL     1       0.659   5.538  12.238  1.00  0.00     0.164 C 
BRANCH  39  40
HETATM   40  C26 UNL     1       0.520   7.070  12.237  1.00  0.00     0.197 C 
BRANCH  40  41
HETATM   41  O6  UNL     1       0.993   7.633  13.461  1.00  0.00    -0.398 OA
HETATM   42  H48 UNL     1       1.956   7.495  13.489  1.00  0.00     0.209 HD
ENDBRANCH  40  41
ENDBRANCH  39  40
BRANCH  39  43
HETATM   43  C27 UNL     1       1.635   5.105  11.126  1.00  0.00     0.167 C 
BRANCH  43  44
HETATM   44  N3  UNL     1       2.002   6.227  10.257  1.00  0.00    -0.307 N 
HETATM   45  C28 UNL     1       1.080   6.725   9.367  1.00  0.00     0.099 A 
HETATM   46  C29 UNL     1       1.411   7.677   8.498  1.00  0.00     0.059 A 
HETATM   47  C30 UNL     1       2.814   8.128   8.546  1.00  0.00     0.082 A 
HETATM   48  N5  UNL     1       3.695   7.652   9.371  1.00  0.00    -0.299 N 
HETATM   49  C31 UNL     1       3.327   6.675  10.266  1.00  0.00     0.327 A 
ATOM     50  H5  UNL     1       4.654   8.000   9.355  1.00  0.00     0.171 HD
HETATM   51  O7  UNL     1       4.148   6.190  11.044  1.00  0.00    -0.246 OA
BRANCH  47  52
HETATM   52  N4  UNL     1       3.239   9.092   7.673  1.00  0.00    -0.288 NA
HETATM   53  H53 UNL     1       2.827   9.059   6.748  1.00  0.00     0.125 HD
HETATM   54  H54 UNL     1       4.251   9.156   7.650  1.00  0.00     0.125 HD
ENDBRANCH  47  52
ENDBRANCH  43  44
ENDBRANCH  39  43
ENDBRANCH  38  39
ENDBRANCH  37  38
ENDBRANCH  33  37
ENDBRANCH  32  33
ENDBRANCH   4  32
TORSDOF 30
ENDMDL
