MODEL 1
REMARK minimizedAffinity -7.48575687
REMARK CNNscore 0.750960648
REMARK CNNaffinity 6.86391592
REMARK  6 active torsions:
REMARK  status: ('A' for Active; 'I' for Inactive)
REMARK    1  A    between atoms: C2_2  and  C30_32 
REMARK    2  A    between atoms: C3_3  and  C4_4 
REMARK    3  A    between atoms: C4_4  and  C5_6 
REMARK    4  A    between atoms: C5_6  and  C6_7 
REMARK    5  A    between atoms: C6_7  and  C8_9 
REMARK    6  A    between atoms: C30_32  and  O4_34 
ROOT
HETATM    1  C8  UNL     1       4.843  55.945  -8.333  1.00  0.00    -0.001 C 
HETATM    2  C9  UNL     1       4.069  57.272  -8.062  1.00  0.00     0.007 C 
HETATM    3  C10 UNL     1       2.612  57.060  -8.508  1.00  0.00     0.015 C 
HETATM    4  C11 UNL     1       2.652  55.782  -9.369  1.00  0.00    -0.013 C 
HETATM    5  C12 UNL     1       3.126  56.234 -10.788  1.00  0.00     0.021 C 
HETATM    6  C13 UNL     1       1.366  54.988  -9.590  1.00  0.00    -0.070 C 
HETATM    7  C14 UNL     1       0.152  55.478  -9.296  1.00  0.00    -0.022 C 
HETATM    8  C15 UNL     1      -1.135  54.793  -9.611  1.00  0.00     0.034 C 
HETATM    9  C16 UNL     1      -1.019  53.643 -10.646  1.00  0.00     0.013 C 
HETATM   10  C17 UNL     1      -2.376  52.856 -10.816  1.00  0.00     0.018 C 
HETATM   11  C18 UNL     1      -2.605  52.509 -12.306  1.00  0.00     0.023 C 
HETATM   12  C19 UNL     1      -3.628  53.638 -10.366  1.00  0.00     0.023 C 
HETATM   13  C20 UNL     1      -2.349  51.567  -9.987  1.00  0.00     0.135 C 
HETATM   14  O2  UNL     1      -3.050  50.594 -10.269  1.00  0.00    -0.297 OA
HETATM   15  C21 UNL     1      -1.506  51.563  -8.733  1.00  0.00     0.080 C 
HETATM   16  C22 UNL     1      -0.060  52.007  -8.957  1.00  0.00     0.017 C 
HETATM   17  C23 UNL     1       0.217  52.730 -10.303  1.00  0.00    -0.031 C 
HETATM   18  C24 UNL     1       0.446  51.648 -11.395  1.00  0.00     0.016 C 
HETATM   19  C25 UNL     1       1.541  53.617 -10.254  1.00  0.00     0.024 C 
HETATM   20  C26 UNL     1       2.773  52.837  -9.702  1.00  0.00     0.010 C 
HETATM   21  C27 UNL     1       4.027  53.677  -9.400  1.00  0.00     0.011 C 
HETATM   22  C28 UNL     1       3.687  54.919  -8.559  1.00  0.00    -0.029 C 
HETATM   23  C29 UNL     1       3.131  54.454  -7.177  1.00  0.00     0.016 C 
ENDROOT
BRANCH   1  24
HETATM   24  C6  UNL     1       5.925  55.677  -7.243  1.00  0.00    -0.007 C 
HETATM   25  C7  UNL     1       7.274  55.266  -7.847  1.00  0.00     0.011 C 
BRANCH  24  26
HETATM   26  C5  UNL     1       6.130  56.939  -6.368  1.00  0.00     0.087 C 
BRANCH  26  27
HETATM   27  C4  UNL     1       7.067  56.718  -5.188  1.00  0.00     0.150 C 
HETATM   28  O1  UNL     1       6.831  55.913  -4.293  1.00  0.00    -0.293 OA
BRANCH  27  29
HETATM   29  C3  UNL     1       8.271  57.599  -5.146  1.00  0.00     0.063 C 
HETATM   30  C2  UNL     1       9.541  57.172  -5.021  1.00  0.00     0.015 C 
HETATM   31  C1  UNL     1      10.020  55.754  -4.970  1.00  0.00     0.055 C 
BRANCH  30  32
HETATM   32  C30 UNL     1      10.555  58.251  -4.961  1.00  0.00     0.171 C 
HETATM   33  O3  UNL     1      10.387  59.418  -5.268  1.00  0.00    -0.646 OA
BRANCH  32  34
HETATM   34  O4  UNL     1      11.739  57.819  -4.501  1.00  0.00    -0.773 OA
HETATM   35  H44 UNL     1      12.302  58.621  -4.501  1.00  0.00     0.167 HD
ENDBRANCH  32  34
ENDBRANCH  30  32
ENDBRANCH  27  29
ENDBRANCH  26  27
ENDBRANCH  24  26
ENDBRANCH   1  24
TORSDOF 6
ENDMDL
MODEL 2
REMARK minimizedAffinity -7.50748682
REMARK CNNscore 0.607081115
REMARK CNNaffinity 6.10878944
REMARK  6 active torsions:
REMARK  status: ('A' for Active; 'I' for Inactive)
REMARK    1  A    between atoms: C2_2  and  C30_32 
REMARK    2  A    between atoms: C3_3  and  C4_4 
REMARK    3  A    between atoms: C4_4  and  C5_6 
REMARK    4  A    between atoms: C5_6  and  C6_7 
REMARK    5  A    between atoms: C6_7  and  C8_9 
REMARK    6  A    between atoms: C30_32  and  O4_34 
ROOT
HETATM    1  C8  UNL     1     -12.886  46.087 -27.170  1.00  0.00    -0.001 C 
HETATM    2  C9  UNL     1     -12.208  46.995 -26.099  1.00  0.00     0.007 C 
HETATM    3  C10 UNL     1     -10.803  47.353 -26.612  1.00  0.00     0.015 C 
HETATM    4  C11 UNL     1     -10.544  46.356 -27.761  1.00  0.00    -0.013 C 
HETATM    5  C12 UNL     1     -10.067  45.032 -27.081  1.00  0.00     0.021 C 
HETATM    6  C13 UNL     1      -9.492  46.688 -28.817  1.00  0.00    -0.070 C 
HETATM    7  C14 UNL     1      -8.594  47.674 -28.661  1.00  0.00    -0.022 C 
HETATM    8  C15 UNL     1      -7.472  47.951 -29.603  1.00  0.00     0.034 C 
HETATM    9  C16 UNL     1      -7.158  46.798 -30.593  1.00  0.00     0.013 C 
HETATM   10  C17 UNL     1      -6.075  47.211 -31.664  1.00  0.00     0.018 C 
HETATM   11  C18 UNL     1      -5.106  46.033 -31.919  1.00  0.00     0.023 C 
HETATM   12  C19 UNL     1      -5.191  48.406 -31.249  1.00  0.00     0.023 C 
HETATM   13  C20 UNL     1      -6.756  47.611 -32.978  1.00  0.00     0.135 C 
HETATM   14  O2  UNL     1      -6.172  47.546 -34.061  1.00  0.00    -0.297 OA
HETATM   15  C21 UNL     1      -8.145  48.197 -32.893  1.00  0.00     0.080 C 
HETATM   16  C22 UNL     1      -9.131  47.342 -32.098  1.00  0.00     0.017 C 
HETATM   17  C23 UNL     1      -8.494  46.237 -31.210  1.00  0.00    -0.031 C 
HETATM   18  C24 UNL     1      -8.231  44.993 -32.101  1.00  0.00     0.016 C 
HETATM   19  C25 UNL     1      -9.467  45.764 -30.039  1.00  0.00     0.024 C 
HETATM   20  C26 UNL     1     -10.897  45.405 -30.548  1.00  0.00     0.010 C 
HETATM   21  C27 UNL     1     -11.962  45.166 -29.462  1.00  0.00     0.011 C 
HETATM   22  C28 UNL     1     -11.971  46.297 -28.419  1.00  0.00    -0.029 C 
HETATM   23  C29 UNL     1     -12.362  47.631 -29.127  1.00  0.00     0.016 C 
ENDROOT
BRANCH   1  24
HETATM   24  C6  UNL     1     -14.418  46.356 -27.269  1.00  0.00    -0.007 C 
HETATM   25  C7  UNL     1     -15.152  45.274 -28.070  1.00  0.00     0.011 C 
BRANCH  24  26
HETATM   26  C5  UNL     1     -15.040  46.441 -25.853  1.00  0.00     0.087 C 
BRANCH  26  27
HETATM   27  C4  UNL     1     -15.851  45.212 -25.466  1.00  0.00     0.150 C 
HETATM   28  O1  UNL     1     -15.340  44.199 -24.999  1.00  0.00    -0.293 OA
BRANCH  27  29
HETATM   29  C3  UNL     1     -17.313  45.285 -25.756  1.00  0.00     0.063 C 
HETATM   30  C2  UNL     1     -18.247  45.772 -24.919  1.00  0.00     0.015 C 
HETATM   31  C1  UNL     1     -18.023  46.397 -23.575  1.00  0.00     0.055 C 
BRANCH  30  32
HETATM   32  C30 UNL     1     -19.637  45.693 -25.425  1.00  0.00     0.171 C 
HETATM   33  O3  UNL     1     -20.548  46.456 -25.155  1.00  0.00    -0.646 OA
BRANCH  32  34
HETATM   34  O4  UNL     1     -19.821  44.664 -26.266  1.00  0.00    -0.773 OA
HETATM   35  H44 UNL     1     -20.761  44.737 -26.529  1.00  0.00     0.167 HD
ENDBRANCH  32  34
ENDBRANCH  30  32
ENDBRANCH  27  29
ENDBRANCH  26  27
ENDBRANCH  24  26
ENDBRANCH   1  24
TORSDOF 6
ENDMDL
MODEL 3
REMARK minimizedAffinity -7.34798288
REMARK CNNscore 0.527078807
REMARK CNNaffinity 6.0910573
REMARK  6 active torsions:
REMARK  status: ('A' for Active; 'I' for Inactive)
REMARK    1  A    between atoms: C2_2  and  C30_32 
REMARK    2  A    between atoms: C3_3  and  C4_4 
REMARK    3  A    between atoms: C4_4  and  C5_6 
REMARK    4  A    between atoms: C5_6  and  C6_7 
REMARK    5  A    between atoms: C6_7  and  C8_9 
REMARK    6  A    between atoms: C30_32  and  O4_34 
ROOT
HETATM    1  C8  UNL     1     -12.955  46.286 -26.023  1.00  0.00    -0.001 C 
HETATM    2  C9  UNL     1     -13.647  47.498 -26.720  1.00  0.00     0.007 C 
HETATM    3  C10 UNL     1     -12.739  47.949 -27.877  1.00  0.00     0.015 C 
HETATM    4  C11 UNL     1     -11.386  47.263 -27.600  1.00  0.00    -0.013 C 
HETATM    5  C12 UNL     1     -10.658  48.159 -26.547  1.00  0.00     0.021 C 
HETATM    6  C13 UNL     1     -10.395  47.072 -28.746  1.00  0.00    -0.070 C 
HETATM    7  C14 UNL     1     -10.521  47.700 -29.926  1.00  0.00    -0.022 C 
HETATM    8  C15 UNL     1      -9.513  47.645 -31.023  1.00  0.00     0.034 C 
HETATM    9  C16 UNL     1      -8.116  47.125 -30.595  1.00  0.00     0.013 C 
HETATM   10  C17 UNL     1      -7.147  46.938 -31.826  1.00  0.00     0.018 C 
HETATM   11  C18 UNL     1      -5.719  47.400 -31.452  1.00  0.00     0.023 C 
HETATM   12  C19 UNL     1      -7.542  47.749 -33.077  1.00  0.00     0.023 C 
HETATM   13  C20 UNL     1      -7.115  45.466 -32.255  1.00  0.00     0.135 C 
HETATM   14  O2  UNL     1      -6.156  44.984 -32.861  1.00  0.00    -0.297 OA
HETATM   15  C21 UNL     1      -8.354  44.640 -32.006  1.00  0.00     0.080 C 
HETATM   16  C22 UNL     1      -8.856  44.695 -30.564  1.00  0.00     0.017 C 
HETATM   17  C23 UNL     1      -8.270  45.842 -29.694  1.00  0.00    -0.031 C 
HETATM   18  C24 UNL     1      -6.900  45.372 -29.133  1.00  0.00     0.016 C 
HETATM   19  C25 UNL     1      -9.189  46.179 -28.435  1.00  0.00     0.024 C 
HETATM   20  C26 UNL     1      -9.577  44.912 -27.613  1.00  0.00     0.010 C 
HETATM   21  C27 UNL     1     -10.648  45.113 -26.525  1.00  0.00     0.011 C 
HETATM   22  C28 UNL     1     -11.874  45.865 -27.070  1.00  0.00    -0.029 C 
HETATM   23  C29 UNL     1     -12.542  44.999 -28.183  1.00  0.00     0.016 C 
ENDROOT
BRANCH   1  24
HETATM   24  C6  UNL     1     -13.997  45.244 -25.513  1.00  0.00    -0.007 C 
HETATM   25  C7  UNL     1     -13.422  43.823 -25.454  1.00  0.00     0.011 C 
BRANCH  24  26
HETATM   26  C5  UNL     1     -14.505  45.638 -24.103  1.00  0.00     0.087 C 
BRANCH  26  27
HETATM   27  C4  UNL     1     -15.417  46.857 -24.101  1.00  0.00     0.150 C 
HETATM   28  O1  UNL     1     -15.147  47.888 -23.493  1.00  0.00    -0.293 OA
BRANCH  27  29
HETATM   29  C3  UNL     1     -16.707  46.700 -24.835  1.00  0.00     0.063 C 
HETATM   30  C2  UNL     1     -17.888  46.391 -24.271  1.00  0.00     0.015 C 
HETATM   31  C1  UNL     1     -18.177  46.212 -22.811  1.00  0.00     0.055 C 
BRANCH  30  32
HETATM   32  C30 UNL     1     -19.014  46.251 -25.224  1.00  0.00     0.171 C 
HETATM   33  O3  UNL     1     -20.152  46.654 -25.061  1.00  0.00    -0.646 OA
BRANCH  32  34
HETATM   34  O4  UNL     1     -18.657  45.620 -26.352  1.00  0.00    -0.773 OA
HETATM   35  H44 UNL     1     -19.477  45.607 -26.888  1.00  0.00     0.167 HD
ENDBRANCH  32  34
ENDBRANCH  30  32
ENDBRANCH  27  29
ENDBRANCH  26  27
ENDBRANCH  24  26
ENDBRANCH   1  24
TORSDOF 6
ENDMDL
MODEL 4
REMARK minimizedAffinity -8.20595074
REMARK CNNscore 0.437891066
REMARK CNNaffinity 6.0733037
REMARK  6 active torsions:
REMARK  status: ('A' for Active; 'I' for Inactive)
REMARK    1  A    between atoms: C2_2  and  C30_32 
REMARK    2  A    between atoms: C3_3  and  C4_4 
REMARK    3  A    between atoms: C4_4  and  C5_6 
REMARK    4  A    between atoms: C5_6  and  C6_7 
REMARK    5  A    between atoms: C6_7  and  C8_9 
REMARK    6  A    between atoms: C30_32  and  O4_34 
ROOT
HETATM    1  C8  UNL     1       6.772  65.126 -35.076  1.00  0.00    -0.001 C 
HETATM    2  C9  UNL     1       7.145  66.198 -34.007  1.00  0.00     0.007 C 
HETATM    3  C10 UNL     1       6.260  67.432 -34.258  1.00  0.00     0.015 C 
HETATM    4  C11 UNL     1       5.679  67.213 -35.669  1.00  0.00    -0.013 C 
HETATM    5  C12 UNL     1       6.788  67.682 -36.667  1.00  0.00     0.021 C 
HETATM    6  C13 UNL     1       4.407  67.953 -36.078  1.00  0.00    -0.070 C 
HETATM    7  C14 UNL     1       3.909  68.982 -35.375  1.00  0.00    -0.022 C 
HETATM    8  C15 UNL     1       2.747  69.813 -35.803  1.00  0.00     0.034 C 
HETATM    9  C16 UNL     1       2.365  69.671 -37.300  1.00  0.00     0.013 C 
HETATM   10  C17 UNL     1       1.037  70.447 -37.652  1.00  0.00     0.018 C 
HETATM   11  C18 UNL     1       1.173  71.133 -39.031  1.00  0.00     0.023 C 
HETATM   12  C19 UNL     1       0.668  71.565 -36.655  1.00  0.00     0.023 C 
HETATM   13  C20 UNL     1      -0.151  69.478 -37.675  1.00  0.00     0.135 C 
HETATM   14  O2  UNL     1      -1.171  69.712 -38.326  1.00  0.00    -0.297 OA
HETATM   15  C21 UNL     1      -0.078  68.264 -36.779  1.00  0.00     0.080 C 
HETATM   16  C22 UNL     1       1.198  67.441 -36.953  1.00  0.00     0.017 C 
HETATM   17  C23 UNL     1       2.353  68.151 -37.712  1.00  0.00    -0.031 C 
HETATM   18  C24 UNL     1       2.109  67.976 -39.236  1.00  0.00     0.016 C 
HETATM   19  C25 UNL     1       3.775  67.500 -37.399  1.00  0.00     0.024 C 
HETATM   20  C26 UNL     1       3.781  65.950 -37.567  1.00  0.00     0.010 C 
HETATM   21  C27 UNL     1       5.039  65.219 -37.060  1.00  0.00     0.011 C 
HETATM   22  C28 UNL     1       5.417  65.663 -35.637  1.00  0.00    -0.029 C 
HETATM   23  C29 UNL     1       4.262  65.269 -34.664  1.00  0.00     0.016 C 
ENDROOT
BRANCH   1  24
HETATM   24  C6  UNL     1       6.862  63.681 -34.498  1.00  0.00    -0.007 C 
HETATM   25  C7  UNL     1       5.564  62.888 -34.701  1.00  0.00     0.011 C 
BRANCH  24  26
HETATM   26  C5  UNL     1       8.030  62.909 -35.160  1.00  0.00     0.087 C 
BRANCH  26  27
HETATM   27  C4  UNL     1       8.462  61.671 -34.385  1.00  0.00     0.150 C 
HETATM   28  O1  UNL     1       8.101  60.538 -34.688  1.00  0.00    -0.293 OA
BRANCH  27  29
HETATM   29  C3  UNL     1       9.304  61.924 -33.179  1.00  0.00     0.063 C 
HETATM   30  C2  UNL     1      10.528  62.484 -33.191  1.00  0.00     0.015 C 
HETATM   31  C1  UNL     1      11.266  63.026 -34.378  1.00  0.00     0.055 C 
BRANCH  30  32
HETATM   32  C30 UNL     1      11.177  62.587 -31.863  1.00  0.00     0.171 C 
HETATM   33  O3  UNL     1      11.487  63.616 -31.289  1.00  0.00    -0.646 OA
BRANCH  32  34
HETATM   34  O4  UNL     1      11.395  61.388 -31.303  1.00  0.00    -0.773 OA
HETATM   35  H44 UNL     1      11.808  61.600 -30.440  1.00  0.00     0.167 HD
ENDBRANCH  32  34
ENDBRANCH  30  32
ENDBRANCH  27  29
ENDBRANCH  26  27
ENDBRANCH  24  26
ENDBRANCH   1  24
TORSDOF 6
ENDMDL
MODEL 5
REMARK minimizedAffinity -7.5901885
REMARK CNNscore 0.429844558
REMARK CNNaffinity 6.46165133
REMARK  6 active torsions:
REMARK  status: ('A' for Active; 'I' for Inactive)
REMARK    1  A    between atoms: C2_2  and  C30_32 
REMARK    2  A    between atoms: C3_3  and  C4_4 
REMARK    3  A    between atoms: C4_4  and  C5_6 
REMARK    4  A    between atoms: C5_6  and  C6_7 
REMARK    5  A    between atoms: C6_7  and  C8_9 
REMARK    6  A    between atoms: C30_32  and  O4_34 
ROOT
HETATM    1  C8  UNL     1      -5.127  47.832 -28.876  1.00  0.00    -0.001 C 
HETATM    2  C9  UNL     1      -4.642  48.958 -29.840  1.00  0.00     0.007 C 
HETATM    3  C10 UNL     1      -5.347  48.750 -31.191  1.00  0.00     0.015 C 
HETATM    4  C11 UNL     1      -5.915  47.319 -31.115  1.00  0.00    -0.013 C 
HETATM    5  C12 UNL     1      -4.730  46.366 -31.475  1.00  0.00     0.021 C 
HETATM    6  C13 UNL     1      -7.067  46.921 -32.037  1.00  0.00    -0.070 C 
HETATM    7  C14 UNL     1      -7.440  47.663 -33.092  1.00  0.00    -0.022 C 
HETATM    8  C15 UNL     1      -8.470  47.253 -34.090  1.00  0.00     0.034 C 
HETATM    9  C16 UNL     1      -8.829  45.744 -34.068  1.00  0.00     0.013 C 
HETATM   10  C17 UNL     1     -10.033  45.404 -35.030  1.00  0.00     0.018 C 
HETATM   11  C18 UNL     1      -9.771  44.062 -35.752  1.00  0.00     0.023 C 
HETATM   12  C19 UNL     1     -10.274  46.446 -36.142  1.00  0.00     0.023 C 
HETATM   13  C20 UNL     1     -11.339  45.312 -34.232  1.00  0.00     0.135 C 
HETATM   14  O2  UNL     1     -12.301  44.653 -34.630  1.00  0.00    -0.297 OA
HETATM   15  C21 UNL     1     -11.451  46.150 -32.980  1.00  0.00     0.080 C 
HETATM   16  C22 UNL     1     -10.292  45.962 -32.002  1.00  0.00     0.017 C 
HETATM   17  C23 UNL     1      -9.033  45.260 -32.583  1.00  0.00    -0.031 C 
HETATM   18  C24 UNL     1      -9.260  43.724 -32.511  1.00  0.00     0.016 C 
HETATM   19  C25 UNL     1      -7.719  45.568 -31.733  1.00  0.00     0.024 C 
HETATM   20  C26 UNL     1      -7.916  45.327 -30.205  1.00  0.00     0.010 C 
HETATM   21  C27 UNL     1      -6.781  45.822 -29.290  1.00  0.00     0.011 C 
HETATM   22  C28 UNL     1      -6.384  47.272 -29.615  1.00  0.00    -0.029 C 
HETATM   23  C29 UNL     1      -7.605  48.203 -29.337  1.00  0.00     0.016 C 
ENDROOT
BRANCH   1  24
HETATM   24  C6  UNL     1      -5.246  48.343 -27.408  1.00  0.00    -0.007 C 
HETATM   25  C7  UNL     1      -6.280  47.553 -26.596  1.00  0.00     0.011 C 
BRANCH  24  26
HETATM   26  C5  UNL     1      -3.873  48.253 -26.695  1.00  0.00     0.087 C 
BRANCH  26  27
HETATM   27  C4  UNL     1      -3.660  49.333 -25.642  1.00  0.00     0.150 C 
HETATM   28  O1  UNL     1      -3.887  50.520 -25.852  1.00  0.00    -0.293 OA
BRANCH  27  29
HETATM   29  C3  UNL     1      -3.086  48.866 -24.346  1.00  0.00     0.063 C 
HETATM   30  C2  UNL     1      -3.800  48.409 -23.301  1.00  0.00     0.015 C 
HETATM   31  C1  UNL     1      -5.284  48.207 -23.235  1.00  0.00     0.055 C 
BRANCH  30  32
HETATM   32  C30 UNL     1      -2.996  48.047 -22.110  1.00  0.00     0.171 C 
HETATM   33  O3  UNL     1      -1.784  48.120 -22.008  1.00  0.00    -0.646 OA
BRANCH  32  34
HETATM   34  O4  UNL     1      -3.753  47.621 -21.088  1.00  0.00    -0.773 OA
HETATM   35  H44 UNL     1      -3.107  47.431 -20.377  1.00  0.00     0.167 HD
ENDBRANCH  32  34
ENDBRANCH  30  32
ENDBRANCH  27  29
ENDBRANCH  26  27
ENDBRANCH  24  26
ENDBRANCH   1  24
TORSDOF 6
ENDMDL
MODEL 6
REMARK minimizedAffinity -8.74154854
REMARK CNNscore 0.406442702
REMARK CNNaffinity 6.50237274
REMARK  6 active torsions:
REMARK  status: ('A' for Active; 'I' for Inactive)
REMARK    1  A    between atoms: C2_2  and  C30_32 
REMARK    2  A    between atoms: C3_3  and  C4_4 
REMARK    3  A    between atoms: C4_4  and  C5_6 
REMARK    4  A    between atoms: C5_6  and  C6_7 
REMARK    5  A    between atoms: C6_7  and  C8_9 
REMARK    6  A    between atoms: C30_32  and  O4_34 
ROOT
HETATM    1  C8  UNL     1       5.960  63.878 -33.819  1.00  0.00    -0.001 C 
HETATM    2  C9  UNL     1       4.607  64.556 -33.440  1.00  0.00     0.007 C 
HETATM    3  C10 UNL     1       4.523  65.889 -34.204  1.00  0.00     0.015 C 
HETATM    4  C11 UNL     1       5.962  66.143 -34.699  1.00  0.00    -0.013 C 
HETATM    5  C12 UNL     1       6.727  66.770 -33.489  1.00  0.00     0.021 C 
HETATM    6  C13 UNL     1       6.192  67.088 -35.876  1.00  0.00    -0.070 C 
HETATM    7  C14 UNL     1       5.240  67.914 -36.340  1.00  0.00    -0.022 C 
HETATM    8  C15 UNL     1       5.457  68.941 -37.399  1.00  0.00     0.034 C 
HETATM    9  C16 UNL     1       6.944  69.274 -37.684  1.00  0.00     0.013 C 
HETATM   10  C17 UNL     1       7.112  70.242 -38.919  1.00  0.00     0.018 C 
HETATM   11  C18 UNL     1       8.221  71.281 -38.632  1.00  0.00     0.023 C 
HETATM   12  C19 UNL     1       5.848  71.056 -39.268  1.00  0.00     0.023 C 
HETATM   13  C20 UNL     1       7.472  69.440 -40.176  1.00  0.00     0.135 C 
HETATM   14  O2  UNL     1       8.070  69.949 -41.125  1.00  0.00    -0.297 OA
HETATM   15  C21 UNL     1       6.970  68.018 -40.263  1.00  0.00     0.080 C 
HETATM   16  C22 UNL     1       7.320  67.162 -39.046  1.00  0.00     0.017 C 
HETATM   17  C23 UNL     1       7.785  67.946 -37.787  1.00  0.00    -0.031 C 
HETATM   18  C24 UNL     1       9.303  68.243 -37.937  1.00  0.00     0.016 C 
HETATM   19  C25 UNL     1       7.614  67.099 -36.447  1.00  0.00     0.024 C 
HETATM   20  C26 UNL     1       8.229  65.670 -36.552  1.00  0.00     0.010 C 
HETATM   21  C27 UNL     1       7.904  64.706 -35.395  1.00  0.00     0.011 C 
HETATM   22  C28 UNL     1       6.397  64.683 -35.085  1.00  0.00    -0.029 C 
HETATM   23  C29 UNL     1       5.635  64.138 -36.333  1.00  0.00     0.016 C 
ENDROOT
BRANCH   1  24
HETATM   24  C6  UNL     1       5.828  62.326 -33.886  1.00  0.00    -0.007 C 
HETATM   25  C7  UNL     1       4.366  61.866 -33.956  1.00  0.00     0.011 C 
BRANCH  24  26
HETATM   26  C5  UNL     1       6.588  61.775 -35.118  1.00  0.00     0.087 C 
BRANCH  26  27
HETATM   27  C4  UNL     1       7.689  60.784 -34.764  1.00  0.00     0.150 C 
HETATM   28  O1  UNL     1       7.813  59.700 -35.325  1.00  0.00    -0.293 OA
BRANCH  27  29
HETATM   29  C3  UNL     1       8.578  61.183 -33.633  1.00  0.00     0.063 C 
HETATM   30  C2  UNL     1       9.751  61.829 -33.759  1.00  0.00     0.015 C 
HETATM   31  C1  UNL     1      10.374  62.339 -35.023  1.00  0.00     0.055 C 
BRANCH  30  32
HETATM   32  C30 UNL     1      10.466  62.072 -32.485  1.00  0.00     0.171 C 
HETATM   33  O3  UNL     1      11.440  62.788 -32.329  1.00  0.00    -0.646 OA
BRANCH  32  34
HETATM   34  O4  UNL     1       9.916  61.415 -31.453  1.00  0.00    -0.773 OA
HETATM   35  H44 UNL     1      10.469  61.671 -30.686  1.00  0.00     0.167 HD
ENDBRANCH  32  34
ENDBRANCH  30  32
ENDBRANCH  27  29
ENDBRANCH  26  27
ENDBRANCH  24  26
ENDBRANCH   1  24
TORSDOF 6
ENDMDL
MODEL 7
REMARK minimizedAffinity -8.43340588
REMARK CNNscore 0.325647414
REMARK CNNaffinity 5.95006752
REMARK  6 active torsions:
REMARK  status: ('A' for Active; 'I' for Inactive)
REMARK    1  A    between atoms: C2_2  and  C30_32 
REMARK    2  A    between atoms: C3_3  and  C4_4 
REMARK    3  A    between atoms: C4_4  and  C5_6 
REMARK    4  A    between atoms: C5_6  and  C6_7 
REMARK    5  A    between atoms: C6_7  and  C8_9 
REMARK    6  A    between atoms: C30_32  and  O4_34 
ROOT
HETATM    1  C8  UNL     1       6.977  65.238 -35.501  1.00  0.00    -0.001 C 
HETATM    2  C9  UNL     1       6.074  65.198 -34.229  1.00  0.00     0.007 C 
HETATM    3  C10 UNL     1       4.822  66.043 -34.520  1.00  0.00     0.015 C 
HETATM    4  C11 UNL     1       5.188  66.859 -35.776  1.00  0.00    -0.013 C 
HETATM    5  C12 UNL     1       6.018  68.082 -35.268  1.00  0.00     0.021 C 
HETATM    6  C13 UNL     1       4.072  67.440 -36.642  1.00  0.00    -0.070 C 
HETATM    7  C14 UNL     1       2.796  67.505 -36.232  1.00  0.00    -0.022 C 
HETATM    8  C15 UNL     1       1.700  68.177 -36.988  1.00  0.00     0.034 C 
HETATM    9  C16 UNL     1       2.179  69.138 -38.107  1.00  0.00     0.013 C 
HETATM   10  C17 UNL     1       0.980  69.691 -38.972  1.00  0.00     0.018 C 
HETATM   11  C18 UNL     1       1.209  71.184 -39.302  1.00  0.00     0.023 C 
HETATM   12  C19 UNL     1      -0.395  69.616 -38.276  1.00  0.00     0.023 C 
HETATM   13  C20 UNL     1       0.852  68.890 -40.273  1.00  0.00     0.135 C 
HETATM   14  O2  UNL     1       0.324  69.364 -41.281  1.00  0.00    -0.297 OA
HETATM   15  C21 UNL     1       1.299  67.448 -40.251  1.00  0.00     0.080 C 
HETATM   16  C22 UNL     1       2.717  67.247 -39.716  1.00  0.00     0.017 C 
HETATM   17  C23 UNL     1       3.321  68.457 -38.951  1.00  0.00    -0.031 C 
HETATM   18  C24 UNL     1       3.921  69.439 -39.995  1.00  0.00     0.016 C 
HETATM   19  C25 UNL     1       4.517  68.029 -37.986  1.00  0.00     0.024 C 
HETATM   20  C26 UNL     1       5.587  67.148 -38.701  1.00  0.00     0.010 C 
HETATM   21  C27 UNL     1       6.646  66.498 -37.792  1.00  0.00     0.011 C 
HETATM   22  C28 UNL     1       6.001  65.788 -36.590  1.00  0.00    -0.029 C 
HETATM   23  C29 UNL     1       5.104  64.624 -37.116  1.00  0.00     0.016 C 
ENDROOT
BRANCH   1  24
HETATM   24  C6  UNL     1       7.717  63.884 -35.725  1.00  0.00    -0.007 C 
HETATM   25  C7  UNL     1       9.209  64.076 -36.022  1.00  0.00     0.011 C 
BRANCH  24  26
HETATM   26  C5  UNL     1       7.566  62.977 -34.478  1.00  0.00     0.087 C 
BRANCH  26  27
HETATM   27  C4  UNL     1       8.517  61.788 -34.468  1.00  0.00     0.150 C 
HETATM   28  O1  UNL     1       8.612  61.005 -35.408  1.00  0.00    -0.293 OA
BRANCH  27  29
HETATM   29  C3  UNL     1       9.289  61.588 -33.207  1.00  0.00     0.063 C 
HETATM   30  C2  UNL     1      10.488  62.135 -32.935  1.00  0.00     0.015 C 
HETATM   31  C1  UNL     1      11.260  63.096 -33.786  1.00  0.00     0.055 C 
BRANCH  30  32
HETATM   32  C30 UNL     1      11.066  61.746 -31.627  1.00  0.00     0.171 C 
HETATM   33  O3  UNL     1      11.690  62.469 -30.870  1.00  0.00    -0.646 OA
BRANCH  32  34
HETATM   34  O4  UNL     1      10.821  60.464 -31.317  1.00  0.00    -0.773 OA
HETATM   35  H44 UNL     1      11.240  60.347 -30.440  1.00  0.00     0.167 HD
ENDBRANCH  32  34
ENDBRANCH  30  32
ENDBRANCH  27  29
ENDBRANCH  26  27
ENDBRANCH  24  26
ENDBRANCH   1  24
TORSDOF 6
ENDMDL
MODEL 8
REMARK minimizedAffinity -7.6094799
REMARK CNNscore 0.314134836
REMARK CNNaffinity 6.31018209
REMARK  6 active torsions:
REMARK  status: ('A' for Active; 'I' for Inactive)
REMARK    1  A    between atoms: C2_2  and  C30_32 
REMARK    2  A    between atoms: C3_3  and  C4_4 
REMARK    3  A    between atoms: C4_4  and  C5_6 
REMARK    4  A    between atoms: C5_6  and  C6_7 
REMARK    5  A    between atoms: C6_7  and  C8_9 
REMARK    6  A    between atoms: C30_32  and  O4_34 
ROOT
HETATM    1  C8  UNL     1      -1.736  49.961 -21.347  1.00  0.00    -0.001 C 
HETATM    2  C9  UNL     1      -0.898  48.703 -20.963  1.00  0.00     0.007 C 
HETATM    3  C10 UNL     1      -1.868  47.513 -20.856  1.00  0.00     0.015 C 
HETATM    4  C11 UNL     1      -3.268  48.157 -20.798  1.00  0.00    -0.013 C 
HETATM    5  C12 UNL     1      -3.479  48.590 -19.311  1.00  0.00     0.021 C 
HETATM    6  C13 UNL     1      -4.491  47.322 -21.169  1.00  0.00    -0.070 C 
HETATM    7  C14 UNL     1      -4.448  45.986 -21.292  1.00  0.00    -0.022 C 
HETATM    8  C15 UNL     1      -5.639  45.120 -21.527  1.00  0.00     0.034 C 
HETATM    9  C16 UNL     1      -7.002  45.804 -21.245  1.00  0.00     0.013 C 
HETATM   10  C17 UNL     1      -8.222  44.895 -21.663  1.00  0.00     0.018 C 
HETATM   11  C18 UNL     1      -9.353  45.009 -20.614  1.00  0.00     0.023 C 
HETATM   12  C19 UNL     1      -7.891  43.392 -21.769  1.00  0.00     0.023 C 
HETATM   13  C20 UNL     1      -8.752  45.320 -23.038  1.00  0.00     0.135 C 
HETATM   14  O2  UNL     1      -9.913  45.096 -23.388  1.00  0.00    -0.297 OA
HETATM   15  C21 UNL     1      -7.768  45.932 -24.006  1.00  0.00     0.080 C 
HETATM   16  C22 UNL     1      -6.978  47.106 -23.426  1.00  0.00     0.017 C 
HETATM   17  C23 UNL     1      -7.024  47.245 -21.880  1.00  0.00    -0.031 C 
HETATM   18  C24 UNL     1      -8.321  48.013 -21.502  1.00  0.00     0.016 C 
HETATM   19  C25 UNL     1      -5.805  48.100 -21.310  1.00  0.00     0.024 C 
HETATM   20  C26 UNL     1      -5.619  49.459 -22.052  1.00  0.00     0.010 C 
HETATM   21  C27 UNL     1      -4.330  50.236 -21.728  1.00  0.00     0.011 C 
HETATM   22  C28 UNL     1      -3.087  49.336 -21.821  1.00  0.00    -0.029 C 
HETATM   23  C29 UNL     1      -2.937  48.837 -23.293  1.00  0.00     0.016 C 
ENDROOT
BRANCH   1  24
HETATM   24  C6  UNL     1      -0.942  50.916 -22.289  1.00  0.00    -0.007 C 
HETATM   25  C7  UNL     1      -1.795  52.091 -22.784  1.00  0.00     0.011 C 
BRANCH  24  26
HETATM   26  C5  UNL     1       0.306  51.473 -21.560  1.00  0.00     0.087 C 
BRANCH  26  27
HETATM   27  C4  UNL     1      -0.022  52.493 -20.478  1.00  0.00     0.150 C 
HETATM   28  O1  UNL     1       0.477  53.613 -20.447  1.00  0.00    -0.293 OA
BRANCH  27  29
HETATM   29  C3  UNL     1      -0.946  52.021 -19.405  1.00  0.00     0.063 C 
HETATM   30  C2  UNL     1      -0.565  51.568 -18.196  1.00  0.00     0.015 C 
HETATM   31  C1  UNL     1       0.829  51.506 -17.650  1.00  0.00     0.055 C 
BRANCH  30  32
HETATM   32  C30 UNL     1      -1.674  51.117 -17.324  1.00  0.00     0.171 C 
HETATM   33  O3  UNL     1      -1.571  50.429 -16.323  1.00  0.00    -0.646 OA
BRANCH  32  34
HETATM   34  O4  UNL     1      -2.869  51.564 -17.739  1.00  0.00    -0.773 OA
HETATM   35  H44 UNL     1      -3.498  51.209 -17.077  1.00  0.00     0.167 HD
ENDBRANCH  32  34
ENDBRANCH  30  32
ENDBRANCH  27  29
ENDBRANCH  26  27
ENDBRANCH  24  26
ENDBRANCH   1  24
TORSDOF 6
ENDMDL
MODEL 9
REMARK minimizedAffinity -7.33160162
REMARK CNNscore 0.29316473
REMARK CNNaffinity 5.72362185
REMARK  6 active torsions:
REMARK  status: ('A' for Active; 'I' for Inactive)
REMARK    1  A    between atoms: C2_2  and  C30_32 
REMARK    2  A    between atoms: C3_3  and  C4_4 
REMARK    3  A    between atoms: C4_4  and  C5_6 
REMARK    4  A    between atoms: C5_6  and  C6_7 
REMARK    5  A    between atoms: C6_7  and  C8_9 
REMARK    6  A    between atoms: C30_32  and  O4_34 
ROOT
HETATM    1  C8  UNL     1     -13.660  45.154 -26.517  1.00  0.00    -0.001 C 
HETATM    2  C9  UNL     1     -12.802  45.401 -25.238  1.00  0.00     0.007 C 
HETATM    3  C10 UNL     1     -11.354  45.657 -25.692  1.00  0.00     0.015 C 
HETATM    4  C11 UNL     1     -11.317  45.181 -27.158  1.00  0.00    -0.013 C 
HETATM    5  C12 UNL     1     -11.130  43.630 -27.102  1.00  0.00     0.021 C 
HETATM    6  C13 UNL     1     -10.222  45.701 -28.087  1.00  0.00    -0.070 C 
HETATM    7  C14 UNL     1      -9.134  46.346 -27.635  1.00  0.00    -0.022 C 
HETATM    8  C15 UNL     1      -7.982  46.757 -28.487  1.00  0.00     0.034 C 
HETATM    9  C16 UNL     1      -7.923  46.067 -29.875  1.00  0.00     0.013 C 
HETATM   10  C17 UNL     1      -6.781  46.660 -30.788  1.00  0.00     0.018 C 
HETATM   11  C18 UNL     1      -6.085  45.523 -31.573  1.00  0.00     0.023 C 
HETATM   12  C19 UNL     1      -5.661  47.389 -30.015  1.00  0.00     0.023 C 
HETATM   13  C20 UNL     1      -7.365  47.681 -31.771  1.00  0.00     0.135 C 
HETATM   14  O2  UNL     1      -6.811  47.948 -32.839  1.00  0.00    -0.297 OA
HETATM   15  C21 UNL     1      -8.597  48.439 -31.338  1.00  0.00     0.080 C 
HETATM   16  C22 UNL     1      -9.740  47.544 -30.861  1.00  0.00     0.017 C 
HETATM   17  C23 UNL     1      -9.350  46.074 -30.542  1.00  0.00    -0.031 C 
HETATM   18  C24 UNL     1      -9.361  45.272 -31.872  1.00  0.00     0.016 C 
HETATM   19  C25 UNL     1     -10.398  45.365 -29.571  1.00  0.00     0.024 C 
HETATM   20  C26 UNL     1     -11.873  45.527 -30.051  1.00  0.00     0.010 C 
HETATM   21  C27 UNL     1     -12.961  45.080 -29.058  1.00  0.00     0.011 C 
HETATM   22  C28 UNL     1     -12.725  45.670 -27.657  1.00  0.00    -0.029 C 
HETATM   23  C29 UNL     1     -12.826  47.225 -27.743  1.00  0.00     0.016 C 
ENDROOT
BRANCH   1  24
HETATM   24  C6  UNL     1     -15.100  45.731 -26.364  1.00  0.00    -0.007 C 
HETATM   25  C7  UNL     1     -16.055  45.217 -27.449  1.00  0.00     0.011 C 
BRANCH  24  26
HETATM   26  C5  UNL     1     -15.679  45.369 -24.974  1.00  0.00     0.087 C 
BRANCH  26  27
HETATM   27  C4  UNL     1     -16.060  46.582 -24.135  1.00  0.00     0.150 C 
HETATM   28  O1  UNL     1     -15.634  47.709 -24.365  1.00  0.00    -0.293 OA
BRANCH  27  29
HETATM   29  C3  UNL     1     -16.939  46.305 -22.961  1.00  0.00     0.063 C 
HETATM   30  C2  UNL     1     -18.285  46.324 -22.978  1.00  0.00     0.015 C 
HETATM   31  C1  UNL     1     -19.174  46.550 -24.163  1.00  0.00     0.055 C 
BRANCH  30  32
HETATM   32  C30 UNL     1     -18.925  46.057 -21.669  1.00  0.00     0.171 C 
HETATM   33  O3  UNL     1     -19.656  45.119 -21.401  1.00  0.00    -0.646 OA
BRANCH  32  34
HETATM   34  O4  UNL     1     -18.608  46.975 -20.744  1.00  0.00    -0.773 OA
HETATM   35  H44 UNL     1     -19.080  46.676 -19.940  1.00  0.00     0.167 HD
ENDBRANCH  32  34
ENDBRANCH  30  32
ENDBRANCH  27  29
ENDBRANCH  26  27
ENDBRANCH  24  26
ENDBRANCH   1  24
TORSDOF 6
ENDMDL
