MODEL 1
REMARK minimizedAffinity -10.6104469
REMARK  6 active torsions:
REMARK  status: ('A' for Active; 'I' for Inactive)
REMARK    1  A    between atoms: C3_3  and  C4_4 
REMARK    2  A    between atoms: C4_4  and  O1_5 
REMARK    3  A    between atoms: C6_9  and  C7_10 
REMARK    4  A    between atoms: C7_10  and  O4_12 
REMARK    5  A    between atoms: C7_10  and  C9_13 
REMARK    6  A    between atoms: C12_16  and  O5_17 
ROOT
HETATM    1  C9  UNL     1       0.170   7.228  13.773  1.00  0.00     0.033 C 
HETATM    2  C10 UNL     1      -0.855   8.218  14.391  1.00  0.00     0.011 C 
HETATM    3  C11 UNL     1      -2.261   7.633  14.111  1.00  0.00     0.039 C 
HETATM    4  C12 UNL     1      -1.980   6.208  13.632  1.00  0.00     0.070 C 
HETATM    5  C13 UNL     1      -3.100   5.460  12.887  1.00  0.00     0.030 C 
HETATM    6  C14 UNL     1      -4.347   5.290  13.769  1.00  0.00     0.035 C 
HETATM    7  C15 UNL     1      -5.362   4.373  13.166  1.00  0.00    -0.022 C 
HETATM    8  C16 UNL     1      -5.116   3.515  12.161  1.00  0.00    -0.068 C 
HETATM    9  C17 UNL     1      -6.240   2.635  11.648  1.00  0.00     0.035 C 
HETATM   10  C18 UNL     1      -5.788   1.212  11.322  1.00  0.00     0.012 C 
HETATM   11  C19 UNL     1      -4.483   0.857  12.010  1.00  0.00     0.080 C 
HETATM   12  C20 UNL     1      -3.406   1.808  11.532  1.00  0.00     0.139 C 
HETATM   13  O6  UNL     1      -2.325   1.360  11.146  1.00  0.00    -0.297 OA
HETATM   14  C21 UNL     1      -3.721   3.329  11.538  1.00  0.00     0.044 C 
HETATM   15  C22 UNL     1      -3.771   3.807  10.074  1.00  0.00     0.029 C 
HETATM   16  C23 UNL     1      -2.601   4.068  12.382  1.00  0.00     0.013 C 
HETATM   17  C24 UNL     1      -1.221   4.170  11.663  1.00  0.00     0.007 C 
HETATM   18  C25 UNL     1      -0.154   5.009  12.395  1.00  0.00     0.013 C 
HETATM   19  C26 UNL     1      -0.693   6.398  12.767  1.00  0.00    -0.006 C 
HETATM   20  C27 UNL     1      -0.972   7.183  11.459  1.00  0.00     0.019 C 
ENDROOT
BRANCH   1  21
HETATM   21  C7  UNL     1       1.589   7.771  13.433  1.00  0.00     0.085 C 
HETATM   22  C8  UNL     1       1.700   9.227  13.940  1.00  0.00     0.049 C 
BRANCH  21  23
HETATM   23  C6  UNL     1       2.152   7.651  11.984  1.00  0.00     0.170 C 
HETATM   24  O3  UNL     1       1.176   8.289  11.108  1.00  0.00    -0.309 OA
HETATM   25  C5  UNL     1       1.347   8.262   9.766  1.00  0.00     0.292 C 
HETATM   26  C3  UNL     1       2.340   7.300   9.220  1.00  0.00     0.042 C 
HETATM   27  O2  UNL     1       0.683   8.977   9.023  1.00  0.00    -0.260 OA
HETATM   28  C2  UNL     1       2.817   6.311  10.004  1.00  0.00    -0.067 C 
HETATM   29  C1  UNL     1       3.719   5.200   9.541  1.00  0.00     0.044 C 
HETATM   30  C28 UNL     1       2.432   6.246  11.462  1.00  0.00     0.070 C 
BRANCH  26  31
HETATM   31  C4  UNL     1       2.669   7.540   7.773  1.00  0.00     0.209 C 
BRANCH  31  32
HETATM   32  O1  UNL     1       3.101   8.880   7.586  1.00  0.00    -0.396 OA
HETATM   33  H6  UNL     1       3.933   8.970   8.093  1.00  0.00     0.209 HD
ENDBRANCH  31  32
ENDBRANCH  26  31
ENDBRANCH  21  23
BRANCH  21  34
HETATM   34  O4  UNL     1       2.495   7.005  14.266  1.00  0.00    -0.387 OA
HETATM   35  H11 UNL     1       3.397   7.320  14.061  1.00  0.00     0.210 HD
ENDBRANCH  21  34
ENDBRANCH   1  21
BRANCH   4  36
HETATM   36  O5  UNL     1      -1.702   5.479  14.847  1.00  0.00    -0.389 OA
HETATM   37  H17 UNL     1      -1.310   4.618  14.632  1.00  0.00     0.210 HD
ENDBRANCH   4  36
TORSDOF 6
ENDMDL
MODEL 2
REMARK minimizedAffinity -10.1944218
REMARK  6 active torsions:
REMARK  status: ('A' for Active; 'I' for Inactive)
REMARK    1  A    between atoms: C3_3  and  C4_4 
REMARK    2  A    between atoms: C4_4  and  O1_5 
REMARK    3  A    between atoms: C6_9  and  C7_10 
REMARK    4  A    between atoms: C7_10  and  O4_12 
REMARK    5  A    between atoms: C7_10  and  C9_13 
REMARK    6  A    between atoms: C12_16  and  O5_17 
ROOT
HETATM    1  C9  UNL     1      -5.674   5.713  13.448  1.00  0.00     0.033 C 
HETATM    2  C10 UNL     1      -6.431   4.372  13.242  1.00  0.00     0.011 C 
HETATM    3  C11 UNL     1      -7.905   4.629  13.644  1.00  0.00     0.039 C 
HETATM    4  C12 UNL     1      -7.997   6.152  13.760  1.00  0.00     0.070 C 
HETATM    5  C13 UNL     1      -9.191   6.749  14.525  1.00  0.00     0.030 C 
HETATM    6  C14 UNL     1     -10.527   6.372  13.865  1.00  0.00     0.035 C 
HETATM    7  C15 UNL     1     -11.688   7.118  14.440  1.00  0.00    -0.022 C 
HETATM    8  C16 UNL     1     -11.587   8.233  15.186  1.00  0.00    -0.068 C 
HETATM    9  C17 UNL     1     -12.850   8.895  15.700  1.00  0.00     0.035 C 
HETATM   10  C18 UNL     1     -12.796  10.421  15.640  1.00  0.00     0.012 C 
HETATM   11  C19 UNL     1     -11.739  10.915  14.669  1.00  0.00     0.080 C 
HETATM   12  C20 UNL     1     -10.385  10.420  15.131  1.00  0.00     0.139 C 
HETATM   13  O6  UNL     1      -9.444  11.210  15.216  1.00  0.00    -0.297 OA
HETATM   14  C21 UNL     1     -10.243   8.916  15.495  1.00  0.00     0.044 C 
HETATM   15  C22 UNL     1      -9.984   8.820  17.011  1.00  0.00     0.029 C 
HETATM   16  C23 UNL     1      -9.063   8.303  14.635  1.00  0.00     0.013 C 
HETATM   17  C24 UNL     1      -7.639   8.739  15.099  1.00  0.00     0.007 C 
HETATM   18  C25 UNL     1      -6.466   8.046  14.375  1.00  0.00     0.013 C 
HETATM   19  C26 UNL     1      -6.618   6.517  14.400  1.00  0.00    -0.006 C 
HETATM   20  C27 UNL     1      -6.504   6.037  15.870  1.00  0.00     0.019 C 
ENDROOT
BRANCH   1  21
HETATM   21  C7  UNL     1      -4.129   5.652  13.632  1.00  0.00     0.085 C 
HETATM   22  C8  UNL     1      -3.513   6.966  13.099  1.00  0.00     0.049 C 
BRANCH  21  23
HETATM   23  C6  UNL     1      -3.322   4.421  13.120  1.00  0.00     0.170 C 
HETATM   24  O3  UNL     1      -2.299   4.943  12.220  1.00  0.00    -0.309 OA
HETATM   25  C5  UNL     1      -1.491   4.094  11.544  1.00  0.00     0.292 C 
HETATM   26  C3  UNL     1      -1.895   2.665  11.482  1.00  0.00     0.042 C 
HETATM   27  O2  UNL     1      -0.484   4.492  10.970  1.00  0.00    -0.260 OA
HETATM   28  C2  UNL     1      -3.148   2.306  11.832  1.00  0.00    -0.067 C 
HETATM   29  C1  UNL     1      -3.723   0.923  11.692  1.00  0.00     0.044 C 
HETATM   30  C28 UNL     1      -4.103   3.333  12.391  1.00  0.00     0.070 C 
BRANCH  26  31
HETATM   31  C4  UNL     1      -0.810   1.760  10.969  1.00  0.00     0.209 C 
BRANCH  31  32
HETATM   32  O1  UNL     1      -1.148   1.277   9.676  1.00  0.00    -0.396 OA
HETATM   33  H6  UNL     1      -1.174   2.062   9.092  1.00  0.00     0.209 HD
ENDBRANCH  31  32
ENDBRANCH  26  31
ENDBRANCH  21  23
BRANCH  21  34
HETATM   34  O4  UNL     1      -3.918   5.685  15.066  1.00  0.00    -0.387 OA
HETATM   35  H11 UNL     1      -2.953   5.635  15.208  1.00  0.00     0.210 HD
ENDBRANCH  21  34
ENDBRANCH   1  21
BRANCH   4  36
HETATM   36  O5  UNL     1      -8.084   6.603  12.392  1.00  0.00    -0.389 OA
HETATM   37  H17 UNL     1      -7.937   7.561  12.351  1.00  0.00     0.210 HD
ENDBRANCH   4  36
TORSDOF 6
ENDMDL
MODEL 3
REMARK minimizedAffinity -10.1609411
REMARK  6 active torsions:
REMARK  status: ('A' for Active; 'I' for Inactive)
REMARK    1  A    between atoms: C3_3  and  C4_4 
REMARK    2  A    between atoms: C4_4  and  O1_5 
REMARK    3  A    between atoms: C6_9  and  C7_10 
REMARK    4  A    between atoms: C7_10  and  O4_12 
REMARK    5  A    between atoms: C7_10  and  C9_13 
REMARK    6  A    between atoms: C12_16  and  O5_17 
ROOT
HETATM    1  C9  UNL     1      -1.705   5.962  12.933  1.00  0.00     0.033 C 
HETATM    2  C10 UNL     1      -1.628   5.468  11.463  1.00  0.00     0.011 C 
HETATM    3  C11 UNL     1      -0.207   5.813  10.953  1.00  0.00     0.039 C 
HETATM    4  C12 UNL     1       0.558   6.197  12.221  1.00  0.00     0.070 C 
HETATM    5  C13 UNL     1       1.875   6.978  12.063  1.00  0.00     0.030 C 
HETATM    6  C14 UNL     1       2.913   6.175  11.262  1.00  0.00     0.035 C 
HETATM    7  C15 UNL     1       4.272   6.798  11.287  1.00  0.00    -0.022 C 
HETATM    8  C16 UNL     1       4.666   7.738  12.164  1.00  0.00    -0.068 C 
HETATM    9  C17 UNL     1       6.080   8.280  12.081  1.00  0.00     0.035 C 
HETATM   10  C18 UNL     1       6.721   8.500  13.450  1.00  0.00     0.012 C 
HETATM   11  C19 UNL     1       6.024   7.706  14.539  1.00  0.00     0.080 C 
HETATM   12  C20 UNL     1       4.581   8.158  14.623  1.00  0.00     0.139 C 
HETATM   13  O6  UNL     1       4.095   8.445  15.719  1.00  0.00    -0.297 OA
HETATM   14  C21 UNL     1       3.768   8.253  13.303  1.00  0.00     0.044 C 
HETATM   15  C22 UNL     1       3.457   9.740  13.046  1.00  0.00     0.029 C 
HETATM   16  C23 UNL     1       2.459   7.374  13.458  1.00  0.00     0.013 C 
HETATM   17  C24 UNL     1       1.373   8.001  14.387  1.00  0.00     0.007 C 
HETATM   18  C25 UNL     1       0.032   7.242  14.442  1.00  0.00     0.013 C 
HETATM   19  C26 UNL     1      -0.522   6.980  13.034  1.00  0.00    -0.006 C 
HETATM   20  C27 UNL     1      -0.875   8.344  12.385  1.00  0.00     0.019 C 
ENDROOT
BRANCH   1  21
HETATM   21  C7  UNL     1      -3.115   6.232  13.536  1.00  0.00     0.085 C 
HETATM   22  C8  UNL     1      -3.025   6.137  15.076  1.00  0.00     0.049 C 
BRANCH  21  23
HETATM   23  C6  UNL     1      -4.359   5.452  13.011  1.00  0.00     0.170 C 
HETATM   24  O3  UNL     1      -5.385   5.569  14.041  1.00  0.00    -0.309 OA
HETATM   25  C5  UNL     1      -6.560   4.912  13.908  1.00  0.00     0.292 C 
HETATM   26  C3  UNL     1      -6.631   3.833  12.889  1.00  0.00     0.042 C 
HETATM   27  O2  UNL     1      -7.520   5.169  14.626  1.00  0.00    -0.260 OA
HETATM   28  C2  UNL     1      -5.496   3.349  12.343  1.00  0.00    -0.067 C 
HETATM   29  C1  UNL     1      -5.418   2.177  11.404  1.00  0.00     0.044 C 
HETATM   30  C28 UNL     1      -4.165   3.976  12.682  1.00  0.00     0.070 C 
BRANCH  26  31
HETATM   31  C4  UNL     1      -8.032   3.365  12.614  1.00  0.00     0.209 C 
BRANCH  31  32
HETATM   32  O1  UNL     1      -8.107   1.951  12.734  1.00  0.00    -0.396 OA
HETATM   33  H6  UNL     1      -7.911   1.748  13.671  1.00  0.00     0.209 HD
ENDBRANCH  31  32
ENDBRANCH  26  31
ENDBRANCH  21  23
BRANCH  21  34
HETATM   34  O4  UNL     1      -3.385   7.628  13.253  1.00  0.00    -0.387 OA
HETATM   35  H11 UNL     1      -4.273   7.819  13.612  1.00  0.00     0.210 HD
ENDBRANCH  21  34
ENDBRANCH   1  21
BRANCH   4  36
HETATM   36  O5  UNL     1       0.872   4.930  12.837  1.00  0.00    -0.389 OA
HETATM   37  H17 UNL     1       1.174   5.072  13.748  1.00  0.00     0.210 HD
ENDBRANCH   4  36
TORSDOF 6
ENDMDL
MODEL 4
REMARK minimizedAffinity -9.96126556
REMARK  6 active torsions:
REMARK  status: ('A' for Active; 'I' for Inactive)
REMARK    1  A    between atoms: C3_3  and  C4_4 
REMARK    2  A    between atoms: C4_4  and  O1_5 
REMARK    3  A    between atoms: C6_9  and  C7_10 
REMARK    4  A    between atoms: C7_10  and  O4_12 
REMARK    5  A    between atoms: C7_10  and  C9_13 
REMARK    6  A    between atoms: C12_16  and  O5_17 
ROOT
HETATM    1  C9  UNL     1      -0.064   7.634  14.380  1.00  0.00     0.033 C 
HETATM    2  C10 UNL     1      -1.212   8.535  14.912  1.00  0.00     0.011 C 
HETATM    3  C11 UNL     1      -2.538   7.873  14.464  1.00  0.00     0.039 C 
HETATM    4  C12 UNL     1      -2.114   6.486  13.977  1.00  0.00     0.070 C 
HETATM    5  C13 UNL     1      -3.095   5.697  13.092  1.00  0.00     0.030 C 
HETATM    6  C14 UNL     1      -4.415   5.416  13.828  1.00  0.00     0.035 C 
HETATM    7  C15 UNL     1      -5.297   4.460  13.092  1.00  0.00    -0.022 C 
HETATM    8  C16 UNL     1      -4.888   3.656  12.094  1.00  0.00    -0.068 C 
HETATM    9  C17 UNL     1      -5.890   2.726  11.437  1.00  0.00     0.035 C 
HETATM   10  C18 UNL     1      -5.312   1.347  11.121  1.00  0.00     0.012 C 
HETATM   11  C19 UNL     1      -4.067   1.050  11.937  1.00  0.00     0.080 C 
HETATM   12  C20 UNL     1      -3.011   2.084  11.606  1.00  0.00     0.139 C 
HETATM   13  O6  UNL     1      -1.867   1.719  11.328  1.00  0.00    -0.297 OA
HETATM   14  C21 UNL     1      -3.425   3.581  11.622  1.00  0.00     0.044 C 
HETATM   15  C22 UNL     1      -3.351   4.107  10.176  1.00  0.00     0.029 C 
HETATM   16  C23 UNL     1      -2.454   4.358  12.604  1.00  0.00     0.013 C 
HETATM   17  C24 UNL     1      -1.014   4.572  12.043  1.00  0.00     0.007 C 
HETATM   18  C25 UNL     1      -0.090   5.450  12.911  1.00  0.00     0.013 C 
HETATM   19  C26 UNL     1      -0.757   6.788  13.263  1.00  0.00    -0.006 C 
HETATM   20  C27 UNL     1      -0.946   7.600  11.955  1.00  0.00     0.019 C 
ENDROOT
BRANCH   1  21
HETATM   21  C7  UNL     1       1.345   8.277  14.213  1.00  0.00     0.085 C 
HETATM   22  C8  UNL     1       1.178   9.804  14.045  1.00  0.00     0.049 C 
BRANCH  21  23
HETATM   23  C6  UNL     1       2.347   7.716  13.159  1.00  0.00     0.170 C 
HETATM   24  O3  UNL     1       3.677   7.850  13.742  1.00  0.00    -0.309 OA
HETATM   25  C5  UNL     1       4.773   7.526  13.017  1.00  0.00     0.292 C 
HETATM   26  C3  UNL     1       4.603   7.368  11.549  1.00  0.00     0.042 C 
HETATM   27  O2  UNL     1       5.874   7.405  13.543  1.00  0.00    -0.260 OA
HETATM   28  C2  UNL     1       3.478   7.816  10.952  1.00  0.00    -0.067 C 
HETATM   29  C1  UNL     1       3.237   7.837   9.467  1.00  0.00     0.044 C 
HETATM   30  C28 UNL     1       2.349   8.374  11.783  1.00  0.00     0.070 C 
BRANCH  26  31
HETATM   31  C4  UNL     1       5.787   6.734  10.876  1.00  0.00     0.209 C 
BRANCH  31  32
HETATM   32  O1  UNL     1       5.528   5.360  10.622  1.00  0.00    -0.396 OA
HETATM   33  H6  UNL     1       4.785   5.338   9.986  1.00  0.00     0.209 HD
ENDBRANCH  31  32
ENDBRANCH  26  31
ENDBRANCH  21  23
BRANCH  21  34
HETATM   34  O4  UNL     1       1.994   8.102  15.497  1.00  0.00    -0.387 OA
HETATM   35  H11 UNL     1       2.888   8.487  15.413  1.00  0.00     0.210 HD
ENDBRANCH  21  34
ENDBRANCH   1  21
BRANCH   4  36
HETATM   36  O5  UNL     1      -1.919   5.733  15.193  1.00  0.00    -0.389 OA
HETATM   37  H17 UNL     1      -1.450   4.906  14.996  1.00  0.00     0.210 HD
ENDBRANCH   4  36
TORSDOF 6
ENDMDL
MODEL 5
REMARK minimizedAffinity -9.84672165
REMARK  6 active torsions:
REMARK  status: ('A' for Active; 'I' for Inactive)
REMARK    1  A    between atoms: C3_3  and  C4_4 
REMARK    2  A    between atoms: C4_4  and  O1_5 
REMARK    3  A    between atoms: C6_9  and  C7_10 
REMARK    4  A    between atoms: C7_10  and  O4_12 
REMARK    5  A    between atoms: C7_10  and  C9_13 
REMARK    6  A    between atoms: C12_16  and  O5_17 
ROOT
HETATM    1  C9  UNL     1       1.537   7.077  12.949  1.00  0.00     0.033 C 
HETATM    2  C10 UNL     1       0.686   8.142  13.693  1.00  0.00     0.011 C 
HETATM    3  C11 UNL     1      -0.784   7.657  13.632  1.00  0.00     0.039 C 
HETATM    4  C12 UNL     1      -0.677   6.211  13.142  1.00  0.00     0.070 C 
HETATM    5  C13 UNL     1      -1.943   5.540  12.581  1.00  0.00     0.030 C 
HETATM    6  C14 UNL     1      -3.055   5.465  13.640  1.00  0.00     0.035 C 
HETATM    7  C15 UNL     1      -4.210   4.619  13.208  1.00  0.00    -0.022 C 
HETATM    8  C16 UNL     1      -4.174   3.739  12.192  1.00  0.00    -0.068 C 
HETATM    9  C17 UNL     1      -5.420   2.937  11.864  1.00  0.00     0.035 C 
HETATM   10  C18 UNL     1      -5.121   1.484  11.500  1.00  0.00     0.012 C 
HETATM   11  C19 UNL     1      -3.757   1.041  11.997  1.00  0.00     0.080 C 
HETATM   12  C20 UNL     1      -2.698   1.910  11.350  1.00  0.00     0.139 C 
HETATM   13  O6  UNL     1      -1.719   1.383  10.818  1.00  0.00    -0.297 OA
HETATM   14  C21 UNL     1      -2.902   3.450  11.375  1.00  0.00     0.044 C 
HETATM   15  C22 UNL     1      -3.134   3.919   9.926  1.00  0.00     0.029 C 
HETATM   16  C23 UNL     1      -1.622   4.112  12.033  1.00  0.00     0.013 C 
HETATM   17  C24 UNL     1      -0.359   4.110  11.118  1.00  0.00     0.007 C 
HETATM   18  C25 UNL     1       0.860   4.876  11.672  1.00  0.00     0.013 C 
HETATM   19  C26 UNL     1       0.480   6.303  12.095  1.00  0.00    -0.006 C 
HETATM   20  C27 UNL     1       0.066   7.096  10.828  1.00  0.00     0.019 C 
ENDROOT
BRANCH   1  21
HETATM   21  C7  UNL     1       2.925   7.514  12.395  1.00  0.00     0.085 C 
HETATM   22  C8  UNL     1       3.310   6.582  11.224  1.00  0.00     0.049 C 
BRANCH  21  23
HETATM   23  C6  UNL     1       4.133   7.708  13.361  1.00  0.00     0.170 C 
HETATM   24  O3  UNL     1       3.861   8.922  14.123  1.00  0.00    -0.309 OA
HETATM   25  C5  UNL     1       4.783   9.403  14.989  1.00  0.00     0.292 C 
HETATM   26  C3  UNL     1       6.166   8.869  14.884  1.00  0.00     0.042 C 
HETATM   27  O2  UNL     1       4.500  10.272  15.806  1.00  0.00    -0.260 OA
HETATM   28  C2  UNL     1       6.534   8.169  13.791  1.00  0.00    -0.067 C 
HETATM   29  C1  UNL     1       7.929   7.688  13.500  1.00  0.00     0.044 C 
HETATM   30  C28 UNL     1       5.515   7.829  12.730  1.00  0.00     0.070 C 
BRANCH  26  31
HETATM   31  C4  UNL     1       7.037   9.237  16.052  1.00  0.00     0.209 C 
BRANCH  31  32
HETATM   32  O1  UNL     1       7.269   8.096  16.867  1.00  0.00    -0.396 OA
HETATM   33  H6  UNL     1       7.773   7.466  16.314  1.00  0.00     0.209 HD
ENDBRANCH  31  32
ENDBRANCH  26  31
ENDBRANCH  21  23
BRANCH  21  34
HETATM   34  O4  UNL     1       2.698   8.813  11.793  1.00  0.00    -0.387 OA
HETATM   35  H11 UNL     1       3.560   9.116  11.448  1.00  0.00     0.210 HD
ENDBRANCH  21  34
ENDBRANCH   1  21
BRANCH   4  36
HETATM   36  O5  UNL     1      -0.274   5.473  14.315  1.00  0.00    -0.389 OA
HETATM   37  H17 UNL     1       0.021   4.585  14.060  1.00  0.00     0.210 HD
ENDBRANCH   4  36
TORSDOF 6
ENDMDL
MODEL 6
REMARK minimizedAffinity -9.58151627
REMARK  6 active torsions:
REMARK  status: ('A' for Active; 'I' for Inactive)
REMARK    1  A    between atoms: C3_3  and  C4_4 
REMARK    2  A    between atoms: C4_4  and  O1_5 
REMARK    3  A    between atoms: C6_9  and  C7_10 
REMARK    4  A    between atoms: C7_10  and  O4_12 
REMARK    5  A    between atoms: C7_10  and  C9_13 
REMARK    6  A    between atoms: C12_16  and  O5_17 
ROOT
HETATM    1  C9  UNL     1      -4.411   6.790  15.207  1.00  0.00     0.033 C 
HETATM    2  C10 UNL     1      -3.164   5.884  15.016  1.00  0.00     0.011 C 
HETATM    3  C11 UNL     1      -1.924   6.801  15.158  1.00  0.00     0.039 C 
HETATM    4  C12 UNL     1      -2.490   8.105  15.723  1.00  0.00     0.070 C 
HETATM    5  C13 UNL     1      -1.626   9.375  15.621  1.00  0.00     0.030 C 
HETATM    6  C14 UNL     1      -0.300   9.215  16.381  1.00  0.00     0.035 C 
HETATM    7  C15 UNL     1       0.458  10.498  16.498  1.00  0.00    -0.022 C 
HETATM    8  C16 UNL     1      -0.070  11.719  16.295  1.00  0.00    -0.068 C 
HETATM    9  C17 UNL     1       0.814  12.941  16.456  1.00  0.00     0.035 C 
HETATM   10  C18 UNL     1       0.104  14.110  17.139  1.00  0.00     0.012 C 
HETATM   11  C19 UNL     1      -1.118  13.657  17.916  1.00  0.00     0.080 C 
HETATM   12  C20 UNL     1      -2.097  13.017  16.955  1.00  0.00     0.139 C 
HETATM   13  O6  UNL     1      -3.281  13.360  16.971  1.00  0.00    -0.297 OA
HETATM   14  C21 UNL     1      -1.556  11.947  15.967  1.00  0.00     0.044 C 
HETATM   15  C22 UNL     1      -1.658  12.526  14.542  1.00  0.00     0.029 C 
HETATM   16  C23 UNL     1      -2.405  10.623  16.149  1.00  0.00     0.013 C 
HETATM   17  C24 UNL     1      -3.848  10.701  15.561  1.00  0.00     0.007 C 
HETATM   18  C25 UNL     1      -4.648   9.383  15.593  1.00  0.00     0.013 C 
HETATM   19  C26 UNL     1      -3.851   8.229  14.965  1.00  0.00    -0.006 C 
HETATM   20  C27 UNL     1      -3.659   8.530  13.455  1.00  0.00     0.019 C 
ENDROOT
BRANCH   1  21
HETATM   21  C7  UNL     1      -5.766   6.292  14.621  1.00  0.00     0.085 C 
HETATM   22  C8  UNL     1      -6.623   5.718  15.771  1.00  0.00     0.049 C 
BRANCH  21  23
HETATM   23  C6  UNL     1      -5.788   5.337  13.390  1.00  0.00     0.170 C 
HETATM   24  O3  UNL     1      -6.704   4.252  13.727  1.00  0.00    -0.309 OA
HETATM   25  C5  UNL     1      -6.863   3.209  12.879  1.00  0.00     0.292 C 
HETATM   26  C3  UNL     1      -5.854   3.041  11.801  1.00  0.00     0.042 C 
HETATM   27  O2  UNL     1      -7.783   2.410  13.016  1.00  0.00    -0.260 OA
HETATM   28  C2  UNL     1      -4.690   3.721  11.860  1.00  0.00    -0.067 C 
HETATM   29  C1  UNL     1      -3.537   3.544  10.910  1.00  0.00     0.044 C 
HETATM   30  C28 UNL     1      -4.457   4.734  12.954  1.00  0.00     0.070 C 
BRANCH  26  31
HETATM   31  C4  UNL     1      -6.264   2.048  10.750  1.00  0.00     0.209 C 
BRANCH  31  32
HETATM   32  O1  UNL     1      -6.420   0.760  11.329  1.00  0.00    -0.396 OA
HETATM   33  H6  UNL     1      -7.161   0.835  11.963  1.00  0.00     0.209 HD
ENDBRANCH  31  32
ENDBRANCH  26  31
ENDBRANCH  21  23
BRANCH  21  34
HETATM   34  O4  UNL     1      -6.454   7.494  14.192  1.00  0.00    -0.387 OA
HETATM   35  H11 UNL     1      -7.305   7.206  13.808  1.00  0.00     0.210 HD
ENDBRANCH  21  34
ENDBRANCH   1  21
BRANCH   4  36
HETATM   36  O5  UNL     1      -2.687   7.822  17.125  1.00  0.00    -0.389 OA
HETATM   37  H17 UNL     1      -3.235   8.514  17.527  1.00  0.00     0.210 HD
ENDBRANCH   4  36
TORSDOF 6
ENDMDL
MODEL 7
REMARK minimizedAffinity -9.53570366
REMARK  6 active torsions:
REMARK  status: ('A' for Active; 'I' for Inactive)
REMARK    1  A    between atoms: C3_3  and  C4_4 
REMARK    2  A    between atoms: C4_4  and  O1_5 
REMARK    3  A    between atoms: C6_9  and  C7_10 
REMARK    4  A    between atoms: C7_10  and  O4_12 
REMARK    5  A    between atoms: C7_10  and  C9_13 
REMARK    6  A    between atoms: C12_16  and  O5_17 
ROOT
HETATM    1  C9  UNL     1      -0.619   6.274  12.551  1.00  0.00     0.033 C 
HETATM    2  C10 UNL     1      -0.643   6.335  10.999  1.00  0.00     0.011 C 
HETATM    3  C11 UNL     1       0.732   6.894  10.556  1.00  0.00     0.039 C 
HETATM    4  C12 UNL     1       1.582   6.834  11.827  1.00  0.00     0.070 C 
HETATM    5  C13 UNL     1       2.873   7.672  11.875  1.00  0.00     0.030 C 
HETATM    6  C14 UNL     1       3.860   7.246  10.777  1.00  0.00     0.035 C 
HETATM    7  C15 UNL     1       5.208   7.873  10.936  1.00  0.00    -0.022 C 
HETATM    8  C16 UNL     1       5.652   8.457  12.064  1.00  0.00    -0.068 C 
HETATM    9  C17 UNL     1       7.048   9.049  12.090  1.00  0.00     0.035 C 
HETATM   10  C18 UNL     1       7.784   8.795  13.404  1.00  0.00     0.012 C 
HETATM   11  C19 UNL     1       7.180   7.640  14.182  1.00  0.00     0.080 C 
HETATM   12  C20 UNL     1       5.741   7.976  14.512  1.00  0.00     0.139 C 
HETATM   13  O6  UNL     1       5.331   7.837  15.666  1.00  0.00    -0.297 OA
HETATM   14  C21 UNL     1       4.832   8.500  13.365  1.00  0.00     0.044 C 
HETATM   15  C22 UNL     1       4.481   9.968  13.674  1.00  0.00     0.029 C 
HETATM   16  C23 UNL     1       3.551   7.572  13.280  1.00  0.00     0.013 C 
HETATM   17  C24 UNL     1       2.527   7.786  14.437  1.00  0.00     0.007 C 
HETATM   18  C25 UNL     1       1.204   7.004  14.304  1.00  0.00     0.013 C 
HETATM   19  C26 UNL     1       0.552   7.236  12.931  1.00  0.00    -0.006 C 
HETATM   20  C27 UNL     1       0.133   8.726  12.834  1.00  0.00     0.019 C 
ENDROOT
BRANCH   1  21
HETATM   21  C7  UNL     1      -1.986   6.257  13.297  1.00  0.00     0.085 C 
HETATM   22  C8  UNL     1      -1.726   6.412  14.813  1.00  0.00     0.049 C 
BRANCH  21  23
HETATM   23  C6  UNL     1      -3.015   5.117  13.031  1.00  0.00     0.170 C 
HETATM   24  O3  UNL     1      -2.836   4.717  11.639  1.00  0.00    -0.309 OA
HETATM   25  C5  UNL     1      -3.660   3.797  11.085  1.00  0.00     0.292 C 
HETATM   26  C3  UNL     1      -4.919   3.479  11.808  1.00  0.00     0.042 C 
HETATM   27  O2  UNL     1      -3.398   3.272  10.009  1.00  0.00    -0.260 OA
HETATM   28  C2  UNL     1      -5.343   4.286  12.803  1.00  0.00    -0.067 C 
HETATM   29  C1  UNL     1      -6.657   4.154  13.524  1.00  0.00     0.044 C 
HETATM   30  C28 UNL     1      -4.487   5.443  13.259  1.00  0.00     0.070 C 
BRANCH  26  31
HETATM   31  C4  UNL     1      -5.618   2.259  11.279  1.00  0.00     0.209 C 
BRANCH  31  32
HETATM   32  O1  UNL     1      -4.738   1.144  11.299  1.00  0.00    -0.396 OA
HETATM   33  H6  UNL     1      -4.533   0.977  12.242  1.00  0.00     0.209 HD
ENDBRANCH  31  32
ENDBRANCH  26  31
ENDBRANCH  21  23
BRANCH  21  34
HETATM   34  O4  UNL     1      -2.650   7.481  12.895  1.00  0.00    -0.387 OA
HETATM   35  H11 UNL     1      -3.518   7.488  13.342  1.00  0.00     0.210 HD
ENDBRANCH  21  34
ENDBRANCH   1  21
BRANCH   4  36
HETATM   36  O5  UNL     1       1.959   5.445  11.931  1.00  0.00    -0.389 OA
HETATM   37  H17 UNL     1       2.324   5.268  12.812  1.00  0.00     0.210 HD
ENDBRANCH   4  36
TORSDOF 6
ENDMDL
MODEL 8
REMARK minimizedAffinity -9.5082016
REMARK  6 active torsions:
REMARK  status: ('A' for Active; 'I' for Inactive)
REMARK    1  A    between atoms: C3_3  and  C4_4 
REMARK    2  A    between atoms: C4_4  and  O1_5 
REMARK    3  A    between atoms: C6_9  and  C7_10 
REMARK    4  A    between atoms: C7_10  and  O4_12 
REMARK    5  A    between atoms: C7_10  and  C9_13 
REMARK    6  A    between atoms: C12_16  and  O5_17 
ROOT
HETATM    1  C9  UNL     1      -2.494   6.689  14.412  1.00  0.00     0.033 C 
HETATM    2  C10 UNL     1      -1.425   6.210  13.392  1.00  0.00     0.011 C 
HETATM    3  C11 UNL     1      -0.125   6.986  13.715  1.00  0.00     0.039 C 
HETATM    4  C12 UNL     1      -0.406   7.630  15.074  1.00  0.00     0.070 C 
HETATM    5  C13 UNL     1       0.496   8.793  15.525  1.00  0.00     0.030 C 
HETATM    6  C14 UNL     1       1.963   8.352  15.648  1.00  0.00     0.035 C 
HETATM    7  C15 UNL     1       2.825   9.384  16.301  1.00  0.00    -0.022 C 
HETATM    8  C16 UNL     1       2.363  10.423  17.018  1.00  0.00    -0.068 C 
HETATM    9  C17 UNL     1       3.352  11.394  17.635  1.00  0.00     0.035 C 
HETATM   10  C18 UNL     1       2.955  11.846  19.039  1.00  0.00     0.012 C 
HETATM   11  C19 UNL     1       1.962  10.896  19.684  1.00  0.00     0.080 C 
HETATM   12  C20 UNL     1       0.708  10.855  18.837  1.00  0.00     0.139 C 
HETATM   13  O6  UNL     1      -0.393  10.995  19.372  1.00  0.00    -0.297 OA
HETATM   14  C21 UNL     1       0.867  10.646  17.306  1.00  0.00     0.044 C 
HETATM   15  C22 UNL     1       0.423  11.944  16.604  1.00  0.00     0.029 C 
HETATM   16  C23 UNL     1      -0.003   9.393  16.879  1.00  0.00     0.013 C 
HETATM   17  C24 UNL     1      -1.540   9.655  16.869  1.00  0.00     0.007 C 
HETATM   18  C25 UNL     1      -2.405   8.502  16.318  1.00  0.00     0.013 C 
HETATM   19  C26 UNL     1      -1.908   8.039  14.940  1.00  0.00    -0.006 C 
HETATM   20  C27 UNL     1      -2.117   9.196  13.929  1.00  0.00     0.019 C 
ENDROOT
BRANCH   1  21
HETATM   21  C7  UNL     1      -3.993   6.500  14.036  1.00  0.00     0.085 C 
HETATM   22  C8  UNL     1      -4.868   7.026  15.196  1.00  0.00     0.049 C 
BRANCH  21  23
HETATM   23  C6  UNL     1      -4.513   5.115  13.542  1.00  0.00     0.170 C 
HETATM   24  O3  UNL     1      -3.930   4.903  12.221  1.00  0.00    -0.309 OA
HETATM   25  C5  UNL     1      -4.272   3.815  11.493  1.00  0.00     0.292 C 
HETATM   26  C3  UNL     1      -5.477   3.057  11.919  1.00  0.00     0.042 C 
HETATM   27  O2  UNL     1      -3.638   3.487  10.497  1.00  0.00    -0.260 OA
HETATM   28  C2  UNL     1      -6.339   3.605  12.802  1.00  0.00    -0.067 C 
HETATM   29  C1  UNL     1      -7.654   3.004  13.215  1.00  0.00     0.044 C 
HETATM   30  C28 UNL     1      -6.023   4.935  13.442  1.00  0.00     0.070 C 
BRANCH  26  31
HETATM   31  C4  UNL     1      -5.612   1.722  11.242  1.00  0.00     0.209 C 
BRANCH  31  32
HETATM   32  O1  UNL     1      -4.400   0.990  11.359  1.00  0.00    -0.396 OA
HETATM   33  H6  UNL     1      -4.277   0.820  12.314  1.00  0.00     0.209 HD
ENDBRANCH  31  32
ENDBRANCH  26  31
ENDBRANCH  21  23
BRANCH  21  34
HETATM   34  O4  UNL     1      -4.224   7.415  12.936  1.00  0.00    -0.387 OA
HETATM   35  H11 UNL     1      -5.158   7.306  12.672  1.00  0.00     0.210 HD
ENDBRANCH  21  34
ENDBRANCH   1  21
BRANCH   4  36
HETATM   36  O5  UNL     1      -0.230   6.550  16.016  1.00  0.00    -0.389 OA
HETATM   37  H17 UNL     1      -0.588   6.806  16.881  1.00  0.00     0.210 HD
ENDBRANCH   4  36
TORSDOF 6
ENDMDL
MODEL 9
REMARK minimizedAffinity -9.47995853
REMARK  6 active torsions:
REMARK  status: ('A' for Active; 'I' for Inactive)
REMARK    1  A    between atoms: C3_3  and  C4_4 
REMARK    2  A    between atoms: C4_4  and  O1_5 
REMARK    3  A    between atoms: C6_9  and  C7_10 
REMARK    4  A    between atoms: C7_10  and  O4_12 
REMARK    5  A    between atoms: C7_10  and  C9_13 
REMARK    6  A    between atoms: C12_16  and  O5_17 
ROOT
HETATM    1  C9  UNL     1      -2.060  10.280  14.540  1.00  0.00     0.033 C 
HETATM    2  C10 UNL     1      -0.838   9.436  14.085  1.00  0.00     0.011 C 
HETATM    3  C11 UNL     1      -1.371   8.014  13.779  1.00  0.00     0.039 C 
HETATM    4  C12 UNL     1      -2.891   8.182  13.768  1.00  0.00     0.070 C 
HETATM    5  C13 UNL     1      -3.761   6.919  13.895  1.00  0.00     0.030 C 
HETATM    6  C14 UNL     1      -3.513   5.947  12.730  1.00  0.00     0.035 C 
HETATM    7  C15 UNL     1      -4.499   4.824  12.693  1.00  0.00    -0.022 C 
HETATM    8  C16 UNL     1      -5.671   4.814  13.352  1.00  0.00    -0.068 C 
HETATM    9  C17 UNL     1      -6.583   3.609  13.220  1.00  0.00     0.035 C 
HETATM   10  C18 UNL     1      -8.061   3.983  13.115  1.00  0.00     0.012 C 
HETATM   11  C19 UNL     1      -8.255   5.427  12.691  1.00  0.00     0.080 C 
HETATM   12  C20 UNL     1      -7.620   6.328  13.729  1.00  0.00     0.139 C 
HETATM   13  O6  UNL     1      -8.259   7.279  14.184  1.00  0.00    -0.297 OA
HETATM   14  C21 UNL     1      -6.173   6.003  14.191  1.00  0.00     0.044 C 
HETATM   15  C22 UNL     1      -6.236   5.567  15.668  1.00  0.00     0.029 C 
HETATM   16  C23 UNL     1      -5.277   7.291  13.974  1.00  0.00     0.013 C 
HETATM   17  C24 UNL     1      -5.543   8.436  14.999  1.00  0.00     0.007 C 
HETATM   18  C25 UNL     1      -4.588   9.643  14.905  1.00  0.00     0.013 C 
HETATM   19  C26 UNL     1      -3.118   9.198  14.934  1.00  0.00    -0.006 C 
HETATM   20  C27 UNL     1      -2.821   8.577  16.324  1.00  0.00     0.019 C 
ENDROOT
BRANCH   1  21
HETATM   21  C7  UNL     1      -1.785  11.554  15.392  1.00  0.00     0.085 C 
HETATM   22  C8  UNL     1      -1.763  12.783  14.456  1.00  0.00     0.049 C 
BRANCH  21  23
HETATM   23  C6  UNL     1      -0.580  11.595  16.381  1.00  0.00     0.170 C 
HETATM   24  O3  UNL     1       0.023  10.267  16.352  1.00  0.00    -0.309 OA
HETATM   25  C5  UNL     1       1.047   9.968  17.184  1.00  0.00     0.292 C 
HETATM   26  C3  UNL     1       1.296  10.888  18.325  1.00  0.00     0.042 C 
HETATM   27  O2  UNL     1       1.722   8.956  17.028  1.00  0.00    -0.260 OA
HETATM   28  C2  UNL     1       0.362  11.800  18.668  1.00  0.00    -0.067 C 
HETATM   29  C1  UNL     1       0.431  12.697  19.873  1.00  0.00     0.044 C 
HETATM   30  C28 UNL     1      -0.882  11.963  17.829  1.00  0.00     0.070 C 
BRANCH  26  31
HETATM   31  C4  UNL     1       2.609  10.642  19.014  1.00  0.00     0.209 C 
BRANCH  31  32
HETATM   32  O1  UNL     1       2.482   9.572  19.940  1.00  0.00    -0.396 OA
HETATM   33  H6  UNL     1       2.278   8.776  19.408  1.00  0.00     0.209 HD
ENDBRANCH  31  32
ENDBRANCH  26  31
ENDBRANCH  21  23
BRANCH  21  34
HETATM   34  O4  UNL     1      -2.967  11.719  16.215  1.00  0.00    -0.387 OA
HETATM   35  H11 UNL     1      -2.813  12.508  16.770  1.00  0.00     0.210 HD
ENDBRANCH  21  34
ENDBRANCH   1  21
BRANCH   4  36
HETATM   36  O5  UNL     1      -3.168   8.778  12.483  1.00  0.00    -0.389 OA
HETATM   37  H17 UNL     1      -4.079   9.113  12.465  1.00  0.00     0.210 HD
ENDBRANCH   4  36
TORSDOF 6
ENDMDL
