MODEL 1
REMARK minimizedAffinity -7.03496408
REMARK CNNscore 0.49284333
REMARK CNNaffinity 6.17285347
REMARK  11 active torsions:
REMARK  status: ('A' for Active; 'I' for Inactive)
REMARK    1  A    between atoms: C3_4  and  O2_5 
REMARK    2  A    between atoms: O2_5  and  C4_6 
REMARK    3  A    between atoms: C7_9  and  C8_10 
REMARK    4  A    between atoms: N1_11  and  C9_13 
REMARK    5  A    between atoms: C9_13  and  C10_14 
REMARK    6  A    between atoms: C10_14  and  O3_15 
REMARK    7  A    between atoms: C16_21  and  C17_22 
REMARK    8  A    between atoms: C23_30  and  O6_31 
REMARK    9  A    between atoms: C27_35  and  O7_36 
REMARK   10  A    between atoms: C30_39  and  O8_40 
REMARK   11  A    between atoms: C31_41  and  O9_42 
ROOT
HETATM    1  C4  UNL     1     -10.089  45.469 -30.307  1.00  0.00     0.127 C 
HETATM    2  C5  UNL     1     -10.778  45.217 -31.650  1.00  0.00     0.033 C 
HETATM    3  C6  UNL     1     -10.027  45.873 -32.806  1.00  0.00     0.021 C 
HETATM    4  C7  UNL     1      -8.538  45.428 -32.918  1.00  0.00     0.026 C 
HETATM    5  C11 UNL     1      -8.403  43.906 -33.315  1.00  0.00     0.009 C 
HETATM    6  C12 UNL     1      -9.029  43.526 -34.655  1.00  0.00     0.007 C 
HETATM    7  C13 UNL     1      -9.213  42.014 -34.779  1.00  0.00     0.013 C 
HETATM    8  C14 UNL     1      -8.093  41.134 -34.167  1.00  0.00    -0.005 C 
HETATM    9  C15 UNL     1      -7.866  39.962 -35.159  1.00  0.00     0.019 C 
HETATM   10  C16 UNL     1      -8.431  40.585 -32.736  1.00  0.00     0.028 C 
HETATM   11  C21 UNL     1      -7.068  40.188 -32.133  1.00  0.00     0.013 C 
HETATM   12  C22 UNL     1      -6.009  40.915 -32.962  1.00  0.00     0.040 C 
HETATM   13  C23 UNL     1      -6.765  41.908 -33.866  1.00  0.00     0.070 C 
HETATM   14  C24 UNL     1      -6.936  43.374 -33.298  1.00  0.00     0.026 C 
HETATM   15  C25 UNL     1      -6.279  43.645 -31.940  1.00  0.00     0.011 C 
HETATM   16  C26 UNL     1      -6.390  45.113 -31.539  1.00  0.00     0.039 C 
HETATM   17  C27 UNL     1      -7.829  45.656 -31.532  1.00  0.00     0.073 C 
HETATM   18  C28 UNL     1      -8.626  45.012 -30.361  1.00  0.00     0.071 C 
ENDROOT
BRANCH   1  19
HETATM   19  O2  UNL     1     -10.078  46.850 -29.935  1.00  0.00    -0.356 OA
BRANCH  19  20
HETATM   20  C3  UNL     1     -10.707  47.123 -28.681  1.00  0.00     0.263 C 
HETATM   21  O1  UNL     1     -11.094  45.882 -28.101  1.00  0.00    -0.354 OA
HETATM   22  C2  UNL     1     -11.711  46.042 -26.823  1.00  0.00     0.151 C 
HETATM   23  C1  UNL     1     -12.015  44.642 -26.298  1.00  0.00     0.042 C 
HETATM   24  C31 UNL     1     -12.995  46.886 -26.940  1.00  0.00     0.175 C 
HETATM   25  C30 UNL     1     -12.702  48.213 -27.658  1.00  0.00     0.154 C 
HETATM   26  C29 UNL     1     -11.945  47.975 -28.953  1.00  0.00     0.095 C 
BRANCH  24  27
HETATM   27  O9  UNL     1     -13.537  47.187 -25.650  1.00  0.00    -0.390 OA
HETATM   28  H47 UNL     1     -14.053  46.409 -25.375  1.00  0.00     0.210 HD
ENDBRANCH  24  27
BRANCH  25  29
HETATM   29  O8  UNL     1     -11.924  49.063 -26.807  1.00  0.00    -0.393 OA
HETATM   30  H45 UNL     1     -12.354  48.989 -25.930  1.00  0.00     0.210 HD
ENDBRANCH  25  29
ENDBRANCH  19  20
ENDBRANCH   1  19
BRANCH  17  31
HETATM   31  O7  UNL     1      -7.687  47.059 -31.248  1.00  0.00    -0.389 OA
HETATM   32  H39 UNL     1      -8.567  47.398 -30.979  1.00  0.00     0.210 HD
ENDBRANCH  17  31
BRANCH   4  33
HETATM   33  C8  UNL     1      -7.864  46.321 -33.971  1.00  0.00     0.068 C 
HETATM   34  N1  UNL     1      -6.909  47.136 -33.657  1.00  0.00    -0.399 N 
ATOM     35  H1  UNL     1      -6.657  47.328 -32.687  1.00  0.00     0.158 HD
BRANCH  34  36
HETATM   36  C9  UNL     1      -6.214  47.767 -34.784  1.00  0.00     0.144 C 
BRANCH  36  37
HETATM   37  C10 UNL     1      -4.817  48.160 -34.303  1.00  0.00     0.183 C 
BRANCH  37  38
HETATM   38  O3  UNL     1      -4.086  46.979 -33.947  1.00  0.00    -0.399 OA
HETATM   39  H16 UNL     1      -4.623  46.544 -33.245  1.00  0.00     0.209 HD
ENDBRANCH  37  38
ENDBRANCH  36  37
ENDBRANCH  34  36
ENDBRANCH   4  33
BRANCH  13  40
HETATM   40  O6  UNL     1      -6.020  42.036 -35.085  1.00  0.00    -0.389 OA
HETATM   41  H33 UNL     1      -5.161  42.443 -34.881  1.00  0.00     0.210 HD
ENDBRANCH  13  40
BRANCH  10  42
HETATM   42  C17 UNL     1      -9.508  39.545 -32.585  1.00  0.00    -0.045 A 
HETATM   43  C18 UNL     1      -9.328  38.321 -32.084  1.00  0.00     0.087 A 
HETATM   44  C19 UNL     1     -10.610  37.627 -32.150  1.00  0.00     0.283 A 
HETATM   45  O4  UNL     1     -10.801  36.493 -31.760  1.00  0.00    -0.260 OA
HETATM   46  O5  UNL     1     -11.530  38.452 -32.718  1.00  0.00    -0.314 OA
HETATM   47  C20 UNL     1     -10.912  39.697 -33.042  1.00  0.00     0.213 A 
ENDBRANCH  10  42
TORSDOF 11
ENDMDL
MODEL 2
REMARK minimizedAffinity -8.39496231
REMARK CNNscore 0.438561112
REMARK CNNaffinity 6.62012148
REMARK  11 active torsions:
REMARK  status: ('A' for Active; 'I' for Inactive)
REMARK    1  A    between atoms: C3_4  and  O2_5 
REMARK    2  A    between atoms: O2_5  and  C4_6 
REMARK    3  A    between atoms: C7_9  and  C8_10 
REMARK    4  A    between atoms: N1_11  and  C9_13 
REMARK    5  A    between atoms: C9_13  and  C10_14 
REMARK    6  A    between atoms: C10_14  and  O3_15 
REMARK    7  A    between atoms: C16_21  and  C17_22 
REMARK    8  A    between atoms: C23_30  and  O6_31 
REMARK    9  A    between atoms: C27_35  and  O7_36 
REMARK   10  A    between atoms: C30_39  and  O8_40 
REMARK   11  A    between atoms: C31_41  and  O9_42 
ROOT
HETATM    1  C4  UNL     1      -3.710  49.947 -24.041  1.00  0.00     0.127 C 
HETATM    2  C5  UNL     1      -3.329  48.472 -23.894  1.00  0.00     0.033 C 
HETATM    3  C6  UNL     1      -2.627  48.195 -22.567  1.00  0.00     0.021 C 
HETATM    4  C7  UNL     1      -3.456  48.624 -21.319  1.00  0.00     0.026 C 
HETATM    5  C11 UNL     1      -4.757  47.747 -21.144  1.00  0.00     0.009 C 
HETATM    6  C12 UNL     1      -4.512  46.250 -20.959  1.00  0.00     0.007 C 
HETATM    7  C13 UNL     1      -5.787  45.441 -21.197  1.00  0.00     0.013 C 
HETATM    8  C14 UNL     1      -7.108  46.080 -20.699  1.00  0.00    -0.005 C 
HETATM    9  C15 UNL     1      -7.946  44.927 -20.082  1.00  0.00     0.019 C 
HETATM   10  C16 UNL     1      -7.923  46.808 -21.825  1.00  0.00     0.028 C 
HETATM   11  C21 UNL     1      -8.880  47.754 -21.071  1.00  0.00     0.013 C 
HETATM   12  C22 UNL     1      -8.305  47.907 -19.663  1.00  0.00     0.040 C 
HETATM   13  C23 UNL     1      -6.907  47.259 -19.688  1.00  0.00     0.070 C 
HETATM   14  C24 UNL     1      -5.696  48.229 -19.994  1.00  0.00     0.026 C 
HETATM   15  C25 UNL     1      -6.054  49.708 -20.173  1.00  0.00     0.011 C 
HETATM   16  C26 UNL     1      -4.810  50.577 -20.336  1.00  0.00     0.039 C 
HETATM   17  C27 UNL     1      -3.878  50.132 -21.475  1.00  0.00     0.073 C 
HETATM   18  C28 UNL     1      -4.559  50.403 -22.847  1.00  0.00     0.071 C 
ENDROOT
BRANCH   1  19
HETATM   19  O2  UNL     1      -2.574  50.815 -24.097  1.00  0.00    -0.356 OA
BRANCH  19  20
HETATM   20  C3  UNL     1      -2.027  50.980 -25.407  1.00  0.00     0.263 C 
HETATM   21  O1  UNL     1      -0.625  51.187 -25.277  1.00  0.00    -0.354 OA
HETATM   22  C2  UNL     1       0.027  51.336 -26.539  1.00  0.00     0.151 C 
HETATM   23  C1  UNL     1       1.518  51.489 -26.254  1.00  0.00     0.042 C 
HETATM   24  C31 UNL     1      -0.525  52.560 -27.296  1.00  0.00     0.175 C 
HETATM   25  C30 UNL     1      -2.057  52.484 -27.393  1.00  0.00     0.154 C 
HETATM   26  C29 UNL     1      -2.676  52.211 -26.033  1.00  0.00     0.095 C 
BRANCH  24  27
HETATM   27  O9  UNL     1       0.004  52.630 -28.624  1.00  0.00    -0.390 OA
HETATM   28  H47 UNL     1       0.880  53.047 -28.554  1.00  0.00     0.210 HD
ENDBRANCH  24  27
BRANCH  25  29
HETATM   29  O8  UNL     1      -2.435  51.442 -28.301  1.00  0.00    -0.393 OA
HETATM   30  H45 UNL     1      -1.833  51.555 -29.066  1.00  0.00     0.210 HD
ENDBRANCH  25  29
ENDBRANCH  19  20
ENDBRANCH   1  19
BRANCH  17  31
HETATM   31  O7  UNL     1      -2.737  51.001 -21.371  1.00  0.00    -0.389 OA
HETATM   32  H39 UNL     1      -2.237  50.938 -22.214  1.00  0.00     0.210 HD
ENDBRANCH  17  31
BRANCH   4  33
HETATM   33  C8  UNL     1      -2.546  48.489 -20.088  1.00  0.00     0.068 C 
HETATM   34  N1  UNL     1      -2.500  49.407 -19.177  1.00  0.00    -0.399 N 
ATOM     35  H1  UNL     1      -2.950  50.315 -19.298  1.00  0.00     0.158 HD
BRANCH  34  36
HETATM   36  C9  UNL     1      -1.759  49.059 -17.959  1.00  0.00     0.144 C 
BRANCH  36  37
HETATM   37  C10 UNL     1      -2.654  48.151 -17.118  1.00  0.00     0.183 C 
BRANCH  37  38
HETATM   38  O3  UNL     1      -3.877  48.836 -16.814  1.00  0.00    -0.399 OA
HETATM   39  H16 UNL     1      -3.605  49.653 -16.336  1.00  0.00     0.209 HD
ENDBRANCH  37  38
ENDBRANCH  36  37
ENDBRANCH  34  36
ENDBRANCH   4  33
BRANCH  13  40
HETATM   40  O6  UNL     1      -6.662  46.712 -18.385  1.00  0.00    -0.389 OA
HETATM   41  H33 UNL     1      -6.618  47.442 -17.745  1.00  0.00     0.210 HD
ENDBRANCH  13  40
BRANCH  10  42
HETATM   42  C17 UNL     1      -8.575  45.990 -22.905  1.00  0.00    -0.045 A 
HETATM   43  C18 UNL     1      -7.960  45.528 -23.996  1.00  0.00     0.087 A 
HETATM   44  C19 UNL     1      -8.956  44.821 -24.795  1.00  0.00     0.283 A 
HETATM   45  O4  UNL     1      -8.724  44.264 -25.850  1.00  0.00    -0.260 OA
HETATM   46  O5  UNL     1     -10.160  44.897 -24.170  1.00  0.00    -0.314 OA
HETATM   47  C20 UNL     1     -10.017  45.639 -22.958  1.00  0.00     0.213 A 
ENDBRANCH  10  42
TORSDOF 11
ENDMDL
MODEL 3
REMARK minimizedAffinity -8.31424332
REMARK CNNscore 0.409970433
REMARK CNNaffinity 6.41928244
REMARK  11 active torsions:
REMARK  status: ('A' for Active; 'I' for Inactive)
REMARK    1  A    between atoms: C3_4  and  O2_5 
REMARK    2  A    between atoms: O2_5  and  C4_6 
REMARK    3  A    between atoms: C7_9  and  C8_10 
REMARK    4  A    between atoms: N1_11  and  C9_13 
REMARK    5  A    between atoms: C9_13  and  C10_14 
REMARK    6  A    between atoms: C10_14  and  O3_15 
REMARK    7  A    between atoms: C16_21  and  C17_22 
REMARK    8  A    between atoms: C23_30  and  O6_31 
REMARK    9  A    between atoms: C27_35  and  O7_36 
REMARK   10  A    between atoms: C30_39  and  O8_40 
REMARK   11  A    between atoms: C31_41  and  O9_42 
ROOT
HETATM    1  C4  UNL     1      -5.912  47.528 -29.331  1.00  0.00     0.127 C 
HETATM    2  C5  UNL     1      -7.129  48.250 -29.914  1.00  0.00     0.033 C 
HETATM    3  C6  UNL     1      -6.956  48.545 -31.402  1.00  0.00     0.021 C 
HETATM    4  C7  UNL     1      -6.667  47.279 -32.262  1.00  0.00     0.026 C 
HETATM    5  C11 UNL     1      -7.903  46.298 -32.307  1.00  0.00     0.009 C 
HETATM    6  C12 UNL     1      -9.182  46.891 -32.896  1.00  0.00     0.007 C 
HETATM    7  C13 UNL     1     -10.405  46.046 -32.543  1.00  0.00     0.013 C 
HETATM    8  C14 UNL     1     -10.196  44.510 -32.526  1.00  0.00    -0.005 C 
HETATM    9  C15 UNL     1     -11.467  43.889 -33.166  1.00  0.00     0.019 C 
HETATM   10  C16 UNL     1      -9.960  43.920 -31.091  1.00  0.00     0.028 C 
HETATM   11  C21 UNL     1      -9.305  42.545 -31.333  1.00  0.00     0.013 C 
HETATM   12  C22 UNL     1      -8.766  42.577 -32.762  1.00  0.00     0.040 C 
HETATM   13  C23 UNL     1      -8.890  44.035 -33.246  1.00  0.00     0.070 C 
HETATM   14  C24 UNL     1      -7.616  44.948 -33.034  1.00  0.00     0.026 C 
HETATM   15  C25 UNL     1      -6.391  44.256 -32.425  1.00  0.00     0.011 C 
HETATM   16  C26 UNL     1      -5.181  45.183 -32.380  1.00  0.00     0.039 C 
HETATM   17  C27 UNL     1      -5.434  46.513 -31.652  1.00  0.00     0.073 C 
HETATM   18  C28 UNL     1      -5.612  46.253 -30.129  1.00  0.00     0.071 C 
ENDROOT
BRANCH   1  19
HETATM   19  O2  UNL     1      -4.723  48.324 -29.360  1.00  0.00    -0.356 OA
BRANCH  19  20
HETATM   20  C3  UNL     1      -4.472  49.044 -28.151  1.00  0.00     0.263 C 
HETATM   21  O1  UNL     1      -3.257  49.767 -28.312  1.00  0.00    -0.354 OA
HETATM   22  C2  UNL     1      -2.926  50.548 -27.164  1.00  0.00     0.151 C 
HETATM   23  C1  UNL     1      -1.646  51.309 -27.498  1.00  0.00     0.042 C 
HETATM   24  C31 UNL     1      -2.733  49.647 -25.929  1.00  0.00     0.175 C 
HETATM   25  C30 UNL     1      -3.958  48.739 -25.732  1.00  0.00     0.154 C 
HETATM   26  C29 UNL     1      -4.321  48.026 -27.023  1.00  0.00     0.095 C 
BRANCH  24  27
HETATM   27  O9  UNL     1      -2.558  50.425 -24.741  1.00  0.00    -0.390 OA
HETATM   28  H47 UNL     1      -1.621  50.689 -24.716  1.00  0.00     0.210 HD
ENDBRANCH  24  27
BRANCH  25  29
HETATM   29  O8  UNL     1      -5.076  49.522 -25.294  1.00  0.00    -0.393 OA
HETATM   30  H45 UNL     1      -4.705  50.113 -24.607  1.00  0.00     0.210 HD
ENDBRANCH  25  29
ENDBRANCH  19  20
ENDBRANCH   1  19
BRANCH  17  31
HETATM   31  O7  UNL     1      -4.220  47.263 -31.831  1.00  0.00    -0.389 OA
HETATM   32  H39 UNL     1      -4.226  47.999 -31.182  1.00  0.00     0.210 HD
ENDBRANCH  17  31
BRANCH   4  33
HETATM   33  C8  UNL     1      -6.303  47.751 -33.679  1.00  0.00     0.068 C 
HETATM   34  N1  UNL     1      -7.017  47.422 -34.706  1.00  0.00    -0.399 N 
ATOM     35  H1  UNL     1      -7.763  46.728 -34.649  1.00  0.00     0.158 HD
BRANCH  34  36
HETATM   36  C9  UNL     1      -6.686  48.110 -35.959  1.00  0.00     0.144 C 
BRANCH  36  37
HETATM   37  C10 UNL     1      -5.310  48.750 -35.784  1.00  0.00     0.183 C 
BRANCH  37  38
HETATM   38  O3  UNL     1      -5.150  49.807 -36.740  1.00  0.00    -0.399 OA
HETATM   39  H16 UNL     1      -5.263  49.379 -37.620  1.00  0.00     0.209 HD
ENDBRANCH  37  38
ENDBRANCH  36  37
ENDBRANCH  34  36
ENDBRANCH   4  33
BRANCH  13  40
HETATM   40  O6  UNL     1      -9.128  44.002 -34.660  1.00  0.00    -0.389 OA
HETATM   41  H33 UNL     1      -8.344  43.629 -35.097  1.00  0.00     0.210 HD
ENDBRANCH  13  40
BRANCH  10  42
HETATM   42  C17 UNL     1     -11.098  43.906 -30.107  1.00  0.00    -0.045 A 
HETATM   43  C18 UNL     1     -11.670  44.990 -29.579  1.00  0.00     0.087 A 
HETATM   44  C19 UNL     1     -12.700  44.535 -28.651  1.00  0.00     0.283 A 
HETATM   45  O4  UNL     1     -13.423  45.271 -28.009  1.00  0.00    -0.260 OA
HETATM   46  O5  UNL     1     -12.705  43.176 -28.627  1.00  0.00    -0.314 OA
HETATM   47  C20 UNL     1     -11.703  42.685 -29.518  1.00  0.00     0.213 A 
ENDBRANCH  10  42
TORSDOF 11
ENDMDL
MODEL 4
REMARK minimizedAffinity -7.72408867
REMARK CNNscore 0.397407204
REMARK CNNaffinity 5.40769339
REMARK  11 active torsions:
REMARK  status: ('A' for Active; 'I' for Inactive)
REMARK    1  A    between atoms: C3_4  and  O2_5 
REMARK    2  A    between atoms: O2_5  and  C4_6 
REMARK    3  A    between atoms: C7_9  and  C8_10 
REMARK    4  A    between atoms: N1_11  and  C9_13 
REMARK    5  A    between atoms: C9_13  and  C10_14 
REMARK    6  A    between atoms: C10_14  and  O3_15 
REMARK    7  A    between atoms: C16_21  and  C17_22 
REMARK    8  A    between atoms: C23_30  and  O6_31 
REMARK    9  A    between atoms: C27_35  and  O7_36 
REMARK   10  A    between atoms: C30_39  and  O8_40 
REMARK   11  A    between atoms: C31_41  and  O9_42 
ROOT
HETATM    1  C4  UNL     1       0.390  53.601 -10.662  1.00  0.00     0.127 C 
HETATM    2  C5  UNL     1       0.640  52.810  -9.376  1.00  0.00     0.033 C 
HETATM    3  C6  UNL     1       2.046  52.216  -9.338  1.00  0.00     0.021 C 
HETATM    4  C7  UNL     1       3.177  53.274  -9.501  1.00  0.00     0.026 C 
HETATM    5  C11 UNL     1       3.249  54.259  -8.269  1.00  0.00     0.009 C 
HETATM    6  C12 UNL     1       3.523  53.594  -6.921  1.00  0.00     0.007 C 
HETATM    7  C13 UNL     1       3.184  54.526  -5.758  1.00  0.00     0.013 C 
HETATM    8  C14 UNL     1       3.509  56.028  -5.966  1.00  0.00    -0.005 C 
HETATM    9  C15 UNL     1       4.080  56.541  -4.617  1.00  0.00     0.019 C 
HETATM   10  C16 UNL     1       2.270  56.889  -6.401  1.00  0.00     0.028 C 
HETATM   11  C21 UNL     1       2.876  58.168  -7.014  1.00  0.00     0.013 C 
HETATM   12  C22 UNL     1       4.329  57.834  -7.346  1.00  0.00     0.040 C 
HETATM   13  C23 UNL     1       4.484  56.312  -7.157  1.00  0.00     0.070 C 
HETATM   14  C24 UNL     1       4.269  55.426  -8.449  1.00  0.00     0.026 C 
HETATM   15  C25 UNL     1       3.989  56.193  -9.746  1.00  0.00     0.011 C 
HETATM   16  C26 UNL     1       3.924  55.262 -10.953  1.00  0.00     0.039 C 
HETATM   17  C27 UNL     1       2.913  54.113 -10.806  1.00  0.00     0.073 C 
HETATM   18  C28 UNL     1       1.464  54.680 -10.845  1.00  0.00     0.071 C 
ENDROOT
BRANCH   1  19
HETATM   19  O2  UNL     1       0.420  52.783 -11.836  1.00  0.00    -0.356 OA
BRANCH  19  20
HETATM   20  C3  UNL     1      -0.822  52.144 -12.136  1.00  0.00     0.263 C 
HETATM   21  O1  UNL     1      -1.846  52.798 -11.395  1.00  0.00    -0.354 OA
HETATM   22  C2  UNL     1      -3.141  52.251 -11.646  1.00  0.00     0.151 C 
HETATM   23  C1  UNL     1      -4.138  53.079 -10.841  1.00  0.00     0.042 C 
HETATM   24  C31 UNL     1      -3.193  50.766 -11.240  1.00  0.00     0.175 C 
HETATM   25  C30 UNL     1      -2.049  49.987 -11.909  1.00  0.00     0.154 C 
HETATM   26  C29 UNL     1      -0.717  50.686 -11.697  1.00  0.00     0.095 C 
BRANCH  24  27
HETATM   27  O9  UNL     1      -4.431  50.164 -11.631  1.00  0.00    -0.390 OA
HETATM   28  H47 UNL     1      -5.082  50.392 -10.944  1.00  0.00     0.210 HD
ENDBRANCH  24  27
BRANCH  25  29
HETATM   29  O8  UNL     1      -2.300  49.868 -13.315  1.00  0.00    -0.393 OA
HETATM   30  H45 UNL     1      -3.247  49.625 -13.373  1.00  0.00     0.210 HD
ENDBRANCH  25  29
ENDBRANCH  19  20
ENDBRANCH   1  19
BRANCH  17  31
HETATM   31  O7  UNL     1       3.101  53.309 -11.984  1.00  0.00    -0.389 OA
HETATM   32  H39 UNL     1       2.322  52.720 -12.071  1.00  0.00     0.210 HD
ENDBRANCH  17  31
BRANCH   4  33
HETATM   33  C8  UNL     1       4.504  52.515  -9.662  1.00  0.00     0.068 C 
HETATM   34  N1  UNL     1       5.597  52.939  -9.113  1.00  0.00    -0.399 N 
ATOM     35  H1  UNL     1       5.662  53.856  -8.671  1.00  0.00     0.158 HD
BRANCH  34  36
HETATM   36  C9  UNL     1       6.736  52.015  -9.166  1.00  0.00     0.144 C 
BRANCH  36  37
HETATM   37  C10 UNL     1       6.322  50.821 -10.025  1.00  0.00     0.183 C 
BRANCH  37  38
HETATM   38  O3  UNL     1       7.461  50.338 -10.749  1.00  0.00    -0.399 OA
HETATM   39  H16 UNL     1       7.771  51.104 -11.286  1.00  0.00     0.209 HD
ENDBRANCH  37  38
ENDBRANCH  36  37
ENDBRANCH  34  36
ENDBRANCH   4  33
BRANCH  13  40
HETATM   40  O6  UNL     1       5.828  56.066  -6.722  1.00  0.00    -0.389 OA
HETATM   41  H33 UNL     1       6.437  56.321  -7.435  1.00  0.00     0.210 HD
ENDBRANCH  13  40
BRANCH  10  42
HETATM   42  C17 UNL     1       1.162  57.132  -5.413  1.00  0.00    -0.045 A 
HETATM   43  C18 UNL     1       1.280  57.837  -4.285  1.00  0.00     0.087 A 
HETATM   44  C19 UNL     1      -0.011  57.795  -3.606  1.00  0.00     0.283 A 
HETATM   45  O4  UNL     1      -0.253  58.351  -2.553  1.00  0.00    -0.260 OA
HETATM   46  O5  UNL     1      -0.872  57.040  -4.337  1.00  0.00    -0.314 OA
HETATM   47  C20 UNL     1      -0.205  56.561  -5.506  1.00  0.00     0.213 A 
ENDBRANCH  10  42
TORSDOF 11
ENDMDL
MODEL 5
REMARK minimizedAffinity -7.97960377
REMARK CNNscore 0.378079385
REMARK CNNaffinity 6.25822449
REMARK  11 active torsions:
REMARK  status: ('A' for Active; 'I' for Inactive)
REMARK    1  A    between atoms: C3_4  and  O2_5 
REMARK    2  A    between atoms: O2_5  and  C4_6 
REMARK    3  A    between atoms: C7_9  and  C8_10 
REMARK    4  A    between atoms: N1_11  and  C9_13 
REMARK    5  A    between atoms: C9_13  and  C10_14 
REMARK    6  A    between atoms: C10_14  and  O3_15 
REMARK    7  A    between atoms: C16_21  and  C17_22 
REMARK    8  A    between atoms: C23_30  and  O6_31 
REMARK    9  A    between atoms: C27_35  and  O7_36 
REMARK   10  A    between atoms: C30_39  and  O8_40 
REMARK   11  A    between atoms: C31_41  and  O9_42 
ROOT
HETATM    1  C4  UNL     1      -2.115  49.710 -21.145  1.00  0.00     0.127 C 
HETATM    2  C5  UNL     1      -2.027  48.224 -21.495  1.00  0.00     0.033 C 
HETATM    3  C6  UNL     1      -2.251  47.337 -20.272  1.00  0.00     0.021 C 
HETATM    4  C7  UNL     1      -3.605  47.601 -19.547  1.00  0.00     0.026 C 
HETATM    5  C11 UNL     1      -4.843  47.184 -20.433  1.00  0.00     0.009 C 
HETATM    6  C12 UNL     1      -4.889  45.710 -20.831  1.00  0.00     0.007 C 
HETATM    7  C13 UNL     1      -5.860  45.472 -21.987  1.00  0.00     0.013 C 
HETATM    8  C14 UNL     1      -7.160  46.317 -21.976  1.00  0.00    -0.005 C 
HETATM    9  C15 UNL     1      -8.303  45.366 -22.424  1.00  0.00     0.019 C 
HETATM   10  C16 UNL     1      -7.101  47.581 -22.904  1.00  0.00     0.028 C 
HETATM   11  C21 UNL     1      -8.226  48.502 -22.387  1.00  0.00     0.013 C 
HETATM   12  C22 UNL     1      -8.559  48.016 -20.978  1.00  0.00     0.040 C 
HETATM   13  C23 UNL     1      -7.472  46.991 -20.598  1.00  0.00     0.070 C 
HETATM   14  C24 UNL     1      -6.224  47.562 -19.813  1.00  0.00     0.026 C 
HETATM   15  C25 UNL     1      -6.273  49.056 -19.473  1.00  0.00     0.011 C 
HETATM   16  C26 UNL     1      -5.090  49.481 -18.609  1.00  0.00     0.039 C 
HETATM   17  C27 UNL     1      -3.717  49.135 -19.209  1.00  0.00     0.073 C 
HETATM   18  C28 UNL     1      -3.450  50.023 -20.458  1.00  0.00     0.071 C 
ENDROOT
BRANCH   1  19
HETATM   19  O2  UNL     1      -1.081  50.136 -20.252  1.00  0.00    -0.356 OA
BRANCH  19  20
HETATM   20  C3  UNL     1      -0.654  51.485 -20.451  1.00  0.00     0.263 C 
HETATM   21  O1  UNL     1      -0.160  51.601 -21.782  1.00  0.00    -0.354 OA
HETATM   22  C2  UNL     1       0.269  52.926 -22.095  1.00  0.00     0.151 C 
HETATM   23  C1  UNL     1       0.711  52.915 -23.555  1.00  0.00     0.042 C 
HETATM   24  C31 UNL     1       1.419  53.360 -21.166  1.00  0.00     0.175 C 
HETATM   25  C30 UNL     1       1.021  53.168 -19.694  1.00  0.00     0.154 C 
HETATM   26  C29 UNL     1       0.468  51.774 -19.457  1.00  0.00     0.095 C 
BRANCH  24  27
HETATM   27  O9  UNL     1       1.752  54.738 -21.363  1.00  0.00    -0.390 OA
HETATM   28  H47 UNL     1       2.341  54.775 -22.137  1.00  0.00     0.210 HD
ENDBRANCH  24  27
BRANCH  25  29
HETATM   29  O8  UNL     1       0.030  54.137 -19.330  1.00  0.00    -0.393 OA
HETATM   30  H45 UNL     1       0.357  54.977 -19.713  1.00  0.00     0.210 HD
ENDBRANCH  25  29
ENDBRANCH  19  20
ENDBRANCH   1  19
BRANCH  17  31
HETATM   31  O7  UNL     1      -2.771  49.510 -18.193  1.00  0.00    -0.389 OA
HETATM   32  H39 UNL     1      -1.885  49.553 -18.612  1.00  0.00     0.210 HD
ENDBRANCH  17  31
BRANCH   4  33
HETATM   33  C8  UNL     1      -3.592  46.805 -18.232  1.00  0.00     0.068 C 
HETATM   34  N1  UNL     1      -2.566  46.817 -17.444  1.00  0.00    -0.399 N 
ATOM     35  H1  UNL     1      -1.676  47.234 -17.717  1.00  0.00     0.158 HD
BRANCH  34  36
HETATM   36  C9  UNL     1      -2.765  46.193 -16.130  1.00  0.00     0.144 C 
BRANCH  36  37
HETATM   37  C10 UNL     1      -2.548  47.270 -15.069  1.00  0.00     0.183 C 
BRANCH  37  38
HETATM   38  O3  UNL     1      -3.436  48.369 -15.316  1.00  0.00    -0.399 OA
HETATM   39  H16 UNL     1      -3.217  48.679 -16.225  1.00  0.00     0.209 HD
ENDBRANCH  37  38
ENDBRANCH  36  37
ENDBRANCH  34  36
ENDBRANCH   4  33
BRANCH  13  40
HETATM   40  O6  UNL     1      -8.078  46.019 -19.734  1.00  0.00    -0.389 OA
HETATM   41  H33 UNL     1      -8.344  46.460 -18.910  1.00  0.00     0.210 HD
ENDBRANCH  13  40
BRANCH  10  42
HETATM   42  C17 UNL     1      -7.082  47.395 -24.397  1.00  0.00    -0.045 A 
HETATM   43  C18 UNL     1      -6.185  47.933 -25.226  1.00  0.00     0.087 A 
HETATM   44  C19 UNL     1      -6.548  47.536 -26.582  1.00  0.00     0.283 A 
HETATM   45  O4  UNL     1      -5.927  47.845 -27.580  1.00  0.00    -0.260 OA
HETATM   46  O5  UNL     1      -7.678  46.782 -26.535  1.00  0.00    -0.314 OA
HETATM   47  C20 UNL     1      -8.101  46.649 -25.178  1.00  0.00     0.213 A 
ENDBRANCH  10  42
TORSDOF 11
ENDMDL
MODEL 6
REMARK minimizedAffinity -7.51464653
REMARK CNNscore 0.361216307
REMARK CNNaffinity 6.11203527
REMARK  11 active torsions:
REMARK  status: ('A' for Active; 'I' for Inactive)
REMARK    1  A    between atoms: C3_4  and  O2_5 
REMARK    2  A    between atoms: O2_5  and  C4_6 
REMARK    3  A    between atoms: C7_9  and  C8_10 
REMARK    4  A    between atoms: N1_11  and  C9_13 
REMARK    5  A    between atoms: C9_13  and  C10_14 
REMARK    6  A    between atoms: C10_14  and  O3_15 
REMARK    7  A    between atoms: C16_21  and  C17_22 
REMARK    8  A    between atoms: C23_30  and  O6_31 
REMARK    9  A    between atoms: C27_35  and  O7_36 
REMARK   10  A    between atoms: C30_39  and  O8_40 
REMARK   11  A    between atoms: C31_41  and  O9_42 
ROOT
HETATM    1  C4  UNL     1      -6.461  44.710 -21.909  1.00  0.00     0.127 C 
HETATM    2  C5  UNL     1      -7.434  45.636 -22.643  1.00  0.00     0.033 C 
HETATM    3  C6  UNL     1      -8.113  46.617 -21.690  1.00  0.00     0.021 C 
HETATM    4  C7  UNL     1      -7.115  47.489 -20.872  1.00  0.00     0.026 C 
HETATM    5  C11 UNL     1      -6.313  48.491 -21.792  1.00  0.00     0.009 C 
HETATM    6  C12 UNL     1      -7.171  49.493 -22.563  1.00  0.00     0.007 C 
HETATM    7  C13 UNL     1      -6.387  50.139 -23.704  1.00  0.00     0.013 C 
HETATM    8  C14 UNL     1      -4.894  50.448 -23.422  1.00  0.00    -0.005 C 
HETATM    9  C15 UNL     1      -4.605  51.832 -24.064  1.00  0.00     0.019 C 
HETATM   10  C16 UNL     1      -3.907  49.365 -23.985  1.00  0.00     0.028 C 
HETATM   11  C21 UNL     1      -2.596  49.582 -23.202  1.00  0.00     0.013 C 
HETATM   12  C22 UNL     1      -2.971  50.389 -21.960  1.00  0.00     0.040 C 
HETATM   13  C23 UNL     1      -4.511  50.419 -21.904  1.00  0.00     0.070 C 
HETATM   14  C24 UNL     1      -5.198  49.285 -21.043  1.00  0.00     0.026 C 
HETATM   15  C25 UNL     1      -4.245  48.326 -20.319  1.00  0.00     0.011 C 
HETATM   16  C26 UNL     1      -4.998  47.353 -19.417  1.00  0.00     0.039 C 
HETATM   17  C27 UNL     1      -6.091  46.546 -20.137  1.00  0.00     0.073 C 
HETATM   18  C28 UNL     1      -5.435  45.530 -21.116  1.00  0.00     0.071 C 
ENDROOT
BRANCH   1  19
HETATM   19  O2  UNL     1      -7.111  43.844 -20.973  1.00  0.00    -0.356 OA
BRANCH  19  20
HETATM   20  C3  UNL     1      -6.427  42.611 -20.745  1.00  0.00     0.263 C 
HETATM   21  O1  UNL     1      -7.016  41.617 -21.576  1.00  0.00    -0.354 OA
HETATM   22  C2  UNL     1      -6.383  40.344 -21.444  1.00  0.00     0.151 C 
HETATM   23  C1  UNL     1      -7.071  39.402 -22.428  1.00  0.00     0.042 C 
HETATM   24  C31 UNL     1      -6.500  39.825 -19.998  1.00  0.00     0.175 C 
HETATM   25  C30 UNL     1      -5.986  40.880 -19.006  1.00  0.00     0.154 C 
HETATM   26  C29 UNL     1      -6.617  42.235 -19.277  1.00  0.00     0.095 C 
BRANCH  24  27
HETATM   27  O9  UNL     1      -5.736  38.628 -19.814  1.00  0.00    -0.390 OA
HETATM   28  H47 UNL     1      -6.285  37.894 -20.140  1.00  0.00     0.210 HD
ENDBRANCH  24  27
BRANCH  25  29
HETATM   29  O8  UNL     1      -4.561  40.993 -19.114  1.00  0.00    -0.393 OA
HETATM   30  H45 UNL     1      -4.246  40.067 -19.154  1.00  0.00     0.210 HD
ENDBRANCH  25  29
ENDBRANCH  19  20
ENDBRANCH   1  19
BRANCH  17  31
HETATM   31  O7  UNL     1      -6.737  45.796 -19.093  1.00  0.00    -0.389 OA
HETATM   32  H39 UNL     1      -7.260  45.083 -19.518  1.00  0.00     0.210 HD
ENDBRANCH  17  31
BRANCH   4  33
HETATM   33  C8  UNL     1      -7.925  48.258 -19.816  1.00  0.00     0.068 C 
HETATM   34  N1  UNL     1      -8.938  47.720 -19.217  1.00  0.00    -0.399 N 
ATOM     35  H1  UNL     1      -9.331  46.826 -19.510  1.00  0.00     0.158 HD
BRANCH  34  36
HETATM   36  C9  UNL     1      -9.486  48.480 -18.087  1.00  0.00     0.144 C 
BRANCH  36  37
HETATM   37  C10 UNL     1      -9.316  47.627 -16.831  1.00  0.00     0.183 C 
BRANCH  37  38
HETATM   38  O3  UNL     1      -7.921  47.492 -16.530  1.00  0.00    -0.399 OA
HETATM   39  H16 UNL     1      -7.522  47.078 -17.330  1.00  0.00     0.209 HD
ENDBRANCH  37  38
ENDBRANCH  36  37
ENDBRANCH  34  36
ENDBRANCH   4  33
BRANCH  13  40
HETATM   40  O6  UNL     1      -4.897  51.665 -21.308  1.00  0.00    -0.389 OA
HETATM   41  H33 UNL     1      -4.585  51.677 -20.387  1.00  0.00     0.210 HD
ENDBRANCH  13  40
BRANCH  10  42
HETATM   42  C17 UNL     1      -3.732  49.234 -25.473  1.00  0.00    -0.045 A 
HETATM   43  C18 UNL     1      -4.429  48.409 -26.258  1.00  0.00     0.087 A 
HETATM   44  C19 UNL     1      -3.924  48.567 -27.618  1.00  0.00     0.283 A 
HETATM   45  O4  UNL     1      -4.352  47.970 -28.586  1.00  0.00    -0.260 OA
HETATM   46  O5  UNL     1      -2.911  49.473 -27.611  1.00  0.00    -0.314 OA
HETATM   47  C20 UNL     1      -2.708  49.944 -26.279  1.00  0.00     0.213 A 
ENDBRANCH  10  42
TORSDOF 11
ENDMDL
MODEL 7
REMARK minimizedAffinity -8.00783634
REMARK CNNscore 0.356134355
REMARK CNNaffinity 5.83057642
REMARK  11 active torsions:
REMARK  status: ('A' for Active; 'I' for Inactive)
REMARK    1  A    between atoms: C3_4  and  O2_5 
REMARK    2  A    between atoms: O2_5  and  C4_6 
REMARK    3  A    between atoms: C7_9  and  C8_10 
REMARK    4  A    between atoms: N1_11  and  C9_13 
REMARK    5  A    between atoms: C9_13  and  C10_14 
REMARK    6  A    between atoms: C10_14  and  O3_15 
REMARK    7  A    between atoms: C16_21  and  C17_22 
REMARK    8  A    between atoms: C23_30  and  O6_31 
REMARK    9  A    between atoms: C27_35  and  O7_36 
REMARK   10  A    between atoms: C30_39  and  O8_40 
REMARK   11  A    between atoms: C31_41  and  O9_42 
ROOT
HETATM    1  C4  UNL     1     -12.950  45.730 -29.274  1.00  0.00     0.127 C 
HETATM    2  C5  UNL     1     -12.671  47.159 -29.744  1.00  0.00     0.033 C 
HETATM    3  C6  UNL     1     -11.661  47.867 -28.844  1.00  0.00     0.021 C 
HETATM    4  C7  UNL     1     -10.305  47.111 -28.709  1.00  0.00     0.026 C 
HETATM    5  C11 UNL     1      -9.506  47.083 -30.071  1.00  0.00     0.009 C 
HETATM    6  C12 UNL     1      -9.139  48.454 -30.636  1.00  0.00     0.007 C 
HETATM    7  C13 UNL     1      -8.739  48.363 -32.109  1.00  0.00     0.013 C 
HETATM    8  C14 UNL     1      -7.929  47.108 -32.524  1.00  0.00    -0.005 C 
HETATM    9  C15 UNL     1      -6.842  47.598 -33.518  1.00  0.00     0.019 C 
HETATM   10  C16 UNL     1      -8.803  45.979 -33.177  1.00  0.00     0.028 C 
HETATM   11  C21 UNL     1      -7.950  44.700 -33.053  1.00  0.00     0.013 C 
HETATM   12  C22 UNL     1      -6.903  44.989 -31.978  1.00  0.00     0.040 C 
HETATM   13  C23 UNL     1      -7.306  46.323 -31.320  1.00  0.00     0.070 C 
HETATM   14  C24 UNL     1      -8.210  46.215 -30.027  1.00  0.00     0.026 C 
HETATM   15  C25 UNL     1      -8.528  44.793 -29.551  1.00  0.00     0.011 C 
HETATM   16  C26 UNL     1      -9.294  44.795 -28.231  1.00  0.00     0.039 C 
HETATM   17  C27 UNL     1     -10.585  45.630 -28.255  1.00  0.00     0.073 C 
HETATM   18  C28 UNL     1     -11.642  44.937 -29.161  1.00  0.00     0.071 C 
ENDROOT
BRANCH   1  19
HETATM   19  O2  UNL     1     -13.579  45.676 -27.990  1.00  0.00    -0.356 OA
BRANCH  19  20
HETATM   20  C3  UNL     1     -14.976  45.377 -28.034  1.00  0.00     0.263 C 
HETATM   21  O1  UNL     1     -15.528  45.656 -26.752  1.00  0.00    -0.354 OA
HETATM   22  C2  UNL     1     -16.935  45.416 -26.696  1.00  0.00     0.151 C 
HETATM   23  C1  UNL     1     -17.397  45.811 -25.297  1.00  0.00     0.042 C 
HETATM   24  C31 UNL     1     -17.247  43.936 -26.990  1.00  0.00     0.175 C 
HETATM   25  C30 UNL     1     -16.595  43.504 -28.313  1.00  0.00     0.154 C 
HETATM   26  C29 UNL     1     -15.127  43.891 -28.349  1.00  0.00     0.095 C 
BRANCH  24  27
HETATM   27  O9  UNL     1     -18.657  43.715 -27.093  1.00  0.00    -0.390 OA
HETATM   28  H47 UNL     1     -18.992  43.622 -26.185  1.00  0.00     0.210 HD
ENDBRANCH  24  27
BRANCH  25  29
HETATM   29  O8  UNL     1     -17.273  44.123 -29.413  1.00  0.00    -0.393 OA
HETATM   30  H45 UNL     1     -18.224  44.021 -29.202  1.00  0.00     0.210 HD
ENDBRANCH  25  29
ENDBRANCH  19  20
ENDBRANCH   1  19
BRANCH  17  31
HETATM   31  O7  UNL     1     -11.070  45.588 -26.901  1.00  0.00    -0.389 OA
HETATM   32  H39 UNL     1     -12.007  45.880 -26.912  1.00  0.00     0.210 HD
ENDBRANCH  17  31
BRANCH   4  33
HETATM   33  C8  UNL     1      -9.485  47.817 -27.618  1.00  0.00     0.068 C 
HETATM   34  N1  UNL     1      -8.867  47.150 -26.698  1.00  0.00    -0.399 N 
ATOM     35  H1  UNL     1      -9.005  46.148 -26.568  1.00  0.00     0.158 HD
BRANCH  34  36
HETATM   36  C9  UNL     1      -7.954  47.928 -25.852  1.00  0.00     0.144 C 
BRANCH  36  37
HETATM   37  C10 UNL     1      -8.797  48.643 -24.798  1.00  0.00     0.183 C 
BRANCH  37  38
HETATM   38  O3  UNL     1      -9.064  49.983 -25.230  1.00  0.00    -0.399 OA
HETATM   39  H16 UNL     1      -8.179  50.397 -25.355  1.00  0.00     0.209 HD
ENDBRANCH  37  38
ENDBRANCH  36  37
ENDBRANCH  34  36
ENDBRANCH   4  33
BRANCH  13  40
HETATM   40  O6  UNL     1      -6.101  46.985 -30.912  1.00  0.00    -0.389 OA
HETATM   41  H33 UNL     1      -5.674  46.452 -30.221  1.00  0.00     0.210 HD
ENDBRANCH  13  40
BRANCH  10  42
HETATM   42  C17 UNL     1      -9.395  46.207 -34.541  1.00  0.00    -0.045 A 
HETATM   43  C18 UNL     1     -10.654  45.932 -34.887  1.00  0.00     0.087 A 
HETATM   44  C19 UNL     1     -10.804  46.265 -36.300  1.00  0.00     0.283 A 
HETATM   45  O4  UNL     1     -11.836  46.148 -36.930  1.00  0.00    -0.260 OA
HETATM   46  O5  UNL     1      -9.613  46.713 -36.777  1.00  0.00    -0.314 OA
HETATM   47  C20 UNL     1      -8.647  46.697 -35.726  1.00  0.00     0.213 A 
ENDBRANCH  10  42
TORSDOF 11
ENDMDL
MODEL 8
REMARK minimizedAffinity -6.97031069
REMARK CNNscore 0.331074923
REMARK CNNaffinity 6.04521036
REMARK  11 active torsions:
REMARK  status: ('A' for Active; 'I' for Inactive)
REMARK    1  A    between atoms: C3_4  and  O2_5 
REMARK    2  A    between atoms: O2_5  and  C4_6 
REMARK    3  A    between atoms: C7_9  and  C8_10 
REMARK    4  A    between atoms: N1_11  and  C9_13 
REMARK    5  A    between atoms: C9_13  and  C10_14 
REMARK    6  A    between atoms: C10_14  and  O3_15 
REMARK    7  A    between atoms: C16_21  and  C17_22 
REMARK    8  A    between atoms: C23_30  and  O6_31 
REMARK    9  A    between atoms: C27_35  and  O7_36 
REMARK   10  A    between atoms: C30_39  and  O8_40 
REMARK   11  A    between atoms: C31_41  and  O9_42 
ROOT
HETATM    1  C4  UNL     1      -6.266  47.494 -17.759  1.00  0.00     0.127 C 
HETATM    2  C5  UNL     1      -4.917  46.855 -18.094  1.00  0.00     0.033 C 
HETATM    3  C6  UNL     1      -5.018  45.906 -19.286  1.00  0.00     0.021 C 
HETATM    4  C7  UNL     1      -5.587  46.575 -20.573  1.00  0.00     0.026 C 
HETATM    5  C11 UNL     1      -4.605  47.666 -21.157  1.00  0.00     0.009 C 
HETATM    6  C12 UNL     1      -3.225  47.148 -21.559  1.00  0.00     0.007 C 
HETATM    7  C13 UNL     1      -2.225  48.292 -21.727  1.00  0.00     0.013 C 
HETATM    8  C14 UNL     1      -2.777  49.600 -22.349  1.00  0.00    -0.005 C 
HETATM    9  C15 UNL     1      -1.681  50.120 -23.317  1.00  0.00     0.019 C 
HETATM   10  C16 UNL     1      -3.141  50.699 -21.290  1.00  0.00     0.028 C 
HETATM   11  C21 UNL     1      -4.092  51.662 -22.032  1.00  0.00     0.013 C 
HETATM   12  C22 UNL     1      -4.609  50.894 -23.248  1.00  0.00     0.040 C 
HETATM   13  C23 UNL     1      -4.158  49.432 -23.069  1.00  0.00     0.070 C 
HETATM   14  C24 UNL     1      -5.191  48.467 -22.361  1.00  0.00     0.026 C 
HETATM   15  C25 UNL     1      -6.541  49.090 -21.989  1.00  0.00     0.011 C 
HETATM   16  C26 UNL     1      -7.510  48.053 -21.430  1.00  0.00     0.039 C 
HETATM   17  C27 UNL     1      -6.961  47.262 -20.231  1.00  0.00     0.073 C 
HETATM   18  C28 UNL     1      -6.848  48.197 -18.993  1.00  0.00     0.071 C 
ENDROOT
BRANCH   1  19
HETATM   19  O2  UNL     1      -7.243  46.544 -17.325  1.00  0.00    -0.356 OA
BRANCH  19  20
HETATM   20  C3  UNL     1      -7.681  46.728 -15.978  1.00  0.00     0.263 C 
HETATM   21  O1  UNL     1      -6.720  46.131 -15.114  1.00  0.00    -0.354 OA
HETATM   22  C2  UNL     1      -7.051  46.285 -13.734  1.00  0.00     0.151 C 
HETATM   23  C1  UNL     1      -5.915  45.657 -12.932  1.00  0.00     0.042 C 
HETATM   24  C31 UNL     1      -8.398  45.608 -13.418  1.00  0.00     0.175 C 
HETATM   25  C30 UNL     1      -9.489  46.110 -14.377  1.00  0.00     0.154 C 
HETATM   26  C29 UNL     1      -9.026  46.023 -15.821  1.00  0.00     0.095 C 
BRANCH  24  27
HETATM   27  O9  UNL     1      -8.818  45.889 -12.078  1.00  0.00    -0.390 OA
HETATM   28  H47 UNL     1      -8.348  45.262 -11.501  1.00  0.00     0.210 HD
ENDBRANCH  24  27
BRANCH  25  29
HETATM   29  O8  UNL     1      -9.817  47.470 -14.069  1.00  0.00    -0.393 OA
HETATM   30  H45 UNL     1      -9.884  47.489 -13.092  1.00  0.00     0.210 HD
ENDBRANCH  25  29
ENDBRANCH  19  20
ENDBRANCH   1  19
BRANCH  17  31
HETATM   31  O7  UNL     1      -7.974  46.280 -19.949  1.00  0.00    -0.389 OA
HETATM   32  H39 UNL     1      -7.801  45.924 -19.051  1.00  0.00     0.210 HD
ENDBRANCH  17  31
BRANCH   4  33
HETATM   33  C8  UNL     1      -5.833  45.464 -21.606  1.00  0.00     0.068 C 
HETATM   34  N1  UNL     1      -6.154  44.264 -21.246  1.00  0.00    -0.399 N 
ATOM     35  H1  UNL     1      -6.122  43.963 -20.272  1.00  0.00     0.158 HD
BRANCH  34  36
HETATM   36  C9  UNL     1      -6.567  43.363 -22.328  1.00  0.00     0.144 C 
BRANCH  36  37
HETATM   37  C10 UNL     1      -6.728  41.966 -21.729  1.00  0.00     0.183 C 
BRANCH  37  38
HETATM   38  O3  UNL     1      -7.614  41.195 -22.551  1.00  0.00    -0.399 OA
HETATM   39  H16 UNL     1      -8.458  41.701 -22.569  1.00  0.00     0.209 HD
ENDBRANCH  37  38
ENDBRANCH  36  37
ENDBRANCH  34  36
ENDBRANCH   4  33
BRANCH  13  40
HETATM   40  O6  UNL     1      -3.933  48.887 -24.376  1.00  0.00    -0.389 OA
HETATM   41  H33 UNL     1      -4.780  48.860 -24.851  1.00  0.00     0.210 HD
ENDBRANCH  13  40
BRANCH  10  42
HETATM   42  C17 UNL     1      -2.037  51.377 -20.526  1.00  0.00    -0.045 A 
HETATM   43  C18 UNL     1      -0.946  51.918 -21.072  1.00  0.00     0.087 A 
HETATM   44  C19 UNL     1      -0.120  52.432 -19.984  1.00  0.00     0.283 A 
HETATM   45  O4  UNL     1       0.943  53.002 -20.136  1.00  0.00    -0.260 OA
HETATM   46  O5  UNL     1      -0.730  52.163 -18.800  1.00  0.00    -0.314 OA
HETATM   47  C20 UNL     1      -1.958  51.477 -19.047  1.00  0.00     0.213 A 
ENDBRANCH  10  42
TORSDOF 11
ENDMDL
MODEL 9
REMARK minimizedAffinity -8.93340111
REMARK CNNscore 0.315016091
REMARK CNNaffinity 6.28893852
REMARK  11 active torsions:
REMARK  status: ('A' for Active; 'I' for Inactive)
REMARK    1  A    between atoms: C3_4  and  O2_5 
REMARK    2  A    between atoms: O2_5  and  C4_6 
REMARK    3  A    between atoms: C7_9  and  C8_10 
REMARK    4  A    between atoms: N1_11  and  C9_13 
REMARK    5  A    between atoms: C9_13  and  C10_14 
REMARK    6  A    between atoms: C10_14  and  O3_15 
REMARK    7  A    between atoms: C16_21  and  C17_22 
REMARK    8  A    between atoms: C23_30  and  O6_31 
REMARK    9  A    between atoms: C27_35  and  O7_36 
REMARK   10  A    between atoms: C30_39  and  O8_40 
REMARK   11  A    between atoms: C31_41  and  O9_42 
ROOT
HETATM    1  C4  UNL     1      -6.653  48.282 -24.559  1.00  0.00     0.127 C 
HETATM    2  C5  UNL     1      -6.876  49.650 -23.912  1.00  0.00     0.033 C 
HETATM    3  C6  UNL     1      -7.483  49.527 -22.516  1.00  0.00     0.021 C 
HETATM    4  C7  UNL     1      -6.644  48.645 -21.544  1.00  0.00     0.026 C 
HETATM    5  C11 UNL     1      -5.254  49.308 -21.195  1.00  0.00     0.009 C 
HETATM    6  C12 UNL     1      -5.338  50.673 -20.515  1.00  0.00     0.007 C 
HETATM    7  C13 UNL     1      -4.001  51.411 -20.575  1.00  0.00     0.013 C 
HETATM    8  C14 UNL     1      -2.728  50.541 -20.416  1.00  0.00    -0.005 C 
HETATM    9  C15 UNL     1      -1.751  51.353 -19.525  1.00  0.00     0.019 C 
HETATM   10  C16 UNL     1      -2.046  50.164 -21.779  1.00  0.00     0.028 C 
HETATM   11  C21 UNL     1      -1.154  48.949 -21.450  1.00  0.00     0.013 C 
HETATM   12  C22 UNL     1      -1.674  48.385 -20.128  1.00  0.00     0.040 C 
HETATM   13  C23 UNL     1      -3.000  49.114 -19.831  1.00  0.00     0.070 C 
HETATM   14  C24 UNL     1      -4.315  48.399 -20.341  1.00  0.00     0.026 C 
HETATM   15  C25 UNL     1      -4.117  47.039 -21.019  1.00  0.00     0.011 C 
HETATM   16  C26 UNL     1      -5.448  46.375 -21.359  1.00  0.00     0.039 C 
HETATM   17  C27 UNL     1      -6.384  47.245 -22.215  1.00  0.00     0.073 C 
HETATM   18  C28 UNL     1      -5.799  47.391 -23.649  1.00  0.00     0.071 C 
ENDROOT
BRANCH   1  19
HETATM   19  O2  UNL     1      -7.872  47.574 -24.806  1.00  0.00    -0.356 OA
BRANCH  19  20
HETATM   20  C3  UNL     1      -8.642  48.095 -25.891  1.00  0.00     0.263 C 
HETATM   21  O1  UNL     1      -9.975  47.612 -25.760  1.00  0.00    -0.354 OA
HETATM   22  C2  UNL     1     -10.839  48.100 -26.786  1.00  0.00     0.151 C 
HETATM   23  C1  UNL     1     -12.233  47.556 -26.488  1.00  0.00     0.042 C 
HETATM   24  C31 UNL     1     -10.348  47.647 -28.174  1.00  0.00     0.175 C 
HETATM   25  C30 UNL     1      -8.872  48.028 -28.372  1.00  0.00     0.154 C 
HETATM   26  C29 UNL     1      -8.030  47.578 -27.191  1.00  0.00     0.095 C 
BRANCH  24  27
HETATM   27  O9  UNL     1     -11.111  48.257 -29.220  1.00  0.00    -0.390 OA
HETATM   28  H47 UNL     1     -11.924  47.730 -29.316  1.00  0.00     0.210 HD
ENDBRANCH  24  27
BRANCH  25  29
HETATM   29  O8  UNL     1      -8.754  49.448 -28.520  1.00  0.00    -0.393 OA
HETATM   30  H45 UNL     1      -9.479  49.690 -29.134  1.00  0.00     0.210 HD
ENDBRANCH  25  29
ENDBRANCH  19  20
ENDBRANCH   1  19
BRANCH  17  31
HETATM   31  O7  UNL     1      -7.600  46.484 -22.311  1.00  0.00    -0.389 OA
HETATM   32  H39 UNL     1      -8.130  46.862 -23.045  1.00  0.00     0.210 HD
ENDBRANCH  17  31
BRANCH   4  33
HETATM   33  C8  UNL     1      -7.476  48.435 -20.269  1.00  0.00     0.068 C 
HETATM   34  N1  UNL     1      -7.017  48.752 -19.102  1.00  0.00    -0.399 N 
ATOM     35  H1  UNL     1      -6.044  49.020 -18.955  1.00  0.00     0.158 HD
BRANCH  34  36
HETATM   36  C9  UNL     1      -7.986  48.701 -18.001  1.00  0.00     0.144 C 
BRANCH  36  37
HETATM   37  C10 UNL     1      -7.726  47.416 -17.216  1.00  0.00     0.183 C 
BRANCH  37  38
HETATM   38  O3  UNL     1      -8.624  47.348 -16.101  1.00  0.00    -0.399 OA
HETATM   39  H16 UNL     1      -8.445  48.160 -15.573  1.00  0.00     0.209 HD
ENDBRANCH  37  38
ENDBRANCH  36  37
ENDBRANCH  34  36
ENDBRANCH   4  33
BRANCH  13  40
HETATM   40  O6  UNL     1      -3.126  49.216 -18.406  1.00  0.00    -0.389 OA
HETATM   41  H33 UNL     1      -3.212  48.320 -18.038  1.00  0.00     0.210 HD
ENDBRANCH  13  40
BRANCH  10  42
HETATM   42  C17 UNL     1      -1.366  51.240 -22.581  1.00  0.00    -0.045 A 
HETATM   43  C18 UNL     1      -1.899  51.865 -23.633  1.00  0.00     0.087 A 
HETATM   44  C19 UNL     1      -0.900  52.802 -24.138  1.00  0.00     0.283 A 
HETATM   45  O4  UNL     1      -1.068  53.544 -25.086  1.00  0.00    -0.260 OA
HETATM   46  O5  UNL     1       0.225  52.698 -23.383  1.00  0.00    -0.314 OA
HETATM   47  C20 UNL     1       0.025  51.713 -22.370  1.00  0.00     0.213 A 
ENDBRANCH  10  42
TORSDOF 11
ENDMDL
