MODEL 1
REMARK minimizedAffinity -7.85031271
REMARK CNNscore 0.584287107
REMARK CNNaffinity 6.730021
REMARK  19 active torsions:
REMARK  status: ('A' for Active; 'I' for Inactive)
REMARK    1  A    between atoms: C2_2  and  C3_3 
REMARK    2  A    between atoms: C3_3  and  C5_5 
REMARK    3  A    between atoms: C5_5  and  N1_6 
REMARK    4  A    between atoms: C5_5  and  C37_46 
REMARK       I    between atoms: N1_6  and  C6_7 
REMARK    5  A    between atoms: C6_7  and  C7_9 
REMARK    6  A    between atoms: C7_9  and  C8_10 
REMARK    7  A    between atoms: C8_10  and  C9_11 
REMARK    8  A    between atoms: C9_11  and  C10_12 
REMARK    9  A    between atoms: C10_12  and  C11_13 
REMARK   10  A    between atoms: C11_13  and  N2_14 
REMARK       I    between atoms: N2_14  and  C12_15 
REMARK   11  A    between atoms: C12_15  and  C13_17 
REMARK   12  A    between atoms: C13_17  and  C14_18 
REMARK   13  A    between atoms: C14_18  and  C15_19 
REMARK   14  A    between atoms: C15_19  and  O4_21 
REMARK   15  A    between atoms: O4_21  and  C16_22 
REMARK   16  A    between atoms: C16_22  and  C17_23 
REMARK   17  A    between atoms: C17_23  and  C18_25 
REMARK   18  A    between atoms: C18_25  and  O6_26 
REMARK   19  A    between atoms: C37_46  and  O9_48 
ROOT
HETATM    1  C15 UNL     1       1.393   8.029  11.190  1.00  0.00     0.259 C 
HETATM    2  O3  UNL     1       0.453   7.945  10.411  1.00  0.00    -0.265 OA
ENDROOT
BRANCH   1   3
HETATM    3  C14 UNL     1       2.675   7.245  11.038  1.00  0.00     0.120 C 
BRANCH   3   4
HETATM    4  C13 UNL     1       3.932   8.083  11.220  1.00  0.00     0.112 C 
BRANCH   4   5
HETATM    5  C12 UNL     1       5.069   7.234  11.741  1.00  0.00     0.217 C 
HETATM    6  N2  UNL     1       5.574   7.647  12.955  1.00  0.00    -0.361 N 
HETATM    7  H22 UNL     1       5.382   8.596  13.241  1.00  0.00     0.162 HD
HETATM    8  O2  UNL     1       5.445   6.231  11.145  1.00  0.00    -0.274 OA
BRANCH   6   9
HETATM    9  C11 UNL     1       6.740   6.990  13.512  1.00  0.00     0.122 C 
BRANCH   9  10
HETATM   10  C10 UNL     1       8.000   7.851  13.454  1.00  0.00     0.020 C 
BRANCH  10  11
HETATM   11  C9  UNL     1       8.764   7.955  14.780  1.00  0.00     0.002 C 
BRANCH  11  12
HETATM   12  C8  UNL     1       8.300   9.096  15.691  1.00  0.00     0.009 C 
BRANCH  12  13
HETATM   13  C7  UNL     1       9.126   9.168  16.979  1.00  0.00     0.103 C 
BRANCH  13  14
HETATM   14  C6  UNL     1       9.737  10.539  17.214  1.00  0.00     0.218 C 
HETATM   15  N1  UNL     1      11.030  10.477  17.690  1.00  0.00    -0.346 N 
HETATM   16  H11 UNL     1      11.284   9.617  18.162  1.00  0.00     0.163 HD
HETATM   17  O1  UNL     1       9.137  11.590  17.021  1.00  0.00    -0.274 OA
BRANCH  15  18
HETATM   18  C5  UNL     1      11.699  11.685  18.185  1.00  0.00     0.186 C 
BRANCH  18  19
HETATM   19  C3  UNL     1      13.165  11.776  17.692  1.00  0.00     0.014 C 
HETATM   20  C4  UNL     1      13.291  11.553  16.178  1.00  0.00     0.012 C 
BRANCH  19  21
HETATM   21  C2  UNL     1      13.786  13.123  18.122  1.00  0.00     0.002 C 
HETATM   22  C1  UNL     1      14.901  12.980  19.148  1.00  0.00     0.005 C 
ENDBRANCH  19  21
ENDBRANCH  18  19
BRANCH  18  23
HETATM   23  C37 UNL     1      11.647  11.760  19.718  1.00  0.00     0.163 C 
HETATM   24  O8  UNL     1      11.279  12.716  20.382  1.00  0.00    -0.648 OA
BRANCH  23  25
HETATM   25  O9  UNL     1      12.128  10.659  20.339  1.00  0.00    -0.775 OA
HETATM   26  H56 UNL     1      12.031  10.876  21.292  1.00  0.00     0.167 HD
ENDBRANCH  23  25
ENDBRANCH  18  23
ENDBRANCH  15  18
ENDBRANCH  13  14
ENDBRANCH  12  13
ENDBRANCH  11  12
ENDBRANCH  10  11
ENDBRANCH   9  10
ENDBRANCH   6   9
ENDBRANCH   4   5
ENDBRANCH   3   4
ENDBRANCH   1   3
BRANCH   1  27
HETATM   27  O4  UNL     1       1.393   8.775  12.331  1.00  0.00    -0.314 OA
BRANCH  27  28
HETATM   28  C16 UNL     1       0.800   8.113  13.449  1.00  0.00     0.260 C 
BRANCH  28  29
HETATM   29  C17 UNL     1      -0.621   8.598  13.718  1.00  0.00     0.185 C 
HETATM   30  O5  UNL     1      -0.800   9.678  14.288  1.00  0.00    -0.292 OA
BRANCH  29  31
HETATM   31  C18 UNL     1      -1.799   7.760  13.141  1.00  0.00     0.128 C 
HETATM   32  C19 UNL     1      -1.378   6.284  12.905  1.00  0.00     0.047 C 
HETATM   33  C20 UNL     1      -2.632   5.426  13.133  1.00  0.00     0.009 C 
HETATM   34  C21 UNL     1      -3.748   6.420  13.459  1.00  0.00     0.002 C 
HETATM   35  C22 UNL     1      -4.935   5.881  14.281  1.00  0.00    -0.004 C 
HETATM   36  C35 UNL     1      -3.018   7.613  14.113  1.00  0.00    -0.002 C 
HETATM   37  C23 UNL     1      -5.752   4.880  13.433  1.00  0.00     0.010 C 
HETATM   38  C32 UNL     1      -5.791   7.059  14.884  1.00  0.00     0.002 C 
HETATM   39  C24 UNL     1      -6.931   5.531  12.725  1.00  0.00     0.035 C 
HETATM   40  C25 UNL     1      -7.883   6.196  13.687  1.00  0.00    -0.068 C 
HETATM   41  C26 UNL     1      -9.177   6.342  13.346  1.00  0.00     0.053 C 
HETATM   42  C30 UNL     1      -7.319   6.701  15.012  1.00  0.00    -0.016 C 
HETATM   43  C27 UNL     1     -10.155   7.018  14.235  1.00  0.00     0.149 C 
HETATM   44  O7  UNL     1     -11.343   7.037  13.916  1.00  0.00    -0.293 OA
HETATM   45  C28 UNL     1      -9.662   7.635  15.523  1.00  0.00     0.084 C 
HETATM   46  C29 UNL     1      -8.164   7.930  15.456  1.00  0.00     0.022 C 
HETATM   47  C31 UNL     1      -7.477   5.606  16.105  1.00  0.00     0.020 C 
HETATM   48  C33 UNL     1      -5.488   8.396  14.159  1.00  0.00     0.007 C 
HETATM   49  C34 UNL     1      -3.999   8.802  14.154  1.00  0.00     0.013 C 
HETATM   50  C36 UNL     1      -2.528   7.298  15.554  1.00  0.00     0.019 C 
BRANCH  31  51
HETATM   51  O6  UNL     1      -2.234   8.231  11.861  1.00  0.00    -0.381 OA
HETATM   52  H29 UNL     1      -2.134   9.201  11.847  1.00  0.00     0.211 HD
ENDBRANCH  31  51
ENDBRANCH  29  31
ENDBRANCH  28  29
ENDBRANCH  27  28
ENDBRANCH   1  27
TORSDOF 19
ENDMDL
MODEL 2
REMARK minimizedAffinity -8.22432232
REMARK CNNscore 0.482017517
REMARK CNNaffinity 7.29458094
REMARK  19 active torsions:
REMARK  status: ('A' for Active; 'I' for Inactive)
REMARK    1  A    between atoms: C2_2  and  C3_3 
REMARK    2  A    between atoms: C3_3  and  C5_5 
REMARK    3  A    between atoms: C5_5  and  N1_6 
REMARK    4  A    between atoms: C5_5  and  C37_46 
REMARK       I    between atoms: N1_6  and  C6_7 
REMARK    5  A    between atoms: C6_7  and  C7_9 
REMARK    6  A    between atoms: C7_9  and  C8_10 
REMARK    7  A    between atoms: C8_10  and  C9_11 
REMARK    8  A    between atoms: C9_11  and  C10_12 
REMARK    9  A    between atoms: C10_12  and  C11_13 
REMARK   10  A    between atoms: C11_13  and  N2_14 
REMARK       I    between atoms: N2_14  and  C12_15 
REMARK   11  A    between atoms: C12_15  and  C13_17 
REMARK   12  A    between atoms: C13_17  and  C14_18 
REMARK   13  A    between atoms: C14_18  and  C15_19 
REMARK   14  A    between atoms: C15_19  and  O4_21 
REMARK   15  A    between atoms: O4_21  and  C16_22 
REMARK   16  A    between atoms: C16_22  and  C17_23 
REMARK   17  A    between atoms: C17_23  and  C18_25 
REMARK   18  A    between atoms: C18_25  and  O6_26 
REMARK   19  A    between atoms: C37_46  and  O9_48 
ROOT
HETATM    1  C15 UNL     1       1.575   6.374   9.773  1.00  0.00     0.259 C 
HETATM    2  O3  UNL     1       1.957   6.352   8.611  1.00  0.00    -0.265 OA
ENDROOT
BRANCH   1   3
HETATM    3  C14 UNL     1       2.441   6.821  10.927  1.00  0.00     0.120 C 
BRANCH   3   4
HETATM    4  C13 UNL     1       3.757   7.452  10.499  1.00  0.00     0.112 C 
BRANCH   4   5
HETATM    5  C12 UNL     1       4.793   7.326  11.592  1.00  0.00     0.217 C 
HETATM    6  N2  UNL     1       4.792   8.365  12.496  1.00  0.00    -0.361 N 
HETATM    7  H22 UNL     1       4.354   9.230  12.213  1.00  0.00     0.162 HD
HETATM    8  O2  UNL     1       5.513   6.337  11.681  1.00  0.00    -0.274 OA
BRANCH   6   9
HETATM    9  C11 UNL     1       5.809   8.424  13.528  1.00  0.00     0.122 C 
BRANCH   9  10
HETATM   10  C10 UNL     1       7.231   8.355  12.974  1.00  0.00     0.020 C 
BRANCH  10  11
HETATM   11  C9  UNL     1       8.334   8.609  14.011  1.00  0.00     0.002 C 
BRANCH  11  12
HETATM   12  C8  UNL     1       8.437   7.537  15.100  1.00  0.00     0.009 C 
BRANCH  12  13
HETATM   13  C7  UNL     1       9.516   7.877  16.132  1.00  0.00     0.103 C 
BRANCH  13  14
HETATM   14  C6  UNL     1       9.200   9.132  16.928  1.00  0.00     0.218 C 
HETATM   15  N1  UNL     1      10.291   9.963  17.077  1.00  0.00    -0.346 N 
HETATM   16  H11 UNL     1      11.198   9.519  16.991  1.00  0.00     0.163 HD
HETATM   17  O1  UNL     1       8.097   9.372  17.405  1.00  0.00    -0.274 OA
BRANCH  15  18
HETATM   18  C5  UNL     1      10.237  11.104  17.998  1.00  0.00     0.186 C 
BRANCH  18  19
HETATM   19  C3  UNL     1      10.644  12.427  17.303  1.00  0.00     0.014 C 
HETATM   20  C4  UNL     1      11.675  13.224  18.114  1.00  0.00     0.012 C 
BRANCH  19  21
HETATM   21  C2  UNL     1      11.146  12.140  15.871  1.00  0.00     0.002 C 
HETATM   22  C1  UNL     1      12.636  11.839  15.797  1.00  0.00     0.005 C 
ENDBRANCH  19  21
ENDBRANCH  18  19
BRANCH  18  23
HETATM   23  C37 UNL     1      11.113  10.860  19.235  1.00  0.00     0.163 C 
HETATM   24  O8  UNL     1      10.895  11.267  20.366  1.00  0.00    -0.648 OA
BRANCH  23  25
HETATM   25  O9  UNL     1      12.253  10.180  18.977  1.00  0.00    -0.775 OA
HETATM   26  H56 UNL     1      12.687  10.124  19.856  1.00  0.00     0.167 HD
ENDBRANCH  23  25
ENDBRANCH  18  23
ENDBRANCH  15  18
ENDBRANCH  13  14
ENDBRANCH  12  13
ENDBRANCH  11  12
ENDBRANCH  10  11
ENDBRANCH   9  10
ENDBRANCH   6   9
ENDBRANCH   4   5
ENDBRANCH   3   4
ENDBRANCH   1   3
BRANCH   1  27
HETATM   27  O4  UNL     1       0.357   5.936  10.199  1.00  0.00    -0.314 OA
BRANCH  27  28
HETATM   28  C16 UNL     1       0.040   6.333  11.534  1.00  0.00     0.260 C 
BRANCH  28  29
HETATM   29  C17 UNL     1      -0.574   5.194  12.342  1.00  0.00     0.185 C 
HETATM   30  O5  UNL     1       0.055   4.706  13.285  1.00  0.00    -0.292 OA
BRANCH  29  31
HETATM   31  C18 UNL     1      -2.038   4.778  12.019  1.00  0.00     0.128 C 
HETATM   32  C19 UNL     1      -2.193   3.233  11.999  1.00  0.00     0.047 C 
HETATM   33  C20 UNL     1      -3.622   2.926  12.476  1.00  0.00     0.009 C 
HETATM   34  C21 UNL     1      -4.265   4.291  12.726  1.00  0.00     0.002 C 
HETATM   35  C22 UNL     1      -5.437   4.329  13.727  1.00  0.00    -0.004 C 
HETATM   36  C35 UNL     1      -3.082   5.208  13.104  1.00  0.00    -0.002 C 
HETATM   37  C23 UNL     1      -6.661   3.596  13.134  1.00  0.00     0.010 C 
HETATM   38  C32 UNL     1      -5.737   5.804  14.196  1.00  0.00     0.002 C 
HETATM   39  C24 UNL     1      -7.629   4.538  12.432  1.00  0.00     0.035 C 
HETATM   40  C25 UNL     1      -8.145   5.619  13.348  1.00  0.00    -0.068 C 
HETATM   41  C26 UNL     1      -9.342   6.183  13.101  1.00  0.00     0.053 C 
HETATM   42  C30 UNL     1      -7.259   6.046  14.515  1.00  0.00    -0.016 C 
HETATM   43  C27 UNL     1      -9.888   7.275  13.945  1.00  0.00     0.149 C 
HETATM   44  O7  UNL     1     -11.028   7.685  13.733  1.00  0.00    -0.293 OA
HETATM   45  C28 UNL     1      -9.035   7.826  15.064  1.00  0.00     0.084 C 
HETATM   46  C29 UNL     1      -7.554   7.544  14.818  1.00  0.00     0.022 C 
HETATM   47  C31 UNL     1      -7.630   5.230  15.786  1.00  0.00     0.020 C 
HETATM   48  C33 UNL     1      -5.095   6.836  13.233  1.00  0.00     0.007 C 
HETATM   49  C34 UNL     1      -3.573   6.668  13.030  1.00  0.00     0.013 C 
HETATM   50  C36 UNL     1      -2.533   4.919  14.530  1.00  0.00     0.019 C 
BRANCH  31  51
HETATM   51  O6  UNL     1      -2.460   5.210  10.721  1.00  0.00    -0.381 OA
HETATM   52  H29 UNL     1      -2.032   6.067  10.536  1.00  0.00     0.211 HD
ENDBRANCH  31  51
ENDBRANCH  29  31
ENDBRANCH  28  29
ENDBRANCH  27  28
ENDBRANCH   1  27
TORSDOF 19
ENDMDL
MODEL 3
REMARK minimizedAffinity -7.75792503
REMARK CNNscore 0.443641543
REMARK CNNaffinity 7.98598146
REMARK  19 active torsions:
REMARK  status: ('A' for Active; 'I' for Inactive)
REMARK    1  A    between atoms: C2_2  and  C3_3 
REMARK    2  A    between atoms: C3_3  and  C5_5 
REMARK    3  A    between atoms: C5_5  and  N1_6 
REMARK    4  A    between atoms: C5_5  and  C37_46 
REMARK       I    between atoms: N1_6  and  C6_7 
REMARK    5  A    between atoms: C6_7  and  C7_9 
REMARK    6  A    between atoms: C7_9  and  C8_10 
REMARK    7  A    between atoms: C8_10  and  C9_11 
REMARK    8  A    between atoms: C9_11  and  C10_12 
REMARK    9  A    between atoms: C10_12  and  C11_13 
REMARK   10  A    between atoms: C11_13  and  N2_14 
REMARK       I    between atoms: N2_14  and  C12_15 
REMARK   11  A    between atoms: C12_15  and  C13_17 
REMARK   12  A    between atoms: C13_17  and  C14_18 
REMARK   13  A    between atoms: C14_18  and  C15_19 
REMARK   14  A    between atoms: C15_19  and  O4_21 
REMARK   15  A    between atoms: O4_21  and  C16_22 
REMARK   16  A    between atoms: C16_22  and  C17_23 
REMARK   17  A    between atoms: C17_23  and  C18_25 
REMARK   18  A    between atoms: C18_25  and  O6_26 
REMARK   19  A    between atoms: C37_46  and  O9_48 
ROOT
HETATM    1  C15 UNL     1      -5.527   2.457  11.547  1.00  0.00     0.259 C 
HETATM    2  O3  UNL     1      -5.993   1.604  10.803  1.00  0.00    -0.265 OA
ENDROOT
BRANCH   1   3
HETATM    3  C14 UNL     1      -4.196   2.316  12.248  1.00  0.00     0.120 C 
BRANCH   3   4
HETATM    4  C13 UNL     1      -3.157   1.552  11.443  1.00  0.00     0.112 C 
BRANCH   4   5
HETATM    5  C12 UNL     1      -1.991   2.446  11.089  1.00  0.00     0.217 C 
HETATM    6  N2  UNL     1      -2.076   3.720  11.607  1.00  0.00    -0.361 N 
HETATM    7  H22 UNL     1      -2.987   4.045  11.898  1.00  0.00     0.162 HD
HETATM    8  O2  UNL     1      -1.033   2.026  10.449  1.00  0.00    -0.274 OA
BRANCH   6   9
HETATM    9  C11 UNL     1      -1.081   4.711  11.249  1.00  0.00     0.122 C 
BRANCH   9  10
HETATM   10  C10 UNL     1      -0.714   5.640  12.406  1.00  0.00     0.020 C 
BRANCH  10  11
HETATM   11  C9  UNL     1       0.730   5.497  12.906  1.00  0.00     0.002 C 
BRANCH  11  12
HETATM   12  C8  UNL     1       1.207   6.646  13.799  1.00  0.00     0.009 C 
BRANCH  12  13
HETATM   13  C7  UNL     1       0.889   8.013  13.186  1.00  0.00     0.103 C 
BRANCH  13  14
HETATM   14  C6  UNL     1       1.613   8.256  11.872  1.00  0.00     0.218 C 
HETATM   15  N1  UNL     1       2.890   7.735  11.857  1.00  0.00    -0.346 N 
HETATM   16  H11 UNL     1       3.322   7.602  12.764  1.00  0.00     0.163 HD
HETATM   17  O1  UNL     1       1.120   8.867  10.931  1.00  0.00    -0.274 OA
BRANCH  15  18
HETATM   18  C5  UNL     1       3.814   8.063  10.765  1.00  0.00     0.186 C 
BRANCH  18  19
HETATM   19  C3  UNL     1       3.621   7.127   9.546  1.00  0.00     0.014 C 
HETATM   20  C4  UNL     1       2.796   5.879   9.888  1.00  0.00     0.012 C 
BRANCH  19  21
HETATM   21  C2  UNL     1       3.005   7.913   8.368  1.00  0.00     0.002 C 
HETATM   22  C1  UNL     1       2.022   7.097   7.540  1.00  0.00     0.005 C 
ENDBRANCH  19  21
ENDBRANCH  18  19
BRANCH  18  23
HETATM   23  C37 UNL     1       5.273   8.024  11.242  1.00  0.00     0.163 C 
HETATM   24  O8  UNL     1       5.716   8.545  12.254  1.00  0.00    -0.648 OA
BRANCH  23  25
HETATM   25  O9  UNL     1       6.113   7.395  10.390  1.00  0.00    -0.775 OA
HETATM   26  H56 UNL     1       6.986   7.470  10.836  1.00  0.00     0.167 HD
ENDBRANCH  23  25
ENDBRANCH  18  23
ENDBRANCH  15  18
ENDBRANCH  13  14
ENDBRANCH  12  13
ENDBRANCH  11  12
ENDBRANCH  10  11
ENDBRANCH   9  10
ENDBRANCH   6   9
ENDBRANCH   4   5
ENDBRANCH   3   4
ENDBRANCH   1   3
BRANCH   1  27
HETATM   27  O4  UNL     1      -6.163   3.608  11.903  1.00  0.00    -0.314 OA
BRANCH  27  28
HETATM   28  C16 UNL     1      -6.703   3.579  13.226  1.00  0.00     0.260 C 
BRANCH  28  29
HETATM   29  C17 UNL     1      -6.213   4.750  14.073  1.00  0.00     0.185 C 
HETATM   30  O5  UNL     1      -5.074   5.194  13.900  1.00  0.00    -0.292 OA
BRANCH  29  31
HETATM   31  C18 UNL     1      -7.228   5.424  15.041  1.00  0.00     0.128 C 
HETATM   32  C19 UNL     1      -6.500   6.137  16.212  1.00  0.00     0.047 C 
HETATM   33  C20 UNL     1      -7.364   7.350  16.596  1.00  0.00     0.009 C 
HETATM   34  C21 UNL     1      -8.578   7.289  15.668  1.00  0.00     0.002 C 
HETATM   35  C22 UNL     1      -9.307   8.620  15.398  1.00  0.00    -0.004 C 
HETATM   36  C35 UNL     1      -8.053   6.589  14.396  1.00  0.00    -0.002 C 
HETATM   37  C23 UNL     1     -10.017   9.103  16.683  1.00  0.00     0.010 C 
HETATM   38  C32 UNL     1     -10.257   8.504  14.145  1.00  0.00     0.002 C 
HETATM   39  C24 UNL     1     -11.474   8.669  16.750  1.00  0.00     0.035 C 
HETATM   40  C25 UNL     1     -12.276   9.165  15.574  1.00  0.00    -0.068 C 
HETATM   41  C26 UNL     1     -13.603   9.348  15.705  1.00  0.00     0.053 C 
HETATM   42  C30 UNL     1     -11.537   9.414  14.262  1.00  0.00    -0.016 C 
HETATM   43  C27 UNL     1     -14.452   9.801  14.575  1.00  0.00     0.149 C 
HETATM   44  O7  UNL     1     -15.640  10.047  14.777  1.00  0.00    -0.293 OA
HETATM   45  C28 UNL     1     -13.819   9.978  13.215  1.00  0.00     0.084 C 
HETATM   46  C29 UNL     1     -12.533   9.161  13.094  1.00  0.00     0.022 C 
HETATM   47  C31 UNL     1     -11.090  10.902  14.182  1.00  0.00     0.020 C 
HETATM   48  C33 UNL     1     -10.536   7.020  13.793  1.00  0.00     0.007 C 
HETATM   49  C34 UNL     1      -9.272   6.167  13.551  1.00  0.00     0.013 C 
HETATM   50  C36 UNL     1      -7.127   7.504  13.547  1.00  0.00     0.019 C 
BRANCH  31  51
HETATM   51  O6  UNL     1      -8.102   4.479  15.667  1.00  0.00    -0.381 OA
HETATM   52  H29 UNL     1      -8.278   3.763  15.029  1.00  0.00     0.211 HD
ENDBRANCH  31  51
ENDBRANCH  29  31
ENDBRANCH  28  29
ENDBRANCH  27  28
ENDBRANCH   1  27
TORSDOF 19
ENDMDL
MODEL 4
REMARK minimizedAffinity -8.22624207
REMARK CNNscore 0.422912627
REMARK CNNaffinity 7.30308914
REMARK  19 active torsions:
REMARK  status: ('A' for Active; 'I' for Inactive)
REMARK    1  A    between atoms: C2_2  and  C3_3 
REMARK    2  A    between atoms: C3_3  and  C5_5 
REMARK    3  A    between atoms: C5_5  and  N1_6 
REMARK    4  A    between atoms: C5_5  and  C37_46 
REMARK       I    between atoms: N1_6  and  C6_7 
REMARK    5  A    between atoms: C6_7  and  C7_9 
REMARK    6  A    between atoms: C7_9  and  C8_10 
REMARK    7  A    between atoms: C8_10  and  C9_11 
REMARK    8  A    between atoms: C9_11  and  C10_12 
REMARK    9  A    between atoms: C10_12  and  C11_13 
REMARK   10  A    between atoms: C11_13  and  N2_14 
REMARK       I    between atoms: N2_14  and  C12_15 
REMARK   11  A    between atoms: C12_15  and  C13_17 
REMARK   12  A    between atoms: C13_17  and  C14_18 
REMARK   13  A    between atoms: C14_18  and  C15_19 
REMARK   14  A    between atoms: C15_19  and  O4_21 
REMARK   15  A    between atoms: O4_21  and  C16_22 
REMARK   16  A    between atoms: C16_22  and  C17_23 
REMARK   17  A    between atoms: C17_23  and  C18_25 
REMARK   18  A    between atoms: C18_25  and  O6_26 
REMARK   19  A    between atoms: C37_46  and  O9_48 
ROOT
HETATM    1  C15 UNL     1       0.619   7.725   9.747  1.00  0.00     0.259 C 
HETATM    2  O3  UNL     1       0.228   8.847  10.037  1.00  0.00    -0.265 OA
ENDROOT
BRANCH   1   3
HETATM    3  C14 UNL     1       1.579   7.443   8.615  1.00  0.00     0.120 C 
BRANCH   3   4
HETATM    4  C13 UNL     1       2.984   7.974   8.854  1.00  0.00     0.112 C 
BRANCH   4   5
HETATM    5  C12 UNL     1       3.792   6.997   9.677  1.00  0.00     0.217 C 
HETATM    6  N2  UNL     1       4.365   7.544  10.805  1.00  0.00    -0.361 N 
HETATM    7  H22 UNL     1       4.465   8.549  10.837  1.00  0.00     0.162 HD
HETATM    8  O2  UNL     1       3.860   5.810   9.378  1.00  0.00    -0.274 OA
BRANCH   6   9
HETATM    9  C11 UNL     1       5.258   6.744  11.619  1.00  0.00     0.122 C 
BRANCH   9  10
HETATM   10  C10 UNL     1       6.730   7.107  11.431  1.00  0.00     0.020 C 
BRANCH  10  11
HETATM   11  C9  UNL     1       7.294   8.062  12.491  1.00  0.00     0.002 C 
BRANCH  11  12
HETATM   12  C8  UNL     1       7.039   7.624  13.937  1.00  0.00     0.009 C 
BRANCH  12  13
HETATM   13  C7  UNL     1       8.315   7.677  14.781  1.00  0.00     0.103 C 
BRANCH  13  14
HETATM   14  C6  UNL     1       9.508   8.227  14.018  1.00  0.00     0.218 C 
HETATM   15  N1  UNL     1       9.651   9.592  14.154  1.00  0.00    -0.346 N 
HETATM   16  H11 UNL     1       8.810  10.100  14.401  1.00  0.00     0.163 HD
HETATM   17  O1  UNL     1      10.253   7.534  13.335  1.00  0.00    -0.274 OA
BRANCH  15  18
HETATM   18  C5  UNL     1      10.605  10.327  13.316  1.00  0.00     0.186 C 
BRANCH  18  19
HETATM   19  C3  UNL     1      11.668  11.068  14.165  1.00  0.00     0.014 C 
HETATM   20  C4  UNL     1      11.214  11.285  15.615  1.00  0.00     0.012 C 
BRANCH  19  21
HETATM   21  C2  UNL     1      13.016  10.318  14.098  1.00  0.00     0.002 C 
HETATM   22  C1  UNL     1      13.825  10.630  12.846  1.00  0.00     0.005 C 
ENDBRANCH  19  21
ENDBRANCH  18  19
BRANCH  18  23
HETATM   23  C37 UNL     1       9.882  11.314  12.388  1.00  0.00     0.163 C 
HETATM   24  O8  UNL     1       9.294  12.328  12.730  1.00  0.00    -0.648 OA
BRANCH  23  25
HETATM   25  O9  UNL     1       9.872  10.941  11.088  1.00  0.00    -0.775 OA
HETATM   26  H56 UNL     1       9.372  11.664  10.649  1.00  0.00     0.167 HD
ENDBRANCH  23  25
ENDBRANCH  18  23
ENDBRANCH  15  18
ENDBRANCH  13  14
ENDBRANCH  12  13
ENDBRANCH  11  12
ENDBRANCH  10  11
ENDBRANCH   9  10
ENDBRANCH   6   9
ENDBRANCH   4   5
ENDBRANCH   3   4
ENDBRANCH   1   3
BRANCH   1  27
HETATM   27  O4  UNL     1       0.198   6.575  10.346  1.00  0.00    -0.314 OA
BRANCH  27  28
HETATM   28  C16 UNL     1       0.025   6.695  11.759  1.00  0.00     0.260 C 
BRANCH  28  29
HETATM   29  C17 UNL     1      -0.479   5.399  12.388  1.00  0.00     0.185 C 
HETATM   30  O5  UNL     1       0.224   4.808  13.213  1.00  0.00    -0.292 OA
BRANCH  29  31
HETATM   31  C18 UNL     1      -1.927   4.941  12.054  1.00  0.00     0.128 C 
HETATM   32  C19 UNL     1      -2.038   3.392  12.036  1.00  0.00     0.047 C 
HETATM   33  C20 UNL     1      -3.462   3.047  12.502  1.00  0.00     0.009 C 
HETATM   34  C21 UNL     1      -4.146   4.393  12.743  1.00  0.00     0.002 C 
HETATM   35  C22 UNL     1      -5.326   4.401  13.734  1.00  0.00    -0.004 C 
HETATM   36  C35 UNL     1      -2.993   5.345  13.129  1.00  0.00    -0.002 C 
HETATM   37  C23 UNL     1      -6.524   3.633  13.132  1.00  0.00     0.010 C 
HETATM   38  C32 UNL     1      -5.672   5.868  14.196  1.00  0.00     0.002 C 
HETATM   39  C24 UNL     1      -7.512   4.545  12.420  1.00  0.00     0.035 C 
HETATM   40  C25 UNL     1      -8.066   5.613  13.328  1.00  0.00    -0.068 C 
HETATM   41  C26 UNL     1      -9.277   6.143  13.069  1.00  0.00     0.053 C 
HETATM   42  C30 UNL     1      -7.203   6.069  14.502  1.00  0.00    -0.016 C 
HETATM   43  C27 UNL     1      -9.861   7.220  13.906  1.00  0.00     0.149 C 
HETATM   44  O7  UNL     1     -11.010   7.598  13.683  1.00  0.00    -0.293 OA
HETATM   45  C28 UNL     1      -9.033   7.799  15.030  1.00  0.00     0.084 C 
HETATM   46  C29 UNL     1      -7.542   7.558  14.797  1.00  0.00     0.022 C 
HETATM   47  C31 UNL     1      -7.562   5.246  15.771  1.00  0.00     0.020 C 
HETATM   48  C33 UNL     1      -5.051   6.915  13.236  1.00  0.00     0.007 C 
HETATM   49  C34 UNL     1      -3.524   6.790  13.046  1.00  0.00     0.013 C 
HETATM   50  C36 UNL     1      -2.448   5.075  14.560  1.00  0.00     0.019 C 
BRANCH  31  51
HETATM   51  O6  UNL     1      -2.350   5.358  10.751  1.00  0.00    -0.381 OA
HETATM   52  H29 UNL     1      -1.945   6.227  10.567  1.00  0.00     0.211 HD
ENDBRANCH  31  51
ENDBRANCH  29  31
ENDBRANCH  28  29
ENDBRANCH  27  28
ENDBRANCH   1  27
TORSDOF 19
ENDMDL
MODEL 5
REMARK minimizedAffinity -8.42587757
REMARK CNNscore 0.376145899
REMARK CNNaffinity 7.14842796
REMARK  19 active torsions:
REMARK  status: ('A' for Active; 'I' for Inactive)
REMARK    1  A    between atoms: C2_2  and  C3_3 
REMARK    2  A    between atoms: C3_3  and  C5_5 
REMARK    3  A    between atoms: C5_5  and  N1_6 
REMARK    4  A    between atoms: C5_5  and  C37_46 
REMARK       I    between atoms: N1_6  and  C6_7 
REMARK    5  A    between atoms: C6_7  and  C7_9 
REMARK    6  A    between atoms: C7_9  and  C8_10 
REMARK    7  A    between atoms: C8_10  and  C9_11 
REMARK    8  A    between atoms: C9_11  and  C10_12 
REMARK    9  A    between atoms: C10_12  and  C11_13 
REMARK   10  A    between atoms: C11_13  and  N2_14 
REMARK       I    between atoms: N2_14  and  C12_15 
REMARK   11  A    between atoms: C12_15  and  C13_17 
REMARK   12  A    between atoms: C13_17  and  C14_18 
REMARK   13  A    between atoms: C14_18  and  C15_19 
REMARK   14  A    between atoms: C15_19  and  O4_21 
REMARK   15  A    between atoms: O4_21  and  C16_22 
REMARK   16  A    between atoms: C16_22  and  C17_23 
REMARK   17  A    between atoms: C17_23  and  C18_25 
REMARK   18  A    between atoms: C18_25  and  O6_26 
REMARK   19  A    between atoms: C37_46  and  O9_48 
ROOT
HETATM    1  C15 UNL     1       1.874   6.190  10.518  1.00  0.00     0.259 C 
HETATM    2  O3  UNL     1       1.940   5.122   9.924  1.00  0.00    -0.265 OA
ENDROOT
BRANCH   1   3
HETATM    3  C14 UNL     1       3.046   6.819  11.234  1.00  0.00     0.120 C 
BRANCH   3   4
HETATM    4  C13 UNL     1       4.271   7.014  10.353  1.00  0.00     0.112 C 
BRANCH   4   5
HETATM    5  C12 UNL     1       5.540   6.851  11.157  1.00  0.00     0.217 C 
HETATM    6  N2  UNL     1       5.364   6.956  12.519  1.00  0.00    -0.361 N 
HETATM    7  H22 UNL     1       4.526   7.413  12.848  1.00  0.00     0.162 HD
HETATM    8  O2  UNL     1       6.609   6.583  10.620  1.00  0.00    -0.274 OA
BRANCH   6   9
HETATM    9  C11 UNL     1       6.517   6.933  13.398  1.00  0.00     0.122 C 
BRANCH   9  10
HETATM   10  C10 UNL     1       6.973   8.326  13.829  1.00  0.00     0.020 C 
BRANCH  10  11
HETATM   11  C9  UNL     1       7.116   8.511  15.345  1.00  0.00     0.002 C 
BRANCH  11  12
HETATM   12  C8  UNL     1       8.519   8.222  15.888  1.00  0.00     0.009 C 
BRANCH  12  13
HETATM   13  C7  UNL     1       9.334   9.506  16.069  1.00  0.00     0.103 C 
BRANCH  13  14
HETATM   14  C6  UNL     1       9.111  10.164  17.420  1.00  0.00     0.218 C 
HETATM   15  N1  UNL     1      10.105  11.061  17.753  1.00  0.00    -0.346 N 
HETATM   16  H11 UNL     1      10.998  10.918  17.295  1.00  0.00     0.163 HD
HETATM   17  O1  UNL     1       8.158   9.910  18.148  1.00  0.00    -0.274 OA
BRANCH  15  18
HETATM   18  C5  UNL     1      10.178  11.621  19.107  1.00  0.00     0.186 C 
BRANCH  18  19
HETATM   19  C3  UNL     1       9.863  13.138  19.121  1.00  0.00     0.014 C 
HETATM   20  C4  UNL     1       8.624  13.488  18.285  1.00  0.00     0.012 C 
BRANCH  19  21
HETATM   21  C2  UNL     1       9.728  13.638  20.575  1.00  0.00     0.002 C 
HETATM   22  C1  UNL     1       8.492  14.494  20.813  1.00  0.00     0.005 C 
ENDBRANCH  19  21
ENDBRANCH  18  19
BRANCH  18  23
HETATM   23  C37 UNL     1      11.550  11.356  19.744  1.00  0.00     0.163 C 
HETATM   24  O8  UNL     1      12.166  12.117  20.474  1.00  0.00    -0.648 OA
BRANCH  23  25
HETATM   25  O9  UNL     1      12.109  10.181  19.377  1.00  0.00    -0.775 OA
HETATM   26  H56 UNL     1      12.966  10.179  19.857  1.00  0.00     0.167 HD
ENDBRANCH  23  25
ENDBRANCH  18  23
ENDBRANCH  15  18
ENDBRANCH  13  14
ENDBRANCH  12  13
ENDBRANCH  11  12
ENDBRANCH  10  11
ENDBRANCH   9  10
ENDBRANCH   6   9
ENDBRANCH   4   5
ENDBRANCH   3   4
ENDBRANCH   1   3
BRANCH   1  27
HETATM   27  O4  UNL     1       0.735   6.919  10.682  1.00  0.00    -0.314 OA
BRANCH  27  28
HETATM   28  C16 UNL     1       0.382   7.132  12.050  1.00  0.00     0.260 C 
BRANCH  28  29
HETATM   29  C17 UNL     1      -0.171   5.869  12.704  1.00  0.00     0.185 C 
HETATM   30  O5  UNL     1       0.418   5.373  13.668  1.00  0.00    -0.292 OA
BRANCH  29  31
HETATM   31  C18 UNL     1      -1.541   5.327  12.201  1.00  0.00     0.128 C 
HETATM   32  C19 UNL     1      -1.513   3.783  12.047  1.00  0.00     0.047 C 
HETATM   33  C20 UNL     1      -2.936   3.284  12.351  1.00  0.00     0.009 C 
HETATM   34  C21 UNL     1      -3.753   4.544  12.636  1.00  0.00     0.002 C 
HETATM   35  C22 UNL     1      -5.009   4.369  13.511  1.00  0.00    -0.004 C 
HETATM   36  C35 UNL     1      -2.725   5.547  13.203  1.00  0.00    -0.002 C 
HETATM   37  C23 UNL     1      -6.080   3.564  12.741  1.00  0.00     0.010 C 
HETATM   38  C32 UNL     1      -5.521   5.757  14.058  1.00  0.00     0.002 C 
HETATM   39  C24 UNL     1      -7.080   4.453  12.018  1.00  0.00     0.035 C 
HETATM   40  C25 UNL     1      -7.801   5.388  12.955  1.00  0.00    -0.068 C 
HETATM   41  C26 UNL     1      -9.027   5.840  12.630  1.00  0.00     0.053 C 
HETATM   42  C30 UNL     1      -7.084   5.805  14.236  1.00  0.00    -0.016 C 
HETATM   43  C27 UNL     1      -9.772   6.789  13.494  1.00  0.00     0.149 C 
HETATM   44  O7  UNL     1     -10.927   7.091  13.197  1.00  0.00    -0.293 OA
HETATM   45  C28 UNL     1      -9.097   7.329  14.733  1.00  0.00     0.084 C 
HETATM   46  C29 UNL     1      -7.577   7.231  14.620  1.00  0.00     0.022 C 
HETATM   47  C31 UNL     1      -7.476   4.847  15.396  1.00  0.00     0.020 C 
HETATM   48  C33 UNL     1      -4.915   6.932  13.247  1.00  0.00     0.007 C 
HETATM   49  C34 UNL     1      -3.372   6.947  13.190  1.00  0.00     0.013 C 
HETATM   50  C36 UNL     1      -2.282   5.196  14.651  1.00  0.00     0.019 C 
BRANCH  31  51
HETATM   51  O6  UNL     1      -1.886   5.824  10.904  1.00  0.00    -0.381 OA
HETATM   52  H29 UNL     1      -1.545   6.735  10.829  1.00  0.00     0.211 HD
ENDBRANCH  31  51
ENDBRANCH  29  31
ENDBRANCH  28  29
ENDBRANCH  27  28
ENDBRANCH   1  27
TORSDOF 19
ENDMDL
MODEL 6
REMARK minimizedAffinity -7.63717222
REMARK CNNscore 0.358663917
REMARK CNNaffinity 7.59885216
REMARK  19 active torsions:
REMARK  status: ('A' for Active; 'I' for Inactive)
REMARK    1  A    between atoms: C2_2  and  C3_3 
REMARK    2  A    between atoms: C3_3  and  C5_5 
REMARK    3  A    between atoms: C5_5  and  N1_6 
REMARK    4  A    between atoms: C5_5  and  C37_46 
REMARK       I    between atoms: N1_6  and  C6_7 
REMARK    5  A    between atoms: C6_7  and  C7_9 
REMARK    6  A    between atoms: C7_9  and  C8_10 
REMARK    7  A    between atoms: C8_10  and  C9_11 
REMARK    8  A    between atoms: C9_11  and  C10_12 
REMARK    9  A    between atoms: C10_12  and  C11_13 
REMARK   10  A    between atoms: C11_13  and  N2_14 
REMARK       I    between atoms: N2_14  and  C12_15 
REMARK   11  A    between atoms: C12_15  and  C13_17 
REMARK   12  A    between atoms: C13_17  and  C14_18 
REMARK   13  A    between atoms: C14_18  and  C15_19 
REMARK   14  A    between atoms: C15_19  and  O4_21 
REMARK   15  A    between atoms: O4_21  and  C16_22 
REMARK   16  A    between atoms: C16_22  and  C17_23 
REMARK   17  A    between atoms: C17_23  and  C18_25 
REMARK   18  A    between atoms: C18_25  and  O6_26 
REMARK   19  A    between atoms: C37_46  and  O9_48 
ROOT
HETATM    1  C15 UNL     1     -16.236   7.463  14.715  1.00  0.00     0.259 C 
HETATM    2  O3  UNL     1     -17.088   7.872  13.937  1.00  0.00    -0.265 OA
ENDROOT
BRANCH   1   3
HETATM    3  C14 UNL     1     -16.284   6.100  15.364  1.00  0.00     0.120 C 
BRANCH   3   4
HETATM    4  C13 UNL     1     -15.348   5.084  14.728  1.00  0.00     0.112 C 
BRANCH   4   5
HETATM    5  C12 UNL     1     -15.894   3.683  14.883  1.00  0.00     0.217 C 
HETATM    6  N2  UNL     1     -14.952   2.689  14.735  1.00  0.00    -0.361 N 
HETATM    7  H22 UNL     1     -14.095   2.925  14.257  1.00  0.00     0.162 HD
HETATM    8  O2  UNL     1     -17.066   3.482  15.181  1.00  0.00    -0.274 OA
BRANCH   6   9
HETATM    9  C11 UNL     1     -15.365   1.299  14.747  1.00  0.00     0.122 C 
BRANCH   9  10
HETATM   10  C10 UNL     1     -15.775   0.782  13.369  1.00  0.00     0.020 C 
BRANCH  10  11
HETATM   11  C9  UNL     1     -16.018  -0.731  13.300  1.00  0.00     0.002 C 
BRANCH  11  12
HETATM   12  C8  UNL     1     -16.948  -1.173  12.167  1.00  0.00     0.009 C 
BRANCH  12  13
HETATM   13  C7  UNL     1     -16.274  -2.187  11.239  1.00  0.00     0.103 C 
BRANCH  13  14
HETATM   14  C6  UNL     1     -14.864  -2.546  11.678  1.00  0.00     0.218 C 
HETATM   15  N1  UNL     1     -14.836  -3.535  12.640  1.00  0.00    -0.346 N 
HETATM   16  H11 UNL     1     -15.681  -3.639  13.189  1.00  0.00     0.163 HD
HETATM   17  O1  UNL     1     -13.859  -2.000  11.240  1.00  0.00    -0.274 OA
BRANCH  15  18
HETATM   18  C5  UNL     1     -13.587  -3.853  13.343  1.00  0.00     0.186 C 
BRANCH  18  19
HETATM   19  C3  UNL     1     -13.066  -5.267  12.982  1.00  0.00     0.014 C 
HETATM   20  C4  UNL     1     -12.274  -5.911  14.128  1.00  0.00     0.012 C 
BRANCH  19  21
HETATM   21  C2  UNL     1     -14.239  -6.163  12.527  1.00  0.00     0.002 C 
HETATM   22  C1  UNL     1     -14.626  -7.223  13.548  1.00  0.00     0.005 C 
ENDBRANCH  19  21
ENDBRANCH  18  19
BRANCH  18  23
HETATM   23  C37 UNL     1     -13.757  -3.719  14.863  1.00  0.00     0.163 C 
HETATM   24  O8  UNL     1     -14.559  -4.325  15.556  1.00  0.00    -0.648 OA
BRANCH  23  25
HETATM   25  O9  UNL     1     -12.963  -2.780  15.424  1.00  0.00    -0.775 OA
HETATM   26  H56 UNL     1     -13.203  -2.820  16.376  1.00  0.00     0.167 HD
ENDBRANCH  23  25
ENDBRANCH  18  23
ENDBRANCH  15  18
ENDBRANCH  13  14
ENDBRANCH  12  13
ENDBRANCH  11  12
ENDBRANCH  10  11
ENDBRANCH   9  10
ENDBRANCH   6   9
ENDBRANCH   4   5
ENDBRANCH   3   4
ENDBRANCH   1   3
BRANCH   1  27
HETATM   27  O4  UNL     1     -15.175   8.194  15.158  1.00  0.00    -0.314 OA
BRANCH  27  28
HETATM   28  C16 UNL     1     -14.795   9.249  14.274  1.00  0.00     0.260 C 
BRANCH  28  29
HETATM   29  C17 UNL     1     -13.719   8.812  13.285  1.00  0.00     0.185 C 
HETATM   30  O5  UNL     1     -14.047   8.386  12.174  1.00  0.00    -0.292 OA
BRANCH  29  31
HETATM   31  C18 UNL     1     -12.231   9.044  13.677  1.00  0.00     0.128 C 
HETATM   32  C19 UNL     1     -12.113   9.669  15.094  1.00  0.00     0.047 C 
HETATM   33  C20 UNL     1     -10.802   9.141  15.700  1.00  0.00     0.009 C 
HETATM   34  C21 UNL     1     -10.182   8.259  14.616  1.00  0.00     0.002 C 
HETATM   35  C22 UNL     1      -9.212   7.161  15.092  1.00  0.00    -0.004 C 
HETATM   36  C35 UNL     1     -11.391   7.729  13.816  1.00  0.00    -0.002 C 
HETATM   37  C23 UNL     1      -7.918   7.802  15.642  1.00  0.00     0.010 C 
HETATM   38  C32 UNL     1      -8.966   6.090  13.961  1.00  0.00     0.002 C 
HETATM   39  C24 UNL     1      -6.816   7.897  14.597  1.00  0.00     0.035 C 
HETATM   40  C25 UNL     1      -6.449   6.552  14.024  1.00  0.00    -0.068 C 
HETATM   41  C26 UNL     1      -5.214   6.357  13.527  1.00  0.00     0.053 C 
HETATM   42  C30 UNL     1      -7.521   5.466  14.013  1.00  0.00    -0.016 C 
HETATM   43  C27 UNL     1      -4.803   5.067  12.918  1.00  0.00     0.149 C 
HETATM   44  O7  UNL     1      -3.634   4.912  12.569  1.00  0.00    -0.293 OA
HETATM   45  C28 UNL     1      -5.832   3.969  12.777  1.00  0.00     0.084 C 
HETATM   46  C29 UNL     1      -7.250   4.537  12.795  1.00  0.00     0.022 C 
HETATM   47  C31 UNL     1      -7.407   4.598  15.298  1.00  0.00     0.020 C 
HETATM   48  C33 UNL     1      -9.397   6.635  12.575  1.00  0.00     0.007 C 
HETATM   49  C34 UNL     1     -10.860   7.123  12.501  1.00  0.00     0.013 C 
HETATM   50  C36 UNL     1     -12.197   6.650  14.593  1.00  0.00     0.019 C 
BRANCH  31  51
HETATM   51  O6  UNL     1     -11.570   9.969  12.807  1.00  0.00    -0.381 OA
HETATM   52  H29 UNL     1     -11.936   9.852  11.910  1.00  0.00     0.211 HD
ENDBRANCH  31  51
ENDBRANCH  29  31
ENDBRANCH  28  29
ENDBRANCH  27  28
ENDBRANCH   1  27
TORSDOF 19
ENDMDL
MODEL 7
REMARK minimizedAffinity -8.06961155
REMARK CNNscore 0.346649528
REMARK CNNaffinity 7.11755133
REMARK  19 active torsions:
REMARK  status: ('A' for Active; 'I' for Inactive)
REMARK    1  A    between atoms: C2_2  and  C3_3 
REMARK    2  A    between atoms: C3_3  and  C5_5 
REMARK    3  A    between atoms: C5_5  and  N1_6 
REMARK    4  A    between atoms: C5_5  and  C37_46 
REMARK       I    between atoms: N1_6  and  C6_7 
REMARK    5  A    between atoms: C6_7  and  C7_9 
REMARK    6  A    between atoms: C7_9  and  C8_10 
REMARK    7  A    between atoms: C8_10  and  C9_11 
REMARK    8  A    between atoms: C9_11  and  C10_12 
REMARK    9  A    between atoms: C10_12  and  C11_13 
REMARK   10  A    between atoms: C11_13  and  N2_14 
REMARK       I    between atoms: N2_14  and  C12_15 
REMARK   11  A    between atoms: C12_15  and  C13_17 
REMARK   12  A    between atoms: C13_17  and  C14_18 
REMARK   13  A    between atoms: C14_18  and  C15_19 
REMARK   14  A    between atoms: C15_19  and  O4_21 
REMARK   15  A    between atoms: O4_21  and  C16_22 
REMARK   16  A    between atoms: C16_22  and  C17_23 
REMARK   17  A    between atoms: C17_23  and  C18_25 
REMARK   18  A    between atoms: C18_25  and  O6_26 
REMARK   19  A    between atoms: C37_46  and  O9_48 
ROOT
HETATM    1  C15 UNL     1      -7.747   4.014  13.022  1.00  0.00     0.259 C 
HETATM    2  O3  UNL     1      -8.549   3.102  12.879  1.00  0.00    -0.265 OA
ENDROOT
BRANCH   1   3
HETATM    3  C14 UNL     1      -6.448   4.112  12.255  1.00  0.00     0.120 C 
BRANCH   3   4
HETATM    4  C13 UNL     1      -5.877   2.764  11.843  1.00  0.00     0.112 C 
BRANCH   4   5
HETATM    5  C12 UNL     1      -4.371   2.833  11.734  1.00  0.00     0.217 C 
HETATM    6  N2  UNL     1      -3.850   4.101  11.867  1.00  0.00    -0.361 N 
HETATM    7  H22 UNL     1      -4.476   4.880  11.722  1.00  0.00     0.162 HD
HETATM    8  O2  UNL     1      -3.691   1.820  11.604  1.00  0.00    -0.274 OA
BRANCH   6   9
HETATM    9  C11 UNL     1      -2.431   4.322  11.669  1.00  0.00     0.122 C 
BRANCH   9  10
HETATM   10  C10 UNL     1      -1.785   5.128  12.795  1.00  0.00     0.020 C 
BRANCH  10  11
HETATM   11  C9  UNL     1      -0.460   5.803  12.419  1.00  0.00     0.002 C 
BRANCH  11  12
HETATM   12  C8  UNL     1       0.642   5.668  13.475  1.00  0.00     0.009 C 
BRANCH  12  13
HETATM   13  C7  UNL     1       1.488   6.939  13.581  1.00  0.00     0.103 C 
BRANCH  13  14
HETATM   14  C6  UNL     1       2.037   7.399  12.240  1.00  0.00     0.218 C 
HETATM   15  N1  UNL     1       3.073   6.610  11.784  1.00  0.00    -0.346 N 
HETATM   16  H11 UNL     1       3.578   6.093  12.494  1.00  0.00     0.163 HD
HETATM   17  O1  UNL     1       1.617   8.379  11.637  1.00  0.00    -0.274 OA
BRANCH  15  18
HETATM   18  C5  UNL     1       3.871   7.028  10.626  1.00  0.00     0.186 C 
BRANCH  18  19
HETATM   19  C3  UNL     1       3.550   6.182   9.369  1.00  0.00     0.014 C 
HETATM   20  C4  UNL     1       3.099   4.757   9.718  1.00  0.00     0.012 C 
BRANCH  19  21
HETATM   21  C2  UNL     1       2.506   6.910   8.493  1.00  0.00     0.002 C 
HETATM   22  C1  UNL     1       2.908   8.330   8.120  1.00  0.00     0.005 C 
ENDBRANCH  19  21
ENDBRANCH  18  19
BRANCH  18  23
HETATM   23  C37 UNL     1       5.373   6.971  10.938  1.00  0.00     0.163 C 
HETATM   24  O8  UNL     1       6.127   6.042  10.691  1.00  0.00    -0.648 OA
BRANCH  23  25
HETATM   25  O9  UNL     1       5.838   8.049  11.608  1.00  0.00    -0.775 OA
HETATM   26  H56 UNL     1       6.791   7.846  11.731  1.00  0.00     0.167 HD
ENDBRANCH  23  25
ENDBRANCH  18  23
ENDBRANCH  15  18
ENDBRANCH  13  14
ENDBRANCH  12  13
ENDBRANCH  11  12
ENDBRANCH  10  11
ENDBRANCH   9  10
ENDBRANCH   6   9
ENDBRANCH   4   5
ENDBRANCH   3   4
ENDBRANCH   1   3
BRANCH   1  27
HETATM   27  O4  UNL     1      -7.869   5.022  13.932  1.00  0.00    -0.314 OA
BRANCH  27  28
HETATM   28  C16 UNL     1      -8.897   5.961  13.612  1.00  0.00     0.260 C 
BRANCH  28  29
HETATM   29  C17 UNL     1      -8.798   7.230  14.453  1.00  0.00     0.185 C 
HETATM   30  O5  UNL     1      -7.689   7.710  14.706  1.00  0.00    -0.292 OA
BRANCH  29  31
HETATM   31  C18 UNL     1     -10.121   7.945  14.852  1.00  0.00     0.128 C 
HETATM   32  C19 UNL     1     -10.003   9.484  14.686  1.00  0.00     0.047 C 
HETATM   33  C20 UNL     1     -11.402   9.995  14.306  1.00  0.00     0.009 C 
HETATM   34  C21 UNL     1     -12.296   8.755  14.296  1.00  0.00     0.002 C 
HETATM   35  C22 UNL     1     -13.563   8.824  13.421  1.00  0.00    -0.004 C 
HETATM   36  C35 UNL     1     -11.341   7.598  13.933  1.00  0.00    -0.002 C 
HETATM   37  C23 UNL     1     -14.566   9.833  14.023  1.00  0.00     0.010 C 
HETATM   38  C32 UNL     1     -14.165   7.388  13.177  1.00  0.00     0.002 C 
HETATM   39  C24 UNL     1     -15.596   9.171  14.927  1.00  0.00     0.035 C 
HETATM   40  C25 UNL     1     -16.392   8.110  14.211  1.00  0.00    -0.068 C 
HETATM   41  C26 UNL     1     -17.633   7.809  14.639  1.00  0.00     0.053 C 
HETATM   42  C30 UNL     1     -15.733   7.398  13.033  1.00  0.00    -0.016 C 
HETATM   43  C27 UNL     1     -18.453   6.751  13.998  1.00  0.00     0.149 C 
HETATM   44  O7  UNL     1     -19.614   6.586  14.365  1.00  0.00    -0.293 OA
HETATM   45  C28 UNL     1     -17.841   5.930  12.887  1.00  0.00     0.084 C 
HETATM   46  C29 UNL     1     -16.315   5.957  12.957  1.00  0.00     0.022 C 
HETATM   47  C31 UNL     1     -16.099   8.122  11.707  1.00  0.00     0.020 C 
HETATM   48  C33 UNL     1     -13.606   6.368  14.203  1.00  0.00     0.007 C 
HETATM   49  C34 UNL     1     -12.066   6.272  14.241  1.00  0.00     0.013 C 
HETATM   50  C36 UNL     1     -10.916   7.618  12.438  1.00  0.00     0.019 C 
BRANCH  31  51
HETATM   51  O6  UNL     1     -10.461   7.745  16.229  1.00  0.00    -0.381 OA
HETATM   52  H29 UNL     1     -10.170   6.850  16.484  1.00  0.00     0.211 HD
ENDBRANCH  31  51
ENDBRANCH  29  31
ENDBRANCH  28  29
ENDBRANCH  27  28
ENDBRANCH   1  27
TORSDOF 19
ENDMDL
MODEL 8
REMARK minimizedAffinity -8.28919506
REMARK CNNscore 0.337582856
REMARK CNNaffinity 6.81849813
REMARK  19 active torsions:
REMARK  status: ('A' for Active; 'I' for Inactive)
REMARK    1  A    between atoms: C2_2  and  C3_3 
REMARK    2  A    between atoms: C3_3  and  C5_5 
REMARK    3  A    between atoms: C5_5  and  N1_6 
REMARK    4  A    between atoms: C5_5  and  C37_46 
REMARK       I    between atoms: N1_6  and  C6_7 
REMARK    5  A    between atoms: C6_7  and  C7_9 
REMARK    6  A    between atoms: C7_9  and  C8_10 
REMARK    7  A    between atoms: C8_10  and  C9_11 
REMARK    8  A    between atoms: C9_11  and  C10_12 
REMARK    9  A    between atoms: C10_12  and  C11_13 
REMARK   10  A    between atoms: C11_13  and  N2_14 
REMARK       I    between atoms: N2_14  and  C12_15 
REMARK   11  A    between atoms: C12_15  and  C13_17 
REMARK   12  A    between atoms: C13_17  and  C14_18 
REMARK   13  A    between atoms: C14_18  and  C15_19 
REMARK   14  A    between atoms: C15_19  and  O4_21 
REMARK   15  A    between atoms: O4_21  and  C16_22 
REMARK   16  A    between atoms: C16_22  and  C17_23 
REMARK   17  A    between atoms: C17_23  and  C18_25 
REMARK   18  A    between atoms: C18_25  and  O6_26 
REMARK   19  A    between atoms: C37_46  and  O9_48 
ROOT
HETATM    1  C15 UNL     1       5.738   6.836  11.011  1.00  0.00     0.259 C 
HETATM    2  O3  UNL     1       6.081   5.725  10.629  1.00  0.00    -0.265 OA
ENDROOT
BRANCH   1   3
HETATM    3  C14 UNL     1       6.602   7.724  11.875  1.00  0.00     0.120 C 
BRANCH   3   4
HETATM    4  C13 UNL     1       6.845   7.172  13.272  1.00  0.00     0.112 C 
BRANCH   4   5
HETATM    5  C12 UNL     1       7.946   7.941  13.966  1.00  0.00     0.217 C 
HETATM    6  N2  UNL     1       8.050   7.686  15.316  1.00  0.00    -0.361 N 
HETATM    7  H22 UNL     1       7.248   7.281  15.777  1.00  0.00     0.162 HD
HETATM    8  O2  UNL     1       8.709   8.670  13.343  1.00  0.00    -0.274 OA
BRANCH   6   9
HETATM    9  C11 UNL     1       8.989   8.442  16.122  1.00  0.00     0.122 C 
BRANCH   9  10
HETATM   10  C10 UNL     1       8.347   9.630  16.838  1.00  0.00     0.020 C 
BRANCH  10  11
HETATM   11  C9  UNL     1       9.293  10.404  17.764  1.00  0.00     0.002 C 
BRANCH  11  12
HETATM   12  C8  UNL     1       8.910  11.872  17.977  1.00  0.00     0.009 C 
BRANCH  12  13
HETATM   13  C7  UNL     1       9.711  12.510  19.115  1.00  0.00     0.103 C 
BRANCH  13  14
HETATM   14  C6  UNL     1       9.212  12.104  20.491  1.00  0.00     0.218 C 
HETATM   15  N1  UNL     1       7.948  12.582  20.768  1.00  0.00    -0.346 N 
HETATM   16  H11 UNL     1       7.662  13.400  20.243  1.00  0.00     0.163 HD
HETATM   17  O1  UNL     1       9.872  11.439  21.282  1.00  0.00    -0.274 OA
BRANCH  15  18
HETATM   18  C5  UNL     1       7.395  12.482  22.124  1.00  0.00     0.186 C 
BRANCH  18  19
HETATM   19  C3  UNL     1       5.849  12.393  22.111  1.00  0.00     0.014 C 
HETATM   20  C4  UNL     1       5.280  12.244  20.693  1.00  0.00     0.012 C 
BRANCH  19  21
HETATM   21  C2  UNL     1       5.377  11.249  23.035  1.00  0.00     0.002 C 
HETATM   22  C1  UNL     1       4.330  10.345  22.400  1.00  0.00     0.005 C 
ENDBRANCH  19  21
ENDBRANCH  18  19
BRANCH  18  23
HETATM   23  C37 UNL     1       7.854  13.658  22.998  1.00  0.00     0.163 C 
HETATM   24  O8  UNL     1       8.820  13.668  23.745  1.00  0.00    -0.648 OA
BRANCH  23  25
HETATM   25  O9  UNL     1       7.037  14.734  22.944  1.00  0.00    -0.775 OA
HETATM   26  H56 UNL     1       7.465  15.373  23.556  1.00  0.00     0.167 HD
ENDBRANCH  23  25
ENDBRANCH  18  23
ENDBRANCH  15  18
ENDBRANCH  13  14
ENDBRANCH  12  13
ENDBRANCH  11  12
ENDBRANCH  10  11
ENDBRANCH   9  10
ENDBRANCH   6   9
ENDBRANCH   4   5
ENDBRANCH   3   4
ENDBRANCH   1   3
BRANCH   1  27
HETATM   27  O4  UNL     1       4.518   7.396  10.777  1.00  0.00    -0.314 OA
BRANCH  27  28
HETATM   28  C16 UNL     1       3.426   6.615  11.264  1.00  0.00     0.260 C 
BRANCH  28  29
HETATM   29  C17 UNL     1       2.126   7.414  11.316  1.00  0.00     0.185 C 
HETATM   30  O5  UNL     1       2.167   8.647  11.295  1.00  0.00    -0.292 OA
BRANCH  29  31
HETATM   31  C18 UNL     1       0.785   6.627  11.264  1.00  0.00     0.128 C 
HETATM   32  C19 UNL     1       1.028   5.095  11.323  1.00  0.00     0.047 C 
HETATM   33  C20 UNL     1      -0.181   4.484  12.050  1.00  0.00     0.009 C 
HETATM   34  C21 UNL     1      -1.104   5.664  12.360  1.00  0.00     0.002 C 
HETATM   35  C22 UNL     1      -2.072   5.489  13.547  1.00  0.00    -0.004 C 
HETATM   36  C35 UNL     1      -0.149   6.870  12.498  1.00  0.00    -0.002 C 
HETATM   37  C23 UNL     1      -3.147   4.435  13.199  1.00  0.00     0.010 C 
HETATM   38  C32 UNL     1      -2.660   6.876  14.010  1.00  0.00     0.002 C 
HETATM   39  C24 UNL     1      -4.421   5.054  12.643  1.00  0.00     0.035 C 
HETATM   40  C25 UNL     1      -5.044   6.042  13.597  1.00  0.00    -0.068 C 
HETATM   41  C26 UNL     1      -6.369   6.274  13.541  1.00  0.00     0.053 C 
HETATM   42  C30 UNL     1      -4.124   6.761  14.579  1.00  0.00    -0.016 C 
HETATM   43  C27 UNL     1      -7.035   7.259  14.429  1.00  0.00     0.149 C 
HETATM   44  O7  UNL     1      -8.261   7.359  14.403  1.00  0.00    -0.293 OA
HETATM   45  C28 UNL     1      -6.185   8.087  15.365  1.00  0.00     0.084 C 
HETATM   46  C29 UNL     1      -4.739   8.159  14.877  1.00  0.00     0.022 C 
HETATM   47  C31 UNL     1      -4.069   5.978  15.921  1.00  0.00     0.020 C 
HETATM   48  C33 UNL     1      -2.463   7.958  12.917  1.00  0.00     0.007 C 
HETATM   49  C34 UNL     1      -1.001   8.154  12.461  1.00  0.00     0.013 C 
HETATM   50  C36 UNL     1       0.674   6.834  13.817  1.00  0.00     0.019 C 
BRANCH  31  51
HETATM   51  O6  UNL     1       0.067   6.843  10.045  1.00  0.00    -0.381 OA
HETATM   52  H29 UNL     1       0.227   7.762   9.760  1.00  0.00     0.211 HD
ENDBRANCH  31  51
ENDBRANCH  29  31
ENDBRANCH  28  29
ENDBRANCH  27  28
ENDBRANCH   1  27
TORSDOF 19
ENDMDL
MODEL 9
REMARK minimizedAffinity -8.29957294
REMARK CNNscore 0.32682845
REMARK CNNaffinity 6.87583399
REMARK  19 active torsions:
REMARK  status: ('A' for Active; 'I' for Inactive)
REMARK    1  A    between atoms: C2_2  and  C3_3 
REMARK    2  A    between atoms: C3_3  and  C5_5 
REMARK    3  A    between atoms: C5_5  and  N1_6 
REMARK    4  A    between atoms: C5_5  and  C37_46 
REMARK       I    between atoms: N1_6  and  C6_7 
REMARK    5  A    between atoms: C6_7  and  C7_9 
REMARK    6  A    between atoms: C7_9  and  C8_10 
REMARK    7  A    between atoms: C8_10  and  C9_11 
REMARK    8  A    between atoms: C9_11  and  C10_12 
REMARK    9  A    between atoms: C10_12  and  C11_13 
REMARK   10  A    between atoms: C11_13  and  N2_14 
REMARK       I    between atoms: N2_14  and  C12_15 
REMARK   11  A    between atoms: C12_15  and  C13_17 
REMARK   12  A    between atoms: C13_17  and  C14_18 
REMARK   13  A    between atoms: C14_18  and  C15_19 
REMARK   14  A    between atoms: C15_19  and  O4_21 
REMARK   15  A    between atoms: O4_21  and  C16_22 
REMARK   16  A    between atoms: C16_22  and  C17_23 
REMARK   17  A    between atoms: C17_23  and  C18_25 
REMARK   18  A    between atoms: C18_25  and  O6_26 
REMARK   19  A    between atoms: C37_46  and  O9_48 
ROOT
HETATM    1  C15 UNL     1       1.146  12.035  18.221  1.00  0.00     0.259 C 
HETATM    2  O3  UNL     1       2.300  12.100  17.819  1.00  0.00    -0.265 OA
ENDROOT
BRANCH   1   3
HETATM    3  C14 UNL     1       0.767  12.093  19.683  1.00  0.00     0.120 C 
BRANCH   3   4
HETATM    4  C13 UNL     1       0.897  10.760  20.404  1.00  0.00     0.112 C 
BRANCH   4   5
HETATM    5  C12 UNL     1       2.349  10.439  20.676  1.00  0.00     0.217 C 
HETATM    6  N2  UNL     1       3.108  11.525  21.054  1.00  0.00    -0.361 N 
HETATM    7  H22 UNL     1       2.751  12.443  20.833  1.00  0.00     0.162 HD
HETATM    8  O2  UNL     1       2.772   9.289  20.623  1.00  0.00    -0.274 OA
BRANCH   6   9
HETATM    9  C11 UNL     1       4.539  11.376  21.234  1.00  0.00     0.122 C 
BRANCH   9  10
HETATM   10  C10 UNL     1       4.948  11.225  22.698  1.00  0.00     0.020 C 
BRANCH  10  11
HETATM   11  C9  UNL     1       6.119  12.117  23.130  1.00  0.00     0.002 C 
BRANCH  11  12
HETATM   12  C8  UNL     1       7.272  12.180  22.124  1.00  0.00     0.009 C 
BRANCH  12  13
HETATM   13  C7  UNL     1       8.513  12.848  22.721  1.00  0.00     0.103 C 
BRANCH  13  14
HETATM   14  C6  UNL     1       9.483  13.347  21.664  1.00  0.00     0.218 C 
HETATM   15  N1  UNL     1       9.771  12.397  20.706  1.00  0.00    -0.346 N 
HETATM   16  H11 UNL     1       9.633  11.433  20.987  1.00  0.00     0.163 HD
HETATM   17  O1  UNL     1       9.975  14.470  21.672  1.00  0.00    -0.274 OA
BRANCH  15  18
HETATM   18  C5  UNL     1      10.853  12.620  19.739  1.00  0.00     0.186 C 
BRANCH  18  19
HETATM   19  C3  UNL     1      10.423  12.250  18.298  1.00  0.00     0.014 C 
HETATM   20  C4  UNL     1      11.610  12.196  17.326  1.00  0.00     0.012 C 
BRANCH  19  21
HETATM   21  C2  UNL     1       9.633  10.923  18.305  1.00  0.00     0.002 C 
HETATM   22  C1  UNL     1       8.178  11.079  17.885  1.00  0.00     0.005 C 
ENDBRANCH  19  21
ENDBRANCH  18  19
BRANCH  18  23
HETATM   23  C37 UNL     1      12.118  11.845  20.134  1.00  0.00     0.163 C 
HETATM   24  O8  UNL     1      13.217  12.325  20.362  1.00  0.00    -0.648 OA
BRANCH  23  25
HETATM   25  O9  UNL     1      11.957  10.502  20.152  1.00  0.00    -0.775 OA
HETATM   26  H56 UNL     1      12.846  10.171  20.408  1.00  0.00     0.167 HD
ENDBRANCH  23  25
ENDBRANCH  18  23
ENDBRANCH  15  18
ENDBRANCH  13  14
ENDBRANCH  12  13
ENDBRANCH  11  12
ENDBRANCH  10  11
ENDBRANCH   9  10
ENDBRANCH   6   9
ENDBRANCH   4   5
ENDBRANCH   3   4
ENDBRANCH   1   3
BRANCH   1  27
HETATM   27  O4  UNL     1       0.057  11.831  17.428  1.00  0.00    -0.314 OA
BRANCH  27  28
HETATM   28  C16 UNL     1       0.362  11.798  16.033  1.00  0.00     0.260 C 
BRANCH  28  29
HETATM   29  C17 UNL     1      -0.882  11.583  15.177  1.00  0.00     0.185 C 
HETATM   30  O5  UNL     1      -1.571  12.552  14.847  1.00  0.00    -0.292 OA
BRANCH  29  31
HETATM   31  C18 UNL     1      -1.161  10.148  14.644  1.00  0.00     0.128 C 
HETATM   32  C19 UNL     1      -0.113   9.135  15.178  1.00  0.00     0.047 C 
HETATM   33  C20 UNL     1      -0.835   7.785  15.317  1.00  0.00     0.009 C 
HETATM   34  C21 UNL     1      -2.262   8.039  14.829  1.00  0.00     0.002 C 
HETATM   35  C22 UNL     1      -3.354   7.093  15.367  1.00  0.00    -0.004 C 
HETATM   36  C35 UNL     1      -2.513   9.531  15.139  1.00  0.00    -0.002 C 
HETATM   37  C23 UNL     1      -3.156   5.675  14.786  1.00  0.00     0.010 C 
HETATM   38  C32 UNL     1      -4.793   7.689  15.126  1.00  0.00     0.002 C 
HETATM   39  C24 UNL     1      -3.987   5.429  13.535  1.00  0.00     0.035 C 
HETATM   40  C25 UNL     1      -5.462   5.619  13.778  1.00  0.00    -0.068 C 
HETATM   41  C26 UNL     1      -6.352   4.964  13.008  1.00  0.00     0.053 C 
HETATM   42  C30 UNL     1      -5.884   6.579  14.887  1.00  0.00    -0.016 C 
HETATM   43  C27 UNL     1      -7.817   5.136  13.176  1.00  0.00     0.149 C 
HETATM   44  O7  UNL     1      -8.583   4.440  12.513  1.00  0.00    -0.293 OA
HETATM   45  C28 UNL     1      -8.320   6.142  14.186  1.00  0.00     0.084 C 
HETATM   46  C29 UNL     1      -7.257   7.195  14.493  1.00  0.00     0.022 C 
HETATM   47  C31 UNL     1      -6.086   5.796  16.215  1.00  0.00     0.020 C 
HETATM   48  C33 UNL     1      -4.758   8.816  14.061  1.00  0.00     0.007 C 
HETATM   49  C34 UNL     1      -3.778   9.967  14.373  1.00  0.00     0.013 C 
HETATM   50  C36 UNL     1      -2.708   9.802  16.657  1.00  0.00     0.019 C 
BRANCH  31  51
HETATM   51  O6  UNL     1      -1.066  10.062  13.218  1.00  0.00    -0.381 OA
HETATM   52  H29 UNL     1      -1.383  10.906  12.844  1.00  0.00     0.211 HD
ENDBRANCH  31  51
ENDBRANCH  29  31
ENDBRANCH  28  29
ENDBRANCH  27  28
ENDBRANCH   1  27
TORSDOF 19
ENDMDL
